data_PCOD9407003
_publ_section_title
;
Structure prediction by ZEFSAII (Michael W. Deem and Ramdas Pophale) SiO2 
 PCOD9407003
Probable space group: P M M A
;
_chemical_formula_sum "Si O2"
_cell_formula_units_Z 58
_cell_length_a 16.201933
_cell_length_b 15.072843
_cell_length_c 13.062828
_cell_angle_alpha 90.000000
_cell_angle_beta 90.000000
_cell_angle_gamma 90.000000
_cell_volume 3190.062676
_symmetry_space_group_name_H-M "P M M A"
_symmetry_group_IT_number 51
_symmetry_cell_setting 'orthorhombic'
loop_
_space_group_symop_operation_xyz
x,y,z
1/2-x,-y,z
1/2+x,-y,-z
-x,y,-z
-x,-y,-z
1/2+x,y,-z
1/2-x,y,z
x,-y,z
loop_
_atom_site_type_symbol
_atom_site_label
_atom_site_fract_x
_atom_site_fract_y
_atom_site_fract_z
Si Si1 0.350878 0.396704 0.475364
Si Si2 0.849242 0.290680 0.319007
Si Si3 0.396411 0.639368 0.102169
Si Si4 0.607647 0.096758 0.605186
Si Si5 0.909719 0.098793 0.366892
Si Si6 0.346067 0.724939 0.289485
Si Si7 0.086578 0.601994 0.875875
Si Si8 0.750000 0.500000 0.860137
O O1 0.250000 0.396696 0.473431
O O2 0.376708 0.500000 0.480938
O O3 0.375951 0.338894 0.574522
O O4 0.379433 0.347795 0.371388
O O5 0.750000 0.291468 0.317676
O O6 0.879523 0.188846 0.314101
O O7 0.882494 0.347932 0.224253
O O8 0.390141 0.720855 0.180199
O O9 0.487358 0.600143 0.119863
O O10 0.323168 0.575401 0.136526
O O11 0.386500 0.651010 0.980542
O O12 0.509018 0.100865 0.623755
O O13 0.622527 0.103400 0.483726
O O14 0.645975 0.179663 0.660299
O O15 0.636911 0.000000 0.639899
O O16 0.886945 0.000000 0.326026
O O17 0.250000 0.706412 0.276710
O O18 0.117447 0.500000 0.880018
#
# Coordination Sequence:
#
# PCOD9407003 Si02
#       8
#     8   8   8   8   8   8   8   2
#     4   9  19  32  46  73 114 152 184 221 274 334
#     4  11  22  35  55  83 114 153 193 234 287 336
#     4  11  23  38  59  85 112 146 197 239 286 326
#     4   9  18  34  56  79 109 150 187 232 291 345
#     4   9  18  35  56  78 109 148 191 237 284 343
#     4  11  21  32  55  82 114 146 184 233 283 337
#     4  11  23  40  58  81 117 151 191 244 278 333
#     4  12  20  38  64  84 108 148 198 244 278 334
#
# _framework density 18.181460000000001
#
# number of rings (size 3 to 8) (size 9 to 14) (size 15 to 20)
#    0.000    1.793    3.448    2.483    1.931    1.379 
#    0.000    1.379    0.000    3.310    0.000    5.793 
#    0.000    0.000    0.000    0.000    0.000    0.000 
#
# Total GULP energy -322956.876500 kJ/mol
# GULP energy per Si atom -5568.222009 kJ/mol
# Density = 1.814008 g / cm^3
# Si number density = 18.181460 Si / 1000 Ang^3
#
#
#
# Elastic Constant Matrix: (Units=GPa)
#
#
# Indices 1 2 3 4 5 6 
#
# 1 25.4189 10.0079 17.2240 0.0000 0.0000 0.0000
# 2 10.0079 101.2837 58.0484 0.0000 0.0000 0.0000
# 3 17.2240 58.0484 105.7903 0.0000 0.0000 0.0000
# 4 0.0000 0.0000 0.0000 55.4179 0.0000 0.0000
# 5 0.0000 0.0000 0.0000 0.0000 19.5319 0.0000
# 6 0.0000 0.0000 0.0000 0.0000 0.0000 27.4540
#
#
#
# Elastic Compliance Matrix: (Units=1/GPa)
#
#
# Indices 1 2 3 4 5 6 
#
# 1 0.044228 -0.000355 -0.007006 0.000000 0.000000 0.000000
# 2 -0.000355 0.014405 -0.007847 0.000000 0.000000 0.000000
# 3 -0.007006 -0.007847 0.014899 0.000000 0.000000 0.000000
# 4 0.000000 0.000000 0.000000 0.018045 0.000000 0.000000
# 5 0.000000 0.000000 0.000000 0.000000 0.051198 0.000000
# 6 0.000000 0.000000 0.000000 0.000000 0.000000 0.036425
#
#
# Mechanical properties :
#
#
# Convention : Reuss Voigt Hill
#
# Bulk Modulus (GPa) = 23.19272 44.78372 33.98822
# Shear Modulus (GPa) = 22.32268 30.29493 26.30881
#
# Velocity S-wave (km/s) = 3.50776 4.08641 3.80809
# Velocity P-wave (km/s) = 5.40276 6.85200 6.17008
#
# Compressibility (1/GPa) = 0.04311697
#
# Stress axis : x y z
#
# Youngs Moduli (GPa) = 22.61020 69.41808 67.11897
#
# Poissons Ratio (x) = 0.02463 0.47025
# Poissons Ratio (y) = 0.00802 0.52666
# Poissons Ratio (z) = 0.15841 0.54470
#
# Static dielectric constant tensor:
#      x y z
#    x 1.643720 0.000000 0.000000 
#    y 0.000000 1.687680 0.000000 
#    z 0.000000 0.000000 1.635360 
# 
# From -- ./inp_files/17479.got.cif
#   From: 2010.05.17/outbox.cif.g08.bks.cpg/sg51_9_cif.got.tgz:17479.got - 2010.06.03 11:52:47.
