data_PCOD9407808
_publ_section_title
;
Structure prediction by ZEFSAII (Michael W. Deem and Ramdas Pophale) SiO2 
 PCOD9407808
Probable space group: P M M A
;
_chemical_formula_sum "Si O2"
_cell_formula_units_Z 64
_cell_length_a 30.000000
_cell_length_b 9.000000
_cell_length_c 12.000000
_cell_angle_alpha 90.000000
_cell_angle_beta 90.000000
_cell_angle_gamma 90.000000
_cell_volume 3240.000000
_symmetry_space_group_name_H-M "P M M A"
_symmetry_group_IT_number 51
_symmetry_cell_setting 'orthorhombic'
loop_
_space_group_symop_operation_xyz
x,y,z
1/2-x,-y,z
1/2+x,-y,-z
-x,y,-z
-x,-y,-z
1/2+x,y,-z
1/2-x,y,z
x,-y,z
loop_
_atom_site_type_symbol
_atom_site_label
_atom_site_fract_x
_atom_site_fract_y
_atom_site_fract_z
Si Si1 0.622895 0.173764 0.165960
Si Si2 0.300517 0.666354 0.723508
Si Si3 0.699329 0.822520 0.743444
Si Si4 0.833281 0.327148 0.519106
Si Si5 0.953090 0.328405 0.306086
Si Si6 0.926886 0.824125 0.520434
Si Si7 0.379734 0.821658 0.091098
Si Si8 0.449119 0.327397 0.245642
O O1 0.670183 0.209453 0.219642
O O2 0.587254 0.266191 0.235113
O O3 0.611975 0.000000 0.174103
O O4 0.623981 0.219093 0.037360
O O5 0.250000 0.673697 0.761094
O O6 0.318490 0.500000 0.749016
O O7 0.303014 0.681645 0.590175
O O8 0.750000 0.795051 0.779263
O O9 0.689091 0.736985 0.629536
O O10 0.663409 0.778640 0.836290
O O11 0.694391 0.000000 0.723190
O O12 0.845479 0.500000 0.535933
O O13 0.877080 0.231421 0.493452
O O14 0.945987 0.500000 0.336741
O O15 0.956829 0.236748 0.420141
O O16 0.997936 0.316309 0.235138
O O17 0.937299 0.752950 0.639141
O O18 0.929306 0.000000 0.526675
O O19 0.422281 0.748151 0.147413
O O20 0.383565 0.000000 0.098059
O O21 0.436797 0.500000 0.254433
#
# Coordination Sequence:
#
# PCOD9407808 Si02
#       8
#     8   8   8   8   8   8   8   8
#     4  11  24  41  63  90 120 161 209 256 307 358
#     4  10  22  40  62  89 124 164 202 248 305 362
#     4  10  21  38  61  89 122 161 203 248 300 358
#     4  11  21  36  61  91 124 161 199 242 299 364
#     4  11  24  42  63  90 124 161 202 248 303 364
#     4  12  23  37  62  94 126 159 197 244 303 365
#     4  10  23  42  62  87 122 162 205 255 305 358
#     4  11  24  41  64  92 122 160 202 247 303 365
#
# _framework density 19.753086
#
# number of rings (size 3 to 8) (size 9 to 14) (size 15 to 20)
#    0.000    1.250    2.500    3.375    0.000    7.000 
#    0.000    3.750    0.000    0.000    0.000    0.000 
#    0.000    0.000    0.000    0.000    0.000    0.000 
#
# Total GULP energy -357630.450233 kJ/mol
# GULP energy per Si atom -5587.975785 kJ/mol
# Density = 1.970813 g / cm^3
# Si number density = 19.753086 Si / 1000 Ang^3
#
#
#
# Elastic Constant Matrix: (Units=GPa)
#
#
# Indices 1 2 3 4 5 6 
#
# 1 53.5431 12.2386 25.6432 0.0000 0.0000 0.0000
# 2 12.2386 -16.4220 36.6220 0.0000 0.0000 0.0000
# 3 25.6432 36.6220 76.8301 0.0000 0.0000 0.0000
# 4 0.0000 0.0000 0.0000 38.6411 0.0000 0.0000
# 5 0.0000 0.0000 0.0000 0.0000 -171.8475 0.0000
# 6 0.0000 0.0000 0.0000 0.0000 0.0000 25.0118
#
#
#
# Elastic Compliance Matrix: (Units=1/GPa)
#
#
# Indices 1 2 3 4 5 6 
#
# 1 0.022230 0.000010 -0.007424 0.000000 0.000000 0.000000
# 2 0.000010 -0.029517 0.014066 0.000000 0.000000 0.000000
# 3 -0.007424 0.014066 0.008789 0.000000 0.000000 0.000000
# 4 0.000000 0.000000 0.000000 0.025879 0.000000 0.000000
# 5 0.000000 0.000000 0.000000 0.000000 -0.005819 0.000000
# 6 0.000000 0.000000 0.000000 0.000000 0.000000 0.039981
#
#
# Mechanical properties :
#
#
# Convention : Reuss Voigt Hill
#
# Bulk Modulus (GPa) = 67.54152 29.21762 48.37957
# Shear Modulus (GPa) = 94.03188 -19.00909 37.51140
#
# Velocity S-wave (km/s) = 6.90702 -3.10552 4.36250
# Velocity P-wave (km/s) = 9.89325 1.40162 7.06544
#
# Compressibility (1/GPa) = 0.01480571
#
# Stress axis : x y z
#
# Youngs Moduli (GPa) = 44.98433 -33.87834 113.78106
#
# Poissons Ratio (x) = 0.00034 0.84476
# Poissons Ratio (y) = -0.00046 -1.60049
# Poissons Ratio (z) = 0.33398 0.47655
#
# Static dielectric constant tensor:
#      x y z
#    x 1.721640 0.000000 0.000000 
#    y 0.000000 1.676580 0.000000 
#    z 0.000000 0.000000 1.658440 
# 
# From -- ./inp_files/19475.got.cif
#   From: 2010.05.17/outbox.ucp.g08.bks.cvg/sg51_10_cif.got.tgz:19475.got - 2010.06.11 16:27:58.
