data_PCOD9407196
_publ_section_title
;
Structure prediction by ZEFSAII (Michael W. Deem and Ramdas Pophale) SiO2 
 PCOD9407196
Probable space group: P M M A
;
_chemical_formula_sum "Si O2"
_cell_formula_units_Z 28
_cell_length_a 16.041441
_cell_length_b 11.169564
_cell_length_c 7.867628
_cell_angle_alpha 90.000000
_cell_angle_beta 90.000000
_cell_angle_gamma 90.000000
_cell_volume 1409.689343
_symmetry_space_group_name_H-M "P M M A"
_symmetry_group_IT_number 51
_symmetry_cell_setting 'orthorhombic'
loop_
_space_group_symop_operation_xyz
x,y,z
1/2-x,-y,z
1/2+x,-y,-z
-x,y,-z
-x,-y,-z
1/2+x,y,-z
1/2-x,y,z
x,-y,z
loop_
_atom_site_type_symbol
_atom_site_label
_atom_site_fract_x
_atom_site_fract_y
_atom_site_fract_z
Si Si1 0.000000 0.289004 0.000000
Si Si2 0.848589 0.131854 0.540374
Si Si3 0.654792 0.140025 0.132689
Si Si4 0.434049 0.371272 0.346926
O O1 0.980685 0.363727 0.832103
O O2 0.081823 0.210247 0.959957
O O3 0.750000 0.127516 0.571096
O O4 0.859770 0.146674 0.336703
O O5 0.883987 0.248072 0.631709
O O6 0.883946 0.000000 0.588670
O O7 0.750000 0.182606 0.099176
O O8 0.651676 0.000000 0.086250
O O9 0.500000 0.369981 0.500000
O O10 0.388038 0.500000 0.356973
#
# Coordination Sequence:
#
# PCOD9407196 Si02
#       4
#     4   8   8   8
#     4  12  22  38  64  90 119 170 209 254 309 376
#     4   9  19  39  65  91 122 161 207 259 310 367
#     4   9  19  36  59  92 129 161 204 261 315 371
#     4  11  24  41  60  87 123 161 203 253 307 368
#
# _framework density 19.862532999999999
#
# number of rings (size 3 to 8) (size 9 to 14) (size 15 to 20)
#    0.000    2.000    2.857    2.571    0.000    4.571 
#    0.000    2.857    0.000    2.571    0.000    0.000 
#    0.000    0.000    0.000    0.000    0.000    0.000 
#
# Total GULP energy -156228.494335 kJ/mol
# GULP energy per Si atom -5579.589083 kJ/mol
# Density = 1.981733 g / cm^3
# Si number density = 19.862533 Si / 1000 Ang^3
#
#
#
# Elastic Constant Matrix: (Units=GPa)
#
#
# Indices 1 2 3 4 5 6 
#
# 1 69.3024 63.6971 38.4403 0.0000 0.0000 0.0000
# 2 63.6971 168.1012 54.2196 0.0000 0.0000 0.0000
# 3 38.4403 54.2196 93.7907 0.0000 0.0000 0.0000
# 4 0.0000 0.0000 0.0000 -66.7455 0.0000 0.0000
# 5 0.0000 0.0000 0.0000 0.0000 30.9878 0.0000
# 6 0.0000 0.0000 0.0000 0.0000 0.0000 25.6493
#
#
#
# Elastic Compliance Matrix: (Units=1/GPa)
#
#
# Indices 1 2 3 4 5 6 
#
# 1 0.024409 -0.007403 -0.005725 0.000000 0.000000 0.000000
# 2 -0.007403 0.009557 -0.002491 0.000000 0.000000 0.000000
# 3 -0.005725 -0.002491 0.014448 0.000000 0.000000 0.000000
# 4 0.000000 0.000000 0.000000 -0.014982 0.000000 0.000000
# 5 0.000000 0.000000 0.000000 0.000000 0.032271 0.000000
# 6 0.000000 0.000000 0.000000 0.000000 0.000000 0.038987
#
#
# Mechanical properties :
#
#
# Convention : Reuss Voigt Hill
#
# Bulk Modulus (GPa) = 58.21435 71.54538 64.87987
# Shear Modulus (GPa) = 35.29771 9.63412 22.46592
#
# Velocity S-wave (km/s) = 4.22014 2.20475 3.36679
# Velocity P-wave (km/s) = 7.28823 6.52531 6.91730
#
# Compressibility (1/GPa) = 0.01717790
#
# Stress axis : x y z
#
# Youngs Moduli (GPa) = 40.96918 104.63284 69.21228
#
# Poissons Ratio (x) = 0.77455 0.39621
# Poissons Ratio (y) = 0.30328 0.17241
# Poissons Ratio (z) = 0.23453 0.26064
#
# Static dielectric constant tensor:
#      x y z
#    x 1.667160 0.000000 0.000000 
#    y 0.000000 1.731230 0.000000 
#    z 0.000000 0.000000 1.709620 
# 
# From -- ./inp_files/9092.got.cif
#   From: 2010.05.17/outbox.cif.g08.bks.cpg/sg51_5_cif.got.tgz:9092.got - 2010.06.03 11:52:47.
