data_PCOD9407550
_publ_section_title
;
Structure prediction by ZEFSAII (Michael W. Deem and Ramdas Pophale) SiO2 
 PCOD9407550
Probable space group: P M M A
;
_chemical_formula_sum "Si O2"
_cell_formula_units_Z 64
_cell_length_a 18.000000
_cell_length_b 9.000000
_cell_length_c 21.000000
_cell_angle_alpha 90.000000
_cell_angle_beta 90.000000
_cell_angle_gamma 90.000000
_cell_volume 3402.000000
_symmetry_space_group_name_H-M "P M M A"
_symmetry_group_IT_number 51
_symmetry_cell_setting 'orthorhombic'
loop_
_space_group_symop_operation_xyz
x,y,z
1/2-x,-y,z
1/2+x,-y,-z
-x,y,-z
-x,-y,-z
1/2+x,y,-z
1/2-x,y,z
x,-y,z
loop_
_atom_site_type_symbol
_atom_site_label
_atom_site_fract_x
_atom_site_fract_y
_atom_site_fract_z
Si Si1 0.331202 0.821705 0.364003
Si Si2 0.017185 0.830589 0.426542
Si Si3 0.164153 0.164507 0.018267
Si Si4 0.064382 0.328488 0.676863
Si Si5 0.666855 0.178287 0.233246
Si Si6 0.912044 0.826625 0.109509
Si Si7 0.909565 0.676432 0.750669
Si Si8 0.438109 0.673294 0.108220
O O1 0.250000 0.768308 0.384117
O O2 0.399018 0.781560 0.410333
O O3 0.352328 0.758868 0.294927
O O4 0.329588 0.000000 0.361056
O O5 0.000000 0.834294 0.500000
O O6 0.961387 0.720816 0.392096
O O7 0.008277 0.000000 0.400751
O O8 0.250000 0.164963 0.033277
O O9 0.122912 0.289522 0.056792
O O10 0.132772 0.000000 0.034508
O O11 0.150972 0.184407 0.943490
O O12 0.083997 0.500000 0.681275
O O13 0.130433 0.228480 0.701857
O O14 0.991131 0.301666 0.720230
O O15 0.750000 0.233269 0.226185
O O16 0.616497 0.237135 0.175812
O O17 0.667776 0.000000 0.228653
O O18 0.985612 0.746937 0.087253
O O19 0.929496 0.000000 0.118288
O O20 0.893706 0.500000 0.749812
O O21 0.912594 0.732170 0.822804
O O22 0.450570 0.500000 0.115868
#
# Coordination Sequence:
#
# PCOD9407550 Si02
#       8
#     8   8   8   8   8   8   8   8
#     4   9  18  32  52  79 107 135 174 222 265 306
#     4   9  18  34  56  80 108 145 185 221 264 315
#     4  10  22  39  55  74 103 138 178 224 273 323
#     4  10  19  34  54  77 108 141 176 216 262 316
#     4  10  20  34  55  82 108 137 176 222 272 322
#     4  10  20  36  58  79 102 136 179 224 270 322
#     4   9  19  34  51  73 103 138 172 209 259 315
#     4  11  22  36  54  78 107 138 176 219 267 326
#
# _framework density 18.812463000000001
#
# number of rings (size 3 to 8) (size 9 to 14) (size 15 to 20)
#    0.000    2.250    1.250    1.500    0.000    6.500 
#    0.000    3.125    0.000    4.500    0.000    0.000 
#    0.000    0.000    0.000    0.000    0.000    0.000 
#
# Total GULP energy -356604.118495 kJ/mol
# GULP energy per Si atom -5571.939351 kJ/mol
# Density = 1.876965 g / cm^3
# Si number density = 18.812463 Si / 1000 Ang^3
#
#
#
# Elastic Constant Matrix: (Units=GPa)
#
#
# Indices 1 2 3 4 5 6 
#
# 1 49.8760 22.7393 4.7973 0.0000 0.0000 0.0000
# 2 22.7393 1.2677 15.2693 0.0000 0.0000 0.0000
# 3 4.7973 15.2693 19.1322 0.0000 0.0000 0.0000
# 4 0.0000 0.0000 0.0000 11.8822 0.0000 0.0000
# 5 0.0000 0.0000 0.0000 0.0000 -1.8700 0.0000
# 6 0.0000 0.0000 0.0000 0.0000 0.0000-1009.8765
#
#
#
# Elastic Compliance Matrix: (Units=1/GPa)
#
#
# Indices 1 2 3 4 5 6 
#
# 1 0.012281 0.021270 -0.020055 0.000000 0.000000 0.000000
# 2 0.021270 -0.054747 0.038360 0.000000 0.000000 0.000000
# 3 -0.020055 0.038360 0.026682 0.000000 0.000000 0.000000
# 4 0.000000 0.000000 0.000000 0.084159 0.000000 0.000000
# 5 0.000000 0.000000 0.000000 0.000000 -0.534764 0.000000
# 6 0.000000 0.000000 0.000000 0.000000 0.000000 -0.000990
#
#
# Mechanical properties :
#
#
# Convention : Reuss Voigt Hill
#
# Bulk Modulus (GPa) = 15.78131 17.32086 16.55108
# Shear Modulus (GPa) = -9.51642 -198.14152 -103.82897
#
# Velocity S-wave (km/s) = -2.25157 -10.27391 -7.43716
# Velocity P-wave (km/s) = 1.28357 11.46781 8.05801
#
# Compressibility (1/GPa) = 0.06336610
#
# Stress axis : x y z
#
# Youngs Moduli (GPa) = 81.42514 -18.26583 37.47885
#
# Poissons Ratio (x) = 0.38852 0.75165
# Poissons Ratio (y) = -1.73195 -1.43769
# Poissons Ratio (z) = 1.63301 0.70068
#
# Static dielectric constant tensor:
#      x y z
#    x 1.651120 0.000000 0.000000 
#    y 0.000000 1.732650 0.000000 
#    z 0.000000 0.000000 1.664070 
# 
# From -- ./inp_files/33763.got.cif
#   From: 2010.05.17/outbox.ucp.g08.bks.cvg/sg51_17_cif.got.tgz:33763.got - 2010.06.11 16:27:58.
