data_PCOD9407438
_publ_section_title
;
Structure prediction by ZEFSAII (Michael W. Deem and Ramdas Pophale) SiO2 
 PCOD9407438
Probable space group: P M M A
;
_chemical_formula_sum "Si O2"
_cell_formula_units_Z 64
_cell_length_a 18.000000
_cell_length_b 9.000000
_cell_length_c 21.000000
_cell_angle_alpha 90.000000
_cell_angle_beta 90.000000
_cell_angle_gamma 90.000000
_cell_volume 3402.000000
_symmetry_space_group_name_H-M "P M M A"
_symmetry_group_IT_number 51
_symmetry_cell_setting 'orthorhombic'
loop_
_space_group_symop_operation_xyz
x,y,z
1/2-x,-y,z
1/2+x,-y,-z
-x,y,-z
-x,-y,-z
1/2+x,y,-z
1/2-x,y,z
x,-y,z
loop_
_atom_site_type_symbol
_atom_site_label
_atom_site_fract_x
_atom_site_fract_y
_atom_site_fract_z
Si Si1 0.411149 0.824191 0.827112
Si Si2 0.168234 0.681376 0.479790
Si Si3 0.065634 0.677604 0.593053
Si Si4 0.835408 0.319185 0.908415
Si Si5 0.838925 0.677677 0.050570
Si Si6 0.836476 0.170933 0.303660
Si Si7 0.433708 0.319660 0.211505
Si Si8 0.907064 0.319040 0.645005
O O1 0.382315 0.757511 0.893150
O O2 0.351715 0.800468 0.770649
O O3 0.485378 0.745253 0.802216
O O4 0.423501 0.000000 0.833845
O O5 0.250000 0.728653 0.501655
O O6 0.166672 0.500000 0.481241
O O7 0.104164 0.732911 0.528205
O O8 0.154254 0.725777 0.406662
O O9 0.059680 0.500000 0.586798
O O10 0.118282 0.720053 0.651489
O O11 0.984293 0.731111 0.612742
O O12 0.750000 0.271895 0.901692
O O13 0.835699 0.500000 0.908897
O O14 0.882515 0.271854 0.847649
O O15 0.862250 0.274513 0.979021
O O16 0.750000 0.704152 0.055787
O O17 0.850319 0.500000 0.055828
O O18 0.750000 0.183969 0.317267
O O19 0.860257 0.000000 0.316253
O O20 0.437231 0.500000 0.211634
O O21 0.404629 0.271616 0.281360
O O22 0.906745 0.500000 0.646870
#
# Coordination Sequence:
#
# PCOD9407438 Si02
#       8
#     8   8   8   8   8   8   8   8
#     4  11  22  35  51  73 106 140 171 210 257 308
#     4   9  17  28  45  74 107 135 166 209 259 302
#     4  10  18  31  51  75 102 132 167 207 252 303
#     4   8  16  32  54  79 104 131 168 216 265 306
#     4   9  18  34  55  77 102 134 172 213 257 307
#     4  10  21  35  50  70  99 134 168 204 249 297
#     4  10  19  33  54  78 103 135 175 215 255 303
#     4   9  17  29  47  72 103 136 169 208 252 300
#
# _framework density 18.812463000000001
#
# number of rings (size 3 to 8) (size 9 to 14) (size 15 to 20)
#    0.000    2.500    1.250    2.250    0.000    4.500 
#    0.000    5.625    0.000    3.375    0.000    0.000 
#    0.000    0.000    0.000    0.000    0.000    0.000 
#
# Total GULP energy -356717.913142 kJ/mol
# GULP energy per Si atom -5573.717393 kJ/mol
# Density = 1.876965 g / cm^3
# Si number density = 18.812463 Si / 1000 Ang^3
#
#
#
# Elastic Constant Matrix: (Units=GPa)
#
#
# Indices 1 2 3 4 5 6 
#
# 1 21.1692 0.5671 16.1203 0.0000 0.0000 0.0000
# 2 0.5671 -2.9806 7.7960 0.0000 0.0000 0.0000
# 3 16.1203 7.7960 122.0481 0.0000 0.0000 0.0000
# 4 0.0000 0.0000 0.0000 3.4215 0.0000 0.0000
# 5 0.0000 0.0000 0.0000 0.0000 35.2740 0.0000
# 6 0.0000 0.0000 0.0000 0.0000 0.0000 2.0833
#
#
#
# Elastic Compliance Matrix: (Units=1/GPa)
#
#
# Indices 1 2 3 4 5 6 
#
# 1 0.052352 -0.006962 -0.006470 0.000000 0.000000 0.000000
# 2 -0.006962 -0.286551 0.019223 0.000000 0.000000 0.000000
# 3 -0.006470 0.019223 0.007820 0.000000 0.000000 0.000000
# 4 0.000000 0.000000 0.000000 0.292273 0.000000 0.000000
# 5 0.000000 0.000000 0.000000 0.000000 0.028349 0.000000
# 6 0.000000 0.000000 0.000000 0.000000 0.000000 0.479996
#
#
# Mechanical properties :
#
#
# Convention : Reuss Voigt Hill
#
# Bulk Modulus (GPa) = -4.65557 21.02260 8.18352
# Shear Modulus (GPa) = 10.18210 15.87266 13.02738
#
# Velocity S-wave (km/s) = 2.32898 2.90786 2.63437
# Velocity P-wave (km/s) = 2.17994 4.74060 3.68954
#
# Compressibility (1/GPa) = -0.21479661
#
# Stress axis : x y z
#
# Youngs Moduli (GPa) = 19.10153 -3.48978 127.87502
#
# Poissons Ratio (x) = -0.02430 0.82735
# Poissons Ratio (y) = 0.13299 -2.45819
# Poissons Ratio (z) = 0.12359 0.06709
#
# Static dielectric constant tensor:
#      x y z
#    x 1.665620 0.000000 0.000000 
#    y 0.000000 1.630590 0.000000 
#    z 0.000000 0.000000 1.659010 
# 
# From -- ./inp_files/33977.got.cif
#   From: 2010.05.17/outbox.ucp.g08.bks.cvg/sg51_17_cif.got.tgz:33977.got - 2010.06.11 16:27:58.
