data_PCOD9407459
_publ_section_title
;
Structure prediction by ZEFSAII (Michael W. Deem and Ramdas Pophale) SiO2 
 PCOD9407459
Probable space group: P M M A
;
_chemical_formula_sum "Si O2"
_cell_formula_units_Z 56
_cell_length_a 9.000000
_cell_length_b 21.000000
_cell_length_c 15.000000
_cell_angle_alpha 90.000000
_cell_angle_beta 90.000000
_cell_angle_gamma 90.000000
_cell_volume 2835.000000
_symmetry_space_group_name_H-M "P M M A"
_symmetry_group_IT_number 51
_symmetry_cell_setting 'orthorhombic'
loop_
_space_group_symop_operation_xyz
x,y,z
1/2-x,-y,z
1/2+x,-y,-z
-x,y,-z
-x,-y,-z
1/2+x,y,-z
1/2-x,y,z
x,-y,z
loop_
_atom_site_type_symbol
_atom_site_label
_atom_site_fract_x
_atom_site_fract_y
_atom_site_fract_z
Si Si1 0.926927 0.620933 0.908129
Si Si2 0.420508 0.199184 0.341028
Si Si3 0.927868 0.429183 0.266625
Si Si4 0.425092 0.895789 0.911133
Si Si5 0.920425 0.232238 0.868387
Si Si6 0.428966 0.928849 0.710116
Si Si7 0.572688 0.323395 0.409623
O O1 0.750000 0.615652 0.911566
O O2 0.963211 0.695972 0.892328
O O3 0.991762 0.581685 0.826477
O O4 0.000000 0.600377 0.000000
O O5 0.250000 0.197417 0.372004
O O6 0.421138 0.222701 0.238116
O O7 0.492263 0.129140 0.340190
O O8 0.513115 0.252486 0.392027
O O9 0.750000 0.424858 0.253817
O O10 0.960799 0.500000 0.302165
O O11 0.972300 0.371818 0.331489
O O12 0.250000 0.903770 0.918434
O O13 0.470165 0.821398 0.905019
O O14 0.472019 0.923860 0.815233
O O15 0.500000 0.922441 0.000000
O O16 0.750000 0.220344 0.899050
O O17 0.250000 0.920491 0.706109
O O18 0.465497 0.000000 0.678156
O O19 0.500000 0.347294 0.500000
O O20 0.750000 0.322640 0.415474
#
# Coordination Sequence:
#
# PCOD9407459 Si02
#       7
#     8   8   8   8   8   8   8
#     4  11  22  36  56  84 117 158 205 251 300 352
#     4  10  19  35  59  87 118 149 191 243 293 348
#     4  10  23  43  64  88 121 160 201 246 297 353
#     4  10  19  29  44  68 101 143 191 242 295 346
#     4   9  18  32  51  76 107 144 189 242 295 346
#     4   9  19  35  53  76 109 152 198 240 291 355
#     4  11  23  40  66  96 125 156 193 239 295 357
#
# _framework density 19.753086
#
# number of rings (size 3 to 8) (size 9 to 14) (size 15 to 20)
#    0.000    2.000    1.429    2.143    0.000    5.429 
#    0.000    0.000    0.000    0.429    0.000    0.000 
#    0.000    0.000    0.000    0.000    0.000    0.000 
#
# Total GULP energy -312737.422951 kJ/mol
# GULP energy per Si atom -5584.596838 kJ/mol
# Density = 1.970813 g / cm^3
# Si number density = 19.753086 Si / 1000 Ang^3
#
#
#
# Elastic Constant Matrix: (Units=GPa)
#
#
# Indices 1 2 3 4 5 6 
#
# 1 38.6805 41.0839 28.9199 0.0000 0.0000 0.0000
# 2 41.0839 109.8944 32.2850 0.0000 0.0000 0.0000
# 3 28.9199 32.2850 64.5251 0.0000 0.0000 0.0000
# 4 0.0000 0.0000 0.0000 -4.3308 0.0000 0.0000
# 5 0.0000 0.0000 0.0000 0.0000 27.2256 0.0000
# 6 0.0000 0.0000 0.0000 0.0000 0.0000 -3.4836
#
#
#
# Elastic Compliance Matrix: (Units=1/GPa)
#
#
# Indices 1 2 3 4 5 6 
#
# 1 0.055058 -0.015631 -0.016855 0.000000 0.000000 0.000000
# 2 -0.015631 0.015106 -0.000552 0.000000 0.000000 0.000000
# 3 -0.016855 -0.000552 0.023329 0.000000 0.000000 0.000000
# 4 0.000000 0.000000 0.000000 -0.230904 0.000000 0.000000
# 5 0.000000 0.000000 0.000000 0.000000 0.036730 0.000000
# 6 0.000000 0.000000 0.000000 0.000000 0.000000 -0.287058
#
#
# Mechanical properties :
#
#
# Convention : Reuss Voigt Hill
#
# Bulk Modulus (GPa) = 36.47780 46.40861 41.44320
# Shear Modulus (GPa) = -15.99875 11.26966 -2.36455
#
# Velocity S-wave (km/s) = -2.84903 2.39116 -1.09529
# Velocity P-wave (km/s) = 2.77207 5.58291 4.40757
#
# Compressibility (1/GPa) = 0.02741394
#
# Stress axis : x y z
#
# Youngs Moduli (GPa) = 18.16278 66.20047 42.86579
#
# Poissons Ratio (x) = 1.03481 0.72252
# Poissons Ratio (y) = 0.28391 0.02367
# Poissons Ratio (z) = 0.30614 0.03655
#
# Static dielectric constant tensor:
#      x y z
#    x 1.659980 0.000000 0.000000 
#    y 0.000000 1.684040 0.000000 
#    z 0.000000 0.000000 1.720880 
# 
# From -- ./inp_files/21747.got.cif
#   From: 2010.05.17/outbox.ucp.g08.bks.cvg/sg51_11_cif.got.tgz:21747.got - 2010.06.11 16:27:58.
