data_PCOD9407548
_publ_section_title
;
Structure prediction by ZEFSAII (Michael W. Deem and Ramdas Pophale) SiO2 
 PCOD9407548
Probable space group: P M M A
;
_chemical_formula_sum "Si O2"
_cell_formula_units_Z 64
_cell_length_a 18.000000
_cell_length_b 15.000000
_cell_length_c 12.000000
_cell_angle_alpha 90.000000
_cell_angle_beta 90.000000
_cell_angle_gamma 90.000000
_cell_volume 3240.000000
_symmetry_space_group_name_H-M "P M M A"
_symmetry_group_IT_number 51
_symmetry_cell_setting 'orthorhombic'
loop_
_space_group_symop_operation_xyz
x,y,z
1/2-x,-y,z
1/2+x,-y,-z
-x,y,-z
-x,-y,-z
1/2+x,y,-z
1/2-x,y,z
x,-y,z
loop_
_atom_site_type_symbol
_atom_site_label
_atom_site_fract_x
_atom_site_fract_y
_atom_site_fract_z
Si Si1 0.586073 0.404858 0.033485
Si Si2 0.164183 0.781664 0.534771
Si Si3 0.107969 0.902123 0.351404
Si Si4 0.559625 0.105688 0.307198
Si Si5 0.073951 0.207105 0.924329
Si Si6 0.664214 0.639973 0.806863
Si Si7 0.665096 0.152787 0.873874
Si Si8 0.840800 0.599257 0.558048
O O1 0.604231 0.500000 0.090042
O O2 0.599716 0.310092 0.094105
O O3 0.500000 0.405817 0.000000
O O4 0.627026 0.401226 0.914912
O O5 0.250000 0.778442 0.567490
O O6 0.155954 0.828671 0.414191
O O7 0.118785 0.843000 0.618001
O O8 0.134696 0.681149 0.518873
O O9 0.121956 0.901433 0.219426
O O10 0.020858 0.884713 0.364523
O O11 0.126291 0.000000 0.396977
O O12 0.558711 0.154488 0.188096
O O13 0.574343 0.000000 0.296225
O O14 0.132154 0.155787 0.002828
O O15 0.000000 0.211691 0.000000
O O16 0.750000 0.613168 0.805942
O O17 0.660014 0.745559 0.828943
O O18 0.633207 0.615049 0.685687
O O19 0.750000 0.124247 0.874988
O O20 0.750000 0.604051 0.560510
O O21 0.861897 0.500000 0.521931
#
# Coordination Sequence:
#
# PCOD9407548 Si02
#       8
#     8   8   8   8   8   8   8   8
#     4   9  18  30  48  79 115 148 186 231 285 344
#     4  11  23  40  61  87 121 154 193 246 297 348
#     4  11  22  38  61  87 115 151 195 245 302 355
#     4  11  25  42  61  83 113 160 208 243 291 365
#     4  10  20  38  60  81 113 156 196 236 292 351
#     4   9  16  29  51  81 115 148 183 227 283 346
#     4  10  19  33  56  89 120 147 189 245 295 340
#     4   9  17  31  56  88 118 150 187 230 288 351
#
# _framework density 19.753086
#
# number of rings (size 3 to 8) (size 9 to 14) (size 15 to 20)
#    0.000    2.000    2.500    1.500    0.000    4.750 
#    0.000    0.625    0.000    1.500    0.000    0.000 
#    0.000    0.000    0.000    0.000    0.000    0.000 
#
# Total GULP energy -356922.659769 kJ/mol
# GULP energy per Si atom -5576.916559 kJ/mol
# Density = 1.970813 g / cm^3
# Si number density = 19.753086 Si / 1000 Ang^3
#
#
#
# Elastic Constant Matrix: (Units=GPa)
#
#
# Indices 1 2 3 4 5 6 
#
# 1 47.6275 24.0658 5.5278 0.0000 0.0000 0.0000
# 2 24.0658 106.9435 20.6313 0.0000 0.0000 0.0000
# 3 5.5278 20.6313 33.5937 0.0000 0.0000 0.0000
# 4 0.0000 0.0000 0.0000 19.2748 0.0000 0.0000
# 5 0.0000 0.0000 0.0000 0.0000 23.9981 0.0000
# 6 0.0000 0.0000 0.0000 0.0000 0.0000 13.6171
#
#
#
# Elastic Compliance Matrix: (Units=1/GPa)
#
#
# Indices 1 2 3 4 5 6 
#
# 1 0.023705 -0.005198 -0.000708 0.000000 0.000000 0.000000
# 2 -0.005198 0.011747 -0.006359 0.000000 0.000000 0.000000
# 3 -0.000708 -0.006359 0.033789 0.000000 0.000000 0.000000
# 4 0.000000 0.000000 0.000000 0.051881 0.000000 0.000000
# 5 0.000000 0.000000 0.000000 0.000000 0.041670 0.000000
# 6 0.000000 0.000000 0.000000 0.000000 0.000000 0.073437
#
#
# Mechanical properties :
#
#
# Convention : Reuss Voigt Hill
#
# Bulk Modulus (GPa) = 22.36591 32.06827 27.21709
# Shear Modulus (GPa) = 18.13803 20.57399 19.35601
#
# Velocity S-wave (km/s) = 3.03353 3.23082 3.13373
# Velocity P-wave (km/s) = 4.85974 5.49431 5.18674
#
# Compressibility (1/GPa) = 0.04471090
#
# Stress axis : x y z
#
# Youngs Moduli (GPa) = 42.18546 85.12688 29.59501
#
# Poissons Ratio (x) = 0.44246 0.02097
# Poissons Ratio (y) = 0.21927 0.18820
# Poissons Ratio (z) = 0.02989 0.54133
#
# Static dielectric constant tensor:
#      x y z
#    x 1.691370 0.000000 0.000000 
#    y 0.000000 1.748340 0.000000 
#    z 0.000000 0.000000 1.684930 
# 
# From -- ./inp_files/17614.got.cif
#   From: 2010.05.17/outbox.ucp.g08.bks.cvg/sg51_9_cif.got.tgz:17614.got - 2010.06.11 16:27:58.
