data_PCOD9407142
_publ_section_title
;
Structure prediction by ZEFSAII (Michael W. Deem and Ramdas Pophale) SiO2 
 PCOD9407142
Probable space group: P M M A
;
_chemical_formula_sum "Si O2"
_cell_formula_units_Z 64
_cell_length_a 13.984002
_cell_length_b 7.775302
_cell_length_c 24.354661
_cell_angle_alpha 90.000000
_cell_angle_beta 90.000000
_cell_angle_gamma 90.000000
_cell_volume 2648.078363
_symmetry_space_group_name_H-M "P M M A"
_symmetry_group_IT_number 51
_symmetry_cell_setting 'orthorhombic'
loop_
_space_group_symop_operation_xyz
x,y,z
1/2-x,-y,z
1/2+x,-y,-z
-x,y,-z
-x,-y,-z
1/2+x,y,-z
1/2-x,y,z
x,-y,z
loop_
_atom_site_type_symbol
_atom_site_label
_atom_site_fract_x
_atom_site_fract_y
_atom_site_fract_z
Si Si1 0.947432 0.200466 0.243260
Si Si2 0.859123 0.290961 0.714055
Si Si3 0.565193 0.791428 0.125830
Si Si4 0.133358 0.300118 0.407832
Si Si5 0.149079 0.803140 0.107434
Si Si6 0.142649 0.296052 0.643094
Si Si7 0.134076 0.705494 0.526263
Si Si8 0.386434 0.695043 0.990923
O O1 0.061873 0.226600 0.243892
O O2 0.903669 0.267566 0.186304
O O3 0.910955 0.276389 0.300008
O O4 0.925758 0.000000 0.245779
O O5 0.750000 0.238515 0.725287
O O6 0.861184 0.500000 0.712989
O O7 0.887602 0.227295 0.652457
O O8 0.455127 0.725688 0.119807
O O9 0.626411 0.740897 0.072782
O O10 0.561596 0.000000 0.125331
O O11 0.250000 0.303875 0.409492
O O12 0.100740 0.500000 0.406327
O O13 0.103027 0.223903 0.466755
O O14 0.250000 0.723121 0.126831
O O15 0.147162 0.000000 0.127104
O O16 0.152596 0.804648 0.040942
O O17 0.250000 0.224994 0.649611
O O18 0.150133 0.500000 0.633809
O O19 0.098766 0.228735 0.585555
O O20 0.250000 0.724888 0.529255
O O21 0.115169 0.500000 0.522519
O O22 0.356159 0.500000 0.000189
O O23 0.500000 0.706363 0.000000
#
# Coordination Sequence:
#
# PCOD9407142 Si02
#       8
#     8   8   8   8   8   8   8   8
#     4  11  23  36  52  75 105 143 182 220 261 305
#     4   9  18  33  53  76 103 137 176 218 263 312
#     4   9  19  35  52  70  96 135 179 211 237 281
#     4   7  10  20  42  71  98 123 158 208 262 312
#     4   9  17  31  53  78 102 129 162 201 242 286
#     4   9  18  34  56  78  99 127 168 221 276 325
#     4   7  10  20  43  73  97 118 154 209 268 318
#     4   9  17  30  50  75 100 124 150 187 238 287
#
# _framework density 24.168469999999999
#
# number of rings (size 3 to 8) (size 9 to 14) (size 15 to 20)
#    0.000    3.250    0.000    3.000    0.000    3.750 
#    0.000    2.500    0.000    5.250    0.000    3.500 
#    0.000    0.000    0.000    0.000    0.000    0.000 
#
# Total GULP energy -356844.967542 kJ/mol
# GULP energy per Si atom -5575.702618 kJ/mol
# Density = 2.411346 g / cm^3
# Si number density = 24.168470 Si / 1000 Ang^3
#
#
#
# Elastic Constant Matrix: (Units=GPa)
#
#
# Indices 1 2 3 4 5 6 
#
# 1 55.6646 -6.2759 4.7701 0.0000 0.0000 0.0000
# 2 -6.2759 35.7973 -0.9327 0.0000 0.0000 0.0000
# 3 4.7701 -0.9327 149.0371 0.0000 0.0000 0.0000
# 4 0.0000 0.0000 0.0000 12.0491 0.0000 0.0000
# 5 0.0000 0.0000 0.0000 0.0000 31.4008 0.0000
# 6 0.0000 0.0000 0.0000 0.0000 0.0000 8.1611
#
#
#
# Elastic Compliance Matrix: (Units=1/GPa)
#
#
# Indices 1 2 3 4 5 6 
#
# 1 0.018375 0.003207 -0.000568 0.000000 0.000000 0.000000
# 2 0.003207 0.028499 0.000076 0.000000 0.000000 0.000000
# 3 -0.000568 0.000076 0.006728 0.000000 0.000000 0.000000
# 4 0.000000 0.000000 0.000000 0.082994 0.000000 0.000000
# 5 0.000000 0.000000 0.000000 0.000000 0.031846 0.000000
# 6 0.000000 0.000000 0.000000 0.000000 0.000000 0.122533
#
#
# Mechanical properties :
#
#
# Convention : Reuss Voigt Hill
#
# Bulk Modulus (GPa) = 16.94018 26.18022 21.56020
# Shear Modulus (GPa) = 16.38144 26.51804 21.44974
#
# Velocity S-wave (km/s) = 2.60629 3.31602 2.98234
# Velocity P-wave (km/s) = 4.01016 5.05146 4.56063
#
# Compressibility (1/GPa) = 0.05903125
#
# Stress axis : x y z
#
# Youngs Moduli (GPa) = 54.42194 35.08867 148.62393
#
# Poissons Ratio (x) = -0.11252 0.08443
# Poissons Ratio (y) = -0.17451 -0.01125
# Poissons Ratio (z) = 0.03091 -0.00266
#
# Static dielectric constant tensor:
#      x y z
#    x 1.996390 0.000000 0.000000 
#    y 0.000000 1.891480 0.000000 
#    z 0.000000 0.000000 1.974430 
# 
# From -- ./inp_files/35720.got.cif
#   From: 2010.05.17/outbox.cif.g08.bks.cpg/sg51_18_cif.got.tgz:35720.got - 2010.06.03 11:52:47.
