data_PCOD9407708
_publ_section_title
;
Structure prediction by ZEFSAII (Michael W. Deem and Ramdas Pophale) SiO2 
 PCOD9407708
Probable space group: P M M A
;
_chemical_formula_sum "Si O2"
_cell_formula_units_Z 48
_cell_length_a 9.000000
_cell_length_b 30.000000
_cell_length_c 9.000000
_cell_angle_alpha 90.000000
_cell_angle_beta 90.000000
_cell_angle_gamma 90.000000
_cell_volume 2430.000000
_symmetry_space_group_name_H-M "P M M A"
_symmetry_group_IT_number 51
_symmetry_cell_setting 'orthorhombic'
loop_
_space_group_symop_operation_xyz
x,y,z
1/2-x,-y,z
1/2+x,-y,-z
-x,y,-z
-x,-y,-z
1/2+x,y,-z
1/2-x,y,z
x,-y,z
loop_
_atom_site_type_symbol
_atom_site_label
_atom_site_fract_x
_atom_site_fract_y
_atom_site_fract_z
Si Si1 0.572831 0.233797 0.343714
Si Si2 0.925648 0.000000 0.156337
Si Si3 0.072096 0.583896 0.846606
Si Si4 0.427001 0.836908 0.155497
Si Si5 0.428135 0.086799 0.656809
Si Si6 0.573925 0.338579 0.348904
Si Si7 0.927539 0.500000 0.343968
O O1 0.500000 0.218918 0.500000
O O2 0.750000 0.224930 0.343767
O O3 0.490545 0.210181 0.208783
O O4 0.546334 0.286426 0.331216
O O5 0.964511 0.044464 0.243007
O O6 0.750000 0.000000 0.137941
O O7 0.000000 0.000000 0.000000
O O8 0.250000 0.584238 0.859376
O O9 0.020908 0.631556 0.786052
O O10 0.026977 0.544916 0.737107
O O11 0.000000 0.573442 0.000000
O O12 0.250000 0.837663 0.147977
O O13 0.491577 0.870669 0.275806
O O14 0.500000 0.849592 0.000000
O O15 0.500000 0.077680 0.500000
O O16 0.250000 0.093007 0.649714
O O17 0.500000 0.354430 0.500000
O O18 0.750000 0.344463 0.363583
O O19 0.750000 0.500000 0.352341
O O20 0.000000 0.500000 0.500000
#
# Coordination Sequence:
#
# PCOD9407708 Si02
#       7
#     8   4   8   8   8   8   4
#     4  10  20  37  59  84 113 148 188 234 282 335
#     4  10  23  40  62  90 122 156 193 236 285 336
#     4  10  21  36  53  79 111 144 181 225 273 328
#     4  12  25  41  60  85 116 152 191 237 288 341
#     4  11  23  41  63  90 120 155 196 238 283 336
#     4   9  19  35  56  81 110 143 185 229 274 328
#     4  10  21  36  56  80 108 140 181 226 272 326
#
# _framework density 19.753086
#
# number of rings (size 3 to 8) (size 9 to 14) (size 15 to 20)
#    0.000    1.667    0.000    4.500    0.000    5.333 
#    0.000    1.667    0.000    0.000    0.000    0.000 
#    0.000    0.000    0.000    0.000    0.000    0.000 
#
# Total GULP energy -267896.955737 kJ/mol
# GULP energy per Si atom -5581.186578 kJ/mol
# Density = 1.970813 g / cm^3
# Si number density = 19.753086 Si / 1000 Ang^3
#
#
#
# Elastic Constant Matrix: (Units=GPa)
#
#
# Indices 1 2 3 4 5 6 
#
# 1 32.5316 58.1770 44.5478 0.0000 0.0000 0.0000
# 2 58.1770 57.1297 55.1560 0.0000 0.0000 0.0000
# 3 44.5478 55.1560 126.8595 0.0000 0.0000 0.0000
# 4 0.0000 0.0000 0.0000 58.0996 0.0000 0.0000
# 5 0.0000 0.0000 0.0000 0.0000 31.6883 0.0000
# 6 0.0000 0.0000 0.0000 0.0000 0.0000 42.0854
#
#
#
# Elastic Compliance Matrix: (Units=1/GPa)
#
#
# Indices 1 2 3 4 5 6 
#
# 1 -0.035031 0.041012 -0.005530 0.000000 0.000000 0.000000
# 2 0.041012 -0.017847 -0.006642 0.000000 0.000000 0.000000
# 3 -0.005530 -0.006642 0.012712 0.000000 0.000000 0.000000
# 4 0.000000 0.000000 0.000000 0.017212 0.000000 0.000000
# 5 0.000000 0.000000 0.000000 0.000000 0.031557 0.000000
# 6 0.000000 0.000000 0.000000 0.000000 0.000000 0.023761
#
#
# Mechanical properties :
#
#
# Convention : Reuss Voigt Hill
#
# Bulk Modulus (GPa) = 57.09576 59.14251 58.11913
# Shear Modulus (GPa) = -256.71163 30.28399 -113.21382
#
# Velocity S-wave (km/s) = -11.41238 3.91976 -7.57885
# Velocity P-wave (km/s) = 12.02868 7.10577 6.86284
#
# Compressibility (1/GPa) = 0.01751444
#
# Stress axis : x y z
#
# Youngs Moduli (GPa) = -28.54615 -56.03167 78.66320
#
# Poissons Ratio (x) = 2.29797 0.43499
# Poissons Ratio (y) = 1.17073 0.52249
# Poissons Ratio (z) = -0.15785 -0.37217
#
# Static dielectric constant tensor:
#      x y z
#    x 1.642630 0.000000 0.000000 
#    y 0.000000 1.645010 0.000000 
#    z 0.000000 0.000000 1.650010 
# 
# From -- ./inp_files/6114.got.cif
#   From: 2010.05.17/outbox.ucp.g08.bks.cvg/sg51_4_cif.got.tgz:6114.got - 2010.06.11 16:27:58.
