data_PCOD9407594
_publ_section_title
;
Structure prediction by ZEFSAII (Michael W. Deem and Ramdas Pophale) SiO2 
 PCOD9407594
Probable space group: P M M A
;
_chemical_formula_sum "Si O2"
_cell_formula_units_Z 64
_cell_length_a 21.000000
_cell_length_b 9.000000
_cell_length_c 18.000000
_cell_angle_alpha 90.000000
_cell_angle_beta 90.000000
_cell_angle_gamma 90.000000
_cell_volume 3402.000000
_symmetry_space_group_name_H-M "P M M A"
_symmetry_group_IT_number 51
_symmetry_cell_setting 'orthorhombic'
loop_
_space_group_symop_operation_xyz
x,y,z
1/2-x,-y,z
1/2+x,-y,-z
-x,y,-z
-x,-y,-z
1/2+x,y,-z
1/2-x,y,z
x,-y,z
loop_
_atom_site_type_symbol
_atom_site_label
_atom_site_fract_x
_atom_site_fract_y
_atom_site_fract_z
Si Si1 0.819603 0.319785 0.987477
Si Si2 0.413141 0.820962 0.720092
Si Si3 0.175374 0.821181 0.583648
Si Si4 0.326509 0.332732 0.431932
Si Si5 0.178105 0.678452 0.838049
Si Si6 0.822107 0.178841 0.723127
Si Si7 0.455022 0.321794 0.069943
Si Si8 0.456873 0.178534 0.220687
O O1 0.750000 0.266567 0.960789
O O2 0.819060 0.500000 0.982982
O O3 0.825932 0.283804 0.074720
O O4 0.882907 0.269251 0.946359
O O5 0.371664 0.774488 0.649225
O O6 0.375613 0.756444 0.790416
O O7 0.487597 0.776736 0.721603
O O8 0.411060 0.000000 0.723398
O O9 0.250000 0.782990 0.598655
O O10 0.153276 0.744734 0.507760
O O11 0.173018 0.000000 0.575694
O O12 0.250000 0.343500 0.437676
O O13 0.351719 0.500000 0.422551
O O14 0.336826 0.231035 0.360470
O O15 0.250000 0.718804 0.812691
O O16 0.171863 0.500000 0.832118
O O17 0.750000 0.232238 0.743195
O O18 0.884429 0.233248 0.767120
O O19 0.820358 0.000000 0.726830
O O20 0.454636 0.500000 0.081710
O O21 0.479567 0.239654 0.142086
O O22 0.500000 0.292613 0.000000
O O23 0.454218 0.000000 0.220416
#
# Coordination Sequence:
#
# PCOD9407594 Si02
#       8
#     8   8   8   8   8   8   8   8
#     4   8  15  29  48  70  95 122 156 200 248 298
#     4  10  20  33  48  69 101 137 170 206 246 291
#     4   9  17  30  49  72  98 131 167 197 232 285
#     4   9  17  30  51  79 105 127 159 205 249 290
#     4   9  17  30  50  74  99 130 167 205 246 293
#     4   9  18  35  57  76  98 132 170 208 254 307
#     4  10  20  34  53  74  96 128 168 205 246 301
#     4  10  22  37  52  74 102 131 167 210 255 301
#
# _framework density 18.812463000000001
#
# number of rings (size 3 to 8) (size 9 to 14) (size 15 to 20)
#    0.000    2.750    0.000    2.250    0.000    5.500 
#    0.000    2.500    0.000    4.500    0.000    0.000 
#    0.000    0.000    0.000    0.000    0.000    0.000 
#
# Total GULP energy -356514.114620 kJ/mol
# GULP energy per Si atom -5570.533041 kJ/mol
# Density = 1.876965 g / cm^3
# Si number density = 18.812463 Si / 1000 Ang^3
#
#
#
# Elastic Constant Matrix: (Units=GPa)
#
#
# Indices 1 2 3 4 5 6 
#
# 1 93.0998 9.7818 29.0243 0.0000 0.0000 0.0000
# 2 9.7818 -12.5408 -1.4441 0.0000 0.0000 0.0000
# 3 29.0243 -1.4441 48.9918 0.0000 0.0000 0.0000
# 4 0.0000 0.0000 0.0000 21.7163 0.0000 0.0000
# 5 0.0000 0.0000 0.0000 0.0000 16.5577 0.0000
# 6 0.0000 0.0000 0.0000 0.0000 0.0000 14.4620
#
#
#
# Elastic Compliance Matrix: (Units=1/GPa)
#
#
# Indices 1 2 3 4 5 6 
#
# 1 0.011779 0.009957 -0.006685 0.000000 0.000000 0.000000
# 2 0.009957 -0.071053 -0.007993 0.000000 0.000000 0.000000
# 3 -0.006685 -0.007993 0.024136 0.000000 0.000000 0.000000
# 4 0.000000 0.000000 0.000000 0.046048 0.000000 0.000000
# 5 0.000000 0.000000 0.000000 0.000000 0.060395 0.000000
# 6 0.000000 0.000000 0.000000 0.000000 0.000000 0.069147
#
#
# Mechanical properties :
#
#
# Convention : Reuss Voigt Hill
#
# Bulk Modulus (GPa) = -22.43202 22.69722 0.13260
# Shear Modulus (GPa) = 37.02773 16.69313 26.86043
#
# Velocity S-wave (km/s) = 4.44132 2.98206 3.78272
# Velocity P-wave (km/s) = 3.78820 4.89368 4.37599
#
# Compressibility (1/GPa) = -0.04457913
#
# Stress axis : x y z
#
# Youngs Moduli (GPa) = 84.89715 -14.07404 41.43153
#
# Poissons Ratio (x) = 0.14014 0.27696
# Poissons Ratio (y) = -0.84535 0.33118
# Poissons Ratio (z) = 0.56751 -0.11250
#
# Static dielectric constant tensor:
#      x y z
#    x 1.686980 0.000000 0.000000 
#    y 0.000000 1.627730 0.000000 
#    z 0.000000 0.000000 1.647860 
# 
# From -- ./inp_files/30571.got.cif
#   From: 2010.05.17/outbox.ucp.g08.bks.cvg/sg51_16_cif.got.tgz:30571.got - 2010.06.11 16:27:58.
