data_PCOD9407197
_publ_section_title
;
Structure prediction by ZEFSAII (Michael W. Deem and Ramdas Pophale) SiO2 
 PCOD9407197
Probable space group: P M M A
;
_chemical_formula_sum "Si O2"
_cell_formula_units_Z 32
_cell_length_a 16.318931
_cell_length_b 8.877323
_cell_length_c 11.435534
_cell_angle_alpha 90.000000
_cell_angle_beta 90.000000
_cell_angle_gamma 90.000000
_cell_volume 1656.647760
_symmetry_space_group_name_H-M "P M M A"
_symmetry_group_IT_number 51
_symmetry_cell_setting 'orthorhombic'
loop_
_space_group_symop_operation_xyz
x,y,z
1/2-x,-y,z
1/2+x,-y,-z
-x,y,-z
-x,-y,-z
1/2+x,y,-z
1/2-x,y,z
x,-y,z
loop_
_atom_site_type_symbol
_atom_site_label
_atom_site_fract_x
_atom_site_fract_y
_atom_site_fract_z
Si Si1 0.418596 0.320238 0.073262
Si Si2 0.936317 0.174257 0.677111
Si Si3 0.250000 0.326942 0.729380
Si Si4 0.250000 0.821905 0.977498
Si Si5 0.380409 0.825182 0.573543
O O1 0.412414 0.500000 0.060631
O O2 0.428789 0.274598 0.208587
O O3 0.500000 0.271000 0.000000
O O4 0.334015 0.247101 0.028786
O O5 0.882002 0.214845 0.563848
O O6 0.028353 0.178740 0.626344
O O7 0.918241 0.000000 0.708563
O O8 0.250000 0.500000 0.767439
O O9 0.250000 0.219619 0.841007
O O10 0.173131 0.286422 0.649168
O O11 0.250000 0.000000 0.996243
O O12 0.352500 0.000000 0.583372
#
# Coordination Sequence:
#
# PCOD9407197 Si02
#       5
#     8   8   4   4   8
#     4  11  24  41  62  90 125 161 197 246 305 360
#     4   9  19  37  61  87 114 150 197 241 285 344
#     4  12  24  37  56  85 118 149 187 237 295 352
#     4  12  26  43  64  87 116 159 207 251 293 352
#     4   9  19  37  60  85 114 150 193 239 285 342
#
# _framework density 19.316116000000001
#
# number of rings (size 3 to 8) (size 9 to 14) (size 15 to 20)
#    0.000    1.750    0.000    6.000    0.000    9.000 
#    0.000    3.750    0.000    0.000    0.000    0.000 
#    0.000    0.000    0.000    0.000    0.000    0.000 
#
# Total GULP energy -178703.555546 kJ/mol
# GULP energy per Si atom -5584.486111 kJ/mol
# Density = 1.927215 g / cm^3
# Si number density = 19.316116 Si / 1000 Ang^3
#
#
#
# Elastic Constant Matrix: (Units=GPa)
#
#
# Indices 1 2 3 4 5 6 
#
# 1 100.5585 44.0070 49.9955 0.0000 0.0000 0.0000
# 2 44.0070 74.8041 40.7380 0.0000 0.0000 0.0000
# 3 49.9955 40.7380 115.6499 0.0000 0.0000 0.0000
# 4 0.0000 0.0000 0.0000 244.0299 0.0000 0.0000
# 5 0.0000 0.0000 0.0000 0.0000 26.0366 0.0000
# 6 0.0000 0.0000 0.0000 0.0000 0.0000 34.4151
#
#
#
# Elastic Compliance Matrix: (Units=1/GPa)
#
#
# Indices 1 2 3 4 5 6 
#
# 1 0.014832 -0.006476 -0.004131 0.000000 0.000000 0.000000
# 2 -0.006476 0.019369 -0.004023 0.000000 0.000000 0.000000
# 3 -0.004131 -0.004023 0.011850 0.000000 0.000000 0.000000
# 4 0.000000 0.000000 0.000000 0.004098 0.000000 0.000000
# 5 0.000000 0.000000 0.000000 0.000000 0.038408 0.000000
# 6 0.000000 0.000000 0.000000 0.000000 0.000000 0.029057
#
#
# Mechanical properties :
#
#
# Convention : Reuss Voigt Hill
#
# Bulk Modulus (GPa) = 59.55604 62.27706 60.91655
# Shear Modulus (GPa) = 32.79314 71.31445 52.05379
#
# Velocity S-wave (km/s) = 4.12480 6.08275 5.19681
# Velocity P-wave (km/s) = 7.32014 9.03571 8.22279
#
# Compressibility (1/GPa) = 0.01679091
#
# Stress axis : x y z
#
# Youngs Moduli (GPa) = 67.42020 51.62838 84.39038
#
# Poissons Ratio (x) = 0.33436 0.34860
# Poissons Ratio (y) = 0.43663 0.33952
# Poissons Ratio (z) = 0.27850 0.20771
#
# Static dielectric constant tensor:
#      x y z
#    x 1.727390 0.000000 0.000000 
#    y 0.000000 1.655170 0.000000 
#    z 0.000000 0.000000 1.657300 
# 
# From -- ./inp_files/15855.got.cif
#   From: 2010.05.17/outbox.cif.g08.bks.cpg/sg51_8_cif.got.tgz:15855.got - 2010.06.03 11:52:47.
