data_PCOD9407578
_publ_section_title
;
Structure prediction by ZEFSAII (Michael W. Deem and Ramdas Pophale) SiO2 
 PCOD9407578
Probable space group: P M M A
;
_chemical_formula_sum "Si O2"
_cell_formula_units_Z 56
_cell_length_a 9.000000
_cell_length_b 21.000000
_cell_length_c 15.000000
_cell_angle_alpha 90.000000
_cell_angle_beta 90.000000
_cell_angle_gamma 90.000000
_cell_volume 2835.000000
_symmetry_space_group_name_H-M "P M M A"
_symmetry_group_IT_number 51
_symmetry_cell_setting 'orthorhombic'
loop_
_space_group_symop_operation_xyz
x,y,z
1/2-x,-y,z
1/2+x,-y,-z
-x,y,-z
-x,-y,-z
1/2+x,y,-z
1/2-x,y,z
x,-y,z
loop_
_atom_site_type_symbol
_atom_site_label
_atom_site_fract_x
_atom_site_fract_y
_atom_site_fract_z
Si Si1 0.413618 0.930230 0.123326
Si Si2 0.578392 0.217396 0.910890
Si Si3 0.584301 0.158604 0.586502
Si Si4 0.421397 0.931672 0.704476
Si Si5 0.428240 0.571456 0.903573
Si Si6 0.579893 0.311692 0.590346
Si Si7 0.427925 0.689574 0.778538
O O1 0.250000 0.928843 0.169783
O O2 0.423727 0.859858 0.082745
O O3 0.548981 0.932978 0.190952
O O4 0.412024 0.000000 0.076341
O O5 0.750000 0.236747 0.908142
O O6 0.498067 0.247972 0.825414
O O7 0.500000 0.242529 0.000000
O O8 0.500000 0.134824 0.500000
O O9 0.750000 0.134764 0.585204
O O10 0.502844 0.129862 0.669938
O O11 0.584774 0.234595 0.585236
O O12 0.250000 0.927636 0.682506
O O13 0.480061 0.000000 0.669495
O O14 0.250000 0.573251 0.912563
O O15 0.468932 0.500000 0.871359
O O16 0.470237 0.628885 0.838941
O O17 0.500000 0.580225 0.000000
O O18 0.500000 0.334358 0.500000
O O19 0.750000 0.334311 0.595475
O O20 0.489519 0.323679 0.680162
O O21 0.250000 0.696537 0.776203
#
# Coordination Sequence:
#
# PCOD9407578 Si02
#       7
#     8   8   8   8   8   8   8
#     4   9  19  36  54  70  93 131 177 222 270 324
#     4  11  23  37  54  79 111 145 184 232 283 336
#     4  10  20  33  49  68  92 125 163 208 264 323
#     4  10  20  32  47  68  92 120 159 209 264 323
#     4   9  19  36  58  86 120 157 195 232 272 323
#     4  10  21  37  57  82 111 143 183 229 276 328
#     4  11  22  36  58  86 117 152 187 229 281 333
#
# _framework density 19.753086
#
# number of rings (size 3 to 8) (size 9 to 14) (size 15 to 20)
#    0.000    2.000    0.000    3.429    0.000   10.000 
#    0.000    0.000    0.000    0.429    0.000    0.000 
#    0.000    0.000    0.000    0.000    0.000    0.000 
#
# Total GULP energy -311897.648621 kJ/mol
# GULP energy per Si atom -5569.600868 kJ/mol
# Density = 1.970813 g / cm^3
# Si number density = 19.753086 Si / 1000 Ang^3
#
#
#
# Elastic Constant Matrix: (Units=GPa)
#
#
# Indices 1 2 3 4 5 6 
#
# 1 80.3150 45.4494 49.5638 0.0000 0.0000 0.0000
# 2 45.4494 58.6242 33.8479 0.0000 0.0000 0.0000
# 3 49.5638 33.8479 91.1668 0.0000 0.0000 0.0000
# 4 0.0000 0.0000 0.0000 10.8417 0.0000 0.0000
# 5 0.0000 0.0000 0.0000 0.0000 27.2249 0.0000
# 6 0.0000 0.0000 0.0000 0.0000 0.0000 15.3209
#
#
#
# Elastic Compliance Matrix: (Units=1/GPa)
#
#
# Indices 1 2 3 4 5 6 
#
# 1 0.026677 -0.015666 -0.008687 0.000000 0.000000 0.000000
# 2 -0.015666 0.030912 -0.002960 0.000000 0.000000 0.000000
# 3 -0.008687 -0.002960 0.016790 0.000000 0.000000 0.000000
# 4 0.000000 0.000000 0.000000 0.092236 0.000000 0.000000
# 5 0.000000 0.000000 0.000000 0.000000 0.036731 0.000000
# 6 0.000000 0.000000 0.000000 0.000000 0.000000 0.065270
#
#
# Mechanical properties :
#
#
# Convention : Reuss Voigt Hill
#
# Bulk Modulus (GPa) = 50.62256 54.20314 52.41285
# Shear Modulus (GPa) = 15.15941 17.42718 16.29330
#
# Velocity S-wave (km/s) = 2.77329 2.97349 2.87513
# Velocity P-wave (km/s) = 5.99484 6.26808 6.13298
#
# Compressibility (1/GPa) = 0.01975404
#
# Stress axis : x y z
#
# Youngs Moduli (GPa) = 37.48520 32.34956 59.55771
#
# Poissons Ratio (x) = 0.50680 0.51736
# Poissons Ratio (y) = 0.58726 0.17628
# Poissons Ratio (z) = 0.32563 0.09575
#
# Static dielectric constant tensor:
#      x y z
#    x 1.691340 0.000000 0.000000 
#    y 0.000000 1.716690 0.000000 
#    z 0.000000 0.000000 1.717950 
# 
# From -- ./inp_files/21796.got.cif
#   From: 2010.05.17/outbox.ucp.g08.bks.cvg/sg51_11_cif.got.tgz:21796.got - 2010.06.11 16:27:58.
