data_PCOD9407845
_publ_section_title
;
Structure prediction by ZEFSAII (Michael W. Deem and Ramdas Pophale) SiO2 
 PCOD9407845
Probable space group: P M M A
;
_chemical_formula_sum "Si O2"
_cell_formula_units_Z 40
_cell_length_a 15.000000
_cell_length_b 15.000000
_cell_length_c 9.000000
_cell_angle_alpha 90.000000
_cell_angle_beta 90.000000
_cell_angle_gamma 90.000000
_cell_volume 2025.000000
_symmetry_space_group_name_H-M "P M M A"
_symmetry_group_IT_number 51
_symmetry_cell_setting 'orthorhombic'
loop_
_space_group_symop_operation_xyz
x,y,z
1/2-x,-y,z
1/2+x,-y,-z
-x,y,-z
-x,-y,-z
1/2+x,y,-z
1/2-x,y,z
x,-y,z
loop_
_atom_site_type_symbol
_atom_site_label
_atom_site_fract_x
_atom_site_fract_y
_atom_site_fract_z
Si Si1 0.856398 0.899899 0.874361
Si Si2 0.750000 0.392622 0.783427
Si Si3 0.568966 0.284412 0.383510
Si Si4 0.356472 0.100344 0.483663
Si Si5 0.431826 0.289182 0.114853
Si Si6 0.750000 0.392871 0.423499
O O1 0.750000 0.895861 0.902300
O O2 0.868240 0.894388 0.694957
O O3 0.900084 0.809859 0.937887
O O4 0.886799 0.000000 0.921297
O O5 0.750000 0.500000 0.815675
O O6 0.658783 0.343939 0.843170
O O7 0.750000 0.381929 0.603728
O O8 0.500000 0.328638 0.500000
O O9 0.598415 0.185913 0.440938
O O10 0.501785 0.273623 0.247382
O O11 0.659460 0.343032 0.366690
O O12 0.250000 0.105954 0.511167
O O13 0.385998 0.000000 0.531004
O O14 0.500000 0.335385 0.000000
O O15 0.750000 0.500000 0.391272
#
# Coordination Sequence:
#
# PCOD9407845 Si02
#       6
#     8   4   8   8   8   4
#     4   9  17  34  62  90 123 169 214 256 309 376
#     4  11  24  47  72  92 125 166 209 268 327 378
#     4  12  22  38  67  95 124 163 213 261 312 379
#     4   9  17  32  59  93 128 165 209 261 314 367
#     4  12  26  42  65  96 131 172 215 255 312 386
#     4  11  24  43  70 100 129 156 205 276 329 368
#
# _framework density 19.753086
#
# number of rings (size 3 to 8) (size 9 to 14) (size 15 to 20)
#    0.000    1.400    6.000    1.200    0.000    4.000 
#    0.000    1.000    0.000    2.400    0.000    0.000 
#    0.000    0.000    0.000    0.000    0.000    0.000 
#
# Total GULP energy -223062.346952 kJ/mol
# GULP energy per Si atom -5576.558674 kJ/mol
# Density = 1.970813 g / cm^3
# Si number density = 19.753086 Si / 1000 Ang^3
#
#
#
# Elastic Constant Matrix: (Units=GPa)
#
#
# Indices 1 2 3 4 5 6 
#
# 1 160.0857 63.5060 15.3559 0.0000 0.0000 0.0000
# 2 63.5060 133.6700 -6.5456 0.0000 0.0000 0.0000
# 3 15.3559 -6.5456 8.3018 0.0000 0.0000 0.0000
# 4 0.0000 0.0000 0.0000 10.2261 0.0000 0.0000
# 5 0.0000 0.0000 0.0000 0.0000 32.7520 0.0000
# 6 0.0000 0.0000 0.0000 0.0000 0.0000 25.1379
#
#
#
# Elastic Compliance Matrix: (Units=1/GPa)
#
#
# Indices 1 2 3 4 5 6 
#
# 1 0.011469 -0.006748 -0.026535 0.000000 0.000000 0.000000
# 2 -0.006748 0.011752 0.021748 0.000000 0.000000 0.000000
# 3 -0.026535 0.021748 0.186684 0.000000 0.000000 0.000000
# 4 0.000000 0.000000 0.000000 0.097789 0.000000 0.000000
# 5 0.000000 0.000000 0.000000 0.000000 0.030532 0.000000
# 6 0.000000 0.000000 0.000000 0.000000 0.000000 0.039781
#
#
# Mechanical properties :
#
#
# Convention : Reuss Voigt Hill
#
# Bulk Modulus (GPa) = 5.35231 49.63223 27.49227
# Shear Modulus (GPa) = 10.79088 28.93930 19.86509
#
# Velocity S-wave (km/s) = 2.33982 3.83175 3.17467
# Velocity P-wave (km/s) = 3.16467 6.69009 5.23318
#
# Compressibility (1/GPa) = 0.18683515
#
# Stress axis : x y z
#
# Youngs Moduli (GPa) = 87.19197 85.09103 5.35666
#
# Poissons Ratio (x) = 0.57421 0.14214
# Poissons Ratio (y) = 0.58839 -0.11650
# Poissons Ratio (z) = 2.31361 -1.85057
#
# Static dielectric constant tensor:
#      x y z
#    x 1.684760 0.000000 0.000000 
#    y 0.000000 1.701980 0.000000 
#    z 0.000000 0.000000 1.841840 
# 
# From -- ./inp_files/8009.got.cif
#   From: 2010.05.17/outbox.ucp.g08.bks.cvg/sg51_5_cif.got.tgz:8009.got - 2010.06.11 16:27:58.
