data_PCOD9407704
_publ_section_title
;
Structure prediction by ZEFSAII (Michael W. Deem and Ramdas Pophale) SiO2 
 PCOD9407704
Probable space group: P M M A
;
_chemical_formula_sum "Si O2"
_cell_formula_units_Z 56
_cell_length_a 15.000000
_cell_length_b 9.000000
_cell_length_c 21.000000
_cell_angle_alpha 90.000000
_cell_angle_beta 90.000000
_cell_angle_gamma 90.000000
_cell_volume 2835.000000
_symmetry_space_group_name_H-M "P M M A"
_symmetry_group_IT_number 51
_symmetry_cell_setting 'orthorhombic'
loop_
_space_group_symop_operation_xyz
x,y,z
1/2-x,-y,z
1/2+x,-y,-z
-x,y,-z
-x,-y,-z
1/2+x,y,-z
1/2-x,y,z
x,-y,z
loop_
_atom_site_type_symbol
_atom_site_label
_atom_site_fract_x
_atom_site_fract_y
_atom_site_fract_z
Si Si1 0.446861 0.679210 0.563628
Si Si2 0.848986 0.321098 0.158237
Si Si3 0.153822 0.328339 0.095584
Si Si4 0.469028 0.322239 0.211009
Si Si5 0.098494 0.824815 0.974586
Si Si6 0.750000 0.324547 0.456545
Si Si7 0.929839 0.170583 0.663615
Si Si8 0.250000 0.166082 0.415875
O O1 0.500000 0.730162 0.500000
O O2 0.445046 0.500000 0.561252
O O3 0.345194 0.735431 0.566202
O O4 0.500101 0.732961 0.624424
O O5 0.750000 0.272639 0.176743
O O6 0.850278 0.500000 0.154211
O O7 0.873071 0.258606 0.088961
O O8 0.927470 0.278714 0.206289
O O9 0.250000 0.321943 0.128873
O O10 0.139426 0.500000 0.075526
O O11 0.076758 0.285868 0.143999
O O12 0.155841 0.226683 0.034229
O O13 0.461707 0.500000 0.219922
O O14 0.421196 0.236486 0.266688
O O15 0.103418 0.000000 0.963269
O O16 0.000000 0.786031 0.000000
O O17 0.750000 0.500000 0.443187
O O18 0.750000 0.292874 0.531635
O O19 0.836992 0.178077 0.626805
O O20 0.958818 0.000000 0.665712
O O21 0.250000 0.000000 0.446076
#
# Coordination Sequence:
#
# PCOD9407704 Si02
#       8
#     8   8   8   8   8   4   8   4
#     4  10  20  37  62  90 119 150 191 239 285 331
#     4  10  21  39  63  85 106 143 193 241 290 342
#     4  10  21  37  58  84 111 143 184 230 283 340
#     4  10  22  40  60  82 112 148 191 239 283 332
#     4  11  22  35  55  84 116 149 184 229 286 342
#     4  10  20  36  62  94 120 150 191 240 287 332
#     4  11  24  40  59  85 120 158 194 233 285 344
#     4  10  22  38  58  88 122 156 189 228 283 346
#
# _framework density 19.753086
#
# number of rings (size 3 to 8) (size 9 to 14) (size 15 to 20)
#    0.000    1.714    2.857    1.286    1.000    5.429 
#    1.286    0.000    0.000    0.000    0.000    0.000 
#    0.000    0.000    0.000    0.000    0.000    0.000 
#
# Total GULP energy -312363.618701 kJ/mol
# GULP energy per Si atom -5577.921763 kJ/mol
# Density = 1.970813 g / cm^3
# Si number density = 19.753086 Si / 1000 Ang^3
#
#
#
# Elastic Constant Matrix: (Units=GPa)
#
#
# Indices 1 2 3 4 5 6 
#
# 1 95.2589 15.8893 -6.5736 0.0000 0.0000 0.0000
# 2 15.8893 -35.5207 -14.1620 0.0000 0.0000 0.0000
# 3 -6.5736 -14.1620 3.5450 0.0000 0.0000 0.0000
# 4 0.0000 0.0000 0.0000 63.3079 0.0000 0.0000
# 5 0.0000 0.0000 0.0000 0.0000 -50.8791 0.0000
# 6 0.0000 0.0000 0.0000 0.0000 0.0000 35.4115
#
#
#
# Elastic Compliance Matrix: (Units=1/GPa)
#
#
# Indices 1 2 3 4 5 6 
#
# 1 0.011871 -0.001337 0.016672 0.000000 0.000000 0.000000
# 2 -0.001337 -0.010708 -0.045255 0.000000 0.000000 0.000000
# 3 0.016672 -0.045255 0.132212 0.000000 0.000000 0.000000
# 4 0.000000 0.000000 0.000000 0.015796 0.000000 0.000000
# 5 0.000000 0.000000 0.000000 0.000000 -0.019654 0.000000
# 6 0.000000 0.000000 0.000000 0.000000 0.000000 0.028239
#
#
# Mechanical properties :
#
#
# Convention : Reuss Voigt Hill
#
# Bulk Modulus (GPa) = 13.59866 5.95452 9.77659
# Shear Modulus (GPa) = 20.65194 14.11005 17.38100
#
# Velocity S-wave (km/s) = 3.23693 2.67558 2.96955
# Velocity P-wave (km/s) = 4.56832 3.54485 4.08874
#
# Compressibility (1/GPa) = 0.07353666
#
# Stress axis : x y z
#
# Youngs Moduli (GPa) = 84.23749 -93.39149 7.56359
#
# Poissons Ratio (x) = -0.12485 -0.12610
# Poissons Ratio (y) = 0.11261 0.34229
# Poissons Ratio (z) = -1.40442 -4.22642
#
# Static dielectric constant tensor:
#      x y z
#    x 1.747900 0.000000 0.000000 
#    y 0.000000 1.682260 0.000000 
#    z 0.000000 0.000000 1.659000 
# 
# From -- ./inp_files/33522.got.cif
#   From: 2010.05.17/outbox.ucp.g08.bks.cvg/sg51_17_cif.got.tgz:33522.got - 2010.06.11 16:27:58.
