data_PCOD9407035
_publ_section_title
;
Structure prediction by ZEFSAII (Michael W. Deem and Ramdas Pophale) SiO2 
 PCOD9407035
Probable space group: P M M A
;
_chemical_formula_sum "Si O2"
_cell_formula_units_Z 40
_cell_length_a 8.594687
_cell_length_b 26.685277
_cell_length_c 9.318742
_cell_angle_alpha 90.000000
_cell_angle_beta 90.000000
_cell_angle_gamma 90.000000
_cell_volume 2137.268419
_symmetry_space_group_name_H-M "P M M A"
_symmetry_group_IT_number 51
_symmetry_cell_setting 'orthorhombic'
loop_
_space_group_symop_operation_xyz
x,y,z
1/2-x,-y,z
1/2+x,-y,-z
-x,y,-z
-x,-y,-z
1/2+x,y,-z
1/2-x,y,z
x,-y,z
loop_
_atom_site_type_symbol
_atom_site_label
_atom_site_fract_x
_atom_site_fract_y
_atom_site_fract_z
Si Si1 0.437318 0.847366 0.160565
Si Si2 0.436044 0.753370 0.661186
Si Si3 0.436745 0.445262 0.836666
Si Si4 0.437655 0.943431 0.340527
Si Si5 0.935779 0.659222 0.836920
O O1 0.250000 0.844962 0.159812
O O2 0.502297 0.802137 0.255711
O O3 0.486775 0.900162 0.231544
O O4 0.500000 0.843091 0.000000
O O5 0.500000 0.753634 0.500000
O O6 0.250000 0.753496 0.659944
O O7 0.497044 0.704444 0.744236
O O8 0.250000 0.440417 0.839940
O O9 0.475629 0.500000 0.771995
O O10 0.510140 0.394697 0.774954
O O11 0.500000 0.446720 0.000000
O O12 0.500000 0.932805 0.500000
O O13 0.250000 0.943056 0.346034
O O14 0.487967 0.000000 0.300739
O O15 0.750000 0.661353 0.841516
O O16 0.000000 0.663220 0.000000
#
# Coordination Sequence:
#
# PCOD9407035 Si02
#       5
#     8   8   8   8   8
#     4  11  23  39  59  85 116 149 188 233 282 332
#     4  12  25  42  61  82 110 144 185 230 281 339
#     4   9  16  27  46  75 110 146 184 227 275 326
#     4   9  19  36  58  84 115 151 190 231 276 329
#     4  11  21  35  56  83 114 148 187 231 280 330
#
# _framework density 18.715478999999998
#
# number of rings (size 3 to 8) (size 9 to 14) (size 15 to 20)
#    0.000    1.600    0.000    7.200    0.000    4.800 
#    0.000    0.000    0.000    0.600    0.000    0.000 
#    0.000    0.000    0.000    0.000    0.000    0.000 
#
# Total GULP energy -223425.613427 kJ/mol
# GULP energy per Si atom -5585.640336 kJ/mol
# Density = 1.867288 g / cm^3
# Si number density = 18.715479 Si / 1000 Ang^3
#
#
#
# Elastic Constant Matrix: (Units=GPa)
#
#
# Indices 1 2 3 4 5 6 
#
# 1 123.3224 69.7591 48.6019 0.0000 0.0000 0.0000
# 2 69.7591 187.0106 100.2181 0.0000 0.0000 0.0000
# 3 48.6019 100.2181 114.4361 0.0000 0.0000 0.0000
# 4 0.0000 0.0000 0.0000 25.3266 0.0000 0.0000
# 5 0.0000 0.0000 0.0000 0.0000 29.4816 0.0000
# 6 0.0000 0.0000 0.0000 0.0000 0.0000 32.7423
#
#
#
# Elastic Compliance Matrix: (Units=1/GPa)
#
#
# Indices 1 2 3 4 5 6 
#
# 1 0.010501 -0.002878 -0.001940 0.000000 0.000000 0.000000
# 2 -0.002878 0.010865 -0.008293 0.000000 0.000000 0.000000
# 3 -0.001940 -0.008293 0.016825 0.000000 0.000000 0.000000
# 4 0.000000 0.000000 0.000000 0.039484 0.000000 0.000000
# 5 0.000000 0.000000 0.000000 0.000000 0.033919 0.000000
# 6 0.000000 0.000000 0.000000 0.000000 0.000000 0.030542
#
#
# Mechanical properties :
#
#
# Convention : Reuss Voigt Hill
#
# Bulk Modulus (GPa) = 83.54012 95.76970 89.65491
# Shear Modulus (GPa) = 29.01142 31.25611 30.13377
#
# Velocity S-wave (km/s) = 3.94144 4.09108 4.01696
# Velocity P-wave (km/s) = 8.08994 8.57895 8.33803
#
# Compressibility (1/GPa) = 0.01197030
#
# Stress axis : x y z
#
# Youngs Moduli (GPa) = 95.22840 92.04113 59.43635
#
# Poissons Ratio (x) = 0.26486 0.11530
# Poissons Ratio (y) = 0.27403 0.49289
# Poissons Ratio (z) = 0.18473 0.76327
#
# Static dielectric constant tensor:
#      x y z
#    x 1.628090 0.000000 0.000000 
#    y 0.000000 1.678990 0.000000 
#    z 0.000000 0.000000 1.604890 
# 
# From -- ./inp_files/5217.got.cif
#   From: 2010.05.17/outbox.cif.g08.bks.cpg/sg51_3_cif.got.tgz:5217.got - 2010.06.03 11:52:47.
