data_PCOD9407150
_publ_section_title
;
Structure prediction by ZEFSAII (Michael W. Deem and Ramdas Pophale) SiO2 
 PCOD9407150
Probable space group: P M M A
;
_chemical_formula_sum "Si O2"
_cell_formula_units_Z 40
_cell_length_a 8.205684
_cell_length_b 27.115467
_cell_length_c 9.396211
_cell_angle_alpha 90.000000
_cell_angle_beta 90.000000
_cell_angle_gamma 90.000000
_cell_volume 2090.665909
_symmetry_space_group_name_H-M "P M M A"
_symmetry_group_IT_number 51
_symmetry_cell_setting 'orthorhombic'
loop_
_space_group_symop_operation_xyz
x,y,z
1/2-x,-y,z
1/2+x,-y,-z
-x,y,-z
-x,-y,-z
1/2+x,y,-z
1/2-x,y,z
x,-y,z
loop_
_atom_site_type_symbol
_atom_site_label
_atom_site_fract_x
_atom_site_fract_y
_atom_site_fract_z
Si Si1 0.946966 0.444521 0.661964
Si Si2 0.553184 0.947081 0.165395
Si Si3 0.947315 0.839423 0.164482
Si Si4 0.444777 0.350845 0.162067
Si Si5 0.555152 0.744414 0.337423
O O1 0.750000 0.444653 0.665507
O O2 0.003164 0.500000 0.699656
O O3 0.006803 0.401365 0.765143
O O4 0.000000 0.434463 0.500000
O O5 0.750000 0.947217 0.171474
O O6 0.497318 0.893536 0.219995
O O7 0.496005 0.000000 0.226941
O O8 0.500000 0.947195 0.000000
O O9 0.750000 0.839146 0.166482
O O10 0.007066 0.793701 0.257969
O O11 0.000000 0.833927 0.000000
O O12 0.250000 0.352271 0.164844
O O13 0.499972 0.303914 0.252853
O O14 0.500000 0.346545 0.000000
O O15 0.500000 0.742636 0.500000
O O16 0.750000 0.745859 0.334295
#
# Coordination Sequence:
#
# PCOD9407150 Si02
#       5
#     8   8   8   8   8
#     4   9  19  36  57  81 109 141 176 213 254 302
#     4   8  13  23  41  66  95 125 158 198 245 296
#     4   9  18  31  49  74 101 130 165 207 254 303
#     4  11  23  38  57  81 109 139 174 216 261 308
#     4  11  23  38  55  75 102 136 175 216 261 313
#
# _framework density 19.132659
#
# number of rings (size 3 to 8) (size 9 to 14) (size 15 to 20)
#    0.000    2.400    0.000    2.400    0.000    6.800 
#    0.000    0.000    0.000    0.600    0.000    0.000 
#    0.000    0.000    0.000    0.000    0.000    0.200 
#
# Total GULP energy -223053.471697 kJ/mol
# GULP energy per Si atom -5576.336792 kJ/mol
# Density = 1.908911 g / cm^3
# Si number density = 19.132659 Si / 1000 Ang^3
#
#
#
# Elastic Constant Matrix: (Units=GPa)
#
#
# Indices 1 2 3 4 5 6 
#
# 1 20.4185 23.4711 11.0917 0.0000 0.0000 0.0000
# 2 23.4711 221.4737 115.1697 0.0000 0.0000 0.0000
# 3 11.0917 115.1697 117.3818 0.0000 0.0000 0.0000
# 4 0.0000 0.0000 0.0000 -11.7045 0.0000 0.0000
# 5 0.0000 0.0000 0.0000 0.0000 27.1319 0.0000
# 6 0.0000 0.0000 0.0000 0.0000 0.0000 25.3614
#
#
#
# Elastic Compliance Matrix: (Units=1/GPa)
#
#
# Indices 1 2 3 4 5 6 
#
# 1 0.055836 -0.006480 0.001082 0.000000 0.000000 0.000000
# 2 -0.006480 0.009971 -0.009171 0.000000 0.000000 0.000000
# 3 0.001082 -0.009171 0.017415 0.000000 0.000000 0.000000
# 4 0.000000 0.000000 0.000000 -0.085437 0.000000 0.000000
# 5 0.000000 0.000000 0.000000 0.000000 0.036857 0.000000
# 6 0.000000 0.000000 0.000000 0.000000 0.000000 0.039430
#
#
# Mechanical properties :
#
#
# Convention : Reuss Voigt Hill
#
# Bulk Modulus (GPa) = 18.48973 73.19323 45.84148
# Shear Modulus (GPa) = 41.24149 22.12719 31.68434
#
# Velocity S-wave (km/s) = 4.64783 3.40445 4.07386
# Velocity P-wave (km/s) = 6.20387 7.33433 6.79266
#
# Compressibility (1/GPa) = 0.05408409
#
# Stress axis : x y z
#
# Youngs Moduli (GPa) = 17.90956 100.29334 57.42264
#
# Poissons Ratio (x) = 0.64988 -0.06211
# Poissons Ratio (y) = 0.11605 0.52660
# Poissons Ratio (z) = -0.01937 0.91975
#
# Static dielectric constant tensor:
#      x y z
#    x 1.673980 0.000000 0.000000 
#    y 0.000000 1.730920 0.000000 
#    z 0.000000 0.000000 1.608960 
# 
# From -- ./inp_files/5216.got.cif
#   From: 2010.05.17/outbox.cif.g08.bks.cpg/sg51_3_cif.got.tgz:5216.got - 2010.06.03 11:52:47.
