data_PCOD9407529
_publ_section_title
;
Structure prediction by ZEFSAII (Michael W. Deem and Ramdas Pophale) SiO2 
 PCOD9407529
Probable space group: P M M A
;
_chemical_formula_sum "Si O2"
_cell_formula_units_Z 64
_cell_length_a 30.000000
_cell_length_b 9.000000
_cell_length_c 15.000000
_cell_angle_alpha 90.000000
_cell_angle_beta 90.000000
_cell_angle_gamma 90.000000
_cell_volume 4050.000000
_symmetry_space_group_name_H-M "P M M A"
_symmetry_group_IT_number 51
_symmetry_cell_setting 'orthorhombic'
loop_
_space_group_symop_operation_xyz
x,y,z
1/2-x,-y,z
1/2+x,-y,-z
-x,y,-z
-x,-y,-z
1/2+x,y,-z
1/2-x,y,z
x,-y,z
loop_
_atom_site_type_symbol
_atom_site_label
_atom_site_fract_x
_atom_site_fract_y
_atom_site_fract_z
Si Si1 0.882501 0.675733 0.209536
Si Si2 0.394193 0.676707 0.458763
Si Si3 0.801611 0.827212 0.293516
Si Si4 0.538765 0.176456 0.671924
Si Si5 0.799413 0.677473 0.486512
Si Si6 0.973526 0.176487 0.879632
Si Si7 0.437805 0.323620 0.958527
Si Si8 0.562206 0.178094 0.367433
O O1 0.885987 0.500000 0.226611
O O2 0.833669 0.734467 0.230735
O O3 0.897510 0.704184 0.108732
O O4 0.915150 0.759421 0.278181
O O5 0.398845 0.500000 0.467131
O O6 0.422756 0.735924 0.377228
O O7 0.341713 0.713067 0.452867
O O8 0.413420 0.752188 0.547912
O O9 0.750000 0.816184 0.267626
O O10 0.805452 0.761756 0.393089
O O11 0.814819 0.000000 0.294087
O O12 0.537599 0.204519 0.777295
O O13 0.490136 0.216451 0.633193
O O14 0.544849 0.000000 0.657467
O O15 0.750000 0.713303 0.521674
O O16 0.800673 0.500000 0.468618
O O17 0.018405 0.262619 0.907414
O O18 0.980387 0.000000 0.891296
O O19 0.936934 0.236985 0.948538
O O20 0.442214 0.500000 0.973289
O O21 0.566023 0.000000 0.368872
#
# Coordination Sequence:
#
# PCOD9407529 Si02
#       8
#     8   8   8   8   8   8   8   8
#     4  11  21  32  49  73 101 133 166 200 246 297
#     4  11  22  33  49  73  97 130 170 205 247 295
#     4  10  20  32  49  73  98 128 165 203 245 293
#     4  10  22  36  49  68  97 135 171 205 248 288
#     4   9  18  33  50  69  96 127 160 201 248 295
#     4  10  19  33  51  71  95 127 166 202 243 291
#     4  10  20  32  49  73  99 126 159 201 246 289
#     4  11  21  34  49  67  98 136 171 206 239 285
#
# _framework density 15.802469
#
# number of rings (size 3 to 8) (size 9 to 14) (size 15 to 20)
#    0.000    1.750    2.500    3.375    0.000    6.250 
#    0.000    0.000    0.000    0.000    0.000    0.875 
#    0.000    3.000    0.000    0.000    0.000    0.000 
#
# Total GULP energy -357090.877966 kJ/mol
# GULP energy per Si atom -5579.544968 kJ/mol
# Density = 1.576650 g / cm^3
# Si number density = 15.802469 Si / 1000 Ang^3
#
#
#
# Elastic Constant Matrix: (Units=GPa)
#
#
# Indices 1 2 3 4 5 6 
#
# 1 98.8957 40.9273 42.2932 0.0000 0.0000 0.0000
# 2 40.9273 35.4132 21.6664 0.0000 0.0000 0.0000
# 3 42.2932 21.6664 40.8948 0.0000 0.0000 0.0000
# 4 0.0000 0.0000 0.0000 23.0824 0.0000 0.0000
# 5 0.0000 0.0000 0.0000 0.0000 18.5339 0.0000
# 6 0.0000 0.0000 0.0000 0.0000 0.0000 17.8764
#
#
#
# Elastic Compliance Matrix: (Units=1/GPa)
#
#
# Indices 1 2 3 4 5 6 
#
# 1 0.024494 -0.018954 -0.015290 0.000000 0.000000 0.000000
# 2 -0.018954 0.056447 -0.010305 0.000000 0.000000 0.000000
# 3 -0.015290 -0.010305 0.045726 0.000000 0.000000 0.000000
# 4 0.000000 0.000000 0.000000 0.043323 0.000000 0.000000
# 5 0.000000 0.000000 0.000000 0.000000 0.053955 0.000000
# 6 0.000000 0.000000 0.000000 0.000000 0.000000 0.055940
#
#
# Mechanical properties :
#
#
# Convention : Reuss Voigt Hill
#
# Bulk Modulus (GPa) = 26.61662 42.77528 34.69595
# Shear Modulus (GPa) = 13.10597 16.58633 14.84615
#
# Velocity S-wave (km/s) = 2.88299 3.24327 3.06842
# Velocity P-wave (km/s) = 5.28792 6.41503 5.87855
#
# Compressibility (1/GPa) = 0.03757051
#
# Stress axis : x y z
#
# Youngs Moduli (GPa) = 40.82565 17.71561 21.86961
#
# Poissons Ratio (x) = 0.33577 0.33439
# Poissons Ratio (y) = 0.77379 0.22536
# Poissons Ratio (z) = 0.62423 0.18255
#
# Static dielectric constant tensor:
#      x y z
#    x 1.544590 0.000000 0.000000 
#    y 0.000000 1.526420 0.000000 
#    z 0.000000 0.000000 1.511250 
# 
# From -- ./inp_files/26724.got.cif
#   From: 2010.05.17/outbox.ucp.g08.bks.cvg/sg51_14_cif.got.tgz:26724.got - 2010.06.11 16:27:58.
