data_PCOD9407316
_publ_section_title
;
Structure prediction by ZEFSAII (Michael W. Deem and Ramdas Pophale) SiO2 
 PCOD9407316
Probable space group: P M M A
;
_chemical_formula_sum "Si O2"
_cell_formula_units_Z 48
_cell_length_a 9.631546
_cell_length_b 7.515685
_cell_length_c 32.598158
_cell_angle_alpha 90.000000
_cell_angle_beta 90.000000
_cell_angle_gamma 90.000000
_cell_volume 2359.704567
_symmetry_space_group_name_H-M "P M M A"
_symmetry_group_IT_number 51
_symmetry_cell_setting 'orthorhombic'
loop_
_space_group_symop_operation_xyz
x,y,z
1/2-x,-y,z
1/2+x,-y,-z
-x,y,-z
-x,-y,-z
1/2+x,y,-z
1/2-x,y,z
x,-y,z
loop_
_atom_site_type_symbol
_atom_site_label
_atom_site_fract_x
_atom_site_fract_y
_atom_site_fract_z
Si Si1 0.591165 0.787171 0.884052
Si Si2 0.089429 0.786405 0.628109
Si Si3 0.407735 0.713590 0.208122
Si Si4 0.912050 0.782805 0.461279
Si Si5 0.907584 0.288357 0.282587
Si Si6 0.090033 0.782352 0.960583
O O1 0.750000 0.718329 0.887959
O O2 0.540999 0.751108 0.837864
O O3 0.488837 0.722152 0.919445
O O4 0.598991 0.000000 0.888750
O O5 0.250000 0.723269 0.629313
O O6 0.033429 0.726588 0.583826
O O7 0.027729 0.737486 0.672128
O O8 0.091523 0.000000 0.626921
O O9 0.250000 0.782368 0.210883
O O10 0.401514 0.500000 0.212139
O O11 0.502420 0.782840 0.244975
O O12 0.750000 0.732514 0.464641
O O13 0.000000 0.719895 0.500000
O O14 0.915416 0.000000 0.461876
O O15 0.750000 0.215322 0.282571
O O16 0.896975 0.500000 0.276889
O O17 0.250000 0.724457 0.962697
O O18 0.091993 0.000000 0.960405
O O19 0.000000 0.728378 0.000000
#
# Coordination Sequence:
#
# PCOD9407316 Si02
#       6
#     8   8   8   8   8   8
#     4   9  17  29  45  65  88 113 142 176 211 246
#     4   8  14  25  41  61  84 109 136 168 208 249
#     4   9  18  32  47  62  84 115 144 170 209 258
#     4   8  13  22  37  56  78 104 133 164 199 241
#     4   9  17  29  45  63  81 105 140 176 206 243
#     4   9  16  26  42  65  92 119 145 174 210 251
#
# _framework density 20.341529999999999
#
# number of rings (size 3 to 8) (size 9 to 14) (size 15 to 20)
#    0.000    3.333    0.000    1.500    0.000    3.333 
#    0.000    0.833    0.000    2.000    0.000    0.000 
#    0.000    0.000    0.000    0.000    0.000    0.000 
#
# Total GULP energy -267474.331202 kJ/mol
# GULP energy per Si atom -5572.381900 kJ/mol
# Density = 2.029523 g / cm^3
# Si number density = 20.341530 Si / 1000 Ang^3
#
#
#
# Elastic Constant Matrix: (Units=GPa)
#
#
# Indices 1 2 3 4 5 6 
#
# 1 86.7271 4.1442 110.6960 0.0000 0.0000 0.0000
# 2 4.1442 50.9323 1.3546 0.0000 0.0000 0.0000
# 3 110.6960 1.3546 252.4312 0.0000 0.0000 0.0000
# 4 0.0000 0.0000 0.0000 32.0683 0.0000 0.0000
# 5 0.0000 0.0000 0.0000 0.0000 34.8616 0.0000
# 6 0.0000 0.0000 0.0000 0.0000 0.0000 -18.4865
#
#
#
# Elastic Compliance Matrix: (Units=1/GPa)
#
#
# Indices 1 2 3 4 5 6 
#
# 1 0.026359 -0.001838 -0.011549 0.000000 0.000000 0.000000
# 2 -0.001838 0.019765 0.000700 0.000000 0.000000 0.000000
# 3 -0.011549 0.000700 0.009022 0.000000 0.000000 0.000000
# 4 0.000000 0.000000 0.000000 0.031183 0.000000 0.000000
# 5 0.000000 0.000000 0.000000 0.000000 0.028685 0.000000
# 6 0.000000 0.000000 0.000000 0.000000 0.000000 -0.054093
#
#
# Mechanical properties :
#
#
# Convention : Reuss Voigt Hill
#
# Bulk Modulus (GPa) = 33.58829 69.16447 51.37638
# Shear Modulus (GPa) = 51.96453 27.94839 39.95646
#
# Velocity S-wave (km/s) = 5.05979 3.71071 4.43683
# Velocity P-wave (km/s) = 7.11922 7.24118 7.18046
#
# Compressibility (1/GPa) = 0.02977228
#
# Stress axis : x y z
#
# Youngs Moduli (GPa) = 37.93726 50.59493 110.83675
#
# Poissons Ratio (x) = 0.09297 1.28008
# Poissons Ratio (y) = 0.06971 -0.07756
# Poissons Ratio (z) = 0.43815 -0.03541
#
# Static dielectric constant tensor:
#      x y z
#    x 1.702970 0.000000 0.000000 
#    y 0.000000 1.765000 0.000000 
#    z 0.000000 0.000000 1.738470 
# 
# From -- ./inp_files/36125.got.cif
#   From: 2010.05.17/outbox.cif.g08.bks.cpg/sg51_19_cif.got.tgz:36125.got - 2010.06.03 11:52:47.
