data_PCOD9407429
_publ_section_title
;
Structure prediction by ZEFSAII (Michael W. Deem and Ramdas Pophale) SiO2 
 PCOD9407429
Probable space group: P M M A
;
_chemical_formula_sum "Si O2"
_cell_formula_units_Z 48
_cell_length_a 9.000000
_cell_length_b 18.000000
_cell_length_c 18.000000
_cell_angle_alpha 90.000000
_cell_angle_beta 90.000000
_cell_angle_gamma 90.000000
_cell_volume 2916.000000
_symmetry_space_group_name_H-M "P M M A"
_symmetry_group_IT_number 51
_symmetry_cell_setting 'orthorhombic'
loop_
_space_group_symop_operation_xyz
x,y,z
1/2-x,-y,z
1/2+x,-y,-z
-x,y,-z
-x,-y,-z
1/2+x,y,-z
1/2-x,y,z
x,-y,z
loop_
_atom_site_type_symbol
_atom_site_label
_atom_site_fract_x
_atom_site_fract_y
_atom_site_fract_z
Si Si1 0.429098 0.310834 0.808639
Si Si2 0.571209 0.307144 0.420171
Si Si3 0.929722 0.082806 0.798813
Si Si4 0.429433 0.799722 0.314615
Si Si5 0.425154 0.587495 0.297075
Si Si6 0.570191 0.206868 0.920137
O O1 0.250000 0.307922 0.806888
O O2 0.503036 0.255036 0.748124
O O3 0.492963 0.388533 0.778987
O O4 0.496117 0.280710 0.885251
O O5 0.500000 0.320915 0.500000
O O6 0.750000 0.307907 0.421037
O O7 0.508058 0.228802 0.388715
O O8 0.507597 0.368960 0.363414
O O9 0.750000 0.079870 0.801524
O O10 0.965922 0.119888 0.719368
O O11 0.971792 0.138951 0.864838
O O12 0.989035 0.000000 0.807711
O O13 0.250000 0.792149 0.319234
O O14 0.250000 0.608617 0.294758
O O15 0.434419 0.500000 0.308822
O O16 0.750000 0.212868 0.921861
O O17 0.500000 0.193024 0.000000
#
# Coordination Sequence:
#
# PCOD9407429 Si02
#       6
#     8   8   8   8   8   8
#     4  10  18  30  49  70  94 125 163 200 234 278
#     4  11  21  33  50  71  98 128 161 199 239 285
#     4   8  15  28  47  71  98 128 159 194 239 288
#     4   9  16  29  49  70  94 124 161 200 236 280
#     4  10  20  34  52  74 100 128 158 193 235 283
#     4  10  19  31  48  70  98 129 163 201 241 286
#
# _framework density 16.460905
#
# number of rings (size 3 to 8) (size 9 to 14) (size 15 to 20)
#    0.000    2.333    0.000    7.500    0.000    2.000 
#    0.000    0.000    0.000   18.500    0.000    0.000 
#    0.000    0.000    0.000    0.000    0.000    0.000 
#
# Total GULP energy -267249.465562 kJ/mol
# GULP energy per Si atom -5567.697199 kJ/mol
# Density = 1.642344 g / cm^3
# Si number density = 16.460905 Si / 1000 Ang^3
#
#
#
# Elastic Constant Matrix: (Units=GPa)
#
#
# Indices 1 2 3 4 5 6 
#
# 1 134.6296 45.3001 34.3411 0.0000 0.0000 0.0000
# 2 45.3001 69.7792 85.6558 0.0000 0.0000 0.0000
# 3 34.3411 85.6558 29.7570 0.0000 0.0000 0.0000
# 4 0.0000 0.0000 0.0000 15.9453 0.0000 0.0000
# 5 0.0000 0.0000 0.0000 0.0000 29.8208 0.0000
# 6 0.0000 0.0000 0.0000 0.0000 0.0000 11.7200
#
#
#
# Elastic Compliance Matrix: (Units=1/GPa)
#
#
# Indices 1 2 3 4 5 6 
#
# 1 0.008991 -0.002724 -0.002536 0.000000 0.000000 0.000000
# 2 -0.002724 -0.004832 0.017051 0.000000 0.000000 0.000000
# 3 -0.002536 0.017051 -0.012549 0.000000 0.000000 0.000000
# 4 0.000000 0.000000 0.000000 0.062715 0.000000 0.000000
# 5 0.000000 0.000000 0.000000 0.000000 0.033534 0.000000
# 6 0.000000 0.000000 0.000000 0.000000 0.000000 0.085324
#
#
# Mechanical properties :
#
#
# Convention : Reuss Voigt Hill
#
# Bulk Modulus (GPa) = 65.82123 62.75107 64.28615
# Shear Modulus (GPa) = 32.32810 16.08847 24.20828
#
# Velocity S-wave (km/s) = 4.43643 3.12969 3.83907
# Velocity P-wave (km/s) = 8.14345 7.15989 7.66746
#
# Compressibility (1/GPa) = 0.01519267
#
# Stress axis : x y z
#
# Youngs Moduli (GPa) = 111.21999 -206.96940 -79.68578
#
# Poissons Ratio (x) = -0.56371 -0.20211
# Poissons Ratio (y) = 0.30292 1.35873
# Poissons Ratio (z) = 0.28209 3.52906
#
# Static dielectric constant tensor:
#      x y z
#    x 1.538360 0.000000 0.000000 
#    y 0.000000 1.599500 0.000000 
#    z 0.000000 0.000000 1.590220 
# 
# From -- ./inp_files/27852.got.cif
#   From: 2010.05.17/outbox.ucp.g08.bks.cvg/sg51_14_cif.got.tgz:27852.got - 2010.06.11 16:27:58.
