data_PCOD9407509
_publ_section_title
;
Structure prediction by ZEFSAII (Michael W. Deem and Ramdas Pophale) SiO2 
 PCOD9407509
Probable space group: P M M A
;
_chemical_formula_sum "Si O2"
_cell_formula_units_Z 64
_cell_length_a 9.000000
_cell_length_b 15.000000
_cell_length_c 30.000000
_cell_angle_alpha 90.000000
_cell_angle_beta 90.000000
_cell_angle_gamma 90.000000
_cell_volume 4050.000000
_symmetry_space_group_name_H-M "P M M A"
_symmetry_group_IT_number 51
_symmetry_cell_setting 'orthorhombic'
loop_
_space_group_symop_operation_xyz
x,y,z
1/2-x,-y,z
1/2+x,-y,-z
-x,y,-z
-x,-y,-z
1/2+x,y,-z
1/2-x,y,z
x,-y,z
loop_
_atom_site_type_symbol
_atom_site_label
_atom_site_fract_x
_atom_site_fract_y
_atom_site_fract_z
Si Si1 0.571950 0.896308 0.792397
Si Si2 0.079796 0.102486 0.629502
Si Si3 0.572248 0.598982 0.168070
Si Si4 0.927806 0.098740 0.047905
Si Si5 0.429089 0.786392 0.871583
Si Si6 0.924530 0.894793 0.543340
Si Si7 0.072660 0.600338 0.265448
Si Si8 0.578414 0.221862 0.283353
O O1 0.750000 0.892979 0.793758
O O2 0.503359 0.852104 0.836201
O O3 0.511745 0.834200 0.752963
O O4 0.526727 0.000000 0.787085
O O5 0.250000 0.099982 0.613144
O O6 0.073667 0.163738 0.672278
O O7 0.979221 0.140583 0.590315
O O8 0.037130 0.000000 0.640829
O O9 0.750000 0.603805 0.176852
O O10 0.542083 0.500000 0.149233
O O11 0.531863 0.684041 0.138438
O O12 0.485868 0.606395 0.214635
O O13 0.750000 0.101584 0.043451
O O14 0.974673 0.177255 0.080463
O O15 0.966146 0.000000 0.066493
O O16 0.000000 0.106483 0.000000
O O17 0.250000 0.794373 0.867638
O O18 0.750000 0.890019 0.538850
O O19 0.000000 0.854438 0.500000
O O20 0.968566 0.000000 0.545146
O O21 0.250000 0.611309 0.266394
O O22 0.036680 0.500000 0.281392
O O23 0.992543 0.681277 0.289992
O O24 0.750000 0.231335 0.268633
#
# Coordination Sequence:
#
# PCOD9407509 Si02
#       8
#     8   8   8   8   8   8   8   8
#     4  11  23  34  45  66  96 128 160 194 232 277
#     4   9  18  31  45  63  90 125 163 199 236 279
#     4   9  17  30  49  72  94 118 152 191 232 280
#     4   9  18  32  49  69  92 119 153 191 233 281
#     4  10  19  32  51  72  93 121 155 193 235 279
#     4   9  16  26  42  63  87 118 157 200 242 281
#     4  10  20  33  49  69  94 123 156 198 243 282
#     4  11  21  33  49  68  93 128 164 198 236 282
#
# _framework density 15.802469
#
# number of rings (size 3 to 8) (size 9 to 14) (size 15 to 20)
#    0.000    2.250    1.250    2.250    0.000    5.750 
#    0.000    2.500    0.000    0.375    0.000    0.000 
#    0.000    0.500    0.000    1.625    0.000    2.375 
#
# Total GULP energy -356580.774785 kJ/mol
# GULP energy per Si atom -5571.574606 kJ/mol
# Density = 1.576650 g / cm^3
# Si number density = 15.802469 Si / 1000 Ang^3
#
#
#
# Elastic Constant Matrix: (Units=GPa)
#
#
# Indices 1 2 3 4 5 6 
#
# 1 11.7875 32.8523 16.2544 0.0000 0.0000 0.0000
# 2 32.8523 102.2291 26.2882 0.0000 0.0000 0.0000
# 3 16.2544 26.2882 41.1045 0.0000 0.0000 0.0000
# 4 0.0000 0.0000 0.0000 -38.4643 0.0000 0.0000
# 5 0.0000 0.0000 0.0000 0.0000 16.3301 0.0000
# 6 0.0000 0.0000 0.0000 0.0000 0.0000 10.1046
#
#
#
# Elastic Compliance Matrix: (Units=1/GPa)
#
#
# Indices 1 2 3 4 5 6 
#
# 1 -1.837197 0.483018 0.417591 0.000000 0.000000 0.000000
# 2 0.483018 -0.115283 -0.117276 0.000000 0.000000 0.000000
# 3 0.417591 -0.117276 -0.065801 0.000000 0.000000 0.000000
# 4 0.000000 0.000000 0.000000 -0.025998 0.000000 0.000000
# 5 0.000000 0.000000 0.000000 0.000000 0.061237 0.000000
# 6 0.000000 0.000000 0.000000 0.000000 0.000000 0.098965
#
#
# Mechanical properties :
#
#
# Convention : Reuss Voigt Hill
#
# Bulk Modulus (GPa) = -2.21428 33.99010 15.88791
# Shear Modulus (GPa) = -1.38839 2.90914 0.76037
#
# Velocity S-wave (km/s) = -0.93835 1.35829 0.69442
# Velocity P-wave (km/s) = 1.60570 4.90061 3.27397
#
# Compressibility (1/GPa) = -0.45161477
#
# Stress axis : x y z
#
# Youngs Moduli (GPa) = -0.54431 -8.67429 -15.19734
#
# Poissons Ratio (x) = 4.18984 6.34628
# Poissons Ratio (y) = 0.26291 -1.78229
# Poissons Ratio (z) = 0.22730 -1.01729
#
# Static dielectric constant tensor:
#      x y z
#    x 1.532150 0.000000 0.000000 
#    y 0.000000 1.534560 0.000000 
#    z 0.000000 0.000000 1.528780 
# 
# From -- ./inp_files/37566.got.cif
#   From: 2010.05.17/outbox.ucp.g08.bks.cvg/sg51_19_cif.got.tgz:37566.got - 2010.06.11 16:27:58.
