data_PCOD9407856
_publ_section_title
;
Structure prediction by ZEFSAII (Michael W. Deem and Ramdas Pophale) SiO2 
 PCOD9407856
Probable space group: P N N A
;
_chemical_formula_sum "Si O2"
_cell_formula_units_Z 48
_cell_length_a 8.941074
_cell_length_b 28.045822
_cell_length_c 6.860179
_cell_angle_alpha 90.000000
_cell_angle_beta 90.000000
_cell_angle_gamma 90.000000
_cell_volume 1720.256907
_symmetry_space_group_name_H-M "P N N A"
_symmetry_group_IT_number 52
_symmetry_cell_setting 'orthorhombic'
loop_
_space_group_symop_operation_xyz
x,y,z
1/2-x,-y,z
x,1/2-y,1/2-z
1/2-x,1/2+y,1/2-z
-x,-y,-z
1/2+x,y,-z
-x,1/2+y,1/2+z
1/2+x,1/2-y,1/2+z
loop_
_atom_site_type_symbol
_atom_site_label
_atom_site_fract_x
_atom_site_fract_y
_atom_site_fract_z
Si Si1 0.617333 0.435690 0.598384
Si Si2 0.052614 0.265397 0.978821
Si Si3 0.173197 0.956414 0.720428
Si Si4 0.292424 0.296931 0.500331
Si Si5 0.093148 0.615818 0.309179
Si Si6 0.805597 0.860490 0.372080
O O1 0.500521 0.467671 0.720951
O O2 0.717385 0.453627 0.414858
O O3 0.493258 0.401056 0.503973
O O4 0.747422 0.409088 0.716263
O O5 0.071030 0.250000 0.750000
O O6 0.137359 0.221751 0.081436
O O7 0.128220 0.316898 0.002475
O O8 0.883401 0.252227 0.033871
O O9 0.190628 0.904844 0.617944
O O10 0.250000 0.000000 0.605178
O O11 0.374613 0.328640 0.339971
O O12 0.256896 0.332001 0.680553
O O13 0.960246 0.610971 0.159262
#
# Coordination Sequence:
#
# PCOD9407856 Si02
#       6
#     8   8   8   8   8   8
#     4   9  16  25  40  66  96 128 163 193 241 300
#     4  10  21  32  49  72  96 134 169 200 252 298
#     4  10  18  28  45  68  97 134 170 207 251 305
#     4  11  16  31  50  66  98 131 164 200 243 300
#     4  10  14  26  46  63  94 133 153 194 240 286
#     4  10  20  33  48  69 103 133 165 210 251 294
#
# _framework density 27.902809999999999
#
# number of rings (size 3 to 8) (size 9 to 14) (size 15 to 20)
#    0.000    2.000    8.333    0.500    0.000    0.000 
#    0.000    4.167    0.000    0.000    0.000    1.167 
#    0.000    0.000    0.000    0.000    0.000    0.000 
#
# Total GULP energy -267538.087423 kJ/mol
# GULP energy per Si atom -5573.710155 kJ/mol
# Density = 2.783930 g / cm^3
# Si number density = 27.902810 Si / 1000 Ang^3
#
#
#
# Elastic Constant Matrix: (Units=GPa)
#
#
# Indices 1 2 3 4 5 6 
#
# 1 172.6836 25.9726 23.0138 0.0000 0.0000 0.0000
# 2 25.9726 104.3873 14.6241 0.0000 0.0000 0.0000
# 3 23.0138 14.6241 78.5593 0.0000 0.0000 0.0000
# 4 0.0000 0.0000 0.0000 11.9197 0.0000 0.0000
# 5 0.0000 0.0000 0.0000 0.0000 38.0098 0.0000
# 6 0.0000 0.0000 0.0000 0.0000 0.0000 61.0903
#
#
#
# Elastic Compliance Matrix: (Units=1/GPa)
#
#
# Indices 1 2 3 4 5 6 
#
# 1 0.006199 -0.001322 -0.001570 0.000000 0.000000 0.000000
# 2 -0.001322 0.010118 -0.001496 0.000000 0.000000 0.000000
# 3 -0.001570 -0.001496 0.013468 0.000000 0.000000 0.000000
# 4 0.000000 0.000000 0.000000 0.083895 0.000000 0.000000
# 5 0.000000 0.000000 0.000000 0.000000 0.026309 0.000000
# 6 0.000000 0.000000 0.000000 0.000000 0.000000 0.016369
#
#
# Mechanical properties :
#
#
# Convention : Reuss Voigt Hill
#
# Bulk Modulus (GPa) = 47.60057 53.65016 50.62537
# Shear Modulus (GPa) = 29.04653 41.67193 35.35923
#
# Velocity S-wave (km/s) = 3.22994 3.86873 3.56368
# Velocity P-wave (km/s) = 5.56834 6.26302 5.92587
#
# Compressibility (1/GPa) = 0.02100815
#
# Stress axis : x y z
#
# Youngs Moduli (GPa) = 161.31488 98.83028 74.25209
#
# Poissons Ratio (x) = 0.13070 0.11656
# Poissons Ratio (y) = 0.21333 0.11109
# Poissons Ratio (z) = 0.25324 0.14787
#
# Static dielectric constant tensor:
#      x y z
#    x 2.098230 0.000000 0.000000 
#    y 0.000000 2.197660 0.000000 
#    z 0.000000 0.000000 2.480030 
# 
# From -- ./inp_files/17161.got.cif
#   From: 2010.05.17/outbox.cif.g08.bks.cpg/sg52_9_cif.got.tgz:17161.got - 2010.06.03 12:15:38.
