data_PCOD9407584
_publ_section_title
;
Structure prediction by ZEFSAII (Michael W. Deem and Ramdas Pophale) SiO2 
 PCOD9407584
Probable space group: P M M A
;
_chemical_formula_sum "Si O2"
_cell_formula_units_Z 48
_cell_length_a 15.000000
_cell_length_b 9.000000
_cell_length_c 18.000000
_cell_angle_alpha 90.000000
_cell_angle_beta 90.000000
_cell_angle_gamma 90.000000
_cell_volume 2430.000000
_symmetry_space_group_name_H-M "P M M A"
_symmetry_group_IT_number 51
_symmetry_cell_setting 'orthorhombic'
loop_
_space_group_symop_operation_xyz
x,y,z
1/2-x,-y,z
1/2+x,-y,-z
-x,y,-z
-x,-y,-z
1/2+x,y,-z
1/2-x,y,z
x,-y,z
loop_
_atom_site_type_symbol
_atom_site_label
_atom_site_fract_x
_atom_site_fract_y
_atom_site_fract_z
Si Si1 0.347701 0.678486 0.379072
Si Si2 0.347881 0.177066 0.128109
Si Si3 0.105661 0.330129 0.981075
Si Si4 0.145638 0.828078 0.537849
Si Si5 0.964079 0.679267 0.169669
Si Si6 0.537666 0.321866 0.331552
O O1 0.250000 0.733907 0.355068
O O2 0.344623 0.500000 0.380620
O O3 0.364965 0.737712 0.461823
O O4 0.433204 0.720664 0.331689
O O5 0.250000 0.224153 0.158180
O O6 0.437095 0.252585 0.160147
O O7 0.355040 0.000000 0.135409
O O8 0.350420 0.225583 0.041572
O O9 0.139356 0.500000 0.986757
O O10 0.102469 0.276471 0.896383
O O11 0.000000 0.335710 0.000000
O O12 0.250000 0.818840 0.558307
O O13 0.086757 0.759837 0.602416
O O14 0.123063 0.000000 0.524693
O O15 0.974553 0.500000 0.164409
O O16 0.926489 0.715292 0.250387
O O17 0.543968 0.500000 0.342920
#
# Coordination Sequence:
#
# PCOD9407584 Si02
#       6
#     8   8   8   8   8   8
#     4   9  18  33  53  77 104 134 170 212 256 304
#     4  10  20  32  48  73 101 129 164 203 244 294
#     4   8  15  30  50  69  90 120 159 198 236 282
#     4  10  21  36  53  74 101 135 175 216 258 305
#     4   9  19  34  51  73 100 129 163 203 249 301
#     4  10  20  34  54  79 105 135 171 211 258 309
#
# _framework density 19.753086
#
# number of rings (size 3 to 8) (size 9 to 14) (size 15 to 20)
#    0.000    2.667    0.000    2.500    0.000    9.333 
#    0.000    2.500    0.000    7.000    0.000    0.000 
#    0.000    0.000    0.000    0.000    0.000    0.000 
#
# Total GULP energy -267557.678389 kJ/mol
# GULP energy per Si atom -5574.118300 kJ/mol
# Density = 1.970813 g / cm^3
# Si number density = 19.753086 Si / 1000 Ang^3
#
#
#
# Elastic Constant Matrix: (Units=GPa)
#
#
# Indices 1 2 3 4 5 6 
#
# 1 18.7793 5.2873 13.9016 0.0000 0.0000 0.0000
# 2 5.2873 -5.5529 -5.5626 0.0000 0.0000 0.0000
# 3 13.9016 -5.5626 63.6511 0.0000 0.0000 0.0000
# 4 0.0000 0.0000 0.0000 -9.8690 0.0000 0.0000
# 5 0.0000 0.0000 0.0000 0.0000 1.6540 0.0000
# 6 0.0000 0.0000 0.0000 0.0000 0.0000 83.0868
#
#
#
# Elastic Compliance Matrix: (Units=1/GPa)
#
#
# Indices 1 2 3 4 5 6 
#
# 1 0.043968 0.047340 -0.005466 0.000000 0.000000 0.000000
# 2 0.047340 -0.114620 -0.020356 0.000000 0.000000 0.000000
# 3 -0.005466 -0.020356 0.015125 0.000000 0.000000 0.000000
# 4 0.000000 0.000000 0.000000 -0.101327 0.000000 0.000000
# 5 0.000000 0.000000 0.000000 0.000000 0.604593 0.000000
# 6 0.000000 0.000000 0.000000 0.000000 0.000000 0.012036
#
#
# Mechanical properties :
#
#
# Convention : Reuss Voigt Hill
#
# Bulk Modulus (GPa) = -80.06380 11.57000 -34.24690
# Shear Modulus (GPa) = 12.11899 19.19111 15.65505
#
# Velocity S-wave (km/s) = 2.47963 3.12035 2.81826
# Velocity P-wave (km/s) = 5.69405 4.34191 2.60481
#
# Compressibility (1/GPa) = -0.01249004
#
# Stress axis : x y z
#
# Youngs Moduli (GPa) = 22.74395 -8.72452 66.11388
#
# Poissons Ratio (x) = 0.41302 0.36135
# Poissons Ratio (y) = -1.07669 1.34581
# Poissons Ratio (z) = 0.12431 -0.17760
#
# Static dielectric constant tensor:
#      x y z
#    x 1.717050 0.000000 0.000000 
#    y 0.000000 1.658160 0.000000 
#    z 0.000000 0.000000 1.725950 
# 
# From -- ./inp_files/29391.got.cif
#   From: 2010.05.17/outbox.ucp.g08.bks.cvg/sg51_15_cif.got.tgz:29391.got - 2010.06.11 16:27:58.
