data_PCOD9407519
_publ_section_title
;
Structure prediction by ZEFSAII (Michael W. Deem and Ramdas Pophale) SiO2 
 PCOD9407519
Probable space group: P M M A
;
_chemical_formula_sum "Si O2"
_cell_formula_units_Z 52
_cell_length_a 9.000000
_cell_length_b 21.000000
_cell_length_c 15.000000
_cell_angle_alpha 90.000000
_cell_angle_beta 90.000000
_cell_angle_gamma 90.000000
_cell_volume 2835.000000
_symmetry_space_group_name_H-M "P M M A"
_symmetry_group_IT_number 51
_symmetry_cell_setting 'orthorhombic'
loop_
_space_group_symop_operation_xyz
x,y,z
1/2-x,-y,z
1/2+x,-y,-z
-x,y,-z
-x,-y,-z
1/2+x,y,-z
1/2-x,y,z
x,-y,z
loop_
_atom_site_type_symbol
_atom_site_label
_atom_site_fract_x
_atom_site_fract_y
_atom_site_fract_z
Si Si1 0.071804 0.830253 0.903401
Si Si2 0.569890 0.118453 0.287553
Si Si3 0.426541 0.622145 0.406670
Si Si4 0.928865 0.227789 0.596166
Si Si5 0.070277 0.572114 0.216830
Si Si6 0.571330 0.317781 0.096836
Si Si7 0.568458 0.000000 0.601535
O O1 0.250000 0.833049 0.913871
O O2 0.033068 0.874668 0.818332
O O3 0.033923 0.756171 0.880068
O O4 0.000000 0.845201 0.000000
O O5 0.750000 0.113636 0.295753
O O6 0.509513 0.183016 0.332899
O O7 0.492009 0.061044 0.342238
O O8 0.500000 0.604165 0.500000
O O9 0.250000 0.616169 0.417073
O O10 0.457860 0.697121 0.388214
O O11 0.471493 0.582095 0.320462
O O12 0.750000 0.217808 0.595867
O O13 0.000000 0.212170 0.500000
O O14 0.250000 0.578588 0.210225
O O15 0.031244 0.500000 0.188009
O O16 0.994830 0.628833 0.161856
O O17 0.750000 0.322851 0.093740
O O18 0.500000 0.328897 0.000000
O O19 0.500000 0.000000 0.500000
O O20 0.750000 0.000000 0.596668
#
# Coordination Sequence:
#
# PCOD9407519 Si02
#       7
#     8   8   8   8   8   8   4
#     4   9  20  37  60  88 116 144 179 226 276 325
#     4  11  22  38  59  85 116 149 184 226 273 319
#     4   9  19  34  52  75 104 138 178 226 278 329
#     4  10  19  32  52  79 108 140 179 225 276 330
#     4  10  21  36  52  73 104 142 183 227 275 329
#     4  10  20  36  58  84 111 141 178 223 276 330
#     4  12  26  44  63  86 117 156 195 228 266 316
#
# _framework density 18.342151999999999
#
# number of rings (size 3 to 8) (size 9 to 14) (size 15 to 20)
#    0.000    2.000    0.000    3.462    0.000    4.000 
#    0.000    0.385    0.000    0.000    0.000    0.000 
#    0.000    0.000    0.000    0.000    0.000    0.000 
#
# Total GULP energy -290270.864223 kJ/mol
# GULP energy per Si atom -5582.132004 kJ/mol
# Density = 1.830040 g / cm^3
# Si number density = 18.342152 Si / 1000 Ang^3
#
#
#
# Elastic Constant Matrix: (Units=GPa)
#
#
# Indices 1 2 3 4 5 6 
#
# 1 70.5485 34.3223 43.9046 0.0000 0.0000 0.0000
# 2 34.3223 61.7583 61.0807 0.0000 0.0000 0.0000
# 3 43.9046 61.0807 136.5969 0.0000 0.0000 0.0000
# 4 0.0000 0.0000 0.0000 29.4265 0.0000 0.0000
# 5 0.0000 0.0000 0.0000 0.0000 35.9354 0.0000
# 6 0.0000 0.0000 0.0000 0.0000 0.0000 25.4160
#
#
#
# Elastic Compliance Matrix: (Units=1/GPa)
#
#
# Indices 1 2 3 4 5 6 
#
# 1 0.019931 -0.008500 -0.002605 0.000000 0.000000 0.000000
# 2 -0.008500 0.032657 -0.011871 0.000000 0.000000 0.000000
# 3 -0.002605 -0.011871 0.013466 0.000000 0.000000 0.000000
# 4 0.000000 0.000000 0.000000 0.033983 0.000000 0.000000
# 5 0.000000 0.000000 0.000000 0.000000 0.027828 0.000000
# 6 0.000000 0.000000 0.000000 0.000000 0.000000 0.039345
#
#
# Mechanical properties :
#
#
# Convention : Reuss Voigt Hill
#
# Bulk Modulus (GPa) = 49.74634 60.83543 55.29088
# Shear Modulus (GPa) = 22.74143 26.79534 24.76839
#
# Velocity S-wave (km/s) = 3.52496 3.82627 3.67870
# Velocity P-wave (km/s) = 6.61418 7.26357 6.94647
#
# Compressibility (1/GPa) = 0.02010198
#
# Stress axis : x y z
#
# Youngs Moduli (GPa) = 50.17203 30.62175 74.25950
#
# Poissons Ratio (x) = 0.26029 0.19347
# Poissons Ratio (y) = 0.42647 0.88151
# Poissons Ratio (z) = 0.13072 0.36350
#
# Static dielectric constant tensor:
#      x y z
#    x 1.615230 0.000000 0.000000 
#    y 0.000000 1.639700 0.000000 
#    z 0.000000 0.000000 1.628730 
# 
# From -- ./inp_files/21587.got.cif
#   From: 2010.05.17/outbox.ucp.g08.bks.cvg/sg51_11_cif.got.tgz:21587.got - 2010.06.11 16:27:58.
