data_PCOD9407828
_publ_section_title
;
Structure prediction by ZEFSAII (Michael W. Deem and Ramdas Pophale) SiO2 
 PCOD9407828
Probable space group: P M M A
;
_chemical_formula_sum "Si O2"
_cell_formula_units_Z 56
_cell_length_a 15.000000
_cell_length_b 9.000000
_cell_length_c 21.000000
_cell_angle_alpha 90.000000
_cell_angle_beta 90.000000
_cell_angle_gamma 90.000000
_cell_volume 2835.000000
_symmetry_space_group_name_H-M "P M M A"
_symmetry_group_IT_number 51
_symmetry_cell_setting 'orthorhombic'
loop_
_space_group_symop_operation_xyz
x,y,z
1/2-x,-y,z
1/2+x,-y,-z
-x,y,-z
-x,-y,-z
1/2+x,y,-z
1/2-x,y,z
x,-y,z
loop_
_atom_site_type_symbol
_atom_site_label
_atom_site_fract_x
_atom_site_fract_y
_atom_site_fract_z
Si Si1 0.358395 0.330153 0.525340
Si Si2 0.975874 0.820734 0.719846
Si Si3 0.851652 0.675591 0.110442
Si Si4 0.853646 0.821545 0.603160
Si Si5 0.972299 0.825117 0.857750
Si Si6 0.651310 0.323074 0.959197
Si Si7 0.147068 0.320165 0.667865
O O1 0.250000 0.331914 0.524092
O O2 0.389026 0.500000 0.519881
O O3 0.388165 0.239024 0.464268
O O4 0.379216 0.272499 0.595767
O O5 0.935023 0.782274 0.788484
O O6 0.072878 0.748897 0.712472
O O7 0.913436 0.770552 0.661974
O O8 0.984239 0.000000 0.717237
O O9 0.750000 0.705517 0.129996
O O10 0.868961 0.500000 0.121476
O O11 0.925286 0.775717 0.142288
O O12 0.858893 0.702676 0.034461
O O13 0.750000 0.775574 0.611063
O O14 0.855125 0.000000 0.601557
O O15 0.923059 0.747764 0.915796
O O16 0.964679 0.000000 0.865708
O O17 0.750000 0.268728 0.940553
O O18 0.648507 0.500000 0.950838
O O19 0.250000 0.277256 0.680501
O O20 0.144175 0.500000 0.669685
#
# Coordination Sequence:
#
# PCOD9407828 Si02
#       7
#     8   8   8   8   8   8   8
#     4   8  15  30  52  77 102 126 159 211 271 317
#     4  10  23  38  50  72 106 143 179 212 252 303
#     4   9  19  37  60  83 107 138 175 216 264 314
#     4   9  18  34  54  73  97 133 175 214 253 305
#     4  11  23  36  52  78 112 146 178 216 263 311
#     4   9  19  37  60  84 108 136 174 218 262 311
#     4   9  19  36  56  77 102 133 170 214 263 313
#
# _framework density 19.753086
#
# number of rings (size 3 to 8) (size 9 to 14) (size 15 to 20)
#    0.000    2.714    0.000    2.571    0.000    7.143 
#    0.000   10.000    0.000    1.714    0.000    0.000 
#    0.000    0.000    0.000    0.000    0.000    0.000 
#
# Total GULP energy -312386.871501 kJ/mol
# GULP energy per Si atom -5578.336991 kJ/mol
# Density = 1.970813 g / cm^3
# Si number density = 19.753086 Si / 1000 Ang^3
#
#
#
# Elastic Constant Matrix: (Units=GPa)
#
#
# Indices 1 2 3 4 5 6 
#
# 1 43.1548 11.1497 13.0561 0.0000 0.0000 0.0000
# 2 11.1497 -2.0329 24.5139 0.0000 0.0000 0.0000
# 3 13.0561 24.5139 19.7652 0.0000 0.0000 0.0000
# 4 0.0000 0.0000 0.0000 23.7038 0.0000 0.0000
# 5 0.0000 0.0000 0.0000 0.0000 -504.2404 0.0000
# 6 0.0000 0.0000 0.0000 0.0000 0.0000 -25.0440
#
#
#
# Elastic Compliance Matrix: (Units=1/GPa)
#
#
# Indices 1 2 3 4 5 6 
#
# 1 0.028317 -0.004403 -0.013244 0.000000 0.000000 0.000000
# 2 -0.004403 -0.030145 0.040296 0.000000 0.000000 0.000000
# 3 -0.013244 0.040296 0.009366 0.000000 0.000000 0.000000
# 4 0.000000 0.000000 0.000000 0.042187 0.000000 0.000000
# 5 0.000000 0.000000 0.000000 0.000000 -0.001983 0.000000
# 6 0.000000 0.000000 0.000000 0.000000 0.000000 -0.039930
#
#
# Mechanical properties :
#
#
# Convention : Reuss Voigt Hill
#
# Bulk Modulus (GPa) = 18.92694 17.59181 18.25938
# Shear Modulus (GPa) = -251.59624 -100.30498 -175.95061
#
# Velocity S-wave (km/s) = -11.29810 -7.13370 -9.44819
# Velocity P-wave (km/s) = 12.67255 7.67644 10.47667
#
# Compressibility (1/GPa) = 0.05283474
#
# Stress axis : x y z
#
# Youngs Moduli (GPa) = 35.31461 -33.17318 106.77263
#
# Poissons Ratio (x) = -0.14605 1.41415
# Poissons Ratio (y) = 0.15548 -4.30247
# Poissons Ratio (z) = 0.46772 1.33674
#
# Static dielectric constant tensor:
#      x y z
#    x 1.694980 0.000000 0.000000 
#    y 0.000000 1.655980 0.000000 
#    z 0.000000 0.000000 1.742690 
# 
# From -- ./inp_files/33351.got.cif
#   From: 2010.05.17/outbox.ucp.g08.bks.cvg/sg51_17_cif.got.tgz:33351.got - 2010.06.11 16:27:58.
