data_PCOD9407641
_publ_section_title
;
Structure prediction by ZEFSAII (Michael W. Deem and Ramdas Pophale) SiO2 
 PCOD9407641
Probable space group: P M M A
;
_chemical_formula_sum "Si O2"
_cell_formula_units_Z 48
_cell_length_a 9.000000
_cell_length_b 18.000000
_cell_length_c 15.000000
_cell_angle_alpha 90.000000
_cell_angle_beta 90.000000
_cell_angle_gamma 90.000000
_cell_volume 2430.000000
_symmetry_space_group_name_H-M "P M M A"
_symmetry_group_IT_number 51
_symmetry_cell_setting 'orthorhombic'
loop_
_space_group_symop_operation_xyz
x,y,z
1/2-x,-y,z
1/2+x,-y,-z
-x,y,-z
-x,-y,-z
1/2+x,y,-z
1/2-x,y,z
x,-y,z
loop_
_atom_site_type_symbol
_atom_site_label
_atom_site_fract_x
_atom_site_fract_y
_atom_site_fract_z
Si Si1 0.578236 0.202049 0.909370
Si Si2 0.076310 0.154485 0.729908
Si Si3 0.426240 0.291690 0.595153
Si Si4 0.422204 0.584084 0.725806
Si Si5 0.911419 0.913835 0.583245
Si Si6 0.078840 0.618273 0.090721
O O1 0.750000 0.181061 0.909445
O O2 0.497284 0.170577 0.823511
O O3 0.569263 0.291837 0.905824
O O4 0.500000 0.177658 0.000000
O O5 0.250000 0.142442 0.740291
O O6 0.051848 0.223505 0.662730
O O7 0.998668 0.090154 0.674855
O O8 0.500000 0.284596 0.500000
O O9 0.250000 0.299726 0.581219
O O10 0.484747 0.362090 0.650694
O O11 0.250000 0.606116 0.741808
O O12 0.425909 0.500000 0.694168
O O13 0.503455 0.590102 0.819778
O O14 0.750000 0.877725 0.591492
O O15 0.000000 0.880888 0.500000
O O16 0.891898 0.000000 0.561900
O O17 0.250000 0.596701 0.088015
O O18 0.000000 0.593658 0.000000
#
# Coordination Sequence:
#
# PCOD9407641 Si02
#       6
#     8   8   8   8   8   8
#     4  10  20  34  55  83 113 145 181 226 276 329
#     4  11  21  35  58  85 114 148 185 229 275 326
#     4  10  22  37  54  78 106 138 180 227 275 324
#     4  10  21  38  56  74 103 142 182 227 278 331
#     4  10  21  37  57  84 119 155 191 230 273 326
#     4  10  20  34  55  80 107 139 176 223 275 331
#
# _framework density 19.753086
#
# number of rings (size 3 to 8) (size 9 to 14) (size 15 to 20)
#    0.000    1.833    1.667    2.500    0.000    6.667 
#    0.000    0.000    0.000    0.500    0.000    0.000 
#    0.000    0.000    0.000    0.000    0.000    0.000 
#
# Total GULP energy -267797.215553 kJ/mol
# GULP energy per Si atom -5579.108657 kJ/mol
# Density = 1.970813 g / cm^3
# Si number density = 19.753086 Si / 1000 Ang^3
#
#
#
# Elastic Constant Matrix: (Units=GPa)
#
#
# Indices 1 2 3 4 5 6 
#
# 1 103.7454 46.9624 83.1432 0.0000 0.0000 0.0000
# 2 46.9624 29.7200 27.5307 0.0000 0.0000 0.0000
# 3 83.1432 27.5307 123.8640 0.0000 0.0000 0.0000
# 4 0.0000 0.0000 0.0000 38.8334 0.0000 0.0000
# 5 0.0000 0.0000 0.0000 0.0000 37.3600 0.0000
# 6 0.0000 0.0000 0.0000 0.0000 0.0000 12.8837
#
#
#
# Elastic Compliance Matrix: (Units=1/GPa)
#
#
# Indices 1 2 3 4 5 6 
#
# 1 0.073736 -0.088987 -0.029716 0.000000 0.000000 0.000000
# 2 -0.088987 0.149765 0.026445 0.000000 0.000000 0.000000
# 3 -0.029716 0.026445 0.022142 0.000000 0.000000 0.000000
# 4 0.000000 0.000000 0.000000 0.025751 0.000000 0.000000
# 5 0.000000 0.000000 0.000000 0.000000 0.026767 0.000000
# 6 0.000000 0.000000 0.000000 0.000000 0.000000 0.077617
#
#
# Mechanical properties :
#
#
# Convention : Reuss Voigt Hill
#
# Bulk Modulus (GPa) = 16.35968 63.62246 39.99107
# Shear Modulus (GPa) = 8.61074 24.46164 16.53619
#
# Velocity S-wave (km/s) = 2.09013 3.52287 2.89648
# Velocity P-wave (km/s) = 3.75832 6.98758 5.61031
#
# Compressibility (1/GPa) = 0.06112588
#
# Stress axis : x y z
#
# Youngs Moduli (GPa) = 13.56193 6.67714 45.16227
#
# Poissons Ratio (x) = 0.59418 1.34204
# Poissons Ratio (y) = 1.20684 -1.19431
# Poissons Ratio (z) = 0.40301 -0.17658
#
# Static dielectric constant tensor:
#      x y z
#    x 1.721310 0.000000 0.000000 
#    y 0.000000 2.005540 0.000000 
#    z 0.000000 0.000000 1.625800 
# 
# From -- ./inp_files/21052.got.cif
#   From: 2010.05.17/outbox.ucp.g08.bks.cvg/sg51_11_cif.got.tgz:21052.got - 2010.06.11 16:27:58.
