data_PCOD9407481
_publ_section_title
;
Structure prediction by ZEFSAII (Michael W. Deem and Ramdas Pophale) SiO2 
 PCOD9407481
Probable space group: P M M A
;
_chemical_formula_sum "Si O2"
_cell_formula_units_Z 64
_cell_length_a 21.000000
_cell_length_b 9.000000
_cell_length_c 21.000000
_cell_angle_alpha 90.000000
_cell_angle_beta 90.000000
_cell_angle_gamma 90.000000
_cell_volume 3969.000000
_symmetry_space_group_name_H-M "P M M A"
_symmetry_group_IT_number 51
_symmetry_cell_setting 'orthorhombic'
loop_
_space_group_symop_operation_xyz
x,y,z
1/2-x,-y,z
1/2+x,-y,-z
-x,y,-z
-x,-y,-z
1/2+x,y,-z
1/2-x,y,z
x,-y,z
loop_
_atom_site_type_symbol
_atom_site_label
_atom_site_fract_x
_atom_site_fract_y
_atom_site_fract_z
Si Si1 0.070374 0.822491 0.969562
Si Si2 0.470252 0.680287 0.841043
Si Si3 0.675841 0.678016 0.938605
Si Si4 0.900143 0.671309 0.689962
Si Si5 0.054705 0.670283 0.702848
Si Si6 0.414675 0.175560 0.438241
Si Si7 0.568554 0.826237 0.423839
Si Si8 0.390062 0.821751 0.178775
O O1 0.066712 0.742400 0.901524
O O2 0.079881 0.000000 0.964146
O O3 0.125540 0.750738 0.012591
O O4 0.000000 0.799408 0.000000
O O5 0.476427 0.500000 0.842318
O O6 0.435981 0.724561 0.774837
O O7 0.540718 0.752935 0.839544
O O8 0.750000 0.704422 0.955282
O O9 0.665665 0.500000 0.935572
O O10 0.659545 0.751888 0.870653
O O11 0.880383 0.500000 0.696605
O O12 0.884618 0.737034 0.620633
O O13 0.876518 0.769102 0.749114
O O14 0.977570 0.674369 0.695019
O O15 0.074739 0.500000 0.699425
O O16 0.084808 0.754162 0.643386
O O17 0.401768 0.232164 0.509995
O O18 0.491639 0.186726 0.430738
O O19 0.399427 0.000000 0.434065
O O20 0.583033 0.000000 0.421378
O O21 0.392381 0.000000 0.174021
#
# Coordination Sequence:
#
# PCOD9407481 Si02
#       8
#     8   8   8   8   8   8   8   8
#     4  11  22  35  54  80 102 127 163 203 249 298
#     4  10  19  31  48  69  94 124 159 201 244 287
#     4  11  24  40  57  76  99 130 164 200 247 300
#     4   9  16  25  37  55  79 110 149 191 233 276
#     4   8  15  24  34  53  79 109 147 188 231 276
#     4   8  13  21  31  47  71 103 145 187 227 273
#     4   8  13  20  31  46  70 106 144 183 228 276
#     4  11  20  31  48  69  93 122 156 198 244 288
#
# _framework density 16.124969
#
# number of rings (size 3 to 8) (size 9 to 14) (size 15 to 20)
#    0.000    2.500    1.250    4.125    0.000    5.500 
#    0.000    2.500    0.000    0.000    0.000    0.000 
#    0.000    0.000    0.000    1.125    0.000   19.750 
#
# Total GULP energy -356447.192539 kJ/mol
# GULP energy per Si atom -5569.487383 kJ/mol
# Density = 1.608827 g / cm^3
# Si number density = 16.124969 Si / 1000 Ang^3
#
#
#
# Elastic Constant Matrix: (Units=GPa)
#
#
# Indices 1 2 3 4 5 6 
#
# 1 41.3865 32.3999 33.4063 0.0000 0.0000 0.0000
# 2 32.3999 92.9528 66.7428 0.0000 0.0000 0.0000
# 3 33.4063 66.7428 158.6379 0.0000 0.0000 0.0000
# 4 0.0000 0.0000 0.0000 32.6046 0.0000 0.0000
# 5 0.0000 0.0000 0.0000 0.0000 8.7300 0.0000
# 6 0.0000 0.0000 0.0000 0.0000 0.0000 11.6769
#
#
#
# Elastic Compliance Matrix: (Units=1/GPa)
#
#
# Indices 1 2 3 4 5 6 
#
# 1 0.034289 -0.009696 -0.003141 0.000000 0.000000 0.000000
# 2 -0.009696 0.018157 -0.005597 0.000000 0.000000 0.000000
# 3 -0.003141 -0.005597 0.009320 0.000000 0.000000 0.000000
# 4 0.000000 0.000000 0.000000 0.030670 0.000000 0.000000
# 5 0.000000 0.000000 0.000000 0.000000 0.114548 0.000000
# 6 0.000000 0.000000 0.000000 0.000000 0.000000 0.085639
#
#
# Mechanical properties :
#
#
# Convention : Reuss Voigt Hill
#
# Bulk Modulus (GPa) = 40.16649 62.00836 51.08742
# Shear Modulus (GPa) = 14.80205 21.29751 18.04978
#
# Velocity S-wave (km/s) = 3.03307 3.63819 3.34933
# Velocity P-wave (km/s) = 6.10161 7.49580 6.83435
#
# Compressibility (1/GPa) = 0.02489638
#
# Stress axis : x y z
#
# Youngs Moduli (GPa) = 29.16399 55.07552 107.29635
#
# Poissons Ratio (x) = 0.53404 0.33703
# Poissons Ratio (y) = 0.28279 0.60055
# Poissons Ratio (z) = 0.09161 0.30827
#
# Static dielectric constant tensor:
#      x y z
#    x 1.508510 0.000000 0.000000 
#    y 0.000000 1.540300 0.000000 
#    z 0.000000 0.000000 1.588520 
# 
# From -- ./inp_files/34179.got.cif
#   From: 2010.05.17/outbox.ucp.g08.bks.cvg/sg51_18_cif.got.tgz:34179.got - 2010.06.11 16:27:58.
