data_PCOD9407818
_publ_section_title
;
Structure prediction by ZEFSAII (Michael W. Deem and Ramdas Pophale) SiO2 
 PCOD9407818
Probable space group: P M M A
;
_chemical_formula_sum "Si O2"
_cell_formula_units_Z 44
_cell_length_a 9.000000
_cell_length_b 18.000000
_cell_length_c 15.000000
_cell_angle_alpha 90.000000
_cell_angle_beta 90.000000
_cell_angle_gamma 90.000000
_cell_volume 2430.000000
_symmetry_space_group_name_H-M "P M M A"
_symmetry_group_IT_number 51
_symmetry_cell_setting 'orthorhombic'
loop_
_space_group_symop_operation_xyz
x,y,z
1/2-x,-y,z
1/2+x,-y,-z
-x,y,-z
-x,-y,-z
1/2+x,y,-z
1/2-x,y,z
x,-y,z
loop_
_atom_site_type_symbol
_atom_site_label
_atom_site_fract_x
_atom_site_fract_y
_atom_site_fract_z
Si Si1 0.919112 0.884686 0.088704
Si Si2 0.580669 0.703526 0.088356
Si Si3 0.571623 0.581418 0.596401
Si Si4 0.071249 0.705598 0.269832
Si Si5 0.071473 0.875334 0.270135
Si Si6 0.571525 0.000000 0.594822
O O1 0.750000 0.909343 0.091335
O O2 0.919538 0.794080 0.085961
O O3 0.005014 0.904392 0.178021
O O4 0.000000 0.910725 0.000000
O O5 0.750000 0.679160 0.092445
O O6 0.490447 0.681499 0.174977
O O7 0.500000 0.677095 0.000000
O O8 0.500000 0.585378 0.500000
O O9 0.750000 0.586374 0.588169
O O10 0.537002 0.500000 0.635447
O O11 0.518033 0.648956 0.656030
O O12 0.250000 0.704834 0.267778
O O13 0.023696 0.790501 0.285535
O O14 0.250000 0.876428 0.262640
O O15 0.025452 0.927896 0.349860
O O16 0.500000 0.000000 0.500000
O O17 0.750000 0.000000 0.588625
#
# Coordination Sequence:
#
# PCOD9407818 Si02
#       6
#     8   8   8   8   8   4
#     4   9  16  27  46  72  99 126 155 190 233 279
#     4   9  16  26  43  69  99 128 158 192 230 273
#     4   9  18  32  49  70  96 124 153 189 236 285
#     4   9  17  30  49  71  95 124 157 193 232 275
#     4   9  18  33  50  69  94 124 159 196 233 275
#     4  10  22  38  53  68  91 124 159 198 242 282
#
# _framework density 18.106995999999999
#
# number of rings (size 3 to 8) (size 9 to 14) (size 15 to 20)
#    0.000    2.909    0.000    1.091    0.000    6.545 
#    0.000    0.455    0.000    0.545    0.000    0.000 
#    0.000    0.000    0.000    0.000    0.000    0.000 
#
# Total GULP energy -245161.830772 kJ/mol
# GULP energy per Si atom -5571.859790 kJ/mol
# Density = 1.806578 g / cm^3
# Si number density = 18.106996 Si / 1000 Ang^3
#
#
#
# Elastic Constant Matrix: (Units=GPa)
#
#
# Indices 1 2 3 4 5 6 
#
# 1 -0.7716 33.4252 34.0730 0.0000 0.0000 0.0000
# 2 33.4252 80.2304 81.4645 0.0000 0.0000 0.0000
# 3 34.0730 81.4645 147.3656 0.0000 0.0000 0.0000
# 4 0.0000 0.0000 0.0000 40.2465 0.0000 0.0000
# 5 0.0000 0.0000 0.0000 0.0000 31.0312 0.0000
# 6 0.0000 0.0000 0.0000 0.0000 0.0000 13.1658
#
#
#
# Elastic Compliance Matrix: (Units=1/GPa)
#
#
# Indices 1 2 3 4 5 6 
#
# 1 -0.068040 0.028203 0.000141 0.000000 0.000000 0.000000
# 2 0.028203 0.016721 -0.015765 0.000000 0.000000 0.000000
# 3 0.000141 -0.015765 0.015468 0.000000 0.000000 0.000000
# 4 0.000000 0.000000 0.000000 0.024847 0.000000 0.000000
# 5 0.000000 0.000000 0.000000 0.000000 0.032226 0.000000
# 6 0.000000 0.000000 0.000000 0.000000 0.000000 0.075954
#
#
# Mechanical properties :
#
#
# Convention : Reuss Voigt Hill
#
# Bulk Modulus (GPa) = -93.53474 58.30553 -17.61461
# Shear Modulus (GPa) = 73.04202 22.07949 47.56076
#
# Velocity S-wave (km/s) = 6.35820 3.49577 5.13065
# Velocity P-wave (km/s) = 1.46063 6.96881 5.03476
#
# Compressibility (1/GPa) = -0.01069122
#
# Stress axis : x y z
#
# Youngs Moduli (GPa) = -14.69734 59.80418 64.64932
#
# Poissons Ratio (x) = -1.68668 -0.00910
# Poissons Ratio (y) = 0.41451 1.01917
# Poissons Ratio (z) = 0.00207 0.94279
#
# Static dielectric constant tensor:
#      x y z
#    x 1.599060 0.000000 0.000000 
#    y 0.000000 1.641070 0.000000 
#    z 0.000000 0.000000 1.576910 
# 
# From -- ./inp_files/20922.got.cif
#   From: 2010.05.17/outbox.ucp.g08.bks.cvg/sg51_11_cif.got.tgz:20922.got - 2010.06.11 16:27:58.
