data_PCOD9407991
_publ_section_title
;
Structure prediction by ZEFSAII (Michael W. Deem and Ramdas Pophale) SiO2 
 PCOD9407991
Probable space group: P N N A
;
_chemical_formula_sum "Si O2"
_cell_formula_units_Z 40
_cell_length_a 13.656142
_cell_length_b 7.444699
_cell_length_c 17.055370
_cell_angle_alpha 90.000000
_cell_angle_beta 90.000000
_cell_angle_gamma 90.000000
_cell_volume 1733.948973
_symmetry_space_group_name_H-M "P N N A"
_symmetry_group_IT_number 52
_symmetry_cell_setting 'orthorhombic'
loop_
_space_group_symop_operation_xyz
x,y,z
1/2-x,-y,z
x,1/2-y,1/2-z
1/2-x,1/2+y,1/2-z
-x,-y,-z
1/2+x,y,-z
-x,1/2+y,1/2+z
1/2+x,1/2-y,1/2+z
loop_
_atom_site_type_symbol
_atom_site_label
_atom_site_fract_x
_atom_site_fract_y
_atom_site_fract_z
Si Si1 0.482657 0.640830 0.891411
Si Si2 0.572097 0.759511 0.048665
Si Si3 0.136097 0.004679 0.280928
Si Si4 0.284285 0.788152 0.534371
Si Si5 0.387048 0.636238 0.379280
O O1 0.457036 0.435760 0.917341
O O2 0.550873 0.621698 0.815723
O O3 0.373771 0.722775 0.903680
O O4 0.551587 0.730441 0.957105
O O5 0.684393 0.802816 0.062368
O O6 0.495031 0.894311 0.086304
O O7 0.107871 0.191487 0.322614
O O8 0.140385 0.991286 0.186239
O O9 0.250000 0.000000 0.306126
O O10 0.321412 0.695801 0.453557
O O11 0.250000 0.000000 0.521127
#
# Coordination Sequence:
#
# PCOD9407991 Si02
#       5
#     8   8   8   8   8
#     4   8  14  22  37  62  85 109 141 181 227 273
#     4   8  13  23  39  61  86 106 144 191 221 255
#     4  10  17  26  39  60  95 122 142 179 234 276
#     4   9  14  24  43  65  85 109 149 192 226 258
#     4   9  17  25  39  66  88 115 150 184 226 271
#
# _framework density 23.068729999999999
#
# number of rings (size 3 to 8) (size 9 to 14) (size 15 to 20)
#    0.000    3.200    0.000    5.400    0.000    0.000 
#    0.000    0.000    0.000    1.200    0.000   84.000 
#    0.000    0.000    0.000    0.000    0.000    5.600 
#
# Total GULP energy -222736.418281 kJ/mol
# GULP energy per Si atom -5568.410457 kJ/mol
# Density = 2.301623 g / cm^3
# Si number density = 23.068730 Si / 1000 Ang^3
#
#
#
# Elastic Constant Matrix: (Units=GPa)
#
#
# Indices 1 2 3 4 5 6 
#
# 1 215.8535 25.5229 85.2256 0.0000 0.0000 0.0000
# 2 25.5229 59.9772 20.3030 0.0000 0.0000 0.0000
# 3 85.2256 20.3030 112.3454 0.0000 0.0000 0.0000
# 4 0.0000 0.0000 0.0000 24.5631 0.0000 0.0000
# 5 0.0000 0.0000 0.0000 0.0000 41.6622 0.0000
# 6 0.0000 0.0000 0.0000 0.0000 0.0000 2.2801
#
#
#
# Elastic Compliance Matrix: (Units=1/GPa)
#
#
# Indices 1 2 3 4 5 6 
#
# 1 0.006694 -0.001203 -0.004861 0.000000 0.000000 0.000000
# 2 -0.001203 0.017976 -0.002336 0.000000 0.000000 0.000000
# 3 -0.004861 -0.002336 0.013011 0.000000 0.000000 0.000000
# 4 0.000000 0.000000 0.000000 0.040711 0.000000 0.000000
# 5 0.000000 0.000000 0.000000 0.000000 0.024003 0.000000
# 6 0.000000 0.000000 0.000000 0.000000 0.000000 0.438577
#
#
# Mechanical properties :
#
#
# Convention : Reuss Voigt Hill
#
# Bulk Modulus (GPa) = 47.89054 72.25323 60.07189
# Shear Modulus (GPa) = 8.85376 30.84274 19.84825
#
# Velocity S-wave (km/s) = 1.96120 3.66046 2.93643
# Velocity P-wave (km/s) = 5.09249 7.01813 6.13138
#
# Compressibility (1/GPa) = 0.02088095
#
# Stress axis : x y z
#
# Youngs Moduli (GPa) = 149.38187 55.63064 76.85986
#
# Poissons Ratio (x) = 0.06694 0.37360
# Poissons Ratio (y) = 0.17974 0.17953
# Poissons Ratio (z) = 0.72612 0.12994
#
# Static dielectric constant tensor:
#      x y z
#    x 1.923770 0.000000 0.000000 
#    y 0.000000 2.034490 0.000000 
#    z 0.000000 0.000000 1.887420 
# 
# From -- ./inp_files/27026.got.cif
#   From: 2010.05.17/outbox.cif.g08.bks.cpg/sg52_14_cif.got.tgz:27026.got - 2010.06.03 12:15:38.
