data_PCOD9407311
_publ_section_title
;
Structure prediction by ZEFSAII (Michael W. Deem and Ramdas Pophale) SiO2 
 PCOD9407311
Probable space group: P M M A
;
_chemical_formula_sum "Si O2"
_cell_formula_units_Z 40
_cell_length_a 7.354609
_cell_length_b 9.933230
_cell_length_c 26.379178
_cell_angle_alpha 90.000000
_cell_angle_beta 90.000000
_cell_angle_gamma 90.000000
_cell_volume 1927.131449
_symmetry_space_group_name_H-M "P M M A"
_symmetry_group_IT_number 51
_symmetry_cell_setting 'orthorhombic'
loop_
_space_group_symop_operation_xyz
x,y,z
1/2-x,-y,z
1/2+x,-y,-z
-x,y,-z
-x,-y,-z
1/2+x,y,-z
1/2-x,y,z
x,-y,z
loop_
_atom_site_type_symbol
_atom_site_label
_atom_site_fract_x
_atom_site_fract_y
_atom_site_fract_z
Si Si1 0.971678 0.845933 0.854306
Si Si2 0.033070 0.847663 0.441445
Si Si3 0.971269 0.154461 0.739470
Si Si4 0.532876 0.346986 0.943174
Si Si5 0.527604 0.654895 0.648029
O O1 0.750000 0.843794 0.854559
O O2 0.027146 0.810773 0.796885
O O3 0.036169 0.746603 0.898099
O O4 0.025977 0.000000 0.864118
O O5 0.250000 0.854601 0.434589
O O6 0.966935 0.738090 0.401423
O O7 0.000000 0.811926 0.500000
O O8 0.962479 0.000000 0.432870
O O9 0.750000 0.153884 0.738886
O O10 0.029891 0.260472 0.697353
O O11 0.026906 0.000000 0.728359
O O12 0.750000 0.354181 0.937125
O O13 0.461712 0.500000 0.940687
O O14 0.500000 0.294338 0.000000
O O15 0.750000 0.653262 0.647991
O O16 0.468702 0.500000 0.648346
#
# Coordination Sequence:
#
# PCOD9407311 Si02
#       5
#     8   8   8   8   8
#     4   8  14  24  38  57  80 105 133 165 201 239
#     4   9  17  29  44  61  82 109 139 168 199 237
#     4   8  13  22  36  54  78 106 132 161 201 244
#     4   9  17  28  41  58  81 108 136 165 198 237
#     4   9  16  24  36  57  83 108 134 165 201 240
#
# _framework density 20.756239000000001
#
# number of rings (size 3 to 8) (size 9 to 14) (size 15 to 20)
#    0.000    3.400    0.000    1.800    0.000    4.000 
#    0.000    4.000    0.000    0.000    0.000    1.400 
#    0.000    1.600    0.000    0.000    0.000    0.000 
#
# Total GULP energy -223179.418483 kJ/mol
# GULP energy per Si atom -5579.485462 kJ/mol
# Density = 2.070900 g / cm^3
# Si number density = 20.756239 Si / 1000 Ang^3
#
#
#
# Elastic Constant Matrix: (Units=GPa)
#
#
# Indices 1 2 3 4 5 6 
#
# 1 77.2434 6.6111 2.1887 0.0000 0.0000 0.0000
# 2 6.6111 168.9282 165.5636 0.0000 0.0000 0.0000
# 3 2.1887 165.5636 214.9035 0.0000 0.0000 0.0000
# 4 0.0000 0.0000 0.0000 38.0049 0.0000 0.0000
# 5 0.0000 0.0000 0.0000 0.0000 11.9378 0.0000
# 6 0.0000 0.0000 0.0000 0.0000 0.0000 -13.0414
#
#
#
# Elastic Compliance Matrix: (Units=1/GPa)
#
#
# Indices 1 2 3 4 5 6 
#
# 1 0.013049 -0.001553 0.001064 0.000000 0.000000 0.000000
# 2 -0.001553 0.024353 -0.018746 0.000000 0.000000 0.000000
# 3 0.001064 -0.018746 0.019085 0.000000 0.000000 0.000000
# 4 0.000000 0.000000 0.000000 0.026312 0.000000 0.000000
# 5 0.000000 0.000000 0.000000 0.000000 0.083767 0.000000
# 6 0.000000 0.000000 0.000000 0.000000 0.000000 -0.076679
#
#
# Mechanical properties :
#
#
# Convention : Reuss Voigt Hill
#
# Bulk Modulus (GPa) = 55.50784 89.97799 72.74291
# Shear Modulus (GPa) = 37.21239 26.49438 31.85338
#
# Velocity S-wave (km/s) = 4.23877 3.57663 3.92170
# Velocity P-wave (km/s) = 7.12440 7.77819 7.45846
#
# Compressibility (1/GPa) = 0.01801547
#
# Stress axis : x y z
#
# Youngs Moduli (GPa) = 76.63491 41.06241 52.39836
#
# Poissons Ratio (x) = 0.06378 -0.05573
# Poissons Ratio (y) = 0.11903 0.98226
# Poissons Ratio (z) = -0.08151 0.76976
#
# Static dielectric constant tensor:
#      x y z
#    x 1.850090 0.000000 0.000000 
#    y 0.000000 1.707390 0.000000 
#    z 0.000000 0.000000 1.710720 
# 
# From -- ./inp_files/32794.got.cif
#   From: 2010.05.17/outbox.cif.g08.bks.cpg/sg51_17_cif.got.tgz:32794.got - 2010.06.03 11:52:47.
