data_PCOD9407870
_publ_section_title
;
Structure prediction by ZEFSAII (Michael W. Deem and Ramdas Pophale) SiO2 
 PCOD9407870
Probable space group: P N N A
;
_chemical_formula_sum "Si O2"
_cell_formula_units_Z 36
_cell_length_a 7.839834
_cell_length_b 13.426360
_cell_length_c 16.597682
_cell_angle_alpha 90.000000
_cell_angle_beta 90.000000
_cell_angle_gamma 90.000000
_cell_volume 1747.079204
_symmetry_space_group_name_H-M "P N N A"
_symmetry_group_IT_number 52
_symmetry_cell_setting 'orthorhombic'
loop_
_space_group_symop_operation_xyz
x,y,z
1/2-x,-y,z
x,1/2-y,1/2-z
1/2-x,1/2+y,1/2-z
-x,-y,-z
1/2+x,y,-z
-x,1/2+y,1/2+z
1/2+x,1/2-y,1/2+z
loop_
_atom_site_type_symbol
_atom_site_label
_atom_site_fract_x
_atom_site_fract_y
_atom_site_fract_z
Si Si1 0.066974 0.559030 0.682795
Si Si2 0.000426 0.250000 0.750000
Si Si3 0.289661 0.299661 0.557883
Si Si4 0.786091 0.114099 0.340579
Si Si5 0.086309 0.629688 0.389736
O O1 0.250000 0.500000 0.682979
O O2 0.080956 0.645524 0.617887
O O3 0.063817 0.603741 0.773019
O O4 0.933547 0.480697 0.646440
O O5 0.128770 0.168491 0.708493
O O6 0.878595 0.300542 0.685463
O O7 0.312013 0.183842 0.581347
O O8 0.309852 0.342735 0.468683
O O9 0.103961 0.335129 0.585332
O O10 0.750000 0.000000 0.363938
#
# Coordination Sequence:
#
# PCOD9407870 Si02
#       5
#     8   4   8   8   8
#     4   9  14  28  51  76  96 124 170 217 247 297
#     4  10  16  30  50  68 100 134 170 202 248 312
#     4  10  19  30  49  80 101 127 166 220 255 300
#     4  10  15  29  52  76  97 132 182 209 244 308
#     4  10  19  31  52  76 100 129 171 210 261 299
#
# _framework density 20.605819
#
# number of rings (size 3 to 8) (size 9 to 14) (size 15 to 20)
#    0.000    2.222    8.889    0.667    0.000    0.000 
#    0.000    4.444    4.889    0.000    0.000    0.000 
#    0.000    0.000    0.000    0.000    0.000    0.000 
#
# Total GULP energy -200421.399977 kJ/mol
# GULP energy per Si atom -5567.261110 kJ/mol
# Density = 2.055892 g / cm^3
# Si number density = 20.605819 Si / 1000 Ang^3
#
#
#
# Elastic Constant Matrix: (Units=GPa)
#
#
# Indices 1 2 3 4 5 6 
#
# 1 28.6652 11.0567 9.7253 0.0000 0.0000 0.0000
# 2 11.0567 14.3237 -87.5042 0.0000 0.0000 0.0000
# 3 9.7253 -87.5042 -31.6562 0.0000 0.0000 0.0000
# 4 0.0000 0.0000 0.0000 33.5613 0.0000 0.0000
# 5 0.0000 0.0000 0.0000 0.0000 11.7810 0.0000
# 6 0.0000 0.0000 0.0000 0.0000 0.0000 -6.7118
#
#
#
# Elastic Compliance Matrix: (Units=1/GPa)
#
#
# Indices 1 2 3 4 5 6 
#
# 1 0.032599 0.002014 0.004449 0.000000 0.000000 0.000000
# 2 0.002014 0.004028 -0.010514 0.000000 0.000000 0.000000
# 3 0.004449 -0.010514 -0.001159 0.000000 0.000000 0.000000
# 4 0.000000 0.000000 0.000000 0.029796 0.000000 0.000000
# 5 0.000000 0.000000 0.000000 0.000000 0.084882 0.000000
# 6 0.000000 0.000000 0.000000 0.000000 0.000000 -0.148991
#
#
# Mechanical properties :
#
#
# Convention : Reuss Voigt Hill
#
# Bulk Modulus (GPa) = 36.54398 -13.56797 11.48800
# Shear Modulus (GPa) = 272.01748 12.92974 142.47361
#
# Velocity S-wave (km/s) = 11.50203 2.50767 8.32421
# Velocity P-wave (km/s) = 13.93445 1.33631 9.89835
#
# Compressibility (1/GPa) = 0.02736429
#
# Stress axis : x y z
#
# Youngs Moduli (GPa) = 30.67541 248.29005 -862.83521
#
# Poissons Ratio (x) = -0.49998 3.83855
# Poissons Ratio (y) = -0.06177 -9.07212
# Poissons Ratio (z) = -0.13647 2.61060
#
# Static dielectric constant tensor:
#      x y z
#    x 1.784420 0.000000 0.000000 
#    y 0.000000 1.803760 0.000000 
#    z 0.000000 0.000000 1.804340 
# 
# From -- ./inp_files/17917.got.cif
#   From: 2010.05.17/outbox.cif.g08.bks.cpg/sg52_9_cif.got.tgz:17917.got - 2010.06.03 12:15:38.
