data_PCOD9407046
_publ_section_title
;
Structure prediction by ZEFSAII (Michael W. Deem and Ramdas Pophale) SiO2 
 PCOD9407046
Probable space group: P M M A
;
_chemical_formula_sum "Si O2"
_cell_formula_units_Z 52
_cell_length_a 14.435619
_cell_length_b 20.756385
_cell_length_c 8.941565
_cell_angle_alpha 90.000000
_cell_angle_beta 90.000000
_cell_angle_gamma 90.000000
_cell_volume 2679.172438
_symmetry_space_group_name_H-M "P M M A"
_symmetry_group_IT_number 51
_symmetry_cell_setting 'orthorhombic'
loop_
_space_group_symop_operation_xyz
x,y,z
1/2-x,-y,z
1/2+x,-y,-z
-x,y,-z
-x,-y,-z
1/2+x,y,-z
1/2-x,y,z
x,-y,z
loop_
_atom_site_type_symbol
_atom_site_label
_atom_site_fract_x
_atom_site_fract_y
_atom_site_fract_z
Si Si1 0.534713 0.652328 0.834790
Si Si2 0.355126 0.786359 0.175487
Si Si3 0.348313 0.320619 0.651653
Si Si4 0.000000 0.875059 0.000000
Si Si5 0.144626 0.074318 0.757724
Si Si6 0.398914 0.428438 0.422958
Si Si7 0.610489 0.183265 0.487144
O O1 0.600585 0.714957 0.827348
O O2 0.440155 0.668495 0.746555
O O3 0.585396 0.595269 0.745872
O O4 0.500000 0.636754 0.000000
O O5 0.250000 0.785425 0.117172
O O6 0.425358 0.830333 0.082968
O O7 0.353749 0.814658 0.343633
O O8 0.250000 0.328855 0.733550
O O9 0.350639 0.371672 0.515757
O O10 0.354627 0.248537 0.589760
O O11 0.062999 0.912677 0.878283
O O12 0.250000 0.083432 0.819800
O O13 0.134555 0.123065 0.618271
O O14 0.137567 0.000000 0.708809
O O15 0.500000 0.431890 0.500000
O O16 0.358183 0.500000 0.432583
O O17 0.500000 0.187115 0.500000
#
# Coordination Sequence:
#
# PCOD9407046 Si02
#       7
#     8   8   8   4   8   8   8
#     4  11  22  38  56  90 131 162 205 256 316 378
#     4  12  24  39  63  94 126 163 209 264 316 373
#     4  11  21  37  63  90 120 162 210 258 309 368
#     4  12  23  44  64  92 127 166 204 258 313 386
#     4  11  25  44  66  93 126 166 209 257 320 384
#     4   9  19  37  60  85 120 164 208 254 303 360
#     4  12  21  42  65  90 124 160 210 264 311 366
#
# _framework density 19.408978000000001
#
# number of rings (size 3 to 8) (size 9 to 14) (size 15 to 20)
#    0.000    0.923    5.385    2.538    0.000    1.538 
#    0.000    0.000    0.000    2.769    0.000    2.154 
#    0.000    0.000    0.000    0.000    0.000    0.000 
#
# Total GULP energy -290310.089703 kJ/mol
# GULP energy per Si atom -5582.886340 kJ/mol
# Density = 1.936480 g / cm^3
# Si number density = 19.408978 Si / 1000 Ang^3
#
#
#
# Elastic Constant Matrix: (Units=GPa)
#
#
# Indices 1 2 3 4 5 6 
#
# 1 139.0070 24.7708 5.6864 0.0000 0.0000 0.0000
# 2 24.7708 133.7849 34.7895 0.0000 0.0000 0.0000
# 3 5.6864 34.7895 80.4727 0.0000 0.0000 0.0000
# 4 0.0000 0.0000 0.0000 9.5093 0.0000 0.0000
# 5 0.0000 0.0000 0.0000 0.0000 11.2562 0.0000
# 6 0.0000 0.0000 0.0000 0.0000 0.0000 70.7656
#
#
#
# Elastic Compliance Matrix: (Units=1/GPa)
#
#
# Indices 1 2 3 4 5 6 
#
# 1 0.007440 -0.001398 0.000079 0.000000 0.000000 0.000000
# 2 -0.001398 0.008684 -0.003655 0.000000 0.000000 0.000000
# 3 0.000079 -0.003655 0.014001 0.000000 0.000000 0.000000
# 4 0.000000 0.000000 0.000000 0.105160 0.000000 0.000000
# 5 0.000000 0.000000 0.000000 0.000000 0.088840 0.000000
# 6 0.000000 0.000000 0.000000 0.000000 0.000000 0.014131
#
#
# Mechanical properties :
#
#
# Convention : Reuss Voigt Hill
#
# Bulk Modulus (GPa) = 49.56474 53.75088 51.65781
# Shear Modulus (GPa) = 19.61317 37.50743 28.56030
#
# Velocity S-wave (km/s) = 3.18232 4.40077 3.84017
# Velocity P-wave (km/s) = 6.25262 7.31958 6.80704
#
# Compressibility (1/GPa) = 0.02017563
#
# Stress axis : x y z
#
# Youngs Moduli (GPa) = 134.41259 115.15313 71.42184
#
# Poissons Ratio (x) = 0.16098 -0.00562
# Poissons Ratio (y) = 0.18790 0.26108
# Poissons Ratio (z) = -0.01057 0.42094
#
# Static dielectric constant tensor:
#      x y z
#    x 1.703130 0.000000 0.000000 
#    y 0.000000 1.658680 0.000000 
#    z 0.000000 0.000000 1.691410 
# 
# From -- ./inp_files/8443.got.cif
#   From: 2010.05.17/outbox.cif.g08.bks.cpg/sg51_5_cif.got.tgz:8443.got - 2010.06.03 11:52:47.
