data_PCOD9407670
_publ_section_title
;
Structure prediction by ZEFSAII (Michael W. Deem and Ramdas Pophale) SiO2 
 PCOD9407670
Probable space group: P M M A
;
_chemical_formula_sum "Si O2"
_cell_formula_units_Z 48
_cell_length_a 9.000000
_cell_length_b 9.000000
_cell_length_c 30.000000
_cell_angle_alpha 90.000000
_cell_angle_beta 90.000000
_cell_angle_gamma 90.000000
_cell_volume 2430.000000
_symmetry_space_group_name_H-M "P M M A"
_symmetry_group_IT_number 51
_symmetry_cell_setting 'orthorhombic'
loop_
_space_group_symop_operation_xyz
x,y,z
1/2-x,-y,z
1/2+x,-y,-z
-x,y,-z
-x,-y,-z
1/2+x,y,-z
1/2-x,y,z
x,-y,z
loop_
_atom_site_type_symbol
_atom_site_label
_atom_site_fract_x
_atom_site_fract_y
_atom_site_fract_z
Si Si1 0.556641 0.170537 0.899952
Si Si2 0.577319 0.320687 0.276433
Si Si3 0.250000 0.835285 0.939028
Si Si4 0.426779 0.176242 0.455085
Si Si5 0.750000 0.326188 0.970499
Si Si6 0.914705 0.329677 0.807633
Si Si7 0.572247 0.674208 0.634827
O O1 0.384604 0.177618 0.906357
O O2 0.615961 0.255386 0.943108
O O3 0.594692 0.244441 0.853672
O O4 0.601148 0.000000 0.901422
O O5 0.750000 0.297206 0.282344
O O6 0.549342 0.500000 0.274157
O O7 0.522014 0.261925 0.229105
O O8 0.492049 0.262775 0.319437
O O9 0.250000 0.000000 0.960789
O O10 0.250000 0.719687 0.978661
O O11 0.500000 0.235744 0.500000
O O12 0.250000 0.200131 0.457655
O O13 0.483830 0.248562 0.409799
O O14 0.453535 0.000000 0.452845
O O15 0.750000 0.500000 0.965352
O O16 0.750000 0.332654 0.786987
O O17 0.957255 0.500000 0.818122
O O18 0.750000 0.687537 0.636146
O O19 0.534471 0.500000 0.632470
#
# Coordination Sequence:
#
# PCOD9407670 Si02
#       7
#     8   8   4   8   4   8   8
#     4  11  23  40  61  84 115 152 186 224 275 331
#     4   9  18  32  52  79 108 139 175 220 273 322
#     4  10  24  42  60  84 116 154 186 222 277 332
#     4   9  18  32  49  70  99 136 175 216 264 317
#     4  12  24  40  62  90 116 144 188 234 271 322
#     4  10  20  35  56  81 109 141 182 225 266 320
#     4   9  17  31  51  74 102 137 177 219 264 318
#
# _framework density 19.753086
#
# number of rings (size 3 to 8) (size 9 to 14) (size 15 to 20)
#    0.000    2.167    0.833    2.250    1.167    6.333 
#    0.000    0.833    0.000    3.000    0.000    0.000 
#    0.000    0.000    0.000    0.000    0.000    0.000 
#
# Total GULP energy -267282.889365 kJ/mol
# GULP energy per Si atom -5568.393528 kJ/mol
# Density = 1.970813 g / cm^3
# Si number density = 19.753086 Si / 1000 Ang^3
#
#
#
# Elastic Constant Matrix: (Units=GPa)
#
#
# Indices 1 2 3 4 5 6 
#
# 1 44.5101 37.3498 39.4346 0.0000 0.0000 0.0000
# 2 37.3498 41.7478 41.9303 0.0000 0.0000 0.0000
# 3 39.4346 41.9303 126.7326 0.0000 0.0000 0.0000
# 4 0.0000 0.0000 0.0000 38.3295 0.0000 0.0000
# 5 0.0000 0.0000 0.0000 0.0000 55.0596 0.0000
# 6 0.0000 0.0000 0.0000 0.0000 0.0000 -8.9396
#
#
#
# Elastic Compliance Matrix: (Units=1/GPa)
#
#
# Indices 1 2 3 4 5 6 
#
# 1 0.090487 -0.078891 -0.002055 0.000000 0.000000 0.000000
# 2 -0.078891 0.104655 -0.010078 0.000000 0.000000 0.000000
# 3 -0.002055 -0.010078 0.011864 0.000000 0.000000 0.000000
# 4 0.000000 0.000000 0.000000 0.026090 0.000000 0.000000
# 5 0.000000 0.000000 0.000000 0.000000 0.018162 0.000000
# 6 0.000000 0.000000 0.000000 0.000000 0.000000 -0.111862
#
#
# Mechanical properties :
#
#
# Convention : Reuss Voigt Hill
#
# Bulk Modulus (GPa) = 40.06459 50.04666 45.05563
# Shear Modulus (GPa) = 15.16236 23.17494 19.16865
#
# Velocity S-wave (km/s) = 2.77356 3.42896 3.11852
# Velocity P-wave (km/s) = 5.53024 6.40845 5.98547
#
# Compressibility (1/GPa) = 0.02495969
#
# Stress axis : x y z
#
# Youngs Moduli (GPa) = 11.05129 9.55516 84.28629
#
# Poissons Ratio (x) = 0.75382 0.17319
# Poissons Ratio (y) = 0.87185 0.84943
# Poissons Ratio (z) = 0.02271 0.09630
#
# Static dielectric constant tensor:
#      x y z
#    x 1.777860 0.000000 0.000000 
#    y 0.000000 1.703290 0.000000 
#    z 0.000000 0.000000 1.667160 
# 
# From -- ./inp_files/37228.got.cif
#   From: 2010.05.17/outbox.ucp.g08.bks.cvg/sg51_19_cif.got.tgz:37228.got - 2010.06.11 16:27:58.
