data_PCOD9407260
_publ_section_title
;
Structure prediction by ZEFSAII (Michael W. Deem and Ramdas Pophale) SiO2 
 PCOD9407260
Probable space group: P M M A
;
_chemical_formula_sum "Si O2"
_cell_formula_units_Z 52
_cell_length_a 7.243416
_cell_length_b 37.445729
_cell_length_c 7.591628
_cell_angle_alpha 90.000000
_cell_angle_beta 90.000000
_cell_angle_gamma 90.000000
_cell_volume 2059.115164
_symmetry_space_group_name_H-M "P M M A"
_symmetry_group_IT_number 51
_symmetry_cell_setting 'orthorhombic'
loop_
_space_group_symop_operation_xyz
x,y,z
1/2-x,-y,z
1/2+x,-y,-z
-x,y,-z
-x,-y,-z
1/2+x,y,-z
1/2-x,y,z
x,-y,z
loop_
_atom_site_type_symbol
_atom_site_label
_atom_site_fract_x
_atom_site_fract_y
_atom_site_fract_z
Si Si1 0.468685 0.883635 0.707248
Si Si2 0.529667 0.192571 0.287097
Si Si3 0.531253 0.268827 0.292396
Si Si4 0.468707 0.347156 0.792542
Si Si5 0.470138 0.576616 0.787340
Si Si6 0.530983 0.038034 0.207979
Si Si7 0.469931 0.500000 0.787574
O O1 0.500000 0.880281 0.500000
O O2 0.250000 0.884817 0.748176
O O3 0.540704 0.845765 0.782376
O O4 0.545235 0.922904 0.747443
O O5 0.500000 0.192667 0.500000
O O6 0.750000 0.192509 0.261449
O O7 0.459184 0.230904 0.217983
O O8 0.500000 0.265928 0.500000
O O9 0.750000 0.269783 0.251962
O O10 0.454814 0.307964 0.249337
O O11 0.250000 0.346036 0.751889
O O12 0.541000 0.385056 0.718286
O O13 0.500000 0.350367 0.000000
O O14 0.250000 0.576914 0.760549
O O15 0.500000 0.576088 0.000000
O O16 0.541877 0.538305 0.720729
O O17 0.750000 0.038756 0.247208
O O18 0.459992 0.000000 0.283124
O O19 0.500000 0.035796 0.000000
O O20 0.250000 0.500000 0.759520
O O21 0.500000 0.500000 0.000000
#
# Coordination Sequence:
#
# PCOD9407260 Si02
#       7
#     8   8   8   8   8   8   4
#     4   9  17  29  46  67  88 109 136 172 211 248
#     4   8  14  26  43  61  82 107 134 167 206 243
#     4   9  17  29  45  63  82 107 140 173 203 240
#     4   9  17  28  41  59  84 110 134 164 204 246
#     4   8  13  21  33  50  73  99 126 157 194 235
#     4   9  18  32  47  63  86 116 146 173 203 242
#     4   8  12  18  30  48  69  94 124 156 190 230
#
# _framework density 25.253565999999999
#
# number of rings (size 3 to 8) (size 9 to 14) (size 15 to 20)
#    0.000    3.385    0.000    0.000    0.000    1.538 
#    0.000    0.769    0.000    0.000    0.000    0.538 
#    0.000    0.000    0.000    0.000    0.000    0.000 
#
# Total GULP energy -289528.229832 kJ/mol
# GULP energy per Si atom -5567.850574 kJ/mol
# Density = 2.519609 g / cm^3
# Si number density = 25.253566 Si / 1000 Ang^3
#
#
#
# Elastic Constant Matrix: (Units=GPa)
#
#
# Indices 1 2 3 4 5 6 
#
# 1 133.4276 27.0067 -17.4284 0.0000 0.0000 0.0000
# 2 27.0067 422.2939 24.2902 0.0000 0.0000 0.0000
# 3 -17.4284 24.2902 32.1024 0.0000 0.0000 0.0000
# 4 0.0000 0.0000 0.0000 20.6280 0.0000 0.0000
# 5 0.0000 0.0000 0.0000 0.0000 4.2141 0.0000
# 6 0.0000 0.0000 0.0000 0.0000 0.0000 85.8832
#
#
#
# Elastic Compliance Matrix: (Units=1/GPa)
#
#
# Indices 1 2 3 4 5 6 
#
# 1 0.008336 -0.000829 0.005153 0.000000 0.000000 0.000000
# 2 -0.000829 0.002558 -0.002386 0.000000 0.000000 0.000000
# 3 0.005153 -0.002386 0.035753 0.000000 0.000000 0.000000
# 4 0.000000 0.000000 0.000000 0.048478 0.000000 0.000000
# 5 0.000000 0.000000 0.000000 0.000000 0.237300 0.000000
# 6 0.000000 0.000000 0.000000 0.000000 0.000000 0.011644
#
#
# Mechanical properties :
#
#
# Convention : Reuss Voigt Hill
#
# Bulk Modulus (GPa) = 19.79319 72.84010 46.31665
# Shear Modulus (GPa) = 14.00426 59.07542 36.53984
#
# Velocity S-wave (km/s) = 2.35743 4.84187 3.80796
# Velocity P-wave (km/s) = 3.90702 7.75657 6.14122
#
# Compressibility (1/GPa) = 0.05052243
#
# Stress axis : x y z
#
# Youngs Moduli (GPa) = 119.96594 390.88252 27.96940
#
# Poissons Ratio (x) = 0.32423 -0.14413
# Poissons Ratio (y) = 0.09951 0.06674
# Poissons Ratio (z) = -0.61820 0.93268
#
# Static dielectric constant tensor:
#      x y z
#    x 1.919350 0.000000 0.000000 
#    y 0.000000 2.177420 0.000000 
#    z 0.000000 0.000000 1.948940 
# 
# From -- ./inp_files/7093.got.cif
#   From: 2010.05.17/outbox.cif.g08.bks.cpg/sg51_4_cif.got.tgz:7093.got - 2010.06.03 11:52:47.
