data_PCOD9407542
_publ_section_title
;
Structure prediction by ZEFSAII (Michael W. Deem and Ramdas Pophale) SiO2 
 PCOD9407542
Probable space group: P M M A
;
_chemical_formula_sum "Si O2"
_cell_formula_units_Z 64
_cell_length_a 18.000000
_cell_length_b 9.000000
_cell_length_c 21.000000
_cell_angle_alpha 90.000000
_cell_angle_beta 90.000000
_cell_angle_gamma 90.000000
_cell_volume 3402.000000
_symmetry_space_group_name_H-M "P M M A"
_symmetry_group_IT_number 51
_symmetry_cell_setting 'orthorhombic'
loop_
_space_group_symop_operation_xyz
x,y,z
1/2-x,-y,z
1/2+x,-y,-z
-x,y,-z
-x,-y,-z
1/2+x,y,-z
1/2-x,y,z
x,-y,z
loop_
_atom_site_type_symbol
_atom_site_label
_atom_site_fract_x
_atom_site_fract_y
_atom_site_fract_z
Si Si1 0.331804 0.821050 0.783392
Si Si2 0.874786 0.177590 0.074168
Si Si3 0.937130 0.331383 0.444518
Si Si4 0.671136 0.821727 0.935889
Si Si5 0.979273 0.332493 0.248444
Si Si6 0.952772 0.175751 0.644876
Si Si7 0.335995 0.176673 0.460707
Si Si8 0.477323 0.332373 0.100795
O O1 0.250000 0.776636 0.760789
O O2 0.340144 0.777000 0.858147
O O3 0.400509 0.750088 0.746970
O O4 0.337253 0.000000 0.780337
O O5 0.956230 0.245559 0.067217
O O6 0.880663 0.000000 0.076629
O O7 0.830768 0.216503 0.010905
O O8 0.925035 0.500000 0.423886
O O9 0.865830 0.261140 0.477656
O O10 0.000000 0.332448 0.500000
O O11 0.972623 0.230775 0.390220
O O12 0.750000 0.774185 0.908098
O O13 0.600293 0.748172 0.905506
O O14 0.665520 0.000000 0.931164
O O15 0.972765 0.500000 0.271896
O O16 0.043151 0.249523 0.286841
O O17 0.999703 0.334480 0.174545
O O18 0.884738 0.223473 0.600168
O O19 0.951807 0.000000 0.650059
O O20 0.250000 0.202767 0.449686
O O21 0.348720 0.000000 0.469675
O O22 0.472256 0.500000 0.076976
#
# Coordination Sequence:
#
# PCOD9407542 Si02
#       8
#     8   8   8   8   8   8   8   8
#     4   9  17  31  52  76 100 126 159 202 252 305
#     4   9  17  31  52  75  98 125 159 201 251 307
#     4   9  17  30  50  76 105 134 162 194 236 287
#     4  10  20  33  50  73  99 127 162 206 255 305
#     4  10  21  36  52  71  99 135 173 211 249 294
#     4  10  19  33  55  78 101 134 174 211 248 292
#     4   9  18  33  53  79 109 136 165 206 252 293
#     4  10  21  35  50  70  98 132 168 206 251 303
#
# _framework density 18.812463000000001
#
# number of rings (size 3 to 8) (size 9 to 14) (size 15 to 20)
#    0.000    2.500    0.000    2.250    0.000    7.750 
#    0.000    1.250    0.000    8.250    0.000    0.000 
#    0.000    0.000    0.000    0.000    0.000    0.000 
#
# Total GULP energy -356670.720667 kJ/mol
# GULP energy per Si atom -5572.980010 kJ/mol
# Density = 1.876965 g / cm^3
# Si number density = 18.812463 Si / 1000 Ang^3
#
#
#
# Elastic Constant Matrix: (Units=GPa)
#
#
# Indices 1 2 3 4 5 6 
#
# 1 83.6511 18.0400 15.3383 0.0000 0.0000 0.0000
# 2 18.0400 -1.6999 20.8304 0.0000 0.0000 0.0000
# 3 15.3383 20.8304 26.4309 0.0000 0.0000 0.0000
# 4 0.0000 0.0000 0.0000 18.2880 0.0000 0.0000
# 5 0.0000 0.0000 0.0000 0.0000 14.1496 0.0000
# 6 0.0000 0.0000 0.0000 0.0000 0.0000-3640.8544
#
#
#
# Elastic Compliance Matrix: (Units=1/GPa)
#
#
# Indices 1 2 3 4 5 6 
#
# 1 0.013037 0.004283 -0.010941 0.000000 0.000000 0.000000
# 2 0.004283 -0.053791 0.039908 0.000000 0.000000 0.000000
# 3 -0.010941 0.039908 0.012732 0.000000 0.000000 0.000000
# 4 0.000000 0.000000 0.000000 0.054681 0.000000 0.000000
# 5 0.000000 0.000000 0.000000 0.000000 0.070673 0.000000
# 6 0.000000 0.000000 0.000000 0.000000 0.000000 -0.000275
#
#
# Mechanical properties :
#
#
# Convention : Reuss Voigt Hill
#
# Bulk Modulus (GPa) = 25.98926 24.08882 25.03904
# Shear Modulus (GPa) = 115.25040 -718.07181 -301.41071
#
# Velocity S-wave (km/s) = 7.83555 -19.55834 -12.67148
# Velocity P-wave (km/s) = 9.78294 22.29811 14.16862
#
# Compressibility (1/GPa) = 0.03847743
#
# Stress axis : x y z
#
# Youngs Moduli (GPa) = 76.70530 -18.59047 78.54166
#
# Poissons Ratio (x) = 0.07962 0.85932
# Poissons Ratio (y) = -0.32852 -3.13442
# Poissons Ratio (z) = 0.83923 0.74190
#
# Static dielectric constant tensor:
#      x y z
#    x 1.632780 0.000000 0.000000 
#    y 0.000000 1.641410 0.000000 
#    z 0.000000 0.000000 1.686660 
# 
# From -- ./inp_files/33907.got.cif
#   From: 2010.05.17/outbox.ucp.g08.bks.cvg/sg51_17_cif.got.tgz:33907.got - 2010.06.11 16:27:58.
