data_PCOD9407892
_publ_section_title
;
Structure prediction by ZEFSAII (Michael W. Deem and Ramdas Pophale) SiO2 
 PCOD9407892
Probable space group: P N N A
;
_chemical_formula_sum "Si O2"
_cell_formula_units_Z 56
_cell_length_a 5.226724
_cell_length_b 30.028360
_cell_length_c 22.161494
_cell_angle_alpha 90.000000
_cell_angle_beta 90.000000
_cell_angle_gamma 90.000000
_cell_volume 3478.245373
_symmetry_space_group_name_H-M "P N N A"
_symmetry_group_IT_number 52
_symmetry_cell_setting 'orthorhombic'
loop_
_space_group_symop_operation_xyz
x,y,z
1/2-x,-y,z
x,1/2-y,1/2-z
1/2-x,1/2+y,1/2-z
-x,-y,-z
1/2+x,y,-z
-x,1/2+y,1/2+z
1/2+x,1/2-y,1/2+z
loop_
_atom_site_type_symbol
_atom_site_label
_atom_site_fract_x
_atom_site_fract_y
_atom_site_fract_z
Si Si1 0.910623 0.127139 0.725300
Si Si2 0.695656 0.787189 0.803752
Si Si3 0.119672 0.373720 0.971053
Si Si4 0.811245 0.247736 0.176706
Si Si5 0.091531 0.848556 0.651518
Si Si6 0.996546 0.530107 0.072655
Si Si7 0.998531 0.470115 0.785182
O O1 0.855723 0.165336 0.774070
O O2 0.679834 0.132303 0.675492
O O3 0.944166 0.076630 0.747480
O O4 0.187064 0.138785 0.698492
O O5 0.724976 0.750000 0.750000
O O6 0.464958 0.768679 0.843920
O O7 0.966916 0.787148 0.836011
O O8 0.289321 0.365393 0.911288
O O9 0.044931 0.426191 0.967582
O O10 0.327179 0.356268 0.020829
O O11 0.778764 0.250000 0.250000
O O12 0.905892 0.295001 0.152466
O O13 0.750000 0.500000 0.063502
O O14 0.250000 0.500000 0.064725
O O15 0.989655 0.543157 0.143587
O O16 0.750000 0.500000 0.777273
O O17 0.250000 0.500000 0.771813
#
# Coordination Sequence:
#
# PCOD9407892 Si02
#       7
#     8   8   8   8   8   8   8
#     4  12  19  30  52  66  85 113 133 166 228 269
#     4  10  16  27  43  73  93 102 123 158 204 284
#     4  12  26  38  47  62  81 107 149 183 219 279
#     4  10  16  29  44  71  95 101 121 157 205 284
#     4  12  21  32  50  66  85 112 131 167 230 268
#     4  10  21  35  51  61  71  94 133 192 245 268
#     4  10  21  33  45  65  82 106 145 178 213 271
#
# _framework density 16.100071
#
# number of rings (size 3 to 8) (size 9 to 14) (size 15 to 20)
#    0.000    1.143    7.143    2.571    4.000    1.714 
#    0.000    0.000    0.000    0.000    0.000    0.000 
#    0.000    0.000    0.000    0.000    0.000    0.000 
#
# Total GULP energy -311761.592282 kJ/mol
# GULP energy per Si atom -5567.171291 kJ/mol
# Density = 1.606343 g / cm^3
# Si number density = 16.100071 Si / 1000 Ang^3
#
#
#
# Elastic Constant Matrix: (Units=GPa)
#
#
# Indices 1 2 3 4 5 6 
#
# 1 104.3835 10.9513 1.5571 0.0000 0.0000 0.0000
# 2 10.9513 75.9237 8.8487 0.0000 0.0000 0.0000
# 3 1.5571 8.8487 4.3672 0.0000 0.0000 0.0000
# 4 0.0000 0.0000 0.0000 9.5565 0.0000 0.0000
# 5 0.0000 0.0000 0.0000 0.0000 10.8626 0.0000
# 6 0.0000 0.0000 0.0000 0.0000 0.0000 15.9663
#
#
#
# Elastic Compliance Matrix: (Units=1/GPa)
#
#
# Indices 1 2 3 4 5 6 
#
# 1 0.009729 -0.001308 -0.000819 0.000000 0.000000 0.000000
# 2 -0.001308 0.017419 -0.034828 0.000000 0.000000 0.000000
# 3 -0.000819 -0.034828 0.299840 0.000000 0.000000 0.000000
# 4 0.000000 0.000000 0.000000 0.104641 0.000000 0.000000
# 5 0.000000 0.000000 0.000000 0.000000 0.092059 0.000000
# 6 0.000000 0.000000 0.000000 0.000000 0.000000 0.062632
#
#
# Mechanical properties :
#
#
# Convention : Reuss Voigt Hill
#
# Bulk Modulus (GPa) = 3.95132 25.26539 14.60835
# Shear Modulus (GPa) = 6.71511 18.16491 12.44001
#
# Velocity S-wave (km/s) = 2.04448 3.36259 2.78271
# Velocity P-wave (km/s) = 2.83421 5.55003 4.40656
#
# Compressibility (1/GPa) = 0.25308024
#
# Stress axis : x y z
#
# Youngs Moduli (GPa) = 102.78026 57.40912 3.33511
#
# Poissons Ratio (x) = 0.07509 0.00273
# Poissons Ratio (y) = 0.13443 0.11615
# Poissons Ratio (z) = 0.08415 1.99942
#
# Static dielectric constant tensor:
#      x y z
#    x 1.627800 0.000000 0.000000 
#    y 0.000000 1.620230 0.000000 
#    z 0.000000 0.000000 1.598540 
# 
# From -- ./inp_files/35308.got.cif
#   From: 2010.05.17/outbox.cif.g08.bks.cpg/sg52_18_cif.got.tgz:35308.got - 2010.06.03 12:15:38.
