data_PCOD9407168
_publ_section_title
;
Structure prediction by ZEFSAII (Michael W. Deem and Ramdas Pophale) SiO2 
 PCOD9407168
Probable space group: P M M A
;
_chemical_formula_sum "Si O2"
_cell_formula_units_Z 44
_cell_length_a 8.749622
_cell_length_b 13.682974
_cell_length_c 19.173907
_cell_angle_alpha 90.000000
_cell_angle_beta 90.000000
_cell_angle_gamma 90.000000
_cell_volume 2295.516450
_symmetry_space_group_name_H-M "P M M A"
_symmetry_group_IT_number 51
_symmetry_cell_setting 'orthorhombic'
loop_
_space_group_symop_operation_xyz
x,y,z
1/2-x,-y,z
1/2+x,-y,-z
-x,y,-z
-x,-y,-z
1/2+x,y,-z
1/2-x,y,z
x,-y,z
loop_
_atom_site_type_symbol
_atom_site_label
_atom_site_fract_x
_atom_site_fract_y
_atom_site_fract_z
Si Si1 0.924807 0.614499 0.292901
Si Si2 0.430877 0.706499 0.423264
Si Si3 0.432937 0.889919 0.820087
Si Si4 0.929583 0.687806 0.844048
Si Si5 0.432552 0.500000 0.922608
Si Si6 0.068494 0.111440 0.653335
O O1 0.750000 0.650949 0.285872
O O2 0.924807 0.500000 0.277242
O O3 0.986412 0.633090 0.369952
O O4 0.031352 0.666797 0.236888
O O5 0.500000 0.698841 0.500000
O O6 0.250000 0.690817 0.424343
O O7 0.471753 0.811888 0.390247
O O8 0.250000 0.884175 0.829242
O O9 0.509107 0.797320 0.857488
O O10 0.461212 0.881786 0.736480
O O11 0.482355 0.000000 0.841169
O O12 0.750000 0.682739 0.856807
O O13 0.010516 0.599115 0.884855
O O14 0.250000 0.500000 0.922977
O O15 0.500000 0.500000 0.000000
O O16 0.250000 0.130143 0.642938
O O17 0.037359 0.000000 0.632281
#
# Coordination Sequence:
#
# PCOD9407168 Si02
#       6
#     8   8   8   8   4   8
#     4  11  23  40  62  85 113 152 198 249 306 367
#     4  12  25  39  56  78 109 150 196 252 310 373
#     4   9  18  34  59  90 125 166 210 257 309 364
#     4  12  23  37  63  98 132 167 208 254 304 365
#     4  12  26  46  70 100 137 174 209 252 302 360
#     4   9  18  34  56  80 110 148 193 247 305 364
#
# _framework density 19.1678
#
# number of rings (size 3 to 8) (size 9 to 14) (size 15 to 20)
#    0.000    1.273    2.727    5.727    0.000    2.545 
#    0.000    1.818    0.000    0.545    0.000    0.000 
#    0.000    0.000    0.000    0.000    0.000    0.000 
#
# Total GULP energy -245852.482513 kJ/mol
# GULP energy per Si atom -5587.556421 kJ/mol
# Density = 1.912417 g / cm^3
# Si number density = 19.167800 Si / 1000 Ang^3
#
#
#
# Elastic Constant Matrix: (Units=GPa)
#
#
# Indices 1 2 3 4 5 6 
#
# 1 105.7511 43.3258 29.4369 0.0000 0.0000 0.0000
# 2 43.3258 130.3977 39.1257 0.0000 0.0000 0.0000
# 3 29.4369 39.1257 54.7555 0.0000 0.0000 0.0000
# 4 0.0000 0.0000 0.0000 15.0613 0.0000 0.0000
# 5 0.0000 0.0000 0.0000 0.0000 22.3323 0.0000
# 6 0.0000 0.0000 0.0000 0.0000 0.0000 4.9471
#
#
#
# Elastic Compliance Matrix: (Units=1/GPa)
#
#
# Indices 1 2 3 4 5 6 
#
# 1 0.011754 -0.002558 -0.004492 0.000000 0.000000 0.000000
# 2 -0.002558 0.010318 -0.005998 0.000000 0.000000 0.000000
# 3 -0.004492 -0.005998 0.024963 0.000000 0.000000 0.000000
# 4 0.000000 0.000000 0.000000 0.066395 0.000000 0.000000
# 5 0.000000 0.000000 0.000000 0.000000 0.044778 0.000000
# 6 0.000000 0.000000 0.000000 0.000000 0.000000 0.202138
#
#
# Mechanical properties :
#
#
# Convention : Reuss Voigt Hill
#
# Bulk Modulus (GPa) = 47.75160 57.18680 52.46920
# Shear Modulus (GPa) = 12.70896 20.40253 16.55574
#
# Velocity S-wave (km/s) = 2.57774 3.26608 2.94211
# Velocity P-wave (km/s) = 5.81603 6.64249 6.24295
#
# Compressibility (1/GPa) = 0.02094171
#
# Stress axis : x y z
#
# Youngs Moduli (GPa) = 85.07488 96.91457 40.05849
#
# Poissons Ratio (x) = 0.24789 0.17992
# Poissons Ratio (y) = 0.21761 0.24027
# Poissons Ratio (z) = 0.38212 0.58129
#
# Static dielectric constant tensor:
#      x y z
#    x 1.586160 0.000000 0.000000 
#    y 0.000000 1.703360 0.000000 
#    z 0.000000 0.000000 1.654260 
# 
# From -- ./inp_files/27407.got.cif
#   From: 2010.05.17/outbox.cif.g08.bks.cpg/sg51_14_cif.got.tgz:27407.got - 2010.06.03 11:52:47.
