data_PCOD9407063
_publ_section_title
;
Structure prediction by ZEFSAII (Michael W. Deem and Ramdas Pophale) SiO2 
 PCOD9407063
Probable space group: P M M A
;
_chemical_formula_sum "Si O2"
_cell_formula_units_Z 48
_cell_length_a 14.828283
_cell_length_b 9.333359
_cell_length_c 18.281926
_cell_angle_alpha 90.000000
_cell_angle_beta 90.000000
_cell_angle_gamma 90.000000
_cell_volume 2530.176301
_symmetry_space_group_name_H-M "P M M A"
_symmetry_group_IT_number 51
_symmetry_cell_setting 'orthorhombic'
loop_
_space_group_symop_operation_xyz
x,y,z
1/2-x,-y,z
1/2+x,-y,-z
-x,y,-z
-x,-y,-z
1/2+x,y,-z
1/2-x,y,z
x,-y,z
loop_
_atom_site_type_symbol
_atom_site_label
_atom_site_fract_x
_atom_site_fract_y
_atom_site_fract_z
Si Si1 0.854226 0.329244 0.120625
Si Si2 0.346431 0.828725 0.614044
Si Si3 0.954370 0.828698 0.666365
Si Si4 0.603644 0.663041 0.528038
Si Si5 0.473642 0.170746 0.170304
Si Si6 0.642922 0.333553 0.948013
O O1 0.750000 0.291578 0.135945
O O2 0.864404 0.500000 0.132581
O O3 0.927728 0.240962 0.164562
O O4 0.871354 0.303194 0.033967
O O5 0.250000 0.792244 0.650360
O O6 0.439262 0.791249 0.654866
O O7 0.348887 0.752742 0.535400
O O8 0.349188 0.000000 0.603961
O O9 0.898692 0.743054 0.605631
O O10 0.931758 0.795861 0.750193
O O11 0.944960 0.000000 0.654152
O O12 0.500000 0.658285 0.500000
O O13 0.636313 0.500000 0.533644
O O14 0.413860 0.234701 0.105326
O O15 0.481167 0.000000 0.164357
O O16 0.750000 0.319174 0.934603
O O17 0.617612 0.500000 0.935641
#
# Coordination Sequence:
#
# PCOD9407063 Si02
#       6
#     8   8   8   8   8   8
#     4   9  19  36  56  77 103 139 181 219 257 310
#     4   9  17  31  52  73  94 127 167 202 241 295
#     4   9  19  34  49  69 101 137 168 198 240 301
#     4   9  17  30  49  71  93 119 155 199 241 280
#     4  11  22  33  51  81 112 140 171 215 269 315
#     4   9  19  37  58  76  98 135 182 225 263 311
#
# _framework density 18.971008999999999
#
# number of rings (size 3 to 8) (size 9 to 14) (size 15 to 20)
#    0.000    2.667    0.000    2.500    0.000    7.667 
#    0.000    4.167    0.000    1.000    0.000    0.000 
#    0.000    0.000    0.000    0.000    0.000    0.000 
#
# Total GULP energy -267742.947285 kJ/mol
# GULP energy per Si atom -5577.978068 kJ/mol
# Density = 1.892783 g / cm^3
# Si number density = 18.971009 Si / 1000 Ang^3
#
#
#
# Elastic Constant Matrix: (Units=GPa)
#
#
# Indices 1 2 3 4 5 6 
#
# 1 17.1282 2.6503 2.0700 0.0000 0.0000 0.0000
# 2 2.6503 27.3173 28.1912 0.0000 0.0000 0.0000
# 3 2.0700 28.1912 56.4644 0.0000 0.0000 0.0000
# 4 0.0000 0.0000 0.0000 228.1734 0.0000 0.0000
# 5 0.0000 0.0000 0.0000 0.0000 8.9318 0.0000
# 6 0.0000 0.0000 0.0000 0.0000 0.0000 8.6192
#
#
#
# Elastic Compliance Matrix: (Units=1/GPa)
#
#
# Indices 1 2 3 4 5 6 
#
# 1 0.059330 -0.007244 0.001442 0.000000 0.000000 0.000000
# 2 -0.007244 0.076401 -0.037880 0.000000 0.000000 0.000000
# 3 0.001442 -0.037880 0.036570 0.000000 0.000000 0.000000
# 4 0.000000 0.000000 0.000000 0.004383 0.000000 0.000000
# 5 0.000000 0.000000 0.000000 0.000000 0.111960 0.000000
# 6 0.000000 0.000000 0.000000 0.000000 0.000000 0.116021
#
#
# Mechanical properties :
#
#
# Convention : Reuss Voigt Hill
#
# Bulk Modulus (GPa) = 11.77342 18.52587 15.14964
# Shear Modulus (GPa) = 9.60910 53.67809 31.64360
#
# Velocity S-wave (km/s) = 2.25303 5.32506 4.08854
# Velocity P-wave (km/s) = 3.60384 6.89890 5.50375
#
# Compressibility (1/GPa) = 0.08493711
#
# Stress axis : x y z
#
# Youngs Moduli (GPa) = 16.85490 13.08878 27.34495
#
# Poissons Ratio (x) = 0.09482 -0.03942
# Poissons Ratio (y) = 0.12210 1.03582
# Poissons Ratio (z) = -0.02430 0.49580
#
# Static dielectric constant tensor:
#      x y z
#    x 1.689760 0.000000 0.000000 
#    y 0.000000 1.630570 0.000000 
#    z 0.000000 0.000000 1.637830 
# 
# From -- ./inp_files/24756.got.cif
#   From: 2010.05.17/outbox.cif.g08.bks.cpg/sg51_13_cif.got.tgz:24756.got - 2010.06.03 11:52:47.
