data_PCOD9407817
_publ_section_title
;
Structure prediction by ZEFSAII (Michael W. Deem and Ramdas Pophale) SiO2 
 PCOD9407817
Probable space group: P M M A
;
_chemical_formula_sum "Si O2"
_cell_formula_units_Z 64
_cell_length_a 30.000000
_cell_length_b 9.000000
_cell_length_c 12.000000
_cell_angle_alpha 90.000000
_cell_angle_beta 90.000000
_cell_angle_gamma 90.000000
_cell_volume 3240.000000
_symmetry_space_group_name_H-M "P M M A"
_symmetry_group_IT_number 51
_symmetry_cell_setting 'orthorhombic'
loop_
_space_group_symop_operation_xyz
x,y,z
1/2-x,-y,z
1/2+x,-y,-z
-x,y,-z
-x,-y,-z
1/2+x,y,-z
1/2-x,y,z
x,-y,z
loop_
_atom_site_type_symbol
_atom_site_label
_atom_site_fract_x
_atom_site_fract_y
_atom_site_fract_z
Si Si1 0.368453 0.169762 0.829076
Si Si2 0.574517 0.327233 0.528532
Si Si3 0.036040 0.672299 0.222179
Si Si4 0.670347 0.822823 0.538673
Si Si5 0.613396 0.178921 0.918404
Si Si6 0.300763 0.666714 0.681286
Si Si7 0.700870 0.819219 0.783072
Si Si8 0.956958 0.830753 0.314859
O O1 0.330921 0.273024 0.779503
O O2 0.408458 0.171221 0.740716
O O3 0.351721 0.000000 0.837402
O O4 0.384729 0.213719 0.951162
O O5 0.583125 0.500000 0.505521
O O6 0.553112 0.315696 0.650233
O O7 0.620267 0.236949 0.532569
O O8 0.545376 0.262101 0.428265
O O9 0.029255 0.500000 0.195765
O O10 0.072555 0.743707 0.142708
O O11 0.990283 0.761556 0.225251
O O12 0.694459 0.764747 0.429135
O O13 0.691953 0.772987 0.655326
O O14 0.670037 0.000000 0.538107
O O15 0.659554 0.226844 0.859427
O O16 0.609213 0.000000 0.905692
O O17 0.250000 0.666953 0.717565
O O18 0.314539 0.500000 0.650703
O O19 0.750000 0.769128 0.819217
O O20 0.700984 0.000000 0.784273
O O21 0.969854 0.000000 0.339694
#
# Coordination Sequence:
#
# PCOD9407817 Si02
#       8
#     8   8   8   8   8   8   8   8
#     4  10  23  41  62  88 116 155 203 254 300 344
#     4  11  22  37  59  88 122 155 192 240 298 363
#     4  11  24  40  60  88 122 157 195 241 301 361
#     4  11  20  34  60  90 120 154 194 240 293 351
#     4  10  21  40  63  86 117 155 201 251 298 348
#     4  11  24  40  60  88 123 162 199 240 296 357
#     4   9  18  33  57  89 119 149 189 239 293 348
#     4  11  23  39  61  89 119 154 201 247 298 356
#
# _framework density 19.753086
#
# number of rings (size 3 to 8) (size 9 to 14) (size 15 to 20)
#    0.000    1.500    2.500    2.625    0.000    6.500 
#    0.000    3.750    0.000    1.125    0.000    0.000 
#    0.000    0.000    0.000    0.000    0.000    0.000 
#
# Total GULP energy -357489.334751 kJ/mol
# GULP energy per Si atom -5585.770855 kJ/mol
# Density = 1.970813 g / cm^3
# Si number density = 19.753086 Si / 1000 Ang^3
#
#
#
# Elastic Constant Matrix: (Units=GPa)
#
#
# Indices 1 2 3 4 5 6 
#
# 1 29.1895 16.9625 -18.2606 0.0000 0.0000 0.0000
# 2 16.9625 65.4550 34.0614 0.0000 0.0000 0.0000
# 3 -18.2606 34.0614 52.8634 0.0000 0.0000 0.0000
# 4 0.0000 0.0000 0.0000 13.8495 0.0000 0.0000
# 5 0.0000 0.0000 0.0000 0.0000 87.0607 0.0000
# 6 0.0000 0.0000 0.0000 0.0000 0.0000 17.7345
#
#
#
# Elastic Compliance Matrix: (Units=1/GPa)
#
#
# Indices 1 2 3 4 5 6 
#
# 1 0.255592 -0.168767 0.197031 0.000000 0.000000 0.000000
# 2 -0.168767 0.134421 -0.144908 0.000000 0.000000 0.000000
# 3 0.197031 -0.144908 0.180346 0.000000 0.000000 0.000000
# 4 0.000000 0.000000 0.000000 0.072205 0.000000 0.000000
# 5 0.000000 0.000000 0.000000 0.000000 0.011486 0.000000
# 6 0.000000 0.000000 0.000000 0.000000 0.000000 0.056387
#
#
# Mechanical properties :
#
#
# Convention : Reuss Voigt Hill
#
# Bulk Modulus (GPa) = 2.96674 23.67049 13.31862
# Shear Modulus (GPa) = 4.73448 31.37858 18.05653
#
# Velocity S-wave (km/s) = 1.54985 3.98997 3.02671
# Velocity P-wave (km/s) = 2.16977 5.76504 4.35566
#
# Compressibility (1/GPa) = 0.33707000
#
# Stress axis : x y z
#
# Youngs Moduli (GPa) = 3.91248 7.43934 5.54490
#
# Poissons Ratio (x) = 1.25551 -1.09252
# Poissons Ratio (y) = 0.66030 0.80350
# Poissons Ratio (z) = -0.77088 1.07802
#
# Static dielectric constant tensor:
#      x y z
#    x 1.719210 0.000000 0.000000 
#    y 0.000000 1.683960 0.000000 
#    z 0.000000 0.000000 1.661410 
# 
# From -- ./inp_files/19608.got.cif
#   From: 2010.05.17/outbox.ucp.g08.bks.cvg/sg51_10_cif.got.tgz:19608.got - 2010.06.11 16:27:58.
