data_PCOD9407182
_publ_section_title
;
Structure prediction by ZEFSAII (Michael W. Deem and Ramdas Pophale) SiO2 
 PCOD9407182
Probable space group: P M M A
;
_chemical_formula_sum "Si O2"
_cell_formula_units_Z 48
_cell_length_a 14.518468
_cell_length_b 9.795178
_cell_length_c 15.760220
_cell_angle_alpha 90.000000
_cell_angle_beta 90.000000
_cell_angle_gamma 90.000000
_cell_volume 2241.276305
_symmetry_space_group_name_H-M "P M M A"
_symmetry_group_IT_number 51
_symmetry_cell_setting 'orthorhombic'
loop_
_space_group_symop_operation_xyz
x,y,z
1/2-x,-y,z
1/2+x,-y,-z
-x,y,-z
-x,-y,-z
1/2+x,y,-z
1/2-x,y,z
x,-y,z
loop_
_atom_site_type_symbol
_atom_site_label
_atom_site_fract_x
_atom_site_fract_y
_atom_site_fract_z
Si Si1 0.137554 0.655536 0.385981
Si Si2 0.398103 0.847690 0.035685
Si Si3 0.137662 0.341310 0.697560
Si Si4 0.861864 0.657040 0.808052
Si Si5 0.137008 0.842925 0.541137
Si Si6 0.857201 0.349537 0.115480
O O1 0.250000 0.655756 0.386071
O O2 0.109472 0.500000 0.407207
O O3 0.109742 0.685500 0.289044
O O4 0.107723 0.763162 0.456390
O O5 0.396287 0.764099 0.122904
O O6 0.358296 0.000000 0.044862
O O7 0.500000 0.862608 0.000000
O O8 0.357425 0.753363 0.962026
O O9 0.250000 0.335057 0.694035
O O10 0.112762 0.500000 0.682821
O O11 0.105594 0.241510 0.623587
O O12 0.104355 0.304233 0.792818
O O13 0.750000 0.662135 0.811133
O O14 0.888080 0.500000 0.828331
O O15 0.250000 0.842655 0.541353
O O16 0.107760 0.000000 0.542910
O O17 0.750000 0.367887 0.134187
O O18 0.895608 0.500000 0.092761
#
# Coordination Sequence:
#
# PCOD9407182 Si02
#       6
#     8   8   8   8   8   8
#     4   8  14  25  41  62  90 122 153 188 231 275
#     4  11  24  37  48  68  98 129 160 195 240 294
#     4   8  14  25  41  62  90 122 153 188 231 275
#     4   9  18  33  53  75  96 122 161 204 242 283
#     4   9  15  21  33  59  94 127 156 185 220 268
#     4   9  18  33  53  75  96 122 161 204 242 283
#
# _framework density 21.416370000000001
#
# number of rings (size 3 to 8) (size 9 to 14) (size 15 to 20)
#    0.000    3.000    0.000    3.500    0.000    7.333 
#    0.000    3.333    0.000    0.000    0.000    1.167 
#    0.000    9.333    0.000    0.000    0.000    0.000 
#
# Total GULP energy -267831.776185 kJ/mol
# GULP energy per Si atom -5579.828671 kJ/mol
# Density = 2.136763 g / cm^3
# Si number density = 21.416370 Si / 1000 Ang^3
#
#
#
# Elastic Constant Matrix: (Units=GPa)
#
#
# Indices 1 2 3 4 5 6 
#
# 1 34.5745 2.6818 3.4966 0.0000 0.0000 0.0000
# 2 2.6818 186.5358 156.1255 0.0000 0.0000 0.0000
# 3 3.4966 156.1255 191.7347 0.0000 0.0000 0.0000
# 4 0.0000 0.0000 0.0000 -22.6687 0.0000 0.0000
# 5 0.0000 0.0000 0.0000 0.0000 8.8354 0.0000
# 6 0.0000 0.0000 0.0000 0.0000 0.0000 18.3848
#
#
#
# Elastic Compliance Matrix: (Units=1/GPa)
#
#
# Indices 1 2 3 4 5 6 
#
# 1 0.028977 0.000081 -0.000594 0.000000 0.000000 0.000000
# 2 0.000081 0.016834 -0.013709 0.000000 0.000000 0.000000
# 3 -0.000594 -0.013709 0.016389 0.000000 0.000000 0.000000
# 4 0.000000 0.000000 0.000000 -0.044114 0.000000 0.000000
# 5 0.000000 0.000000 0.000000 0.000000 0.113180 0.000000
# 6 0.000000 0.000000 0.000000 0.000000 0.000000 0.054393
#
#
# Mechanical properties :
#
#
# Convention : Reuss Voigt Hill
#
# Bulk Modulus (GPa) = 29.62507 81.93921 55.78214
# Shear Modulus (GPa) = 22.18723 17.61305 19.90014
#
# Velocity S-wave (km/s) = 3.22218 2.87088 3.05159
# Velocity P-wave (km/s) = 5.26367 7.02370 6.20639
#
# Compressibility (1/GPa) = 0.03375520
#
# Stress axis : x y z
#
# Youngs Moduli (GPa) = 34.51030 59.40528 61.01637
#
# Poissons Ratio (x) = -0.00479 0.03625
# Poissons Ratio (y) = -0.00279 0.83645
# Poissons Ratio (z) = 0.02050 0.81437
#
# Static dielectric constant tensor:
#      x y z
#    x 1.809140 0.000000 0.000000 
#    y 0.000000 1.761280 0.000000 
#    z 0.000000 0.000000 1.755530 
# 
# From -- ./inp_files/30070.got.cif
#   From: 2010.05.17/outbox.cif.g08.bks.cpg/sg51_16_cif.got.tgz:30070.got - 2010.06.03 11:52:47.
