data_PCOD9407527
_publ_section_title
;
Structure prediction by ZEFSAII (Michael W. Deem and Ramdas Pophale) SiO2 
 PCOD9407527
Probable space group: P M M A
;
_chemical_formula_sum "Si O2"
_cell_formula_units_Z 64
_cell_length_a 15.000000
_cell_length_b 9.000000
_cell_length_c 24.000000
_cell_angle_alpha 90.000000
_cell_angle_beta 90.000000
_cell_angle_gamma 90.000000
_cell_volume 3240.000000
_symmetry_space_group_name_H-M "P M M A"
_symmetry_group_IT_number 51
_symmetry_cell_setting 'orthorhombic'
loop_
_space_group_symop_operation_xyz
x,y,z
1/2-x,-y,z
1/2+x,-y,-z
-x,y,-z
-x,-y,-z
1/2+x,y,-z
1/2-x,y,z
x,-y,z
loop_
_atom_site_type_symbol
_atom_site_label
_atom_site_fract_x
_atom_site_fract_y
_atom_site_fract_z
Si Si1 0.468618 0.678483 0.383613
Si Si2 0.651208 0.822837 0.393089
Si Si3 0.896096 0.172070 0.016286
Si Si4 0.654998 0.677893 0.906490
Si Si5 0.349916 0.680756 0.281274
Si Si6 0.649180 0.324374 0.513425
Si Si7 0.148537 0.178287 0.857908
Si Si8 0.481737 0.679218 0.183806
O O1 0.478419 0.500000 0.382748
O O2 0.562958 0.749478 0.367987
O O3 0.392556 0.721177 0.339946
O O4 0.428144 0.718863 0.443774
O O5 0.750000 0.776832 0.371863
O O6 0.647331 0.769952 0.457380
O O7 0.645632 0.000000 0.389312
O O8 0.875842 0.224047 0.078662
O O9 0.867394 0.000000 0.012672
O O10 0.848963 0.266653 0.969116
O O11 0.000000 0.178648 0.000000
O O12 0.750000 0.722943 0.880680
O O13 0.651501 0.500000 0.905448
O O14 0.571188 0.731968 0.871313
O O15 0.250000 0.736411 0.273403
O O16 0.346068 0.500000 0.278891
O O17 0.419148 0.726606 0.234201
O O18 0.750000 0.310974 0.537800
O O19 0.637373 0.500000 0.499696
O O20 0.250000 0.218894 0.846251
O O21 0.078744 0.252213 0.816839
O O22 0.140022 0.000000 0.855630
O O23 0.487594 0.500000 0.183379
#
# Coordination Sequence:
#
# PCOD9407527 Si02
#       8
#     8   8   8   8   8   8   8   8
#     4  10  19  32  54  81 105 135 176 219 263 309
#     4  10  21  35  50  72 106 147 183 214 256 309
#     4  10  19  33  53  75 101 135 173 212 253 304
#     4  10  20  32  49  76 107 136 166 203 252 308
#     4   9  18  35  59  84 108 134 167 211 263 315
#     4   9  17  30  50  78 110 140 173 215 260 310
#     4  10  21  37  55  75 103 139 176 214 259 309
#     4  10  20  35  56  79 104 134 171 213 257 306
#
# _framework density 19.753086
#
# number of rings (size 3 to 8) (size 9 to 14) (size 15 to 20)
#    0.000    2.250    1.250    1.875    0.000    7.500 
#    0.000    1.250    0.000    6.750    0.000    0.000 
#    0.000    0.000    0.000    0.000    0.000    0.000 
#
# Total GULP energy -356915.681277 kJ/mol
# GULP energy per Si atom -5576.807520 kJ/mol
# Density = 1.970813 g / cm^3
# Si number density = 19.753086 Si / 1000 Ang^3
#
#
#
# Elastic Constant Matrix: (Units=GPa)
#
#
# Indices 1 2 3 4 5 6 
#
# 1 146.7864 27.7717 35.2093 0.0000 0.0000 0.0000
# 2 27.7717 2.2059 5.0443 0.0000 0.0000 0.0000
# 3 35.2093 5.0443 43.8333 0.0000 0.0000 0.0000
# 4 0.0000 0.0000 0.0000 -63.4561 0.0000 0.0000
# 5 0.0000 0.0000 0.0000 0.0000 21.6213 0.0000
# 6 0.0000 0.0000 0.0000 0.0000 0.0000 -19.2085
#
#
#
# Elastic Compliance Matrix: (Units=1/GPa)
#
#
# Indices 1 2 3 4 5 6 
#
# 1 -0.004393 0.064106 -0.003849 0.000000 0.000000 0.000000
# 2 0.064106 -0.320276 -0.014637 0.000000 0.000000 0.000000
# 3 -0.003849 -0.014637 0.027589 0.000000 0.000000 0.000000
# 4 0.000000 0.000000 0.000000 -0.015759 0.000000 0.000000
# 5 0.000000 0.000000 0.000000 0.000000 0.046251 0.000000
# 6 0.000000 0.000000 0.000000 0.000000 0.000000 -0.052060
#
#
# Mechanical properties :
#
#
# Convention : Reuss Voigt Hill
#
# Bulk Modulus (GPa) = -4.85820 36.54178 15.84179
# Shear Modulus (GPa) = -10.44925 -3.88863 -7.16894
#
# Velocity S-wave (km/s) = -2.30248 -1.40460 -1.90713
# Velocity P-wave (km/s) = 3.08761 3.98860 1.78543
#
# Compressibility (1/GPa) = -0.20583748
#
# Stress axis : x y z
#
# Youngs Moduli (GPa) = -227.63317 -3.12230 36.24571
#
# Poissons Ratio (x) = 0.20016 0.13949
# Poissons Ratio (y) = 14.59276 0.53052
# Poissons Ratio (z) = -0.87607 -0.04570
#
# Static dielectric constant tensor:
#      x y z
#    x 1.743350 0.000000 0.000000 
#    y 0.000000 1.661680 0.000000 
#    z 0.000000 0.000000 1.706540 
# 
# From -- ./inp_files/35599.got.cif
#   From: 2010.05.17/outbox.ucp.g08.bks.cvg/sg51_18_cif.got.tgz:35599.got - 2010.06.11 16:27:58.
