data_PCOD9407612
_publ_section_title
;
Structure prediction by ZEFSAII (Michael W. Deem and Ramdas Pophale) SiO2 
 PCOD9407612
Probable space group: P M M A
;
_chemical_formula_sum "Si O2"
_cell_formula_units_Z 52
_cell_length_a 9.000000
_cell_length_b 21.000000
_cell_length_c 15.000000
_cell_angle_alpha 90.000000
_cell_angle_beta 90.000000
_cell_angle_gamma 90.000000
_cell_volume 2835.000000
_symmetry_space_group_name_H-M "P M M A"
_symmetry_group_IT_number 51
_symmetry_cell_setting 'orthorhombic'
loop_
_space_group_symop_operation_xyz
x,y,z
1/2-x,-y,z
1/2+x,-y,-z
-x,y,-z
-x,-y,-z
1/2+x,y,-z
1/2-x,y,z
x,-y,z
loop_
_atom_site_type_symbol
_atom_site_label
_atom_site_fract_x
_atom_site_fract_y
_atom_site_fract_z
Si Si1 0.429091 0.186253 0.904256
Si Si2 0.931053 0.069383 0.217658
Si Si3 0.569343 0.378917 0.282153
Si Si4 0.928671 0.735670 0.406307
Si Si5 0.928338 0.116002 0.407126
Si Si6 0.428907 0.666437 0.904334
Si Si7 0.569538 0.500000 0.401403
O O1 0.250000 0.183077 0.909533
O O2 0.480234 0.131351 0.836857
O O3 0.465209 0.259578 0.880673
O O4 0.500000 0.173734 0.000000
O O5 0.750000 0.070564 0.216141
O O6 0.975547 0.077210 0.320523
O O7 0.978399 0.000000 0.182809
O O8 0.750000 0.379734 0.280185
O O9 0.524161 0.313324 0.330274
O O10 0.521448 0.376681 0.179060
O O11 0.524354 0.438141 0.343532
O O12 0.750000 0.732525 0.413138
O O13 0.967311 0.809510 0.390262
O O14 0.000000 0.716308 0.500000
O O15 0.750000 0.112128 0.414991
O O16 0.000000 0.095986 0.500000
O O17 0.250000 0.662345 0.912519
O O18 0.500000 0.651774 0.000000
O O19 0.750000 0.500000 0.409565
O O20 0.500000 0.500000 0.500000
#
# Coordination Sequence:
#
# PCOD9407612 Si02
#       7
#     8   8   8   8   8   8   4
#     4   9  17  30  49  70  91 116 147 185 227 269
#     4   9  17  29  45  64  86 116 152 183 216 268
#     4   9  17  30  49  69  92 124 156 184 220 268
#     4   9  16  27  44  66  89 114 146 184 225 267
#     4   9  17  29  45  64  86 113 147 186 225 265
#     4   9  17  31  50  71  93 118 151 189 227 267
#     4  10  20  34  51  72  98 128 159 188 221 264
#
# _framework density 18.342151999999999
#
# number of rings (size 3 to 8) (size 9 to 14) (size 15 to 20)
#    0.000    2.923    0.000    1.385    0.000    4.308 
#    0.000    2.692    0.000    8.308    0.000    0.000 
#    0.000    0.000    0.000    0.000    0.000    0.000 
#
# Total GULP energy -289750.590228 kJ/mol
# GULP energy per Si atom -5572.126735 kJ/mol
# Density = 1.830040 g / cm^3
# Si number density = 18.342152 Si / 1000 Ang^3
#
#
#
# Elastic Constant Matrix: (Units=GPa)
#
#
# Indices 1 2 3 4 5 6 
#
# 1 -2.5492 12.4367 17.7687 0.0000 0.0000 0.0000
# 2 12.4367 55.3083 66.3695 0.0000 0.0000 0.0000
# 3 17.7687 66.3695 138.9536 0.0000 0.0000 0.0000
# 4 0.0000 0.0000 0.0000 21.2823 0.0000 0.0000
# 5 0.0000 0.0000 0.0000 0.0000 28.9342 0.0000
# 6 0.0000 0.0000 0.0000 0.0000 0.0000 5.5216
#
#
#
# Elastic Compliance Matrix: (Units=1/GPa)
#
#
# Indices 1 2 3 4 5 6 
#
# 1 -0.182408 0.030518 0.008749 0.000000 0.000000 0.000000
# 2 0.030518 0.037253 -0.021696 0.000000 0.000000 0.000000
# 3 0.008749 -0.021696 0.016441 0.000000 0.000000 0.000000
# 4 0.000000 0.000000 0.000000 0.046987 0.000000 0.000000
# 5 0.000000 0.000000 0.000000 0.000000 0.034561 0.000000
# 6 0.000000 0.000000 0.000000 0.000000 0.000000 0.181105
#
#
# Mechanical properties :
#
#
# Convention : Reuss Voigt Hill
#
# Bulk Modulus (GPa) = -10.68691 42.76249 16.03779
# Shear Modulus (GPa) = 73.95753 17.49015 45.72384
#
# Velocity S-wave (km/s) = 6.35678 3.09131 4.99824
# Velocity P-wave (km/s) = 6.93102 6.00883 6.48633
#
# Compressibility (1/GPa) = -0.09357245
#
# Stress axis : x y z
#
# Youngs Moduli (GPa) = -5.48221 26.84350 60.82469
#
# Poissons Ratio (x) = -0.81922 -0.53214
# Poissons Ratio (y) = 0.16731 1.31965
# Poissons Ratio (z) = 0.04796 0.58239
#
# Static dielectric constant tensor:
#      x y z
#    x 1.615460 0.000000 0.000000 
#    y 0.000000 1.655880 0.000000 
#    z 0.000000 0.000000 1.627470 
# 
# From -- ./inp_files/21644.got.cif
#   From: 2010.05.17/outbox.ucp.g08.bks.cvg/sg51_11_cif.got.tgz:21644.got - 2010.06.11 16:27:58.
