data_PCOD9407266
_publ_section_title
;
Structure prediction by ZEFSAII (Michael W. Deem and Ramdas Pophale) SiO2 
 PCOD9407266
Probable space group: P M M A
;
_chemical_formula_sum "Si O2"
_cell_formula_units_Z 64
_cell_length_a 20.637765
_cell_length_b 7.369247
_cell_length_c 20.791929
_cell_angle_alpha 90.000000
_cell_angle_beta 90.000000
_cell_angle_gamma 90.000000
_cell_volume 3162.136110
_symmetry_space_group_name_H-M "P M M A"
_symmetry_group_IT_number 51
_symmetry_cell_setting 'orthorhombic'
loop_
_space_group_symop_operation_xyz
x,y,z
1/2-x,-y,z
1/2+x,-y,-z
-x,y,-z
-x,-y,-z
1/2+x,y,-z
1/2-x,y,z
x,-y,z
loop_
_atom_site_type_symbol
_atom_site_label
_atom_site_fract_x
_atom_site_fract_y
_atom_site_fract_z
Si Si1 0.917816 0.215591 0.120943
Si Si2 0.322896 0.278196 0.339801
Si Si3 0.675071 0.778364 0.010672
Si Si4 0.941701 0.716858 0.266941
Si Si5 0.914356 0.279165 0.547453
Si Si6 0.561054 0.207225 0.916236
Si Si7 0.059261 0.279172 0.591712
Si Si8 0.084547 0.719857 0.227797
O O1 0.856378 0.275478 0.079211
O O2 0.910378 0.245034 0.197434
O O3 0.987683 0.286539 0.093011
O O4 0.922613 0.000000 0.113020
O O5 0.250000 0.217495 0.339974
O O6 0.324101 0.500000 0.340102
O O7 0.360629 0.218149 0.402978
O O8 0.359710 0.221994 0.275598
O O9 0.750000 0.718568 0.001202
O O10 0.677271 0.000000 0.007175
O O11 0.618622 0.716615 0.960790
O O12 0.942041 0.500000 0.271743
O O13 0.919138 0.783600 0.337304
O O14 0.015905 0.777360 0.257581
O O15 0.914431 0.500000 0.546501
O O16 0.905482 0.219484 0.473755
O O17 0.984467 0.229512 0.576703
O O18 0.588333 0.209216 0.844027
O O19 0.551929 0.000000 0.938800
O O20 0.061947 0.500000 0.592468
O O21 0.084050 0.500000 0.224132
#
# Coordination Sequence:
#
# PCOD9407266 Si02
#       8
#     8   8   8   8   8   8   8   8
#     4   9  17  29  46  67  87 108 136 174 214 249
#     4   9  15  22  33  51  80 113 139 167 204 246
#     4   9  17  30  48  66  83 107 142 178 208 246
#     4   9  15  25  42  63  86 110 136 170 210 251
#     4   8  12  19  32  53  76 101 136 172 203 234
#     4   9  17  29  46  66  86 108 136 174 213 246
#     4   8  12  19  35  56  78 100 131 175 207 233
#     4   9  16  26  39  59  86 112 138 166 201 249
#
# _framework density 20.239481000000001
#
# number of rings (size 3 to 8) (size 9 to 14) (size 15 to 20)
#    0.000    3.250    1.250    1.125    0.000    2.000 
#    0.000    0.625    0.000    4.875    0.000    4.375 
#    0.000    0.000    0.000    0.000    0.000    0.000 
#
# Total GULP energy -356481.382438 kJ/mol
# GULP energy per Si atom -5570.021601 kJ/mol
# Density = 2.019342 g / cm^3
# Si number density = 20.239481 Si / 1000 Ang^3
#
#
#
# Elastic Constant Matrix: (Units=GPa)
#
#
# Indices 1 2 3 4 5 6 
#
# 1 66.7594 2.8349 54.9250 0.0000 0.0000 0.0000
# 2 2.8349 69.3582 2.8108 0.0000 0.0000 0.0000
# 3 54.9250 2.8108 142.8403 0.0000 0.0000 0.0000
# 4 0.0000 0.0000 0.0000 14.7752 0.0000 0.0000
# 5 0.0000 0.0000 0.0000 0.0000 20.0219 0.0000
# 6 0.0000 0.0000 0.0000 0.0000 0.0000 -1.6586
#
#
#
# Elastic Compliance Matrix: (Units=1/GPa)
#
#
# Indices 1 2 3 4 5 6 
#
# 1 0.021932 -0.000555 -0.008422 0.000000 0.000000 0.000000
# 2 -0.000555 0.014443 -0.000071 0.000000 0.000000 0.000000
# 3 -0.008422 -0.000071 0.010241 0.000000 0.000000 0.000000
# 4 0.000000 0.000000 0.000000 0.067681 0.000000 0.000000
# 5 0.000000 0.000000 0.000000 0.000000 0.049945 0.000000
# 6 0.000000 0.000000 0.000000 0.000000 0.000000 -0.602917
#
#
# Mechanical properties :
#
#
# Convention : Reuss Voigt Hill
#
# Bulk Modulus (GPa) = 35.06338 44.45550 39.75944
# Shear Modulus (GPa) = -12.16335 21.18683 4.51174
#
# Velocity S-wave (km/s) = -2.45413 3.23895 1.49466
# Velocity P-wave (km/s) = 3.05475 6.00001 4.76086
#
# Compressibility (1/GPa) = 0.02851978
#
# Stress axis : x y z
#
# Youngs Moduli (GPa) = 45.59522 69.23546 97.64853
#
# Poissons Ratio (x) = 0.03843 0.82244
# Poissons Ratio (y) = 0.02531 0.00691
# Poissons Ratio (z) = 0.38402 0.00490
#
# Static dielectric constant tensor:
#      x y z
#    x 1.687220 0.000000 0.000000 
#    y 0.000000 1.805510 0.000000 
#    z 0.000000 0.000000 1.744260 
# 
# From -- ./inp_files/30721.got.cif
#   From: 2010.05.17/outbox.cif.g08.bks.cpg/sg51_16_cif.got.tgz:30721.got - 2010.06.03 11:52:47.
