data_PCOD9407010
_publ_section_title
;
Structure prediction by ZEFSAII (Michael W. Deem and Ramdas Pophale) SiO2 
 PCOD9407010
Probable space group: P M M A
;
_chemical_formula_sum "Si O2"
_cell_formula_units_Z 64
_cell_length_a 27.350769
_cell_length_b 7.903940
_cell_length_c 13.674509
_cell_angle_alpha 90.000000
_cell_angle_beta 90.000000
_cell_angle_gamma 90.000000
_cell_volume 2956.139454
_symmetry_space_group_name_H-M "P M M A"
_symmetry_group_IT_number 51
_symmetry_cell_setting 'orthorhombic'
loop_
_space_group_symop_operation_xyz
x,y,z
1/2-x,-y,z
1/2+x,-y,-z
-x,y,-z
-x,-y,-z
1/2+x,y,-z
1/2-x,y,z
x,-y,z
loop_
_atom_site_type_symbol
_atom_site_label
_atom_site_fract_x
_atom_site_fract_y
_atom_site_fract_z
Si Si1 0.350328 0.693789 0.386071
Si Si2 0.115886 0.208296 0.816469
Si Si3 0.308327 0.304997 0.189339
Si Si4 0.993084 0.206986 0.112449
Si Si5 0.555737 0.806065 0.718942
Si Si6 0.531263 0.305912 0.402911
Si Si7 0.637639 0.189474 0.399342
Si Si8 0.694228 0.799954 0.024617
O O1 0.334766 0.500000 0.386420
O O2 0.324738 0.776696 0.291598
O O3 0.406868 0.707815 0.350932
O O4 0.340572 0.750614 0.496927
O O5 0.060185 0.260716 0.844331
O O6 0.136628 0.267571 0.710312
O O7 0.114431 0.000000 0.813238
O O8 0.154192 0.264836 0.899149
O O9 0.250000 0.305126 0.189879
O O10 0.325791 0.500000 0.186213
O O11 0.323201 0.222995 0.087109
O O12 0.041148 0.262577 0.174338
O O13 0.993518 0.000000 0.116808
O O14 0.000000 0.256934 0.000000
O O15 0.502507 0.795171 0.670768
O O16 0.572597 0.000000 0.723918
O O17 0.500000 0.317820 0.500000
O O18 0.541855 0.500000 0.371292
O O19 0.580129 0.204058 0.421916
O O20 0.655625 0.000000 0.386292
O O21 0.750000 0.729955 0.034176
O O22 0.697776 0.000000 0.042695
#
# Coordination Sequence:
#
# PCOD9407010 Si02
#       8
#     8   8   8   8   8   8   8   8
#     4  11  23  37  54  80 112 143 181 228 279 325
#     4   9  18  33  52  77 112 145 179 223 272 323
#     4   9  20  40  62  81 108 144 178 219 274 334
#     4   9  18  31  48  74 106 143 182 220 263 317
#     4  11  21  33  53  78 104 141 187 224 262 320
#     4  11  21  33  50  72 104 143 178 221 268 305
#     4  11  21  35  54  77 107 147 191 226 265 323
#     4   9  18  34  60  89 111 135 174 226 278 326
#
# _framework density 21.64986
#
# number of rings (size 3 to 8) (size 9 to 14) (size 15 to 20)
#    0.000    2.000    2.500    1.500    1.750    1.500 
#    0.000    1.875    0.000    2.250    0.000    0.000 
#    0.000    0.000    0.000    0.000    0.000    0.000 
#
# Total GULP energy -356406.010256 kJ/mol
# GULP energy per Si atom -5568.843910 kJ/mol
# Density = 2.160058 g / cm^3
# Si number density = 21.649860 Si / 1000 Ang^3
#
#
#
# Elastic Constant Matrix: (Units=GPa)
#
#
# Indices 1 2 3 4 5 6 
#
# 1 36.8271 -1.2639 36.5560 0.0000 0.0000 0.0000
# 2 -1.2639 24.2931 8.6415 0.0000 0.0000 0.0000
# 3 36.5560 8.6415 185.4673 0.0000 0.0000 0.0000
# 4 0.0000 0.0000 0.0000 15.8376 0.0000 0.0000
# 5 0.0000 0.0000 0.0000 0.0000 37.9198 0.0000
# 6 0.0000 0.0000 0.0000 0.0000 0.0000 47.3191
#
#
#
# Elastic Compliance Matrix: (Units=1/GPa)
#
#
# Indices 1 2 3 4 5 6 
#
# 1 0.034184 0.004246 -0.006936 0.000000 0.000000 0.000000
# 2 0.004246 0.042385 -0.002812 0.000000 0.000000 0.000000
# 3 -0.006936 -0.002812 0.006890 0.000000 0.000000 0.000000
# 4 0.000000 0.000000 0.000000 0.063141 0.000000 0.000000
# 5 0.000000 0.000000 0.000000 0.000000 0.026371 0.000000
# 6 0.000000 0.000000 0.000000 0.000000 0.000000 0.021133
#
#
# Mechanical properties :
#
#
# Convention : Reuss Voigt Hill
#
# Bulk Modulus (GPa) = 13.80150 37.16161 25.48155
# Shear Modulus (GPa) = 21.80932 33.72556 27.76744
#
# Velocity S-wave (km/s) = 3.17735 3.95114 3.58518
# Velocity P-wave (km/s) = 4.45527 6.16583 5.37898
#
# Compressibility (1/GPa) = 0.07245591
#
# Stress axis : x y z
#
# Youngs Moduli (GPa) = 29.25325 23.59321 145.14173
#
# Poissons Ratio (x) = -0.10017 1.00665
# Poissons Ratio (y) = -0.12420 0.40809
# Poissons Ratio (z) = 0.20289 0.06634
#
# Static dielectric constant tensor:
#      x y z
#    x 1.788330 0.000000 0.000000 
#    y 0.000000 1.853640 0.000000 
#    z 0.000000 0.000000 1.881260 
# 
# From -- ./inp_files/26221.got.cif
#   From: 2010.05.17/outbox.cif.g08.bks.cpg/sg51_14_cif.got.tgz:26221.got - 2010.06.03 11:52:47.
