data_PCOD9407413
_publ_section_title
;
Structure prediction by ZEFSAII (Michael W. Deem and Ramdas Pophale) SiO2 
 PCOD9407413
Probable space group: P M M A
;
_chemical_formula_sum "Si O2"
_cell_formula_units_Z 64
_cell_length_a 21.000000
_cell_length_b 9.000000
_cell_length_c 18.000000
_cell_angle_alpha 90.000000
_cell_angle_beta 90.000000
_cell_angle_gamma 90.000000
_cell_volume 3402.000000
_symmetry_space_group_name_H-M "P M M A"
_symmetry_group_IT_number 51
_symmetry_cell_setting 'orthorhombic'
loop_
_space_group_symop_operation_xyz
x,y,z
1/2-x,-y,z
1/2+x,-y,-z
-x,y,-z
-x,-y,-z
1/2+x,y,-z
1/2-x,y,z
x,-y,z
loop_
_atom_site_type_symbol
_atom_site_label
_atom_site_fract_x
_atom_site_fract_y
_atom_site_fract_z
Si Si1 0.526771 0.678455 0.201534
Si Si2 0.613634 0.818704 0.782552
Si Si3 0.677323 0.168995 0.467313
Si Si4 0.677022 0.819428 0.939389
Si Si5 0.347458 0.168418 0.372408
Si Si6 0.903836 0.669306 0.343353
Si Si7 0.005517 0.160097 0.411671
Si Si8 0.063987 0.825171 0.950733
O O1 0.519898 0.500000 0.207147
O O2 0.458033 0.753687 0.217250
O O3 0.581096 0.725911 0.260894
O O4 0.550789 0.728787 0.121504
O O5 0.648636 0.777349 0.858989
O O6 0.654943 0.768458 0.710699
O O7 0.609058 0.000000 0.778940
O O8 0.750000 0.162661 0.444856
O O9 0.675346 0.239399 0.550166
O O10 0.639877 0.245560 0.401426
O O11 0.652540 0.000000 0.476616
O O12 0.750000 0.768604 0.949941
O O13 0.678018 0.000000 0.940158
O O14 0.625550 0.775839 0.001894
O O15 0.422558 0.158673 0.386512
O O16 0.320655 0.000000 0.369495
O O17 0.883426 0.500000 0.339875
O O18 0.972699 0.694665 0.380148
O O19 0.000000 0.162922 0.500000
O O20 0.977362 0.000000 0.385779
O O21 0.071945 0.000000 0.930949
O O22 0.000000 0.816137 0.000000
#
# Coordination Sequence:
#
# PCOD9407413 Si02
#       8
#     8   8   8   8   8   8   8   8
#     4  11  23  36  53  83 116 144 181 232 283 328
#     4  10  18  32  56  84 115 149 180 216 271 335
#     4  10  21  38  57  77 105 145 194 238 278 331
#     4   9  18  33  55  85 117 143 174 220 271 326
#     4   9  17  29  51  82 110 138 174 222 272 320
#     4  11  23  36  52  77 110 144 182 229 281 332
#     4  10  17  29  51  76 104 135 173 222 274 318
#     4  10  19  35  60  87 112 144 186 227 273 332
#
# _framework density 18.812463000000001
#
# number of rings (size 3 to 8) (size 9 to 14) (size 15 to 20)
#    0.000    2.000    3.750    0.750    0.000    2.750 
#    0.000    3.750    0.000    3.750    0.000    0.000 
#    0.000    0.000    0.000    0.000    0.000    0.000 
#
# Total GULP energy -356303.716660 kJ/mol
# GULP energy per Si atom -5567.245573 kJ/mol
# Density = 1.876965 g / cm^3
# Si number density = 18.812463 Si / 1000 Ang^3
#
#
#
# Elastic Constant Matrix: (Units=GPa)
#
#
# Indices 1 2 3 4 5 6 
#
# 1 103.5077 15.0918 46.5237 0.0000 0.0000 0.0000
# 2 15.0918 18.3355 30.5267 0.0000 0.0000 0.0000
# 3 46.5237 30.5267 121.9039 0.0000 0.0000 0.0000
# 4 0.0000 0.0000 0.0000 44.1123 0.0000 0.0000
# 5 0.0000 0.0000 0.0000 0.0000 -20.6581 0.0000
# 6 0.0000 0.0000 0.0000 0.0000 0.0000 -1.2038
#
#
#
# Elastic Compliance Matrix: (Units=1/GPa)
#
#
# Indices 1 2 3 4 5 6 
#
# 1 0.011814 -0.003803 -0.003556 0.000000 0.000000 0.000000
# 2 -0.003803 0.094760 -0.022278 0.000000 0.000000 0.000000
# 3 -0.003556 -0.022278 0.015139 0.000000 0.000000 0.000000
# 4 0.000000 0.000000 0.000000 0.022669 0.000000 0.000000
# 5 0.000000 0.000000 0.000000 0.000000 -0.048407 0.000000
# 6 0.000000 0.000000 0.000000 0.000000 0.000000 -0.830686
#
#
# Mechanical properties :
#
#
# Convention : Reuss Voigt Hill
#
# Bulk Modulus (GPa) = 16.01584 47.55905 31.78744
# Shear Modulus (GPa) = -7.63798 14.55706 3.45954
#
# Velocity S-wave (km/s) = -2.01715 2.78474 1.35755
# Velocity P-wave (km/s) = 1.76259 5.97287 4.40352
#
# Compressibility (1/GPa) = 0.06243820
#
# Stress axis : x y z
#
# Youngs Moduli (GPa) = 84.64440 10.55301 66.05367
#
# Poissons Ratio (x) = 0.04013 0.23491
# Poissons Ratio (y) = 0.32191 1.47154
# Poissons Ratio (z) = 0.30103 0.23510
#
# Static dielectric constant tensor:
#      x y z
#    x 1.760570 0.000000 0.000000 
#    y 0.000000 1.658420 0.000000 
#    z 0.000000 0.000000 1.706840 
# 
# From -- ./inp_files/30650.got.cif
#   From: 2010.05.17/outbox.ucp.g08.bks.cvg/sg51_16_cif.got.tgz:30650.got - 2010.06.11 16:27:58.
