data_PCOD9407284
_publ_section_title
;
Structure prediction by ZEFSAII (Michael W. Deem and Ramdas Pophale) SiO2 
 PCOD9407284
Probable space group: P M M A
;
_chemical_formula_sum "Si O2"
_cell_formula_units_Z 48
_cell_length_a 7.425148
_cell_length_b 19.409751
_cell_length_c 13.080897
_cell_angle_alpha 90.000000
_cell_angle_beta 90.000000
_cell_angle_gamma 90.000000
_cell_volume 1885.222457
_symmetry_space_group_name_H-M "P M M A"
_symmetry_group_IT_number 51
_symmetry_cell_setting 'orthorhombic'
loop_
_space_group_symop_operation_xyz
x,y,z
1/2-x,-y,z
1/2+x,-y,-z
-x,y,-z
-x,-y,-z
1/2+x,y,-z
1/2-x,y,z
x,-y,z
loop_
_atom_site_type_symbol
_atom_site_label
_atom_site_fract_x
_atom_site_fract_y
_atom_site_fract_z
Si Si1 0.963551 0.776974 0.112850
Si Si2 0.030433 0.275460 0.667727
Si Si3 0.470955 0.576430 0.660021
Si Si4 0.055725 0.582086 0.888301
Si Si5 0.964022 0.874922 0.389207
Si Si6 0.469844 0.925919 0.829055
O O1 0.750000 0.781758 0.125138
O O2 0.025461 0.734360 0.212291
O O3 0.034346 0.855535 0.119120
O O4 0.000000 0.750184 0.000000
O O5 0.250000 0.276215 0.664668
O O6 0.972592 0.348499 0.619055
O O7 0.967217 0.204220 0.616660
O O8 0.250000 0.573724 0.658080
O O9 0.529737 0.500000 0.622662
O O10 0.535461 0.584116 0.778164
O O11 0.250000 0.615261 0.870272
O O12 0.073653 0.500000 0.901616
O O13 0.000000 0.606193 0.000000
O O14 0.750000 0.870281 0.377784
O O15 0.024532 0.916453 0.289865
O O16 0.000000 0.905241 0.500000
O O17 0.250000 0.926457 0.833971
O O18 0.532307 0.000000 0.868488
#
# Coordination Sequence:
#
# PCOD9407284 Si02
#       6
#     8   8   8   8   8   8
#     4   9  17  29  45  64  88 120 154 184 213 249
#     4   8  15  28  43  60  85 116 147 177 215 265
#     4   8  13  22  38  58  77 101 138 180 213 245
#     4   8  13  20  30  46  68  93 122 157 195 233
#     4   9  17  30  49  69  88 113 143 176 217 264
#     4   8  15  29  47  66  90 120 150 177 211 259
#
# _framework density 25.461186000000001
#
# number of rings (size 3 to 8) (size 9 to 14) (size 15 to 20)
#    0.000    3.667    0.000    3.000    0.000    1.333 
#    0.000    3.333    0.000    2.500    0.000    0.000 
#    0.000    0.000    0.000    0.000    0.000    0.000 
#
# Total GULP energy -267438.419732 kJ/mol
# GULP energy per Si atom -5571.633744 kJ/mol
# Density = 2.540324 g / cm^3
# Si number density = 25.461186 Si / 1000 Ang^3
#
#
#
# Elastic Constant Matrix: (Units=GPa)
#
#
# Indices 1 2 3 4 5 6 
#
# 1 71.4196 0.9336 -12.0804 0.0000 0.0000 0.0000
# 2 0.9336 200.2539 0.5019 0.0000 0.0000 0.0000
# 3 -12.0804 0.5019 105.3733 0.0000 0.0000 0.0000
# 4 0.0000 0.0000 0.0000 -13.1924 0.0000 0.0000
# 5 0.0000 0.0000 0.0000 0.0000 7.0154 0.0000
# 6 0.0000 0.0000 0.0000 0.0000 0.0000 -16.4349
#
#
#
# Elastic Compliance Matrix: (Units=1/GPa)
#
#
# Indices 1 2 3 4 5 6 
#
# 1 0.014280 -0.000071 0.001637 0.000000 0.000000 0.000000
# 2 -0.000071 0.004994 -0.000032 0.000000 0.000000 0.000000
# 3 0.001637 -0.000032 0.009678 0.000000 0.000000 0.000000
# 4 0.000000 0.000000 0.000000 -0.075801 0.000000 0.000000
# 5 0.000000 0.000000 0.000000 0.000000 0.142543 0.000000
# 6 0.000000 0.000000 0.000000 0.000000 0.000000 -0.060846
#
#
# Mechanical properties :
#
#
# Convention : Reuss Voigt Hill
#
# Bulk Modulus (GPa) = 31.22917 39.52856 35.37887
# Shear Modulus (GPa) = 117.78252 21.32376 69.55314
#
# Velocity S-wave (km/s) = 6.80882 2.89710 5.23227
# Velocity P-wave (km/s) = 8.60845 5.17201 7.10124
#
# Compressibility (1/GPa) = 0.03202134
#
# Stress axis : x y z
#
# Youngs Moduli (GPa) = 70.02978 200.23750 103.32779
#
# Poissons Ratio (x) = 0.01415 -0.16919
# Poissons Ratio (y) = 0.00495 0.00330
# Poissons Ratio (z) = -0.11467 0.00639
#
# Static dielectric constant tensor:
#      x y z
#    x 1.996140 0.000000 0.000000 
#    y 0.000000 2.031250 0.000000 
#    z 0.000000 0.000000 2.053470 
# 
# From -- ./inp_files/15652.got.cif
#   From: 2010.05.17/outbox.cif.g08.bks.cpg/sg51_8_cif.got.tgz:15652.got - 2010.06.03 11:52:47.
