data_PCOD9407378
_publ_section_title
;
Structure prediction by ZEFSAII (Michael W. Deem and Ramdas Pophale) SiO2 
 PCOD9407378
Probable space group: P M M A
;
_chemical_formula_sum "Si O2"
_cell_formula_units_Z 40
_cell_length_a 9.455359
_cell_length_b 7.355973
_cell_length_c 26.648709
_cell_angle_alpha 90.000000
_cell_angle_beta 90.000000
_cell_angle_gamma 90.000000
_cell_volume 1853.507397
_symmetry_space_group_name_H-M "P M M A"
_symmetry_group_IT_number 51
_symmetry_cell_setting 'orthorhombic'
loop_
_space_group_symop_operation_xyz
x,y,z
1/2-x,-y,z
1/2+x,-y,-z
-x,y,-z
-x,-y,-z
1/2+x,y,-z
1/2-x,y,z
x,-y,z
loop_
_atom_site_type_symbol
_atom_site_label
_atom_site_fract_x
_atom_site_fract_y
_atom_site_fract_z
Si Si1 0.411300 0.283205 0.742542
Si Si2 0.411096 0.783024 0.855810
Si Si3 0.586798 0.721749 0.450892
Si Si4 0.587762 0.777857 0.951093
Si Si5 0.087425 0.722164 0.352783
O O1 0.250000 0.212261 0.738486
O O2 0.402850 0.500000 0.736260
O O3 0.462390 0.250518 0.799213
O O4 0.512710 0.216484 0.698558
O O5 0.250000 0.712212 0.859698
O O6 0.510691 0.716262 0.900261
O O7 0.403058 0.000000 0.861786
O O8 0.500000 0.778858 0.500000
O O9 0.750000 0.780286 0.451808
O O10 0.588174 0.500000 0.451042
O O11 0.505352 0.778091 0.400599
O O12 0.750000 0.719438 0.953602
O O13 0.588362 0.000000 0.950891
O O14 0.500000 0.721955 0.000000
O O15 0.250000 0.780347 0.356555
O O16 0.088607 0.500000 0.352738
#
# Coordination Sequence:
#
# PCOD9407378 Si02
#       5
#     8   8   8   8   8
#     4   9  17  29  44  61  83 113 145 174 207 249
#     4   9  17  29  45  65  88 112 139 173 211 249
#     4   9  15  22  33  50  74 104 137 173 213 255
#     4   9  16  26  42  64  88 112 138 170 209 251
#     4   9  16  25  37  54  77 106 140 175 210 250
#
# _framework density 21.580708000000001
#
# number of rings (size 3 to 8) (size 9 to 14) (size 15 to 20)
#    0.000    3.000    0.000    1.800    0.000    8.000 
#    0.000    0.000    0.000    0.600    0.000    0.000 
#    0.000    0.800    0.000    2.200    0.000    4.000 
#
# Total GULP energy -223425.162041 kJ/mol
# GULP energy per Si atom -5585.629051 kJ/mol
# Density = 2.153159 g / cm^3
# Si number density = 21.580708 Si / 1000 Ang^3
#
#
#
# Elastic Constant Matrix: (Units=GPa)
#
#
# Indices 1 2 3 4 5 6 
#
# 1 203.7977 6.3337 167.7075 0.0000 0.0000 0.0000
# 2 6.3337 80.0504 1.0112 0.0000 0.0000 0.0000
# 3 167.7075 1.0112 253.3240 0.0000 0.0000 0.0000
# 4 0.0000 0.0000 0.0000 14.2312 0.0000 0.0000
# 5 0.0000 0.0000 0.0000 0.0000 39.0450 0.0000
# 6 0.0000 0.0000 0.0000 0.0000 0.0000 -502.8775
#
#
#
# Elastic Compliance Matrix: (Units=1/GPa)
#
#
# Indices 1 2 3 4 5 6 
#
# 1 0.010826 -0.000766 -0.007164 0.000000 0.000000 0.000000
# 2 -0.000766 0.012547 0.000457 0.000000 0.000000 0.000000
# 3 -0.007164 0.000457 0.008689 0.000000 0.000000 0.000000
# 4 0.000000 0.000000 0.000000 0.070268 0.000000 0.000000
# 5 0.000000 0.000000 0.000000 0.000000 0.025611 0.000000
# 6 0.000000 0.000000 0.000000 0.000000 0.000000 -0.001989
#
#
# Mechanical properties :
#
#
# Convention : Reuss Voigt Hill
#
# Bulk Modulus (GPa) = 58.42702 98.58631 78.50666
# Shear Modulus (GPa) = 34.10555 -65.77893 -15.83669
#
# Velocity S-wave (km/s) = 3.97970 -5.52690 -2.71188
# Velocity P-wave (km/s) = 6.94621 2.24788 5.16250
#
# Compressibility (1/GPa) = 0.01711537
#
# Stress axis : x y z
#
# Youngs Moduli (GPa) = 92.36991 79.70051 115.09457
#
# Poissons Ratio (x) = 0.06106 0.82455
# Poissons Ratio (y) = 0.07076 -0.05261
# Poissons Ratio (z) = 0.66175 -0.03643
#
# Static dielectric constant tensor:
#      x y z
#    x 1.734700 0.000000 0.000000 
#    y 0.000000 1.864640 0.000000 
#    z 0.000000 0.000000 1.735980 
# 
# From -- ./inp_files/31360.got.cif
#   From: 2010.05.17/outbox.cif.g08.bks.cpg/sg51_16_cif.got.tgz:31360.got - 2010.06.03 11:52:47.
