data_PCOD9407147
_publ_section_title
;
Structure prediction by ZEFSAII (Michael W. Deem and Ramdas Pophale) SiO2 
 PCOD9407147
Probable space group: P M M A
;
_chemical_formula_sum "Si O2"
_cell_formula_units_Z 56
_cell_length_a 24.707222
_cell_length_b 8.833282
_cell_length_c 15.017503
_cell_angle_alpha 90.000000
_cell_angle_beta 90.000000
_cell_angle_gamma 90.000000
_cell_volume 3277.507848
_symmetry_space_group_name_H-M "P M M A"
_symmetry_group_IT_number 51
_symmetry_cell_setting 'orthorhombic'
loop_
_space_group_symop_operation_xyz
x,y,z
1/2-x,-y,z
1/2+x,-y,-z
-x,y,-z
-x,-y,-z
1/2+x,y,-z
1/2-x,y,z
x,-y,z
loop_
_atom_site_type_symbol
_atom_site_label
_atom_site_fract_x
_atom_site_fract_y
_atom_site_fract_z
Si Si1 0.364857 0.680671 0.968596
Si Si2 0.750000 0.180900 0.785994
Si Si3 0.360199 0.320015 0.288076
Si Si4 0.582041 0.180681 0.554233
Si Si5 0.962046 0.180787 0.366767
Si Si6 0.068687 0.819164 0.133161
Si Si7 0.750000 0.180360 0.998672
Si Si8 0.455654 0.679466 0.826095
O O1 0.361942 0.500000 0.982326
O O2 0.401583 0.710898 0.882104
O O3 0.396173 0.754603 0.051938
O O4 0.304853 0.748104 0.963278
O O5 0.696869 0.253685 0.743394
O O6 0.750000 0.209379 0.892083
O O7 0.750000 0.000000 0.772899
O O8 0.361310 0.500000 0.278446
O O9 0.374700 0.270401 0.388048
O O10 0.404986 0.246022 0.223285
O O11 0.523181 0.209091 0.598802
O O12 0.576226 0.220966 0.450293
O O13 0.591763 0.000000 0.560496
O O14 0.951176 0.266717 0.275614
O O15 0.957806 0.000000 0.351515
O O16 0.006868 0.763948 0.130163
O O17 0.071345 0.000000 0.134225
O O18 0.750000 0.000000 0.011810
O O19 0.466227 0.500000 0.829638
#
# Coordination Sequence:
#
# PCOD9407147 Si02
#       8
#     8   4   8   8   8   8   4   8
#     4  11  24  40  58  80 113 150 186 234 287 334
#     4  11  23  39  59  82 110 147 188 232 279 333
#     4  12  23  35  56  85 115 149 185 229 281 336
#     4   9  18  34  55  82 113 147 183 224 274 328
#     4   9  18  33  56  82 112 148 185 224 271 328
#     4  12  23  36  55  81 114 152 190 229 275 334
#     4  11  23  39  61  84 106 143 194 236 275 331
#     4  11  23  37  55  84 117 150 188 232 285 337
#
# _framework density 17.086152999999999
#
# number of rings (size 3 to 8) (size 9 to 14) (size 15 to 20)
#    0.000    1.286    2.857    5.143    0.000    5.143 
#    0.000    1.429    0.000    0.857    0.000    4.000 
#    0.000    0.000    0.000    0.000    0.000    0.000 
#
# Total GULP energy -312958.894681 kJ/mol
# GULP energy per Si atom -5588.551691 kJ/mol
# Density = 1.704726 g / cm^3
# Si number density = 17.086153 Si / 1000 Ang^3
#
#
#
# Elastic Constant Matrix: (Units=GPa)
#
#
# Indices 1 2 3 4 5 6 
#
# 1 125.7278 68.4752 47.0173 0.0000 0.0000 0.0000
# 2 68.4752 91.2617 44.5331 0.0000 0.0000 0.0000
# 3 47.0173 44.5331 75.3257 0.0000 0.0000 0.0000
# 4 0.0000 0.0000 0.0000 29.7168 0.0000 0.0000
# 5 0.0000 0.0000 0.0000 0.0000 17.8505 0.0000
# 6 0.0000 0.0000 0.0000 0.0000 0.0000 27.1704
#
#
#
# Elastic Compliance Matrix: (Units=1/GPa)
#
#
# Indices 1 2 3 4 5 6 
#
# 1 0.014105 -0.008836 -0.003580 0.000000 0.000000 0.000000
# 2 -0.008836 0.020936 -0.006862 0.000000 0.000000 0.000000
# 3 -0.003580 -0.006862 0.019567 0.000000 0.000000 0.000000
# 4 0.000000 0.000000 0.000000 0.033651 0.000000 0.000000
# 5 0.000000 0.000000 0.000000 0.000000 0.056021 0.000000
# 6 0.000000 0.000000 0.000000 0.000000 0.000000 0.036805
#
#
# Mechanical properties :
#
#
# Convention : Reuss Voigt Hill
#
# Bulk Modulus (GPa) = 62.29973 68.04070 65.17021
# Shear Modulus (GPa) = 22.22302 23.76685 22.99493
#
# Velocity S-wave (km/s) = 3.61036 3.73366 3.67253
# Velocity P-wave (km/s) = 7.34308 7.64824 7.49721
#
# Compressibility (1/GPa) = 0.01605143
#
# Stress axis : x y z
#
# Youngs Moduli (GPa) = 70.89689 47.76478 51.10590
#
# Poissons Ratio (x) = 0.42206 0.18296
# Poissons Ratio (y) = 0.62646 0.35069
# Poissons Ratio (z) = 0.25382 0.32776
#
# Static dielectric constant tensor:
#      x y z
#    x 1.572390 0.000000 0.000000 
#    y 0.000000 1.568930 0.000000 
#    z 0.000000 0.000000 1.574190 
# 
# From -- ./inp_files/25819.got.cif
#   From: 2010.05.17/outbox.cif.g08.bks.cpg/sg51_13_cif.got.tgz:25819.got - 2010.06.03 11:52:47.
