data_PCOD9407320
_publ_section_title
;
Structure prediction by ZEFSAII (Michael W. Deem and Ramdas Pophale) SiO2 
 PCOD9407320
Probable space group: P M M A
;
_chemical_formula_sum "Si O2"
_cell_formula_units_Z 44
_cell_length_a 7.455792
_cell_length_b 30.677157
_cell_length_c 9.447716
_cell_angle_alpha 90.000000
_cell_angle_beta 90.000000
_cell_angle_gamma 90.000000
_cell_volume 2160.905239
_symmetry_space_group_name_H-M "P M M A"
_symmetry_group_IT_number 51
_symmetry_cell_setting 'orthorhombic'
loop_
_space_group_symop_operation_xyz
x,y,z
1/2-x,-y,z
1/2+x,-y,-z
-x,y,-z
-x,-y,-z
1/2+x,y,-z
1/2-x,y,z
x,-y,z
loop_
_atom_site_type_symbol
_atom_site_label
_atom_site_fract_x
_atom_site_fract_y
_atom_site_fract_z
Si Si1 0.964861 0.821548 0.333309
Si Si2 0.965173 0.094592 0.167466
Si Si3 0.464432 0.000000 0.831241
Si Si4 0.465148 0.641505 0.832566
Si Si5 0.464859 0.725360 0.666690
Si Si6 0.964742 0.453153 0.169076
O O1 0.750000 0.820699 0.313418
O O2 0.035905 0.863045 0.248122
O O3 0.033415 0.773454 0.290631
O O4 0.000000 0.826780 0.500000
O O5 0.750000 0.093808 0.186144
O O6 0.033506 0.047102 0.219264
O O7 0.000000 0.098271 0.000000
O O8 0.250000 0.000000 0.809860
O O9 0.500000 0.000000 0.000000
O O10 0.250000 0.640679 0.813825
O O11 0.535886 0.683858 0.751857
O O12 0.533381 0.594005 0.780850
O O13 0.500000 0.645227 0.000000
O O14 0.500000 0.720137 0.500000
O O15 0.250000 0.726203 0.686605
O O16 0.750000 0.453342 0.189214
O O17 0.033891 0.500000 0.223909
O O18 0.000000 0.453122 0.000000
#
# Coordination Sequence:
#
# PCOD9407320 Si02
#       6
#     8   8   4   8   8   8
#     4   9  18  32  47  63  85 113 144 177 212 251
#     4   9  17  29  46  67  89 113 142 175 210 249
#     4   8  14  26  43  62  86 114 140 168 205 248
#     4   9  17  28  43  65  89 110 137 175 213 249
#     4   9  18  32  47  62  83 113 146 176 209 252
#     4   8  13  22  37  57  81 108 135 164 202 246
#
# _framework density 20.361837999999999
#
# number of rings (size 3 to 8) (size 9 to 14) (size 15 to 20)
#    0.000    3.273    0.000    0.000    0.000    2.182 
#    0.000    0.455    0.000    0.545    0.000    0.000 
#    0.000    0.000    0.000    0.000    0.000    0.000 
#
# Total GULP energy -244999.847573 kJ/mol
# GULP energy per Si atom -5568.178354 kJ/mol
# Density = 2.031549 g / cm^3
# Si number density = 20.361838 Si / 1000 Ang^3
#
#
#
# Elastic Constant Matrix: (Units=GPa)
#
#
# Indices 1 2 3 4 5 6 
#
# 1 66.8840 15.6178 -4.0350 0.0000 0.0000 0.0000
# 2 15.6178 306.3171 83.1159 0.0000 0.0000 0.0000
# 3 -4.0350 83.1159 32.3675 0.0000 0.0000 0.0000
# 4 0.0000 0.0000 0.0000 -22.9844 0.0000 0.0000
# 5 0.0000 0.0000 0.0000 0.0000 15.5825 0.0000
# 6 0.0000 0.0000 0.0000 0.0000 0.0000 -71.4204
#
#
#
# Elastic Compliance Matrix: (Units=1/GPa)
#
#
# Indices 1 2 3 4 5 6 
#
# 1 0.016916 -0.004731 0.014258 0.000000 0.000000 0.000000
# 2 -0.004731 0.012089 -0.031634 0.000000 0.000000 0.000000
# 3 0.014258 -0.031634 0.113904 0.000000 0.000000 0.000000
# 4 0.000000 0.000000 0.000000 -0.043508 0.000000 0.000000
# 5 0.000000 0.000000 0.000000 0.000000 0.064174 0.000000
# 6 0.000000 0.000000 0.000000 0.000000 0.000000 -0.014002
#
#
# Mechanical properties :
#
#
# Convention : Reuss Voigt Hill
#
# Bulk Modulus (GPa) = 10.13208 66.10734 38.11971
# Shear Modulus (GPa) = 22.05684 4.96020 13.50852
#
# Velocity S-wave (km/s) = 3.29484 1.56247 2.57850
# Velocity P-wave (km/s) = 4.41151 5.98263 5.25611
#
# Compressibility (1/GPa) = 0.09869644
#
# Stress axis : x y z
#
# Youngs Moduli (GPa) = 59.11478 82.71783 8.77930
#
# Poissons Ratio (x) = 0.39137 -0.12518
# Poissons Ratio (y) = 0.27969 0.27772
# Poissons Ratio (z) = -0.84288 2.61667
#
# Static dielectric constant tensor:
#      x y z
#    x 1.734140 0.000000 0.000000 
#    y 0.000000 1.824000 0.000000 
#    z 0.000000 0.000000 1.594070 
# 
# From -- ./inp_files/5710.got.cif
#   From: 2010.05.17/outbox.cif.g08.bks.cpg/sg51_3_cif.got.tgz:5710.got - 2010.06.03 11:52:47.
