data_PCOD9407262
_publ_section_title
;
Structure prediction by ZEFSAII (Michael W. Deem and Ramdas Pophale) SiO2 
 PCOD9407262
Probable space group: P M M A
;
_chemical_formula_sum "Si O2"
_cell_formula_units_Z 64
_cell_length_a 14.364826
_cell_length_b 7.445235
_cell_length_c 31.740576
_cell_angle_alpha 90.000000
_cell_angle_beta 90.000000
_cell_angle_gamma 90.000000
_cell_volume 3394.638901
_symmetry_space_group_name_H-M "P M M A"
_symmetry_group_IT_number 51
_symmetry_cell_setting 'orthorhombic'
loop_
_space_group_symop_operation_xyz
x,y,z
1/2-x,-y,z
1/2+x,-y,-z
-x,y,-z
-x,-y,-z
1/2+x,y,-z
1/2-x,y,z
x,-y,z
loop_
_atom_site_type_symbol
_atom_site_label
_atom_site_fract_x
_atom_site_fract_y
_atom_site_fract_z
Si Si1 0.033637 0.781034 0.566268
Si Si2 0.855195 0.216747 0.353851
Si Si3 0.856064 0.715272 0.877567
Si Si4 0.143779 0.218223 0.885316
Si Si5 0.355207 0.219002 0.482867
Si Si6 0.994060 0.295403 0.188337
Si Si7 0.002667 0.215256 0.047534
Si Si8 0.855401 0.712358 0.255947
O O1 0.072350 0.719355 0.611083
O O2 0.103522 0.729217 0.528451
O O3 0.930789 0.723785 0.551894
O O4 0.032898 0.000000 0.566885
O O5 0.750000 0.276370 0.364540
O O6 0.873268 0.268479 0.305651
O O7 0.855220 0.000000 0.355137
O O8 0.750000 0.782082 0.877905
O O9 0.853282 0.500000 0.872801
O O10 0.910050 0.747006 0.921659
O O11 0.919441 0.784550 0.838415
O O12 0.250000 0.273064 0.885648
O O13 0.088089 0.295233 0.846094
O O14 0.088065 0.274979 0.926767
O O15 0.139670 0.000000 0.882383
O O16 0.250000 0.280769 0.476612
O O17 0.354055 0.000000 0.482499
O O18 0.021222 0.500000 0.199485
O O19 0.941307 0.212436 0.228608
O O20 0.998361 0.000000 0.044745
O O21 0.000000 0.286095 0.000000
O O22 0.750000 0.784306 0.247292
O O23 0.851526 0.500000 0.246189
#
# Coordination Sequence:
#
# PCOD9407262 Si02
#       8
#     8   8   8   8   8   8   8   8
#     4   8  13  20  31  50  76 103 130 162 199 238
#     4   9  16  25  38  57  81 107 132 160 198 242
#     4   9  18  32  49  68  88 111 142 180 217 248
#     4   9  17  28  42  62  87 111 135 166 203 241
#     4   8  12  18  30  49  73 101 132 165 200 235
#     4   9  17  30  47  64  83 107 136 171 208 247
#     4   9  18  31  46  65  89 117 146 172 201 242
#     4   9  17  28  42  61  83 106 133 165 203 249
#
# _framework density 18.853256999999999
#
# number of rings (size 3 to 8) (size 9 to 14) (size 15 to 20)
#    0.000    3.250    0.000    1.500    0.000    3.750 
#    0.000    2.500    0.000    0.750    0.000    1.750 
#    0.000    1.000    0.000    0.000    0.000    0.000 
#
# Total GULP energy -356567.670109 kJ/mol
# GULP energy per Si atom -5571.369845 kJ/mol
# Density = 1.881035 g / cm^3
# Si number density = 18.853257 Si / 1000 Ang^3
#
#
#
# Elastic Constant Matrix: (Units=GPa)
#
#
# Indices 1 2 3 4 5 6 
#
# 1 156.9935 -0.3869 67.1487 0.0000 0.0000 0.0000
# 2 -0.3869 55.7068 -2.2263 0.0000 0.0000 0.0000
# 3 67.1487 -2.2263 102.8106 0.0000 0.0000 0.0000
# 4 0.0000 0.0000 0.0000 17.2612 0.0000 0.0000
# 5 0.0000 0.0000 0.0000 0.0000 15.5529 0.0000
# 6 0.0000 0.0000 0.0000 0.0000 0.0000 3.8806
#
#
#
# Elastic Compliance Matrix: (Units=1/GPa)
#
#
# Indices 1 2 3 4 5 6 
#
# 1 0.008840 -0.000169 -0.005778 0.000000 0.000000 0.000000
# 2 -0.000169 0.017970 0.000500 0.000000 0.000000 0.000000
# 3 -0.005778 0.000500 0.013511 0.000000 0.000000 0.000000
# 4 0.000000 0.000000 0.000000 0.057933 0.000000 0.000000
# 5 0.000000 0.000000 0.000000 0.000000 0.064297 0.000000
# 6 0.000000 0.000000 0.000000 0.000000 0.000000 0.257693
#
#
# Mechanical properties :
#
#
# Convention : Reuss Voigt Hill
#
# Bulk Modulus (GPa) = 33.98263 49.39796 41.69030
# Shear Modulus (GPa) = 11.33921 24.07064 17.70492
#
# Velocity S-wave (km/s) = 2.45510 3.57702 3.06778
# Velocity P-wave (km/s) = 5.10888 6.58166 5.89147
#
# Compressibility (1/GPa) = 0.02942680
#
# Stress axis : x y z
#
# Youngs Moduli (GPa) = 113.11627 55.64848 74.01377
#
# Poissons Ratio (x) = 0.00943 0.42762
# Poissons Ratio (y) = 0.01917 -0.03699
# Poissons Ratio (z) = 0.65355 -0.02782
#
# Static dielectric constant tensor:
#      x y z
#    x 1.654810 0.000000 0.000000 
#    y 0.000000 1.723090 0.000000 
#    z 0.000000 0.000000 1.650390 
# 
# From -- ./inp_files/37798.got.cif
#   From: 2010.05.17/outbox.cif.g08.bks.cpg/sg51_19_cif.got.tgz:37798.got - 2010.06.03 11:52:47.
