data_PCOD9407681
_publ_section_title
;
Structure prediction by ZEFSAII (Michael W. Deem and Ramdas Pophale) SiO2 
 PCOD9407681
Probable space group: P M M A
;
_chemical_formula_sum "Si O2"
_cell_formula_units_Z 64
_cell_length_a 24.000000
_cell_length_b 9.000000
_cell_length_c 15.000000
_cell_angle_alpha 90.000000
_cell_angle_beta 90.000000
_cell_angle_gamma 90.000000
_cell_volume 3240.000000
_symmetry_space_group_name_H-M "P M M A"
_symmetry_group_IT_number 51
_symmetry_cell_setting 'orthorhombic'
loop_
_space_group_symop_operation_xyz
x,y,z
1/2-x,-y,z
1/2+x,-y,-z
-x,y,-z
-x,-y,-z
1/2+x,y,-z
1/2-x,y,z
x,-y,z
loop_
_atom_site_type_symbol
_atom_site_label
_atom_site_fract_x
_atom_site_fract_y
_atom_site_fract_z
Si Si1 0.890540 0.323010 0.151094
Si Si2 0.624726 0.823631 0.827091
Si Si3 0.602292 0.677420 0.648144
Si Si4 0.186962 0.824035 0.707451
Si Si5 0.875519 0.173555 0.462033
Si Si6 0.987650 0.674595 0.894321
Si Si7 0.686820 0.178402 0.003661
Si Si8 0.519351 0.667389 0.396529
O O1 0.890254 0.500000 0.142225
O O2 0.856111 0.270032 0.235863
O O3 0.858348 0.253478 0.067137
O O4 0.955199 0.276969 0.153402
O O5 0.633008 0.744927 0.732653
O O6 0.565881 0.767256 0.866472
O O7 0.623163 0.000000 0.814515
O O8 0.670835 0.788499 0.901624
O O9 0.604250 0.500000 0.648170
O O10 0.624159 0.737106 0.553812
O O11 0.536194 0.718443 0.653938
O O12 0.250000 0.787300 0.732717
O O13 0.176582 0.801127 0.602546
O O14 0.177965 0.000000 0.725015
O O15 0.928588 0.224544 0.402789
O O16 0.880597 0.000000 0.482768
O O17 0.976971 0.500000 0.874165
O O18 0.000000 0.686080 0.000000
O O19 0.750000 0.225132 0.024611
O O20 0.683517 0.000000 0.015639
O O21 0.500000 0.655749 0.500000
O O22 0.535068 0.500000 0.366672
#
# Coordination Sequence:
#
# PCOD9407681 Si02
#       8
#     8   8   8   8   8   8   8   8
#     4  11  23  38  61  90 118 152 196 240 289 352
#     4  11  23  37  59  89 119 154 201 246 284 345
#     4  10  21  37  57  81 116 156 187 229 294 352
#     4  10  23  42  60  82 117 158 197 243 301 354
#     4  10  20  35  57  83 109 143 193 243 283 335
#     4  10  21  39  59  84 123 162 190 233 300 360
#     4  10  22  41  62  84 115 154 193 240 295 343
#     4   8  16  31  50  74 105 143 178 215 275 342
#
# _framework density 19.753086
#
# number of rings (size 3 to 8) (size 9 to 14) (size 15 to 20)
#    0.000    2.000    1.250    2.625    1.750    7.500 
#    0.000    0.625    0.000    3.750    0.000    0.000 
#    0.000    0.000    0.000    0.000    0.000    0.000 
#
# Total GULP energy -357466.447128 kJ/mol
# GULP energy per Si atom -5585.413236 kJ/mol
# Density = 1.970813 g / cm^3
# Si number density = 19.753086 Si / 1000 Ang^3
#
#
#
# Elastic Constant Matrix: (Units=GPa)
#
#
# Indices 1 2 3 4 5 6 
#
# 1 55.0630 16.2602 2.9510 0.0000 0.0000 0.0000
# 2 16.2602 30.8946 26.4777 0.0000 0.0000 0.0000
# 3 2.9510 26.4777 72.0426 0.0000 0.0000 0.0000
# 4 0.0000 0.0000 0.0000 247.3236 0.0000 0.0000
# 5 0.0000 0.0000 0.0000 0.0000 19.6817 0.0000
# 6 0.0000 0.0000 0.0000 0.0000 0.0000 49.7353
#
#
#
# Elastic Compliance Matrix: (Units=1/GPa)
#
#
# Indices 1 2 3 4 5 6 
#
# 1 0.022696 -0.016275 0.005052 0.000000 0.000000 0.000000
# 2 -0.016275 0.058922 -0.020989 0.000000 0.000000 0.000000
# 3 0.005052 -0.020989 0.021388 0.000000 0.000000 0.000000
# 4 0.000000 0.000000 0.000000 0.004043 0.000000 0.000000
# 5 0.000000 0.000000 0.000000 0.000000 0.050809 0.000000
# 6 0.000000 0.000000 0.000000 0.000000 0.000000 0.020106
#
#
# Mechanical properties :
#
#
# Convention : Reuss Voigt Hill
#
# Bulk Modulus (GPa) = 25.91876 27.70867 26.81371
# Shear Modulus (GPa) = 19.58872 70.83553 45.21212
#
# Velocity S-wave (km/s) = 3.15251 5.99486 4.78940
# Velocity P-wave (km/s) = 5.13819 7.87247 6.64743
#
# Compressibility (1/GPa) = 0.03858210
#
# Stress axis : x y z
#
# Youngs Moduli (GPa) = 44.06011 16.97161 46.75572
#
# Poissons Ratio (x) = 0.27621 -0.23620
# Poissons Ratio (y) = 0.71707 0.98135
# Poissons Ratio (z) = -0.22258 0.35621
#
# Static dielectric constant tensor:
#      x y z
#    x 1.685220 0.000000 0.000000 
#    y 0.000000 1.660130 0.000000 
#    z 0.000000 0.000000 1.725820 
# 
# From -- ./inp_files/26333.got.cif
#   From: 2010.05.17/outbox.ucp.g08.bks.cvg/sg51_14_cif.got.tgz:26333.got - 2010.06.11 16:27:58.
