data_PCOD9407028
_publ_section_title
;
Structure prediction by ZEFSAII (Michael W. Deem and Ramdas Pophale) SiO2 
 PCOD9407028
Probable space group: P M M A
;
_chemical_formula_sum "Si O2"
_cell_formula_units_Z 28
_cell_length_a 8.547904
_cell_length_b 19.445335
_cell_length_c 8.971472
_cell_angle_alpha 90.000000
_cell_angle_beta 90.000000
_cell_angle_gamma 90.000000
_cell_volume 1491.209877
_symmetry_space_group_name_H-M "P M M A"
_symmetry_group_IT_number 51
_symmetry_cell_setting 'orthorhombic'
loop_
_space_group_symop_operation_xyz
x,y,z
1/2-x,-y,z
1/2+x,-y,-z
-x,y,-z
-x,-y,-z
1/2+x,y,-z
1/2-x,y,z
x,-y,z
loop_
_atom_site_type_symbol
_atom_site_label
_atom_site_fract_x
_atom_site_fract_y
_atom_site_fract_z
Si Si1 0.436570 0.500000 0.833435
Si Si2 0.561844 0.777331 0.329175
Si Si3 0.061013 0.926082 0.670486
Si Si4 0.936404 0.634367 0.668937
O O1 0.250000 0.500000 0.830915
O O2 0.498525 0.431612 0.753259
O O3 0.500000 0.500000 0.000000
O O4 0.500000 0.778760 0.500000
O O5 0.750000 0.772384 0.330728
O O6 0.514134 0.851896 0.262956
O O7 0.492967 0.707254 0.263069
O O8 0.250000 0.925790 0.666467
O O9 0.000000 0.926286 0.500000
O O10 0.010591 0.000000 0.737379
O O11 0.750000 0.632998 0.666172
O O12 0.000000 0.631391 0.500000
#
# Coordination Sequence:
#
# PCOD9407028 Si02
#       4
#     4   8   8   8
#     4  12  25  42  59  78 102 128 160 200 249 302
#     4   9  15  24  39  61  89 123 162 203 244 287
#     4   8  13  20  31  50  80 118 157 195 237 284
#     4  11  21  35  54  77 103 134 170 208 249 293
#
# _framework density 18.776700000000002
#
# number of rings (size 3 to 8) (size 9 to 14) (size 15 to 20)
#    0.000    2.286    0.000    6.857    0.000    1.143 
#    0.000    0.000    0.000    0.000    0.000    0.000 
#    0.000    1.143    0.000    3.143    0.000   14.571 
#
# Total GULP energy -155956.085710 kJ/mol
# GULP energy per Si atom -5569.860204 kJ/mol
# Density = 1.873396 g / cm^3
# Si number density = 18.776700 Si / 1000 Ang^3
#
#
#
# Elastic Constant Matrix: (Units=GPa)
#
#
# Indices 1 2 3 4 5 6 
#
# 1 120.6843 71.7920 15.6818 0.0000 0.0000 0.0000
# 2 71.7920 268.2722 44.7802 0.0000 0.0000 0.0000
# 3 15.6818 44.7802 24.7673 0.0000 0.0000 0.0000
# 4 0.0000 0.0000 0.0000 -7.0120 0.0000 0.0000
# 5 0.0000 0.0000 0.0000 0.0000 14.6419 0.0000
# 6 0.0000 0.0000 0.0000 0.0000 0.0000 26.8204
#
#
#
# Elastic Compliance Matrix: (Units=1/GPa)
#
#
# Indices 1 2 3 4 5 6 
#
# 1 0.009932 -0.002303 -0.002124 0.000000 0.000000 0.000000
# 2 -0.002303 0.005873 -0.009160 0.000000 0.000000 0.000000
# 3 -0.002124 -0.009160 0.058283 0.000000 0.000000 0.000000
# 4 0.000000 0.000000 0.000000 -0.142613 0.000000 0.000000
# 5 0.000000 0.000000 0.000000 0.000000 0.068297 0.000000
# 6 0.000000 0.000000 0.000000 0.000000 0.000000 0.037285
#
#
# Mechanical properties :
#
#
# Convention : Reuss Voigt Hill
#
# Bulk Modulus (GPa) = 21.31627 75.35908 48.33768
# Shear Modulus (GPa) = 62.60155 25.65472 44.12814
#
# Velocity S-wave (km/s) = 5.78035 3.70037 4.85310
# Velocity P-wave (km/s) = 7.47844 7.64712 7.56325
#
# Compressibility (1/GPa) = 0.04691252
#
# Stress axis : x y z
#
# Youngs Moduli (GPa) = 100.68126 170.27110 17.15779
#
# Poissons Ratio (x) = 0.39221 0.03645
# Poissons Ratio (y) = 0.23191 0.15717
# Poissons Ratio (z) = 0.21386 1.55971
#
# Static dielectric constant tensor:
#      x y z
#    x 1.623990 0.000000 0.000000 
#    y 0.000000 1.760680 0.000000 
#    z 0.000000 0.000000 1.597670 
# 
# From -- ./inp_files/4766.got.cif
#   From: 2010.05.17/outbox.cif.g08.bks.cpg/sg51_3_cif.got.tgz:4766.got - 2010.06.03 11:52:47.
