data_PCOD9407842
_publ_section_title
;
Structure prediction by ZEFSAII (Michael W. Deem and Ramdas Pophale) SiO2 
 PCOD9407842
Probable space group: P M M A
;
_chemical_formula_sum "Si O2"
_cell_formula_units_Z 64
_cell_length_a 18.000000
_cell_length_b 21.000000
_cell_length_c 9.000000
_cell_angle_alpha 90.000000
_cell_angle_beta 90.000000
_cell_angle_gamma 90.000000
_cell_volume 3402.000000
_symmetry_space_group_name_H-M "P M M A"
_symmetry_group_IT_number 51
_symmetry_cell_setting 'orthorhombic'
loop_
_space_group_symop_operation_xyz
x,y,z
1/2-x,-y,z
1/2+x,-y,-z
-x,y,-z
-x,-y,-z
1/2+x,y,-z
1/2-x,y,z
x,-y,z
loop_
_atom_site_type_symbol
_atom_site_label
_atom_site_fract_x
_atom_site_fract_y
_atom_site_fract_z
Si Si1 0.840398 0.300093 0.336746
Si Si2 0.089722 0.691973 0.990825
Si Si3 0.339779 0.430455 0.501137
Si Si4 0.663649 0.926425 0.737628
Si Si5 0.942958 0.179539 0.874734
Si Si6 0.835784 0.073419 0.377932
Si Si7 0.057383 0.815149 0.628590
Si Si8 0.839444 0.428693 0.848221
O O1 0.750000 0.292512 0.340782
O O2 0.862221 0.366599 0.414798
O O3 0.883856 0.240368 0.410423
O O4 0.872204 0.304082 0.170270
O O5 0.104314 0.760603 0.067057
O O6 0.123677 0.630434 0.070631
O O7 0.000000 0.685662 0.000000
O O8 0.250000 0.431989 0.511616
O O9 0.366919 0.500000 0.556430
O O10 0.357848 0.425568 0.326931
O O11 0.750000 0.914577 0.778558
O O12 0.608442 0.875802 0.809888
O O13 0.659598 0.921816 0.557879
O O14 0.645971 0.000000 0.776460
O O15 0.000421 0.207202 0.753981
O O16 0.000000 0.155065 0.000000
O O17 0.750000 0.087233 0.336098
O O18 0.894076 0.124580 0.318817
O O19 0.851896 0.000000 0.337503
O O20 0.000000 0.834385 0.500000
O O21 0.750000 0.424041 0.862126
O O22 0.860761 0.500000 0.902030
#
# Coordination Sequence:
#
# PCOD9407842 Si02
#       8
#     8   8   8   8   8   8   8   8
#     4  11  23  39  61  87 117 156 199 247 295 344
#     4  11  23  40  56  80 120 159 197 239 292 354
#     4   8  17  35  59  88 115 139 182 242 292 337
#     4   9  19  37  61  88 116 149 192 238 287 349
#     4  11  23  42  56  81 121 157 192 238 292 346
#     4   9  19  37  61  90 120 148 191 247 295 348
#     4  12  23  38  61  87 119 156 197 243 290 352
#     4   9  19  37  61  87 114 150 196 242 292 355
#
# _framework density 18.812463000000001
#
# number of rings (size 3 to 8) (size 9 to 14) (size 15 to 20)
#    0.000    2.000    3.750    2.250    1.750    2.750 
#    0.000    1.250    0.000    3.375    0.000    0.000 
#    0.000    0.000    0.000    0.000    0.000    0.000 
#
# Total GULP energy -356786.186316 kJ/mol
# GULP energy per Si atom -5574.784161 kJ/mol
# Density = 1.876965 g / cm^3
# Si number density = 18.812463 Si / 1000 Ang^3
#
#
#
# Elastic Constant Matrix: (Units=GPa)
#
#
# Indices 1 2 3 4 5 6 
#
# 1 62.7780 44.1778 4.1582 0.0000 0.0000 0.0000
# 2 44.1778 127.6642 8.9127 0.0000 0.0000 0.0000
# 3 4.1582 8.9127 8.7500 0.0000 0.0000 0.0000
# 4 0.0000 0.0000 0.0000 20.4052 0.0000 0.0000
# 5 0.0000 0.0000 0.0000 0.0000 27.5918 0.0000
# 6 0.0000 0.0000 0.0000 0.0000 0.0000 28.6553
#
#
#
# Elastic Compliance Matrix: (Units=1/GPa)
#
#
# Indices 1 2 3 4 5 6 
#
# 1 0.021120 -0.007114 -0.002791 0.000000 0.000000 0.000000
# 2 -0.007114 0.010829 -0.007649 0.000000 0.000000 0.000000
# 3 -0.002791 -0.007649 0.123403 0.000000 0.000000 0.000000
# 4 0.000000 0.000000 0.000000 0.049007 0.000000 0.000000
# 5 0.000000 0.000000 0.000000 0.000000 0.036243 0.000000
# 6 0.000000 0.000000 0.000000 0.000000 0.000000 0.034898
#
#
# Mechanical properties :
#
#
# Convention : Reuss Voigt Hill
#
# Bulk Modulus (GPa) = 8.31643 34.85440 21.58542
# Shear Modulus (GPa) = 14.25769 24.79336 19.52553
#
# Velocity S-wave (km/s) = 2.75596 3.63426 3.22515
# Velocity P-wave (km/s) = 3.81541 6.01481 5.03663
#
# Compressibility (1/GPa) = 0.12024397
#
# Stress axis : x y z
#
# Youngs Moduli (GPa) = 47.34852 92.34677 8.10353
#
# Poissons Ratio (x) = 0.65693 0.02261
# Poissons Ratio (y) = 0.33682 0.06199
# Poissons Ratio (z) = 0.13214 0.70640
#
# Static dielectric constant tensor:
#      x y z
#    x 1.624260 0.000000 0.000000 
#    y 0.000000 1.656820 0.000000 
#    z 0.000000 0.000000 1.719230 
# 
# From -- ./inp_files/9995.got.cif
#   From: 2010.05.17/outbox.ucp.g08.bks.cvg/sg51_5_cif.got.tgz:9995.got - 2010.06.11 16:27:58.
