data_PCOD9407720
_publ_section_title
;
Structure prediction by ZEFSAII (Michael W. Deem and Ramdas Pophale) SiO2 
 PCOD9407720
Probable space group: P M M A
;
_chemical_formula_sum "Si O2"
_cell_formula_units_Z 32
_cell_length_a 15.000000
_cell_length_b 9.000000
_cell_length_c 12.000000
_cell_angle_alpha 90.000000
_cell_angle_beta 90.000000
_cell_angle_gamma 90.000000
_cell_volume 1620.000000
_symmetry_space_group_name_H-M "P M M A"
_symmetry_group_IT_number 51
_symmetry_cell_setting 'orthorhombic'
loop_
_space_group_symop_operation_xyz
x,y,z
1/2-x,-y,z
1/2+x,-y,-z
-x,y,-z
-x,-y,-z
1/2+x,y,-z
1/2-x,y,z
x,-y,z
loop_
_atom_site_type_symbol
_atom_site_label
_atom_site_fract_x
_atom_site_fract_y
_atom_site_fract_z
Si Si1 0.750000 0.678788 0.091458
Si Si2 0.414611 0.323224 0.282749
Si Si3 0.100201 0.822667 0.755759
Si Si4 0.355538 0.170239 0.496309
Si Si5 0.250000 0.178884 0.153395
O O1 0.750000 0.500000 0.084086
O O2 0.833851 0.739665 0.161101
O O3 0.750000 0.753152 0.970174
O O4 0.411197 0.500000 0.268595
O O5 0.504354 0.251899 0.236237
O O6 0.405481 0.279706 0.413065
O O7 0.334599 0.242254 0.219334
O O8 0.130230 0.802719 0.626987
O O9 0.099261 0.000000 0.777406
O O10 0.250000 0.180681 0.474019
O O11 0.384283 0.000000 0.471992
O O12 0.250000 0.000000 0.151706
#
# Coordination Sequence:
#
# PCOD9407720 Si02
#       5
#     4   8   8   8   4
#     4  12  26  45  68  97 130 163 209 273 327 372
#     4  12  25  41  64  99 134 167 210 268 326 375
#     4  11  23  43  68  96 130 174 218 257 310 386
#     4  10  20  38  65  95 130 172 214 257 311 382
#     4  12  26  47  70  91 122 171 221 263 315 386
#
# _framework density 19.753086
#
# number of rings (size 3 to 8) (size 9 to 14) (size 15 to 20)
#    0.000    0.750    2.500    6.000    0.000    6.000 
#    0.000    5.000    0.000    0.000    0.000    0.000 
#    0.000    0.000    0.000    0.000    0.000    0.000 
#
# Total GULP energy -179080.856580 kJ/mol
# GULP energy per Si atom -5596.276768 kJ/mol
# Density = 1.970813 g / cm^3
# Si number density = 19.753086 Si / 1000 Ang^3
#
#
#
# Elastic Constant Matrix: (Units=GPa)
#
#
# Indices 1 2 3 4 5 6 
#
# 1 127.6210 59.6964 43.1290 0.0000 0.0000 0.0000
# 2 59.6964 173.5827 72.7376 0.0000 0.0000 0.0000
# 3 43.1290 72.7376 106.9327 0.0000 0.0000 0.0000
# 4 0.0000 0.0000 0.0000 -34.5342 0.0000 0.0000
# 5 0.0000 0.0000 0.0000 0.0000 -51.9914 0.0000
# 6 0.0000 0.0000 0.0000 0.0000 0.0000 20.7161
#
#
#
# Elastic Compliance Matrix: (Units=1/GPa)
#
#
# Indices 1 2 3 4 5 6 
#
# 1 0.009728 -0.002380 -0.002305 0.000000 0.000000 0.000000
# 2 -0.002380 0.008640 -0.004917 0.000000 0.000000 0.000000
# 3 -0.002305 -0.004917 0.013626 0.000000 0.000000 0.000000
# 4 0.000000 0.000000 0.000000 -0.028957 0.000000 0.000000
# 5 0.000000 0.000000 0.000000 0.000000 -0.019234 0.000000
# 6 0.000000 0.000000 0.000000 0.000000 0.000000 0.048272
#
#
# Mechanical properties :
#
#
# Convention : Reuss Voigt Hill
#
# Bulk Modulus (GPa) = 78.18415 84.36250 81.27333
# Shear Modulus (GPa) = 90.02371 2.34300 46.18336
#
# Velocity S-wave (km/s) = 6.75821 1.09028 4.84057
# Velocity P-wave (km/s) = 10.02819 6.66230 8.51325
#
# Compressibility (1/GPa) = 0.01279032
#
# Stress axis : x y z
#
# Youngs Moduli (GPa) = 102.79920 115.74343 73.38901
#
# Poissons Ratio (x) = 0.27543 0.16915
# Poissons Ratio (y) = 0.24463 0.36087
# Poissons Ratio (z) = 0.23693 0.56913
#
# Static dielectric constant tensor:
#      x y z
#    x 1.992010 0.000000 0.000000 
#    y 0.000000 1.647300 0.000000 
#    z 0.000000 0.000000 1.679500 
# 
# From -- ./inp_files/15908.got.cif
#   From: 2010.05.17/outbox.ucp.g08.bks.cvg/sg51_8_cif.got.tgz:15908.got - 2010.06.11 16:27:58.
