data_PCOD9407667
_publ_section_title
;
Structure prediction by ZEFSAII (Michael W. Deem and Ramdas Pophale) SiO2 
 PCOD9407667
Probable space group: P M M A
;
_chemical_formula_sum "Si O2"
_cell_formula_units_Z 48
_cell_length_a 9.000000
_cell_length_b 30.000000
_cell_length_c 9.000000
_cell_angle_alpha 90.000000
_cell_angle_beta 90.000000
_cell_angle_gamma 90.000000
_cell_volume 2430.000000
_symmetry_space_group_name_H-M "P M M A"
_symmetry_group_IT_number 51
_symmetry_cell_setting 'orthorhombic'
loop_
_space_group_symop_operation_xyz
x,y,z
1/2-x,-y,z
1/2+x,-y,-z
-x,y,-z
-x,-y,-z
1/2+x,y,-z
1/2-x,y,z
x,-y,z
loop_
_atom_site_type_symbol
_atom_site_label
_atom_site_fract_x
_atom_site_fract_y
_atom_site_fract_z
Si Si1 0.415816 0.613613 0.640756
Si Si2 0.082933 0.446620 0.149875
Si Si3 0.428044 0.951726 0.838828
Si Si4 0.580259 0.698673 0.154215
Si Si5 0.572533 0.224726 0.663047
Si Si6 0.070924 0.863775 0.662608
O O1 0.500000 0.632307 0.500000
O O2 0.250000 0.601187 0.598421
O O3 0.499471 0.571668 0.707984
O O4 0.414108 0.651687 0.763329
O O5 0.250000 0.429178 0.146735
O O6 0.085768 0.500000 0.151438
O O7 0.000000 0.432604 0.000000
O O8 0.250000 0.950748 0.854043
O O9 0.470665 0.908922 0.745435
O O10 0.530728 0.000000 0.228118
O O11 0.500000 0.949232 0.000000
O O12 0.750000 0.715116 0.139116
O O13 0.482968 0.733099 0.247099
O O14 0.500000 0.692595 0.000000
O O15 0.500000 0.228217 0.500000
O O16 0.750000 0.221982 0.652896
O O17 0.503052 0.179944 0.733636
O O18 0.250000 0.859202 0.655694
O O19 0.000000 0.866472 0.500000
#
# Coordination Sequence:
#
# PCOD9407667 Si02
#       6
#     8   8   8   8   8   8
#     4  11  24  40  61  87 117 153 192 236 284 337
#     4  10  21  38  61  88 119 155 194 237 285 337
#     4   9  19  35  54  77 106 141 181 225 273 326
#     4  11  24  41  61  87 116 148 188 232 281 335
#     4  11  22  38  60  84 113 148 186 229 279 334
#     4  10  20  35  55  80 111 144 182 227 274 328
#
# _framework density 19.753086
#
# number of rings (size 3 to 8) (size 9 to 14) (size 15 to 20)
#    0.000    1.667    0.000    5.500    0.000    9.000 
#    0.000    1.667    0.000    0.000    0.000    0.000 
#    0.000    0.000    0.000    0.000    0.000    0.000 
#
# Total GULP energy -267887.304803 kJ/mol
# GULP energy per Si atom -5580.985517 kJ/mol
# Density = 1.970813 g / cm^3
# Si number density = 19.753086 Si / 1000 Ang^3
#
#
#
# Elastic Constant Matrix: (Units=GPa)
#
#
# Indices 1 2 3 4 5 6 
#
# 1 134.4447 35.2350 37.5733 0.0000 0.0000 0.0000
# 2 35.2350 38.7967 24.9382 0.0000 0.0000 0.0000
# 3 37.5733 24.9382 59.8077 0.0000 0.0000 0.0000
# 4 0.0000 0.0000 0.0000 11.3664 0.0000 0.0000
# 5 0.0000 0.0000 0.0000 0.0000 22.3866 0.0000
# 6 0.0000 0.0000 0.0000 0.0000 0.0000 54.0456
#
#
#
# Elastic Compliance Matrix: (Units=1/GPa)
#
#
# Indices 1 2 3 4 5 6 
#
# 1 0.010272 -0.007078 -0.003502 0.000000 0.000000 0.000000
# 2 -0.007078 0.040091 -0.012270 0.000000 0.000000 0.000000
# 3 -0.003502 -0.012270 0.024036 0.000000 0.000000 0.000000
# 4 0.000000 0.000000 0.000000 0.087979 0.000000 0.000000
# 5 0.000000 0.000000 0.000000 0.000000 0.044670 0.000000
# 6 0.000000 0.000000 0.000000 0.000000 0.000000 0.018503
#
#
# Mechanical properties :
#
#
# Convention : Reuss Voigt Hill
#
# Bulk Modulus (GPa) = 34.84403 47.61578 41.22990
# Shear Modulus (GPa) = 17.80529 26.57989 22.19259
#
# Velocity S-wave (km/s) = 3.00558 3.67223 3.35550
# Velocity P-wave (km/s) = 5.45186 6.49139 5.99420
#
# Compressibility (1/GPa) = 0.02869932
#
# Stress axis : x y z
#
# Youngs Moduli (GPa) = 97.35634 24.94355 41.60342
#
# Poissons Ratio (x) = 0.17654 0.14568
# Poissons Ratio (y) = 0.68906 0.51048
# Poissons Ratio (z) = 0.34092 0.30606
#
# Static dielectric constant tensor:
#      x y z
#    x 1.674000 0.000000 0.000000 
#    y 0.000000 1.718780 0.000000 
#    z 0.000000 0.000000 1.655550 
# 
# From -- ./inp_files/6041.got.cif
#   From: 2010.05.17/outbox.ucp.g08.bks.cvg/sg51_4_cif.got.tgz:6041.got - 2010.06.11 16:27:58.
