data_PCOD9407532
_publ_section_title
;
Structure prediction by ZEFSAII (Michael W. Deem and Ramdas Pophale) SiO2 
 PCOD9407532
Probable space group: P M M A
;
_chemical_formula_sum "Si O2"
_cell_formula_units_Z 64
_cell_length_a 18.000000
_cell_length_b 9.000000
_cell_length_c 21.000000
_cell_angle_alpha 90.000000
_cell_angle_beta 90.000000
_cell_angle_gamma 90.000000
_cell_volume 3402.000000
_symmetry_space_group_name_H-M "P M M A"
_symmetry_group_IT_number 51
_symmetry_cell_setting 'orthorhombic'
loop_
_space_group_symop_operation_xyz
x,y,z
1/2-x,-y,z
1/2+x,-y,-z
-x,y,-z
-x,-y,-z
1/2+x,y,-z
1/2-x,y,z
x,-y,z
loop_
_atom_site_type_symbol
_atom_site_label
_atom_site_fract_x
_atom_site_fract_y
_atom_site_fract_z
Si Si1 0.584762 0.821995 0.361665
Si Si2 0.168773 0.319932 0.294887
Si Si3 0.586687 0.320392 0.831243
Si Si4 0.566809 0.179667 0.215417
Si Si5 0.564038 0.321443 0.589368
Si Si6 0.662639 0.822570 0.094060
Si Si7 0.333173 0.821859 0.515823
Si Si8 0.837300 0.678974 0.962353
O O1 0.587999 0.773754 0.287632
O O2 0.516339 0.745078 0.397419
O O3 0.653192 0.792539 0.409114
O O4 0.573242 0.000000 0.361002
O O5 0.250000 0.262494 0.310804
O O6 0.170203 0.500000 0.296952
O O7 0.146060 0.280660 0.223355
O O8 0.110589 0.274116 0.348068
O O9 0.578864 0.500000 0.831853
O O10 0.510912 0.248067 0.807049
O O11 0.615118 0.273726 0.900898
O O12 0.624062 0.223317 0.159777
O O13 0.562178 0.000000 0.215752
O O14 0.560871 0.500000 0.585494
O O15 0.606312 0.257803 0.528171
O O16 0.750000 0.790012 0.098652
O O17 0.653244 0.000000 0.087016
O O18 0.635188 0.744908 0.029359
O O19 0.250000 0.775173 0.497352
O O20 0.339826 0.000000 0.506834
O O21 0.750000 0.720966 0.953839
O O22 0.839898 0.500000 0.965547
#
# Coordination Sequence:
#
# PCOD9407532 Si02
#       8
#     8   8   8   8   8   8   8   8
#     4  10  21  38  58  79 108 145 183 224 271 323
#     4   9  17  30  50  76 105 138 175 213 255 304
#     4  10  19  33  53  77 107 141 178 218 262 318
#     4  10  21  36  55  79 107 139 178 224 268 314
#     4  11  21  35  57  84 112 144 179 220 267 322
#     4   9  19  36  56  77 103 138 179 223 271 319
#     4  10  22  39  58  81 109 142 181 226 274 322
#     4   9  18  33  54  79 106 139 179 221 264 313
#
# _framework density 18.812463000000001
#
# number of rings (size 3 to 8) (size 9 to 14) (size 15 to 20)
#    0.000    2.250    1.250    1.500    0.000    6.250 
#    0.000    5.000    0.000    1.875    0.000    3.500 
#    0.000    0.000    0.000    0.000    0.000    0.000 
#
# Total GULP energy -356908.476707 kJ/mol
# GULP energy per Si atom -5576.694949 kJ/mol
# Density = 1.876965 g / cm^3
# Si number density = 18.812463 Si / 1000 Ang^3
#
#
#
# Elastic Constant Matrix: (Units=GPa)
#
#
# Indices 1 2 3 4 5 6 
#
# 1 35.0714 9.1647 31.4774 0.0000 0.0000 0.0000
# 2 9.1647 4.7504 22.2788 0.0000 0.0000 0.0000
# 3 31.4774 22.2788 148.3956 0.0000 0.0000 0.0000
# 4 0.0000 0.0000 0.0000 27.7243 0.0000 0.0000
# 5 0.0000 0.0000 0.0000 0.0000 35.9608 0.0000
# 6 0.0000 0.0000 0.0000 0.0000 0.0000 18.5537
#
#
#
# Elastic Compliance Matrix: (Units=1/GPa)
#
#
# Indices 1 2 3 4 5 6 
#
# 1 0.069559 -0.219668 0.018224 0.000000 0.000000 0.000000
# 2 -0.219668 1.405136 -0.164359 0.000000 0.000000 0.000000
# 3 0.018224 -0.164359 0.027548 0.000000 0.000000 0.000000
# 4 0.000000 0.000000 0.000000 0.036069 0.000000 0.000000
# 5 0.000000 0.000000 0.000000 0.000000 0.027808 0.000000
# 6 0.000000 0.000000 0.000000 0.000000 0.000000 0.053897
#
#
# Mechanical properties :
#
#
# Convention : Reuss Voigt Hill
#
# Bulk Modulus (GPa) = 1.29763 34.89548 18.09655
# Shear Modulus (GPa) = 1.91681 24.80086 13.35883
#
# Velocity S-wave (km/s) = 1.01050 3.63481 2.66767
# Velocity P-wave (km/s) = 1.43274 6.01707 4.37367
#
# Compressibility (1/GPa) = 0.77063726
#
# Stress axis : x y z
#
# Youngs Moduli (GPa) = 14.37620 0.71168 36.29966
#
# Poissons Ratio (x) = 0.15633 -0.66153
# Poissons Ratio (y) = 3.15799 5.96618
# Poissons Ratio (z) = -0.26200 0.11697
#
# Static dielectric constant tensor:
#      x y z
#    x 1.670110 0.000000 0.000000 
#    y 0.000000 1.630670 0.000000 
#    z 0.000000 0.000000 1.654800 
# 
# From -- ./inp_files/33976.got.cif
#   From: 2010.05.17/outbox.ucp.g08.bks.cvg/sg51_17_cif.got.tgz:33976.got - 2010.06.11 16:27:58.
