data_PCOD9407072
_publ_section_title
;
Structure prediction by ZEFSAII (Michael W. Deem and Ramdas Pophale) SiO2 
 PCOD9407072
Probable space group: P M M A
;
_chemical_formula_sum "Si O2"
_cell_formula_units_Z 48
_cell_length_a 9.126157
_cell_length_b 14.194861
_cell_length_c 20.143135
_cell_angle_alpha 90.000000
_cell_angle_beta 90.000000
_cell_angle_gamma 90.000000
_cell_volume 2609.432958
_symmetry_space_group_name_H-M "P M M A"
_symmetry_group_IT_number 51
_symmetry_cell_setting 'orthorhombic'
loop_
_space_group_symop_operation_xyz
x,y,z
1/2-x,-y,z
1/2+x,-y,-z
-x,y,-z
-x,-y,-z
1/2+x,y,-z
1/2-x,y,z
x,-y,z
loop_
_atom_site_type_symbol
_atom_site_label
_atom_site_fract_x
_atom_site_fract_y
_atom_site_fract_z
Si Si1 0.583353 0.114396 0.432238
Si Si2 0.083202 0.387017 0.709994
Si Si3 0.577250 0.263305 0.808214
Si Si4 0.927102 0.110105 0.282763
Si Si5 0.573197 0.607198 0.928250
Si Si6 0.922957 0.391184 0.437339
O O1 0.500000 0.139497 0.500000
O O2 0.750000 0.151201 0.436201
O O3 0.523740 0.137111 0.358213
O O4 0.590197 0.000000 0.431824
O O5 0.250000 0.357229 0.728612
O O6 0.084185 0.500000 0.709132
O O7 0.053402 0.351526 0.635533
O O8 0.961855 0.347603 0.758041
O O9 0.750000 0.244175 0.811106
O O10 0.494585 0.175232 0.774643
O O11 0.529059 0.308522 0.878575
O O12 0.750000 0.118011 0.282571
O O13 0.963696 0.000000 0.272360
O O14 0.750000 0.609906 0.933851
O O15 0.534931 0.500000 0.904216
O O16 0.500000 0.618377 0.000000
O O17 0.750000 0.393151 0.448521
O O18 0.975551 0.500000 0.433496
O O19 0.000000 0.346052 0.500000
#
# Coordination Sequence:
#
# PCOD9407072 Si02
#       6
#     8   8   8   8   8   8
#     4   8  14  26  46  71  97 127 167 218 273 322
#     4   9  18  32  49  70  98 133 171 208 250 306
#     4  11  22  34  52  80 110 136 167 212 261 308
#     4   9  19  36  55  75 103 141 183 224 267 318
#     4   9  19  36  57  83 114 143 170 203 247 302
#     4   8  14  25  41  61  86 120 164 210 252 295
#
# _framework density 18.3948
#
# number of rings (size 3 to 8) (size 9 to 14) (size 15 to 20)
#    0.000    3.000    0.000    3.000    0.000    4.000 
#    0.000    5.833    0.000    0.500    0.000    0.000 
#    0.000    0.000    0.000    0.000    0.000    0.000 
#
# Total GULP energy -267369.817586 kJ/mol
# GULP energy per Si atom -5570.204533 kJ/mol
# Density = 1.835293 g / cm^3
# Si number density = 18.394800 Si / 1000 Ang^3
#
#
#
# Elastic Constant Matrix: (Units=GPa)
#
#
# Indices 1 2 3 4 5 6 
#
# 1 14.2458 19.1613 35.7768 0.0000 0.0000 0.0000
# 2 19.1613 111.9515 50.5878 0.0000 0.0000 0.0000
# 3 35.7768 50.5878 112.4068 0.0000 0.0000 0.0000
# 4 0.0000 0.0000 0.0000 58.4117 0.0000 0.0000
# 5 0.0000 0.0000 0.0000 0.0000 30.2186 0.0000
# 6 0.0000 0.0000 0.0000 0.0000 0.0000 21.4798
#
#
#
# Elastic Compliance Matrix: (Units=1/GPa)
#
#
# Indices 1 2 3 4 5 6 
#
# 1 0.363134 -0.012461 -0.109970 0.000000 0.000000 0.000000
# 2 -0.012461 0.011640 -0.001273 0.000000 0.000000 0.000000
# 3 -0.109970 -0.001273 0.044470 0.000000 0.000000 0.000000
# 4 0.000000 0.000000 0.000000 0.017120 0.000000 0.000000
# 5 0.000000 0.000000 0.000000 0.000000 0.033092 0.000000
# 6 0.000000 0.000000 0.000000 0.000000 0.000000 0.046555
#
#
# Mechanical properties :
#
#
# Convention : Reuss Voigt Hill
#
# Bulk Modulus (GPa) = 5.81946 49.96177 27.89061
# Shear Modulus (GPa) = 6.09238 30.89389 18.49313
#
# Velocity S-wave (km/s) = 1.82187 4.10260 3.17416
# Velocity P-wave (km/s) = 2.75610 7.04710 5.35059
#
# Compressibility (1/GPa) = 0.17183731
#
# Stress axis : x y z
#
# Youngs Moduli (GPa) = 2.75381 85.90896 22.48691
#
# Poissons Ratio (x) = 1.07047 2.47289
# Poissons Ratio (y) = 0.03431 0.02862
# Poissons Ratio (z) = 0.30284 0.10933
#
# Static dielectric constant tensor:
#      x y z
#    x 1.619360 0.000000 0.000000 
#    y 0.000000 1.708080 0.000000 
#    z 0.000000 0.000000 1.637900 
# 
# From -- ./inp_files/27551.got.cif
#   From: 2010.05.17/outbox.cif.g08.bks.cpg/sg51_14_cif.got.tgz:27551.got - 2010.06.03 11:52:47.
