data_PCOD9407544
_publ_section_title
;
Structure prediction by ZEFSAII (Michael W. Deem and Ramdas Pophale) SiO2 
 PCOD9407544
Probable space group: P M M A
;
_chemical_formula_sum "Si O2"
_cell_formula_units_Z 56
_cell_length_a 15.000000
_cell_length_b 21.000000
_cell_length_c 9.000000
_cell_angle_alpha 90.000000
_cell_angle_beta 90.000000
_cell_angle_gamma 90.000000
_cell_volume 2835.000000
_symmetry_space_group_name_H-M "P M M A"
_symmetry_group_IT_number 51
_symmetry_cell_setting 'orthorhombic'
loop_
_space_group_symop_operation_xyz
x,y,z
1/2-x,-y,z
1/2+x,-y,-z
-x,y,-z
-x,-y,-z
1/2+x,y,-z
1/2-x,y,z
x,-y,z
loop_
_atom_site_type_symbol
_atom_site_label
_atom_site_fract_x
_atom_site_fract_y
_atom_site_fract_z
Si Si1 0.647763 0.193953 0.613561
Si Si2 0.155549 0.430669 0.639439
Si Si3 0.349871 0.120063 0.671171
Si Si4 0.592093 0.334918 0.593171
Si Si5 0.526835 0.877406 0.852489
Si Si6 0.608045 0.000000 0.519145
Si Si7 0.979503 0.426931 0.833232
Si Si8 0.644615 0.000000 0.866504
O O1 0.750000 0.174773 0.642052
O O2 0.629720 0.178514 0.439893
O O3 0.633807 0.268242 0.634696
O O4 0.583301 0.157096 0.725304
O O5 0.250000 0.427891 0.719786
O O6 0.148555 0.500000 0.562804
O O7 0.149930 0.375770 0.520197
O O8 0.073790 0.427279 0.749145
O O9 0.250000 0.126647 0.735984
O O10 0.431736 0.106856 0.779182
O O11 0.352302 0.061055 0.559593
O O12 0.500000 0.324636 0.500000
O O13 0.577533 0.378043 0.737873
O O14 0.586989 0.937263 0.906552
O O15 0.500000 0.838588 0.000000
O O16 0.500000 0.000000 0.500000
O O17 0.637112 0.000000 0.688286
O O18 0.945009 0.500000 0.833529
O O19 0.000000 0.406975 0.000000
O O20 0.750000 0.000000 0.911343
#
# Coordination Sequence:
#
# PCOD9407544 Si02
#       8
#     8   8   8   8   8   4   8   4
#     4  11  23  40  61  83 110 148 193 239 285 336
#     4   9  17  31  52  79 110 143 183 233 283 329
#     4  11  22  38  62  87 111 146 192 239 283 336
#     4  10  19  33  56  82 110 143 186 233 281 333
#     4  12  25  41  60  86 120 153 186 231 285 342
#     4  12  18  35  64  88 117 142 190 239 285 331
#     4   9  18  33  54  80 112 150 187 224 275 337
#     4  12  23  39  62  89 118 153 189 229 283 336
#
# _framework density 19.753086
#
# number of rings (size 3 to 8) (size 9 to 14) (size 15 to 20)
#    0.000    1.429    2.857    3.429    0.000    3.429 
#    0.000    1.429    0.000    3.429    0.000    0.000 
#    0.000    0.000    0.000    0.000    0.000    0.000 
#
# Total GULP energy -312224.541388 kJ/mol
# GULP energy per Si atom -5575.438239 kJ/mol
# Density = 1.970813 g / cm^3
# Si number density = 19.753086 Si / 1000 Ang^3
#
#
#
# Elastic Constant Matrix: (Units=GPa)
#
#
# Indices 1 2 3 4 5 6 
#
# 1 117.1842 29.5618 28.8237 0.0000 0.0000 0.0000
# 2 29.5618 69.4357 21.6177 0.0000 0.0000 0.0000
# 3 28.8237 21.6177 80.6571 0.0000 0.0000 0.0000
# 4 0.0000 0.0000 0.0000 1.2855 0.0000 0.0000
# 5 0.0000 0.0000 0.0000 0.0000 -6.7411 0.0000
# 6 0.0000 0.0000 0.0000 0.0000 0.0000 19.5950
#
#
#
# Elastic Compliance Matrix: (Units=1/GPa)
#
#
# Indices 1 2 3 4 5 6 
#
# 1 0.010061 -0.003452 -0.002670 0.000000 0.000000 0.000000
# 2 -0.003452 0.016897 -0.003295 0.000000 0.000000 0.000000
# 3 -0.002670 -0.003295 0.014236 0.000000 0.000000 0.000000
# 4 0.000000 0.000000 0.000000 0.777894 0.000000 0.000000
# 5 0.000000 0.000000 0.000000 0.000000 -0.148345 0.000000
# 6 0.000000 0.000000 0.000000 0.000000 0.000000 0.051034
#
#
# Mechanical properties :
#
#
# Convention : Reuss Voigt Hill
#
# Bulk Modulus (GPa) = 44.72456 47.47593 46.10024
# Shear Modulus (GPa) = 6.68391 15.31280 10.99836
#
# Velocity S-wave (km/s) = 1.84149 2.78728 2.36220
# Velocity P-wave (km/s) = 5.21655 5.86902 5.55238
#
# Compressibility (1/GPa) = 0.02235908
#
# Stress axis : x y z
#
# Youngs Moduli (GPa) = 99.39136 59.18051 70.24646
#
# Poissons Ratio (x) = 0.20430 0.18758
# Poissons Ratio (y) = 0.34312 0.23148
# Poissons Ratio (z) = 0.26540 0.19501
#
# Static dielectric constant tensor:
#      x y z
#    x 1.737860 0.000000 0.000000 
#    y 0.000000 1.759820 0.000000 
#    z 0.000000 0.000000 1.679220 
# 
# From -- ./inp_files/8616.got.cif
#   From: 2010.05.17/outbox.ucp.g08.bks.cvg/sg51_5_cif.got.tgz:8616.got - 2010.06.11 16:27:58.
