data_PCOD9407698
_publ_section_title
;
Structure prediction by ZEFSAII (Michael W. Deem and Ramdas Pophale) SiO2 
 PCOD9407698
Probable space group: P M M A
;
_chemical_formula_sum "Si O2"
_cell_formula_units_Z 64
_cell_length_a 30.000000
_cell_length_b 9.000000
_cell_length_c 12.000000
_cell_angle_alpha 90.000000
_cell_angle_beta 90.000000
_cell_angle_gamma 90.000000
_cell_volume 3240.000000
_symmetry_space_group_name_H-M "P M M A"
_symmetry_group_IT_number 51
_symmetry_cell_setting 'orthorhombic'
loop_
_space_group_symop_operation_xyz
x,y,z
1/2-x,-y,z
1/2+x,-y,-z
-x,y,-z
-x,-y,-z
1/2+x,y,-z
1/2-x,y,z
x,-y,z
loop_
_atom_site_type_symbol
_atom_site_label
_atom_site_fract_x
_atom_site_fract_y
_atom_site_fract_z
Si Si1 0.562068 0.172272 0.767948
Si Si2 0.520485 0.670743 0.123210
Si Si3 0.299928 0.177046 0.010345
Si Si4 0.370719 0.671591 0.611979
Si Si5 0.549486 0.826810 0.506862
Si Si6 0.199559 0.680594 0.439523
Si Si7 0.122249 0.672783 0.873195
Si Si8 0.153704 0.322667 0.209976
O O1 0.514447 0.237110 0.804267
O O2 0.564859 0.183834 0.634460
O O3 0.604416 0.260630 0.815796
O O4 0.565089 0.000000 0.800452
O O5 0.522848 0.500000 0.165414
O O6 0.571201 0.727069 0.115954
O O7 0.500000 0.668517 0.000000
O O8 0.250000 0.217052 0.970779
O O9 0.340193 0.234824 0.934913
O O10 0.302132 0.000000 0.021189
O O11 0.310092 0.253930 0.127784
O O12 0.376028 0.500000 0.577702
O O13 0.414907 0.752792 0.572446
O O14 0.327176 0.730215 0.548591
O O15 0.366361 0.676659 0.743274
O O16 0.500000 0.760661 0.500000
O O17 0.546333 0.000000 0.475772
O O18 0.250000 0.737077 0.432004
O O19 0.202422 0.500000 0.440756
O O20 0.169391 0.720111 0.333713
O O21 0.123238 0.500000 0.912385
O O22 0.152939 0.500000 0.201057
#
# Coordination Sequence:
#
# PCOD9407698 Si02
#       8
#     8   8   8   8   8   8   8   8
#     4  11  22  35  56  86 120 158 202 248 300 360
#     4  10  21  37  56  82 116 156 204 254 303 357
#     4  11  25  43  63  89 121 156 197 248 305 365
#     4  10  20  36  58  86 117 151 197 249 297 351
#     4  10  21  36  54  80 117 160 201 240 289 352
#     4   9  18  33  55  84 115 148 189 240 299 355
#     4  10  22  39  61  89 120 158 204 252 303 359
#     4  11  21  37  62  88 118 155 198 249 305 360
#
# _framework density 19.753086
#
# number of rings (size 3 to 8) (size 9 to 14) (size 15 to 20)
#    0.000    1.750    1.250    3.000    0.000    5.000 
#    0.000    1.250    0.000    1.125    0.000    0.000 
#    0.000    0.000    0.000    0.000    0.000    0.000 
#
# Total GULP energy -357315.228553 kJ/mol
# GULP energy per Si atom -5583.050446 kJ/mol
# Density = 1.970813 g / cm^3
# Si number density = 19.753086 Si / 1000 Ang^3
#
#
#
# Elastic Constant Matrix: (Units=GPa)
#
#
# Indices 1 2 3 4 5 6 
#
# 1 163.3267 43.3495 36.5184 0.0000 0.0000 0.0000
# 2 43.3495 47.8663 21.4576 0.0000 0.0000 0.0000
# 3 36.5184 21.4576 41.3834 0.0000 0.0000 0.0000
# 4 0.0000 0.0000 0.0000 9.1774 0.0000 0.0000
# 5 0.0000 0.0000 0.0000 0.0000 27.7578 0.0000
# 6 0.0000 0.0000 0.0000 0.0000 0.0000 39.2213
#
#
#
# Elastic Compliance Matrix: (Units=1/GPa)
#
#
# Indices 1 2 3 4 5 6 
#
# 1 0.008705 -0.005785 -0.004682 0.000000 0.000000 0.000000
# 2 -0.005785 0.031062 -0.011001 0.000000 0.000000 0.000000
# 3 -0.004682 -0.011001 0.034000 0.000000 0.000000 0.000000
# 4 0.000000 0.000000 0.000000 0.108964 0.000000 0.000000
# 5 0.000000 0.000000 0.000000 0.000000 0.036026 0.000000
# 6 0.000000 0.000000 0.000000 0.000000 0.000000 0.025496
#
#
# Mechanical properties :
#
#
# Convention : Reuss Voigt Hill
#
# Bulk Modulus (GPa) = 32.43491 50.58083 41.50787
# Shear Modulus (GPa) = 16.80861 25.31468 21.06164
#
# Velocity S-wave (km/s) = 2.92025 3.58377 3.26888
# Velocity P-wave (km/s) = 5.27506 6.54115 5.94192
#
# Compressibility (1/GPa) = 0.03083098
#
# Stress axis : x y z
#
# Youngs Moduli (GPa) = 114.87755 32.19376 29.41140
#
# Poissons Ratio (x) = 0.18623 0.13771
# Poissons Ratio (y) = 0.66451 0.32357
# Poissons Ratio (z) = 0.53789 0.35417
#
# Static dielectric constant tensor:
#      x y z
#    x 1.688030 0.000000 0.000000 
#    y 0.000000 1.681530 0.000000 
#    z 0.000000 0.000000 1.724360 
# 
# From -- ./inp_files/19496.got.cif
#   From: 2010.05.17/outbox.ucp.g08.bks.cvg/sg51_10_cif.got.tgz:19496.got - 2010.06.11 16:27:58.
