data_PCOD9407272
_publ_section_title
;
Structure prediction by ZEFSAII (Michael W. Deem and Ramdas Pophale) SiO2 
 PCOD9407272
Probable space group: P M M A
;
_chemical_formula_sum "Si O2"
_cell_formula_units_Z 34
_cell_length_a 11.227430
_cell_length_b 14.883149
_cell_length_c 7.180087
_cell_angle_alpha 90.000000
_cell_angle_beta 90.000000
_cell_angle_gamma 90.000000
_cell_volume 1199.789045
_symmetry_space_group_name_H-M "P M M A"
_symmetry_group_IT_number 51
_symmetry_cell_setting 'orthorhombic'
loop_
_space_group_symop_operation_xyz
x,y,z
1/2-x,-y,z
1/2+x,-y,-z
-x,y,-z
-x,-y,-z
1/2+x,y,-z
1/2-x,y,z
x,-y,z
loop_
_atom_site_type_symbol
_atom_site_label
_atom_site_fract_x
_atom_site_fract_y
_atom_site_fract_z
Si Si1 0.491922 0.696928 0.222091
Si Si2 0.250000 0.687013 0.836232
Si Si3 0.250000 0.500000 0.805289
Si Si4 0.250000 0.101760 0.464607
Si Si5 0.750000 0.867520 0.969996
Si Si6 0.485211 0.500000 0.228286
Si Si7 0.459212 0.104489 0.739704
O O1 0.630968 0.694166 0.283576
O O2 0.500000 0.688022 0.000000
O O3 0.436633 0.600146 0.282906
O O4 0.462508 0.803103 0.245064
O O5 0.250000 0.589360 0.925588
O O6 0.250000 0.761031 0.994614
O O7 0.123793 0.500000 0.701219
O O8 0.250000 0.105731 0.243122
O O9 0.370797 0.129016 0.568896
O O10 0.250000 0.000000 0.523291
O O11 0.868054 0.898872 0.082945
O O12 0.500000 0.500000 0.000000
O O13 0.504884 0.000000 0.719964
#
# Coordination Sequence:
#
# PCOD9407272 Si02
#       7
#     8   4   2   4   4   4   8
#     4   9  16  27  44  66  93 121 150 188 226 264
#     4   8  15  25  42  65  86 116 153 183 223 272
#     4   8  12  22  38  60  88 110 140 190 226 254
#     4   9  16  27  45  66  91 123 152 185 226 266
#     4   9  15  27  46  66  91 123 153 184 223 267
#     4   8  14  24  40  63  87 117 154 181 217 270
#     4   9  17  27  42  68  93 116 153 187 221 274
#
# _framework density 28.338315999999999
#
# number of rings (size 3 to 8) (size 9 to 14) (size 15 to 20)
#    0.000    3.294    0.000    2.471    0.000    0.471 
#    0.000    0.000    0.000    7.059    0.000   14.824 
#    0.000   28.235    0.000    0.000    0.000    0.000 
#
# Total GULP energy -189400.587042 kJ/mol
# GULP energy per Si atom -5570.605501 kJ/mol
# Density = 2.827382 g / cm^3
# Si number density = 28.338316 Si / 1000 Ang^3
#
#
#
# Elastic Constant Matrix: (Units=GPa)
#
#
# Indices 1 2 3 4 5 6 
#
# 1 65.3480 34.5336 -12.0769 0.0000 0.0000 0.0000
# 2 34.5336 354.2020 47.3886 0.0000 0.0000 0.0000
# 3 -12.0769 47.3886 127.3883 0.0000 0.0000 0.0000
# 4 0.0000 0.0000 0.0000 19.3149 0.0000 0.0000
# 5 0.0000 0.0000 0.0000 0.0000 27.2188 0.0000
# 6 0.0000 0.0000 0.0000 0.0000 0.0000 23.6555
#
#
#
# Elastic Compliance Matrix: (Units=1/GPa)
#
#
# Indices 1 2 3 4 5 6 
#
# 1 0.016757 -0.001943 0.002311 0.000000 0.000000 0.000000
# 2 -0.001943 0.003196 -0.001373 0.000000 0.000000 0.000000
# 3 0.002311 -0.001373 0.008580 0.000000 0.000000 0.000000
# 4 0.000000 0.000000 0.000000 0.051774 0.000000 0.000000
# 5 0.000000 0.000000 0.000000 0.000000 0.036739 0.000000
# 6 0.000000 0.000000 0.000000 0.000000 0.000000 0.042273
#
#
# Mechanical properties :
#
#
# Convention : Reuss Voigt Hill
#
# Bulk Modulus (GPa) = 37.70266 76.29209 56.99737
# Shear Modulus (GPa) = 29.38234 45.84403 37.61318
#
# Velocity S-wave (km/s) = 3.22350 4.02648 3.64715
# Velocity P-wave (km/s) = 5.21420 6.97116 6.15569
#
# Compressibility (1/GPa) = 0.02652333
#
# Stress axis : x y z
#
# Youngs Moduli (GPa) = 59.67789 312.85107 116.55010
#
# Poissons Ratio (x) = 0.60786 -0.26939
# Poissons Ratio (y) = 0.11595 0.16005
# Poissons Ratio (z) = -0.13794 0.42963
#
# Static dielectric constant tensor:
#      x y z
#    x 2.432460 0.000000 0.000000 
#    y 0.000000 2.220860 0.000000 
#    z 0.000000 0.000000 2.222070 
# 
# From -- ./inp_files/9396.got.cif
#   From: 2010.05.17/outbox.cif.g08.bks.cpg/sg51_5_cif.got.tgz:9396.got - 2010.06.03 11:52:47.
