data_PCOD9407683
_publ_section_title
;
Structure prediction by ZEFSAII (Michael W. Deem and Ramdas Pophale) SiO2 
 PCOD9407683
Probable space group: P M M A
;
_chemical_formula_sum "Si O2"
_cell_formula_units_Z 48
_cell_length_a 18.000000
_cell_length_b 9.000000
_cell_length_c 15.000000
_cell_angle_alpha 90.000000
_cell_angle_beta 90.000000
_cell_angle_gamma 90.000000
_cell_volume 2430.000000
_symmetry_space_group_name_H-M "P M M A"
_symmetry_group_IT_number 51
_symmetry_cell_setting 'orthorhombic'
loop_
_space_group_symop_operation_xyz
x,y,z
1/2-x,-y,z
1/2+x,-y,-z
-x,y,-z
-x,-y,-z
1/2+x,y,-z
1/2-x,y,z
x,-y,z
loop_
_atom_site_type_symbol
_atom_site_label
_atom_site_fract_x
_atom_site_fract_y
_atom_site_fract_z
Si Si1 0.421033 0.671903 0.531948
Si Si2 0.338434 0.829232 0.885354
Si Si3 0.163752 0.839169 0.396098
Si Si4 0.165214 0.675850 0.067301
Si Si5 0.921696 0.177854 0.289695
Si Si6 0.419285 0.828835 0.220174
O O1 0.500000 0.734621 0.500000
O O2 0.429979 0.500000 0.552423
O O3 0.367923 0.703397 0.450402
O O4 0.393890 0.754240 0.619235
O O5 0.250000 0.829098 0.874869
O O6 0.375005 0.774172 0.795250
O O7 0.362433 0.000000 0.900814
O O8 0.357000 0.731654 0.970072
O O9 0.250000 0.846014 0.411169
O O10 0.145467 0.824157 0.292827
O O11 0.129958 0.000000 0.424543
O O12 0.250000 0.732744 0.084980
O O13 0.167844 0.500000 0.070272
O O14 0.106512 0.735607 0.137201
O O15 0.006607 0.222643 0.270380
O O16 0.918519 0.000000 0.296336
O O17 0.431667 0.000000 0.192906
#
# Coordination Sequence:
#
# PCOD9407683 Si02
#       6
#     8   8   8   8   8   8
#     4  11  23  38  57  82 115 153 187 225 282 344
#     4   9  19  37  59  82 109 143 186 233 277 326
#     4  10  21  37  59  85 111 146 193 238 280 331
#     4  10  21  36  55  80 112 150 186 225 279 337
#     4  10  21  37  60  85 110 146 190 235 281 331
#     4  10  20  35  57  83 112 146 186 233 281 332
#
# _framework density 19.753086
#
# number of rings (size 3 to 8) (size 9 to 14) (size 15 to 20)
#    0.000    2.000    1.667    1.500    0.000    6.000 
#    0.000    5.000    0.000    0.000    0.000    0.000 
#    0.000    0.000    0.000    0.000    0.000    0.000 
#
# Total GULP energy -267563.819416 kJ/mol
# GULP energy per Si atom -5574.246238 kJ/mol
# Density = 1.970813 g / cm^3
# Si number density = 19.753086 Si / 1000 Ang^3
#
#
#
# Elastic Constant Matrix: (Units=GPa)
#
#
# Indices 1 2 3 4 5 6 
#
# 1 8.2826 13.0784 10.6064 0.0000 0.0000 0.0000
# 2 13.0784 17.2118 31.3974 0.0000 0.0000 0.0000
# 3 10.6064 31.3974 66.1576 0.0000 0.0000 0.0000
# 4 0.0000 0.0000 0.0000 57.7192 0.0000 0.0000
# 5 0.0000 0.0000 0.0000 0.0000 23.1650 0.0000
# 6 0.0000 0.0000 0.0000 0.0000 0.0000 11.9544
#
#
#
# Elastic Compliance Matrix: (Units=1/GPa)
#
#
# Indices 1 2 3 4 5 6 
#
# 1 -0.046684 0.162502 -0.069636 0.000000 0.000000 0.000000
# 2 0.162502 -0.132958 0.037047 0.000000 0.000000 0.000000
# 3 -0.069636 0.037047 0.008697 0.000000 0.000000 0.000000
# 4 0.000000 0.000000 0.000000 0.017325 0.000000 0.000000
# 5 0.000000 0.000000 0.000000 0.000000 0.043169 0.000000
# 6 0.000000 0.000000 0.000000 0.000000 0.000000 0.083651
#
#
# Mechanical properties :
#
#
# Convention : Reuss Voigt Hill
#
# Bulk Modulus (GPa) = 11.25102 22.42404 16.83753
# Shear Modulus (GPa) = -19.45543 21.00571 0.77514
#
# Velocity S-wave (km/s) = -3.14177 3.26454 0.62711
# Velocity P-wave (km/s) = 2.72997 5.05831 3.01112
#
# Compressibility (1/GPa) = 0.08888085
#
# Stress axis : x y z
#
# Youngs Moduli (GPa) = -21.42056 -7.52119 114.97601
#
# Poissons Ratio (x) = 1.22221 8.00651
# Poissons Ratio (y) = 3.48088 -4.25955
# Poissons Ratio (z) = -1.49165 0.27864
#
# Static dielectric constant tensor:
#      x y z
#    x 1.713580 0.000000 0.000000 
#    y 0.000000 1.706330 0.000000 
#    z 0.000000 0.000000 1.659800 
# 
# From -- ./inp_files/24695.got.cif
#   From: 2010.05.17/outbox.ucp.g08.bks.cvg/sg51_13_cif.got.tgz:24695.got - 2010.06.11 16:27:58.
