data_PCOD9407402
_publ_section_title
;
Structure prediction by ZEFSAII (Michael W. Deem and Ramdas Pophale) SiO2 
 PCOD9407402
Probable space group: P M M A
;
_chemical_formula_sum "Si O2"
_cell_formula_units_Z 48
_cell_length_a 19.151001
_cell_length_b 7.672276
_cell_length_c 16.914853
_cell_angle_alpha 90.000000
_cell_angle_beta 90.000000
_cell_angle_gamma 90.000000
_cell_volume 2485.329212
_symmetry_space_group_name_H-M "P M M A"
_symmetry_group_IT_number 51
_symmetry_cell_setting 'orthorhombic'
loop_
_space_group_symop_operation_xyz
x,y,z
1/2-x,-y,z
1/2+x,-y,-z
-x,y,-z
-x,-y,-z
1/2+x,y,-z
1/2-x,y,z
x,-y,z
loop_
_atom_site_type_symbol
_atom_site_label
_atom_site_fract_x
_atom_site_fract_y
_atom_site_fract_z
Si Si1 0.330170 0.710210 0.517566
Si Si2 0.670922 0.208627 0.659701
Si Si3 0.171541 0.290177 0.836176
Si Si4 0.543931 0.207443 0.758697
Si Si5 0.470668 0.790623 0.916777
Si Si6 0.596668 0.710857 0.324188
O O1 0.250000 0.771488 0.525871
O O2 0.329257 0.500000 0.521053
O O3 0.354314 0.759263 0.429901
O O4 0.375331 0.773310 0.591513
O O5 0.750000 0.278299 0.666660
O O6 0.615624 0.278729 0.722886
O O7 0.674571 0.000000 0.669658
O O8 0.250000 0.226587 0.853134
O O9 0.174322 0.500000 0.833023
O O10 0.110581 0.244677 0.897987
O O11 0.144682 0.229626 0.749677
O O12 0.515206 0.278377 0.841993
O O13 0.481665 0.235118 0.696347
O O14 0.552872 0.000000 0.768995
O O15 0.478121 0.000000 0.917310
O O16 0.500000 0.724130 0.000000
O O17 0.599055 0.500000 0.324461
#
# Coordination Sequence:
#
# PCOD9407402 Si02
#       6
#     8   8   8   8   8   8
#     4   9  17  29  45  65  90 120 153 188 223 258
#     4   9  18  32  47  62  84 117 155 190 223 262
#     4   9  17  30  49  72  97 124 153 185 224 273
#     4   9  18  32  48  66  89 117 149 186 228 272
#     4   9  18  33  51  71  95 121 151 189 232 277
#     4   9  17  29  46  68  93 121 151 183 222 269
#
# _framework density 19.313338000000002
#
# number of rings (size 3 to 8) (size 9 to 14) (size 15 to 20)
#    0.000    3.000    0.000    0.500    0.000    4.667 
#    0.000    4.167    0.000    6.000    0.000    2.333 
#    0.000    0.000    0.000    0.000    0.000    0.000 
#
# Total GULP energy -267595.221798 kJ/mol
# GULP energy per Si atom -5574.900454 kJ/mol
# Density = 1.926938 g / cm^3
# Si number density = 19.313338 Si / 1000 Ang^3
#
#
#
# Elastic Constant Matrix: (Units=GPa)
#
#
# Indices 1 2 3 4 5 6 
#
# 1 137.9788 1.8306 104.6941 0.0000 0.0000 0.0000
# 2 1.8306 33.7019 4.2902 0.0000 0.0000 0.0000
# 3 104.6941 4.2902 122.6119 0.0000 0.0000 0.0000
# 4 0.0000 0.0000 0.0000 -4.2228 0.0000 0.0000
# 5 0.0000 0.0000 0.0000 0.0000 24.7618 0.0000
# 6 0.0000 0.0000 0.0000 0.0000 0.0000 20.5099
#
#
#
# Elastic Compliance Matrix: (Units=1/GPa)
#
#
# Indices 1 2 3 4 5 6 
#
# 1 0.020625 0.001127 -0.017651 0.000000 0.000000 0.000000
# 2 0.001127 0.029866 -0.002007 0.000000 0.000000 0.000000
# 3 -0.017651 -0.002007 0.023297 0.000000 0.000000 0.000000
# 4 0.000000 0.000000 0.000000 -0.236808 0.000000 0.000000
# 5 0.000000 0.000000 0.000000 0.000000 0.040385 0.000000
# 6 0.000000 0.000000 0.000000 0.000000 0.000000 0.048757
#
#
# Mechanical properties :
#
#
# Convention : Reuss Voigt Hill
#
# Bulk Modulus (GPa) = 27.22812 57.32471 42.27641
# Shear Modulus (GPa) = -203.47351 20.44163 -91.51594
#
# Velocity S-wave (km/s) = -10.27534 3.25687 -6.89113
# Velocity P-wave (km/s) = 11.25380 6.62486 6.43270
#
# Compressibility (1/GPa) = 0.03672674
#
# Stress axis : x y z
#
# Youngs Moduli (GPa) = 48.48401 33.48268 42.92331
#
# Poissons Ratio (x) = -0.03772 0.75763
# Poissons Ratio (y) = -0.05462 0.08615
# Poissons Ratio (z) = 0.85578 0.06720
#
# Static dielectric constant tensor:
#      x y z
#    x 1.672780 0.000000 0.000000 
#    y 0.000000 1.723520 0.000000 
#    z 0.000000 0.000000 1.667810 
# 
# From -- ./inp_files/24032.got.cif
#   From: 2010.05.17/outbox.cif.g08.bks.cpg/sg51_13_cif.got.tgz:24032.got - 2010.06.03 11:52:47.
