data_PCOD9407398
_publ_section_title
;
Structure prediction by ZEFSAII (Michael W. Deem and Ramdas Pophale) SiO2 
 PCOD9407398
Probable space group: P M M A
;
_chemical_formula_sum "Si O2"
_cell_formula_units_Z 64
_cell_length_a 18.087839
_cell_length_b 7.655848
_cell_length_c 24.008731
_cell_angle_alpha 90.000000
_cell_angle_beta 90.000000
_cell_angle_gamma 90.000000
_cell_volume 3324.674954
_symmetry_space_group_name_H-M "P M M A"
_symmetry_group_IT_number 51
_symmetry_cell_setting 'orthorhombic'
loop_
_space_group_symop_operation_xyz
x,y,z
1/2-x,-y,z
1/2+x,-y,-z
-x,y,-z
-x,-y,-z
1/2+x,y,-z
1/2-x,y,z
x,-y,z
loop_
_atom_site_type_symbol
_atom_site_label
_atom_site_fract_x
_atom_site_fract_y
_atom_site_fract_z
Si Si1 0.947196 0.289369 0.866021
Si Si2 0.927386 0.293155 0.531972
Si Si3 0.332623 0.794888 0.565991
Si Si4 0.978711 0.210967 0.368190
Si Si5 0.027311 0.207978 0.757398
Si Si6 0.168533 0.211681 0.825467
Si Si7 0.665809 0.714117 0.954533
Si Si8 0.588377 0.705292 0.065426
O O1 0.950012 0.500000 0.867012
O O2 0.872674 0.234314 0.896763
O O3 0.963291 0.237745 0.802728
O O4 0.015106 0.222182 0.904700
O O5 0.924262 0.500000 0.523800
O O6 0.857361 0.220784 0.498722
O O7 0.000000 0.220731 0.500000
O O8 0.949206 0.258831 0.595535
O O9 0.250000 0.721319 0.575152
O O10 0.402518 0.723986 0.601907
O O11 0.328722 0.000000 0.579589
O O12 0.983740 0.275353 0.304854
O O13 0.975174 0.000000 0.368406
O O14 0.102522 0.276638 0.786112
O O15 0.036500 0.000000 0.752235
O O16 0.250000 0.266471 0.807371
O O17 0.151455 0.273208 0.887997
O O18 0.166248 0.000000 0.825944
O O19 0.750000 0.772413 0.959817
O O20 0.666309 0.500000 0.956574
O O21 0.616250 0.775709 0.006647
O O22 0.573763 0.500000 0.056354
#
# Coordination Sequence:
#
# PCOD9407398 Si02
#       8
#     8   8   8   8   8   8   8   8
#     4   9  17  29  45  64  86 113 146 184 223 265
#     4   9  17  29  46  68  94 123 152 182 218 258
#     4   9  17  29  47  72  99 123 147 179 220 264
#     4   9  17  30  48  68  90 119 156 191 219 256
#     4   9  18  31  46  64  87 118 153 185 218 256
#     4   9  17  28  41  60  89 120 146 176 217 264
#     4   9  16  26  43  66  87 108 139 181 227 272
#     4   9  16  27  44  64  85 110 142 179 220 269
#
# _framework density 19.250001000000001
#
# number of rings (size 3 to 8) (size 9 to 14) (size 15 to 20)
#    0.000    3.000    0.000    1.125    0.000    5.000 
#    0.000    3.125    0.000    4.875    0.000   10.500 
#    0.000    0.000    0.000    0.000    0.000    0.000 
#
# Total GULP energy -356557.548586 kJ/mol
# GULP energy per Si atom -5571.211697 kJ/mol
# Density = 1.920619 g / cm^3
# Si number density = 19.250001 Si / 1000 Ang^3
#
#
#
# Elastic Constant Matrix: (Units=GPa)
#
#
# Indices 1 2 3 4 5 6 
#
# 1 42.4202 -0.7211 35.6737 0.0000 0.0000 0.0000
# 2 -0.7211 35.0935 -4.7864 0.0000 0.0000 0.0000
# 3 35.6737 -4.7864 137.7299 0.0000 0.0000 0.0000
# 4 0.0000 0.0000 0.0000 17.2951 0.0000 0.0000
# 5 0.0000 0.0000 0.0000 0.0000 12.6024 0.0000
# 6 0.0000 0.0000 0.0000 0.0000 0.0000 -0.6046
#
#
#
# Elastic Compliance Matrix: (Units=1/GPa)
#
#
# Indices 1 2 3 4 5 6 
#
# 1 0.030145 -0.000448 -0.007824 0.000000 0.000000 0.000000
# 2 -0.000448 0.028638 0.001111 0.000000 0.000000 0.000000
# 3 -0.007824 0.001111 0.009326 0.000000 0.000000 0.000000
# 4 0.000000 0.000000 0.000000 0.057820 0.000000 0.000000
# 5 0.000000 0.000000 0.000000 0.000000 0.079350 0.000000
# 6 0.000000 0.000000 0.000000 0.000000 0.000000 -1.654057
#
#
# Mechanical properties :
#
#
# Convention : Reuss Voigt Hill
#
# Bulk Modulus (GPa) = 18.59128 30.61953 24.60540
# Shear Modulus (GPa) = -3.52975 18.19710 7.33367
#
# Velocity S-wave (km/s) = -1.35559 3.07791 1.95396
# Velocity P-wave (km/s) = 2.68861 5.34530 4.23089
#
# Compressibility (1/GPa) = 0.05378866
#
# Stress axis : x y z
#
# Youngs Moduli (GPa) = 33.17257 34.91901 107.23174
#
# Poissons Ratio (x) = 0.01563 0.83893
# Poissons Ratio (y) = 0.01485 -0.11915
# Poissons Ratio (z) = 0.25953 -0.03880
#
# Static dielectric constant tensor:
#      x y z
#    x 1.676730 0.000000 0.000000 
#    y 0.000000 1.732100 0.000000 
#    z 0.000000 0.000000 1.684440 
# 
# From -- ./inp_files/35910.got.cif
#   From: 2010.05.17/outbox.cif.g08.bks.cpg/sg51_18_cif.got.tgz:35910.got - 2010.06.03 11:52:47.
