data_PCOD9407611
_publ_section_title
;
Structure prediction by ZEFSAII (Michael W. Deem and Ramdas Pophale) SiO2 
 PCOD9407611
Probable space group: P M M A
;
_chemical_formula_sum "Si O2"
_cell_formula_units_Z 64
_cell_length_a 18.000000
_cell_length_b 21.000000
_cell_length_c 9.000000
_cell_angle_alpha 90.000000
_cell_angle_beta 90.000000
_cell_angle_gamma 90.000000
_cell_volume 3402.000000
_symmetry_space_group_name_H-M "P M M A"
_symmetry_group_IT_number 51
_symmetry_cell_setting 'orthorhombic'
loop_
_space_group_symop_operation_xyz
x,y,z
1/2-x,-y,z
1/2+x,-y,-z
-x,y,-z
-x,-y,-z
1/2+x,y,-z
1/2-x,y,z
x,-y,z
loop_
_atom_site_type_symbol
_atom_site_label
_atom_site_fract_x
_atom_site_fract_y
_atom_site_fract_z
Si Si1 0.160855 0.425807 0.091694
Si Si2 0.163459 0.812882 0.315265
Si Si3 0.666633 0.692174 0.485582
Si Si4 0.399500 0.669672 0.832956
Si Si5 0.340369 0.071459 0.505419
Si Si6 0.839748 0.926215 0.150257
Si Si7 0.541828 0.387383 0.653098
Si Si8 0.086650 0.195673 0.005572
O O1 0.250000 0.411593 0.125733
O O2 0.158815 0.500000 0.044114
O O3 0.101206 0.420430 0.230271
O O4 0.132461 0.379537 0.957530
O O5 0.250000 0.819508 0.267866
O O6 0.163922 0.764191 0.453927
O O7 0.133598 0.878328 0.384185
O O8 0.116687 0.791722 0.172523
O O9 0.750000 0.668004 0.523383
O O10 0.652723 0.680608 0.311270
O O11 0.598553 0.660768 0.573395
O O12 0.476965 0.642789 0.759044
O O13 0.405682 0.738717 0.911722
O O14 0.250000 0.074201 0.503329
O O15 0.361582 0.084076 0.676448
O O16 0.363173 0.000000 0.467375
O O17 0.750000 0.924526 0.141836
O O18 0.861319 0.000000 0.109926
O O19 0.870943 0.866724 0.057375
O O20 0.500000 0.416220 0.500000
O O21 0.000000 0.179915 0.000000
#
# Coordination Sequence:
#
# PCOD9407611 Si02
#       8
#     8   8   8   8   8   8   8   8
#     4  11  24  42  65  93 125 160 201 253 305 352
#     4  10  20  33  53  81 109 143 188 236 291 349
#     4  10  20  36  60  88 118 152 197 254 303 350
#     4  11  23  40  62  89 121 162 205 245 299 365
#     4   8  15  31  54  76  99 131 177 232 283 337
#     4   9  19  37  59  81 107 144 191 240 293 355
#     4  10  22  40  63  89 121 160 201 244 298 363
#     4  12  24  36  54  82 118 155 191 237 292 351
#
# _framework density 18.812463000000001
#
# number of rings (size 3 to 8) (size 9 to 14) (size 15 to 20)
#    0.000    1.875    0.000    5.250    0.000    6.000 
#    0.000    5.000    0.000    8.250    0.000    0.000 
#    0.000    0.000    0.000    0.000    0.000    0.000 
#
# Total GULP energy -356487.420721 kJ/mol
# GULP energy per Si atom -5570.115949 kJ/mol
# Density = 1.876965 g / cm^3
# Si number density = 18.812463 Si / 1000 Ang^3
#
#
#
# Elastic Constant Matrix: (Units=GPa)
#
#
# Indices 1 2 3 4 5 6 
#
# 1 100.3348 36.6975 37.2601 0.0000 0.0000 0.0000
# 2 36.6975 98.5370 55.0500 0.0000 0.0000 0.0000
# 3 37.2601 55.0500 114.2393 0.0000 0.0000 0.0000
# 4 0.0000 0.0000 0.0000 29.3965 0.0000 0.0000
# 5 0.0000 0.0000 0.0000 0.0000 35.9495 0.0000
# 6 0.0000 0.0000 0.0000 0.0000 0.0000 21.4489
#
#
#
# Elastic Compliance Matrix: (Units=1/GPa)
#
#
# Indices 1 2 3 4 5 6 
#
# 1 0.012004 -0.003124 -0.002410 0.000000 0.000000 0.000000
# 2 -0.003124 0.014700 -0.006065 0.000000 0.000000 0.000000
# 3 -0.002410 -0.006065 0.012462 0.000000 0.000000 0.000000
# 4 0.000000 0.000000 0.000000 0.034018 0.000000 0.000000
# 5 0.000000 0.000000 0.000000 0.000000 0.027817 0.000000
# 6 0.000000 0.000000 0.000000 0.000000 0.000000 0.046623
#
#
# Mechanical properties :
#
#
# Convention : Reuss Voigt Hill
#
# Bulk Modulus (GPa) = 62.62216 63.45850 63.04033
# Shear Modulus (GPa) = 28.38583 29.63255 29.00919
#
# Velocity S-wave (km/s) = 3.88865 3.97313 3.93112
# Velocity P-wave (km/s) = 7.31587 7.40628 7.36122
#
# Compressibility (1/GPa) = 0.01596879
#
# Stress axis : x y z
#
# Youngs Moduli (GPa) = 83.30385 68.02571 80.24394
#
# Poissons Ratio (x) = 0.21254 0.19336
# Poissons Ratio (y) = 0.26028 0.48666
# Poissons Ratio (z) = 0.20073 0.41256
#
# Static dielectric constant tensor:
#      x y z
#    x 1.664830 0.000000 0.000000 
#    y 0.000000 1.665580 0.000000 
#    z 0.000000 0.000000 1.659920 
# 
# From -- ./inp_files/10090.got.cif
#   From: 2010.05.17/outbox.ucp.g08.bks.cvg/sg51_6_cif.got.tgz:10090.got - 2010.06.11 16:27:58.
