data_PCOD9407648
_publ_section_title
;
Structure prediction by ZEFSAII (Michael W. Deem and Ramdas Pophale) SiO2 
 PCOD9407648
Probable space group: P M M A
;
_chemical_formula_sum "Si O2"
_cell_formula_units_Z 40
_cell_length_a 15.000000
_cell_length_b 15.000000
_cell_length_c 9.000000
_cell_angle_alpha 90.000000
_cell_angle_beta 90.000000
_cell_angle_gamma 90.000000
_cell_volume 2025.000000
_symmetry_space_group_name_H-M "P M M A"
_symmetry_group_IT_number 51
_symmetry_cell_setting 'orthorhombic'
loop_
_space_group_symop_operation_xyz
x,y,z
1/2-x,-y,z
1/2+x,-y,-z
-x,y,-z
-x,-y,-z
1/2+x,y,-z
1/2-x,y,z
x,-y,z
loop_
_atom_site_type_symbol
_atom_site_label
_atom_site_fract_x
_atom_site_fract_y
_atom_site_fract_z
Si Si1 0.642471 0.101349 0.197853
Si Si2 0.496575 0.605448 0.825145
Si Si3 0.848163 0.280797 0.700571
Si Si4 0.586749 0.736102 0.394398
Si Si5 0.358476 0.099764 0.146068
O O1 0.750000 0.109173 0.202660
O O2 0.602303 0.172721 0.308197
O O3 0.619394 0.000000 0.238031
O O4 0.615644 0.115373 0.025719
O O5 0.485401 0.500000 0.807388
O O6 0.588849 0.641115 0.757137
O O7 0.423959 0.660106 0.730158
O O8 0.500000 0.626849 0.000000
O O9 0.750000 0.290323 0.766702
O O10 0.842525 0.281155 0.522975
O O11 0.885170 0.184382 0.755562
O O12 0.500000 0.738294 0.500000
O O13 0.250000 0.096418 0.151230
O O14 0.389656 0.000000 0.190220
#
# Coordination Sequence:
#
# PCOD9407648 Si02
#       5
#     8   8   8   8   8
#     4   9  17  31  52  76 105 143 183 222 262 307
#     4  10  22  41  61  78 102 140 182 225 275 326
#     4  10  20  34  56  84 111 142 179 222 271 322
#     4  10  21  34  52  78 109 140 174 217 271 330
#     4   8  15  29  50  76 105 138 175 213 255 304
#
# _framework density 19.753086
#
# number of rings (size 3 to 8) (size 9 to 14) (size 15 to 20)
#    0.000    2.600    0.000    3.000    0.000    5.200 
#    0.000    6.000    0.000   15.000    0.000    0.000 
#    0.000    0.000    0.000    0.000    0.000    0.000 
#
# Total GULP energy -222984.313690 kJ/mol
# GULP energy per Si atom -5574.607842 kJ/mol
# Density = 1.970813 g / cm^3
# Si number density = 19.753086 Si / 1000 Ang^3
#
#
#
# Elastic Constant Matrix: (Units=GPa)
#
#
# Indices 1 2 3 4 5 6 
#
# 1 53.9631 15.0566 18.9440 0.0000 0.0000 0.0000
# 2 15.0566 110.7673 91.1322 0.0000 0.0000 0.0000
# 3 18.9440 91.1322 132.6907 0.0000 0.0000 0.0000
# 4 0.0000 0.0000 0.0000 -24.0306 0.0000 0.0000
# 5 0.0000 0.0000 0.0000 0.0000 13.9870 0.0000
# 6 0.0000 0.0000 0.0000 0.0000 0.0000 32.8246
#
#
#
# Elastic Compliance Matrix: (Units=1/GPa)
#
#
# Indices 1 2 3 4 5 6 
#
# 1 0.019542 -0.000830 -0.002220 0.000000 0.000000 0.000000
# 2 -0.000830 0.020792 -0.014161 0.000000 0.000000 0.000000
# 3 -0.002220 -0.014161 0.017579 0.000000 0.000000 0.000000
# 4 0.000000 0.000000 0.000000 -0.041614 0.000000 0.000000
# 5 0.000000 0.000000 0.000000 0.000000 0.071495 0.000000
# 6 0.000000 0.000000 0.000000 0.000000 0.000000 0.030465
#
#
# Mechanical properties :
#
#
# Convention : Reuss Voigt Hill
#
# Bulk Modulus (GPa) = 42.57007 60.85409 51.71208
# Shear Modulus (GPa) = 31.15020 16.04207 23.59613
#
# Velocity S-wave (km/s) = 3.97543 2.85288 3.45998
# Velocity P-wave (km/s) = 6.53222 6.45958 6.49600
#
# Compressibility (1/GPa) = 0.02349068
#
# Stress axis : x y z
#
# Youngs Moduli (GPa) = 51.17163 48.09582 56.88491
#
# Poissons Ratio (x) = 0.03991 0.12629
# Poissons Ratio (y) = 0.04246 0.80557
# Poissons Ratio (z) = 0.11360 0.68110
#
# Static dielectric constant tensor:
#      x y z
#    x 1.820310 0.000000 0.000000 
#    y 0.000000 1.662400 0.000000 
#    z 0.000000 0.000000 1.683630 
# 
# From -- ./inp_files/7904.got.cif
#   From: 2010.05.17/outbox.ucp.g08.bks.cvg/sg51_4_cif.got.tgz:7904.got - 2010.06.11 16:27:58.
