data_PCOD9407489
_publ_section_title
;
Structure prediction by ZEFSAII (Michael W. Deem and Ramdas Pophale) SiO2 
 PCOD9407489
Probable space group: P M M A
;
_chemical_formula_sum "Si O2"
_cell_formula_units_Z 56
_cell_length_a 9.000000
_cell_length_b 21.000000
_cell_length_c 15.000000
_cell_angle_alpha 90.000000
_cell_angle_beta 90.000000
_cell_angle_gamma 90.000000
_cell_volume 2835.000000
_symmetry_space_group_name_H-M "P M M A"
_symmetry_group_IT_number 51
_symmetry_cell_setting 'orthorhombic'
loop_
_space_group_symop_operation_xyz
x,y,z
1/2-x,-y,z
1/2+x,-y,-z
-x,y,-z
-x,-y,-z
1/2+x,y,-z
1/2-x,y,z
x,-y,z
loop_
_atom_site_type_symbol
_atom_site_label
_atom_site_fract_x
_atom_site_fract_y
_atom_site_fract_z
Si Si1 0.922008 0.662571 0.763815
Si Si2 0.076775 0.233540 0.085202
Si Si3 0.416943 0.696954 0.587264
Si Si4 0.921160 0.930907 0.732652
Si Si5 0.579912 0.850356 0.410156
Si Si6 0.418127 0.424664 0.089937
Si Si7 0.574662 0.097186 0.089404
O O1 0.750000 0.650132 0.742556
O O2 0.930328 0.723894 0.827536
O O3 0.987022 0.606240 0.823442
O O4 0.007685 0.672877 0.674972
O O5 0.250000 0.219015 0.066805
O O6 0.982805 0.169750 0.097517
O O7 0.000000 0.266255 0.000000
O O8 0.500000 0.675404 0.500000
O O9 0.250000 0.675592 0.582824
O O10 0.420482 0.773977 0.589907
O O11 0.750000 0.917827 0.754892
O O12 0.987497 0.876700 0.671587
O O13 0.014233 0.933996 0.822148
O O14 0.929390 0.000000 0.686727
O O15 0.500000 0.872232 0.500000
O O16 0.750000 0.872308 0.405858
O O17 0.250000 0.399128 0.083534
O O18 0.413045 0.500000 0.098700
O O19 0.500000 0.409379 0.000000
O O20 0.750000 0.093454 0.082913
O O21 0.500000 0.071742 0.000000
#
# Coordination Sequence:
#
# PCOD9407489 Si02
#       7
#     8   8   8   8   8   8   8
#     4  10  20  32  50  77 108 142 177 217 264 310
#     4  10  19  31  49  75 107 138 170 211 259 312
#     4  10  21  36  56  81 107 136 170 213 262 314
#     4  11  24  40  57  78 104 135 173 216 260 308
#     4  10  21  38  60  84 109 138 171 209 260 317
#     4   9  18  33  52  76 109 148 187 224 261 303
#     4  11  22  37  56  76 102 136 173 214 262 315
#
# _framework density 19.753086
#
# number of rings (size 3 to 8) (size 9 to 14) (size 15 to 20)
#    0.000    1.857    0.000    5.143    0.000    7.429 
#    0.000    0.000    0.000    0.429    0.000    0.000 
#    0.000    0.000    0.000    0.000    0.000    0.000 
#
# Total GULP energy -312372.591065 kJ/mol
# GULP energy per Si atom -5578.081983 kJ/mol
# Density = 1.970813 g / cm^3
# Si number density = 19.753086 Si / 1000 Ang^3
#
#
#
# Elastic Constant Matrix: (Units=GPa)
#
#
# Indices 1 2 3 4 5 6 
#
# 1 148.9738 34.5436 89.7224 0.0000 0.0000 0.0000
# 2 34.5436 34.4893 24.8965 0.0000 0.0000 0.0000
# 3 89.7224 24.8965 143.0674 0.0000 0.0000 0.0000
# 4 0.0000 0.0000 0.0000 -127.4179 0.0000 0.0000
# 5 0.0000 0.0000 0.0000 0.0000 22.7382 0.0000
# 6 0.0000 0.0000 0.0000 0.0000 0.0000 15.3610
#
#
#
# Elastic Compliance Matrix: (Units=1/GPa)
#
#
# Indices 1 2 3 4 5 6 
#
# 1 0.012373 -0.007767 -0.006408 0.000000 0.000000 0.000000
# 2 -0.007767 0.038035 -0.001748 0.000000 0.000000 0.000000
# 3 -0.006408 -0.001748 0.011312 0.000000 0.000000 0.000000
# 4 0.000000 0.000000 0.000000 -0.007848 0.000000 0.000000
# 5 0.000000 0.000000 0.000000 0.000000 0.043979 0.000000
# 6 0.000000 0.000000 0.000000 0.000000 0.000000 0.065100
#
#
# Mechanical properties :
#
#
# Convention : Reuss Voigt Hill
#
# Bulk Modulus (GPa) = 33.47248 69.42838 51.45043
# Shear Modulus (GPa) = 24.41944 -6.03923 9.19011
#
# Velocity S-wave (km/s) = 3.51983 -1.75043 2.15930
# Velocity P-wave (km/s) = 5.78802 5.58024 5.68508
#
# Compressibility (1/GPa) = 0.02987529
#
# Stress axis : x y z
#
# Youngs Moduli (GPa) = 80.82295 26.29135 88.39797
#
# Poissons Ratio (x) = 0.20420 0.56644
# Poissons Ratio (y) = 0.62772 0.15453
# Poissons Ratio (z) = 0.51790 0.04596
#
# Static dielectric constant tensor:
#      x y z
#    x 1.617560 0.000000 0.000000 
#    y 0.000000 1.713550 0.000000 
#    z 0.000000 0.000000 2.231830 
# 
# From -- ./inp_files/21851.got.cif
#   From: 2010.05.17/outbox.ucp.g08.bks.cvg/sg51_11_cif.got.tgz:21851.got - 2010.06.11 16:27:58.
