data_PCOD9407106
_publ_section_title
;
Structure prediction by ZEFSAII (Michael W. Deem and Ramdas Pophale) SiO2 
 PCOD9407106
Probable space group: P M M A
;
_chemical_formula_sum "Si O2"
_cell_formula_units_Z 48
_cell_length_a 7.907935
_cell_length_b 19.326862
_cell_length_c 12.880460
_cell_angle_alpha 90.000000
_cell_angle_beta 90.000000
_cell_angle_gamma 90.000000
_cell_volume 1968.592426
_symmetry_space_group_name_H-M "P M M A"
_symmetry_group_IT_number 51
_symmetry_cell_setting 'orthorhombic'
loop_
_space_group_symop_operation_xyz
x,y,z
1/2-x,-y,z
1/2+x,-y,-z
-x,y,-z
-x,-y,-z
1/2+x,y,-z
1/2-x,y,z
x,-y,z
loop_
_atom_site_type_symbol
_atom_site_label
_atom_site_fract_x
_atom_site_fract_y
_atom_site_fract_z
Si Si1 0.052981 0.878394 0.612517
Si Si2 0.444817 0.576932 0.340005
Si Si3 0.047094 0.777421 0.111937
Si Si4 0.447343 0.074396 0.167816
Si Si5 0.562332 0.417452 0.112152
Si Si6 0.043989 0.275490 0.333455
O O1 0.250000 0.890406 0.629617
O O2 0.000000 0.904585 0.500000
O O3 0.956689 0.913056 0.708340
O O4 0.017643 0.795668 0.615859
O O5 0.250000 0.573861 0.374281
O O6 0.520683 0.500000 0.361424
O O7 0.448396 0.587890 0.214744
O O8 0.519652 0.650551 0.376634
O O9 0.250000 0.780486 0.119497
O O10 0.975961 0.855621 0.121499
O O11 0.991771 0.734738 0.212493
O O12 0.000000 0.750580 0.000000
O O13 0.250000 0.072653 0.138049
O O14 0.524132 0.000000 0.140903
O O15 0.750000 0.390115 0.134334
O O16 0.577358 0.500000 0.099962
O O17 0.500000 0.392820 0.000000
O O18 0.250000 0.276171 0.338977
#
# Coordination Sequence:
#
# PCOD9407106 Si02
#       6
#     8   8   8   8   8   8
#     4  11  22  37  59  84 109 139 175 215 262 318
#     4   9  17  30  49  71  95 127 167 214 272 329
#     4   9  18  32  50  73 104 145 187 224 261 302
#     4   9  19  37  58  81 112 146 180 221 266 311
#     4   9  16  25  37  55  83 119 159 203 249 301
#     4   9  19  36  54  75 106 140 177 223 271 321
#
# _framework density 24.382904
#
# number of rings (size 3 to 8) (size 9 to 14) (size 15 to 20)
#    0.000    2.667    0.000    3.000    0.000    7.000 
#    0.000    1.667    0.000    0.500    0.000    0.000 
#    0.000    0.000    0.000    0.000    0.000    0.000 
#
# Total GULP energy -267895.869015 kJ/mol
# GULP energy per Si atom -5581.163938 kJ/mol
# Density = 2.432741 g / cm^3
# Si number density = 24.382904 Si / 1000 Ang^3
#
#
#
# Elastic Constant Matrix: (Units=GPa)
#
#
# Indices 1 2 3 4 5 6 
#
# 1 46.9999 5.3309 -14.3147 0.0000 0.0000 0.0000
# 2 5.3309 165.6218 -7.4101 0.0000 0.0000 0.0000
# 3 -14.3147 -7.4101 81.3052 0.0000 0.0000 0.0000
# 4 0.0000 0.0000 0.0000 -23.1039 0.0000 0.0000
# 5 0.0000 0.0000 0.0000 0.0000 16.0972 0.0000
# 6 0.0000 0.0000 0.0000 0.0000 0.0000 21.5234
#
#
#
# Elastic Compliance Matrix: (Units=1/GPa)
#
#
# Indices 1 2 3 4 5 6 
#
# 1 0.022532 -0.000550 0.003917 0.000000 0.000000 0.000000
# 2 -0.000550 0.006076 0.000457 0.000000 0.000000 0.000000
# 3 0.003917 0.000457 0.013031 0.000000 0.000000 0.000000
# 4 0.000000 0.000000 0.000000 -0.043283 0.000000 0.000000
# 5 0.000000 0.000000 0.000000 0.000000 0.062123 0.000000
# 6 0.000000 0.000000 0.000000 0.000000 0.000000 0.046461
#
#
# Mechanical properties :
#
#
# Convention : Reuss Voigt Hill
#
# Bulk Modulus (GPa) = 20.28968 29.01547 24.65257
# Shear Modulus (GPa) = 43.20752 23.59140 33.39946
#
# Velocity S-wave (km/s) = 4.21413 3.11390 3.70508
# Velocity P-wave (km/s) = 5.65843 4.98541 5.33255
#
# Compressibility (1/GPa) = 0.04928615
#
# Stress axis : x y z
#
# Youngs Moduli (GPa) = 44.38141 164.58202 76.74254
#
# Poissons Ratio (x) = 0.09052 -0.30059
# Poissons Ratio (y) = 0.02441 -0.03507
# Poissons Ratio (z) = -0.17384 -0.07520
#
# Static dielectric constant tensor:
#      x y z
#    x 1.769180 0.000000 0.000000 
#    y 0.000000 2.016420 0.000000 
#    z 0.000000 0.000000 1.913750 
# 
# From -- ./inp_files/21409.got.cif
#   From: 2010.05.17/outbox.cif.g08.bks.cpg/sg51_11_cif.got.tgz:21409.got - 2010.06.03 11:52:47.
