data_PCOD9407864
_publ_section_title
;
Structure prediction by ZEFSAII (Michael W. Deem and Ramdas Pophale) SiO2 
 PCOD9407864
Probable space group: P N N A
;
_chemical_formula_sum "Si O2"
_cell_formula_units_Z 56
_cell_length_a 18.395182
_cell_length_b 17.965430
_cell_length_c 6.921936
_cell_angle_alpha 90.000000
_cell_angle_beta 90.000000
_cell_angle_gamma 90.000000
_cell_volume 2287.543098
_symmetry_space_group_name_H-M "P N N A"
_symmetry_group_IT_number 52
_symmetry_cell_setting 'orthorhombic'
loop_
_space_group_symop_operation_xyz
x,y,z
1/2-x,-y,z
x,1/2-y,1/2-z
1/2-x,1/2+y,1/2-z
-x,-y,-z
1/2+x,y,-z
-x,1/2+y,1/2+z
1/2+x,1/2-y,1/2+z
loop_
_atom_site_type_symbol
_atom_site_label
_atom_site_fract_x
_atom_site_fract_y
_atom_site_fract_z
Si Si1 0.415293 0.925906 0.846422
Si Si2 0.861882 0.887123 0.589442
Si Si3 0.306019 0.113994 0.448050
Si Si4 0.630863 0.228401 0.035516
Si Si5 0.694225 0.776164 0.036569
Si Si6 0.554291 0.520889 0.823636
Si Si7 0.313798 0.058998 0.892400
O O1 0.376363 0.909335 0.636575
O O2 0.396486 0.855178 0.977205
O O3 0.500998 0.935342 0.817021
O O4 0.383615 0.006442 0.900871
O O5 0.776008 0.897715 0.631240
O O6 0.883635 0.800467 0.596208
O O7 0.911190 0.940900 0.715199
O O8 0.323859 0.201357 0.419494
O O9 0.374504 0.067546 0.377280
O O10 0.298722 0.088771 0.674218
O O11 0.604252 0.250000 0.250000
O O12 0.718139 0.223405 0.039372
O O13 0.667934 0.750000 0.250000
O O14 0.675522 0.862387 0.996979
O O15 0.500000 0.500000 0.000000
O O16 0.250000 0.000000 0.947545
#
# Coordination Sequence:
#
# PCOD9407864 Si02
#       7
#     8   8   8   8   8   8   8
#     4  10  16  21  33  53  79 104 124 159 201 253
#     4   9  15  23  35  47  71 110 134 154 186 242
#     4  10  15  24  33  48  76 112 130 153 188 243
#     4   8  13  22  32  48  70 100 133 157 183 236
#     4   8  15  20  32  50  68 104 134 152 185 230
#     4  10  17  22  32  52  77 111 128 153 204 252
#     4  11  13  20  34  50  74 103 125 153 192 236
#
# _framework density 24.480411
#
# number of rings (size 3 to 8) (size 9 to 14) (size 15 to 20)
#    0.000    2.571    5.714    2.143    0.000    0.000 
#    0.000    0.000    0.000    0.000    0.000    0.000 
#    0.000   20.571  179.714    0.000    0.000    0.000 
#
# Total GULP energy -312677.510593 kJ/mol
# GULP energy per Si atom -5583.526975 kJ/mol
# Density = 2.442469 g / cm^3
# Si number density = 24.480411 Si / 1000 Ang^3
#
#
#
# Elastic Constant Matrix: (Units=GPa)
#
#
# Indices 1 2 3 4 5 6 
#
# 1 91.0875 55.8629 8.0490 0.0000 0.0000 0.0000
# 2 55.8629 253.2694 44.6834 0.0000 0.0000 0.0000
# 3 8.0490 44.6834 44.3297 0.0000 0.0000 0.0000
# 4 0.0000 0.0000 0.0000 52.5758 0.0000 0.0000
# 5 0.0000 0.0000 0.0000 0.0000 -4.8980 0.0000
# 6 0.0000 0.0000 0.0000 0.0000 0.0000 15.8777
#
#
#
# Elastic Compliance Matrix: (Units=1/GPa)
#
#
# Indices 1 2 3 4 5 6 
#
# 1 0.012710 -0.002915 0.000630 0.000000 0.000000 0.000000
# 2 -0.002915 0.005471 -0.004985 0.000000 0.000000 0.000000
# 3 0.000630 -0.004985 0.027469 0.000000 0.000000 0.000000
# 4 0.000000 0.000000 0.000000 0.019020 0.000000 0.000000
# 5 0.000000 0.000000 0.000000 0.000000 -0.204164 0.000000
# 6 0.000000 0.000000 0.000000 0.000000 0.000000 0.062981
#
#
# Mechanical properties :
#
#
# Convention : Reuss Voigt Hill
#
# Bulk Modulus (GPa) = 32.14365 67.31969 49.73167
# Shear Modulus (GPa) = -96.89351 31.38386 -32.75482
#
# Velocity S-wave (km/s) = -6.29809 3.58439 -3.66184
# Velocity P-wave (km/s) = 6.30310 6.68502 1.57488
#
# Compressibility (1/GPa) = 0.03111034
#
# Stress axis : x y z
#
# Youngs Moduli (GPa) = 78.67644 182.79007 36.40495
#
# Poissons Ratio (x) = 0.53277 -0.02294
# Poissons Ratio (y) = 0.22931 0.18149
# Poissons Ratio (z) = -0.04957 0.91124
#
# Static dielectric constant tensor:
#      x y z
#    x 1.839650 0.000000 0.000000 
#    y 0.000000 1.980670 0.000000 
#    z 0.000000 0.000000 2.128730 
# 
# From -- ./inp_files/27473.got.cif
#   From: 2010.05.17/outbox.cif.g08.bks.cpg/sg52_14_cif.got.tgz:27473.got - 2010.06.03 12:15:38.
