data_PCOD9407747
_publ_section_title
;
Structure prediction by ZEFSAII (Michael W. Deem and Ramdas Pophale) SiO2 
 PCOD9407747
Probable space group: P M M A
;
_chemical_formula_sum "Si O2"
_cell_formula_units_Z 44
_cell_length_a 9.000000
_cell_length_b 18.000000
_cell_length_c 15.000000
_cell_angle_alpha 90.000000
_cell_angle_beta 90.000000
_cell_angle_gamma 90.000000
_cell_volume 2430.000000
_symmetry_space_group_name_H-M "P M M A"
_symmetry_group_IT_number 51
_symmetry_cell_setting 'orthorhombic'
loop_
_space_group_symop_operation_xyz
x,y,z
1/2-x,-y,z
1/2+x,-y,-z
-x,y,-z
-x,-y,-z
1/2+x,y,-z
1/2-x,y,z
x,-y,z
loop_
_atom_site_type_symbol
_atom_site_label
_atom_site_fract_x
_atom_site_fract_y
_atom_site_fract_z
Si Si1 0.080773 0.884494 0.912397
Si Si2 0.919481 0.296381 0.087043
Si Si3 0.426231 0.000000 0.404634
Si Si4 0.429362 0.703923 0.718322
Si Si5 0.426685 0.418280 0.403276
Si Si6 0.070207 0.878128 0.715960
O O1 0.250000 0.909113 0.915612
O O2 0.080684 0.794032 0.914839
O O3 0.020084 0.902620 0.815102
O O4 0.000000 0.911493 0.000000
O O5 0.750000 0.320617 0.084336
O O6 0.984329 0.316431 0.182502
O O7 0.000000 0.324107 0.000000
O O8 0.500000 0.000000 0.500000
O O9 0.486926 0.928202 0.353683
O O10 0.250000 0.000000 0.409530
O O11 0.250000 0.696788 0.716414
O O12 0.504367 0.648976 0.650536
O O13 0.460874 0.790904 0.703026
O O14 0.500000 0.417758 0.500000
O O15 0.250000 0.410477 0.410952
O O16 0.458399 0.500000 0.362737
O O17 0.250000 0.887623 0.711473
#
# Coordination Sequence:
#
# PCOD9407747 Si02
#       6
#     8   8   4   8   8   8
#     4   8  14  26  47  74 104 135 165 202 249 299
#     4   8  14  25  43  71 104 136 169 204 246 295
#     4  12  26  42  59  76  97 132 175 218 266 314
#     4   9  18  33  55  81 107 137 173 212 255 304
#     4  10  21  36  54  77 105 136 169 209 260 313
#     4   9  19  37  57  78 106 138 173 214 258 304
#
# _framework density 18.106995999999999
#
# number of rings (size 3 to 8) (size 9 to 14) (size 15 to 20)
#    0.000    2.909    0.000    3.545    0.000    4.000 
#    0.000    4.091    0.000    0.545    0.000    0.000 
#    0.000    0.000    0.000    0.000    0.000    0.000 
#
# Total GULP energy -245075.348158 kJ/mol
# GULP energy per Si atom -5569.894276 kJ/mol
# Density = 1.806578 g / cm^3
# Si number density = 18.106996 Si / 1000 Ang^3
#
#
#
# Elastic Constant Matrix: (Units=GPa)
#
#
# Indices 1 2 3 4 5 6 
#
# 1 45.4169 55.4153 70.5215 0.0000 0.0000 0.0000
# 2 55.4153 82.0276 77.5331 0.0000 0.0000 0.0000
# 3 70.5215 77.5331 154.1921 0.0000 0.0000 0.0000
# 4 0.0000 0.0000 0.0000 53.5027 0.0000 0.0000
# 5 0.0000 0.0000 0.0000 0.0000 31.0365 0.0000
# 6 0.0000 0.0000 0.0000 0.0000 0.0000 138.1222
#
#
#
# Elastic Compliance Matrix: (Units=1/GPa)
#
#
# Indices 1 2 3 4 5 6 
#
# 1 0.255639 -0.118519 -0.057324 0.000000 0.000000 0.000000
# 2 -0.118519 0.078181 0.014894 0.000000 0.000000 0.000000
# 3 -0.057324 0.014894 0.025214 0.000000 0.000000 0.000000
# 4 0.000000 0.000000 0.000000 0.018691 0.000000 0.000000
# 5 0.000000 0.000000 0.000000 0.000000 0.032220 0.000000
# 6 0.000000 0.000000 0.000000 0.000000 0.000000 0.007240
#
#
# Mechanical properties :
#
#
# Convention : Reuss Voigt Hill
#
# Bulk Modulus (GPa) = 26.92804 76.50850 51.71827
# Shear Modulus (GPa) = 6.65370 49.74340 28.19855
#
# Velocity S-wave (km/s) = 1.91902 5.24705 3.95058
# Velocity P-wave (km/s) = 4.45130 8.89123 7.03094
#
# Compressibility (1/GPa) = 0.03713601
#
# Stress axis : x y z
#
# Youngs Moduli (GPa) = 3.91176 12.79086 39.66027
#
# Poissons Ratio (x) = 1.51596 2.27349
# Poissons Ratio (y) = 0.46362 -0.59070
# Poissons Ratio (z) = 0.22424 -0.19051
#
# Static dielectric constant tensor:
#      x y z
#    x 1.602320 0.000000 0.000000 
#    y 0.000000 1.614160 0.000000 
#    z 0.000000 0.000000 1.621420 
# 
# From -- ./inp_files/20921.got.cif
#   From: 2010.05.17/outbox.ucp.g08.bks.cvg/sg51_11_cif.got.tgz:20921.got - 2010.06.11 16:27:58.
