data_PCOD9407769
_publ_section_title
;
Structure prediction by ZEFSAII (Michael W. Deem and Ramdas Pophale) SiO2 
 PCOD9407769
Probable space group: P M M A
;
_chemical_formula_sum "Si O2"
_cell_formula_units_Z 56
_cell_length_a 9.000000
_cell_length_b 15.000000
_cell_length_c 21.000000
_cell_angle_alpha 90.000000
_cell_angle_beta 90.000000
_cell_angle_gamma 90.000000
_cell_volume 2835.000000
_symmetry_space_group_name_H-M "P M M A"
_symmetry_group_IT_number 51
_symmetry_cell_setting 'orthorhombic'
loop_
_space_group_symop_operation_xyz
x,y,z
1/2-x,-y,z
1/2+x,-y,-z
-x,y,-z
-x,-y,-z
1/2+x,y,-z
1/2-x,y,z
x,-y,z
loop_
_atom_site_type_symbol
_atom_site_label
_atom_site_fract_x
_atom_site_fract_y
_atom_site_fract_z
Si Si1 0.072842 0.289845 0.561809
Si Si2 0.570356 0.404286 0.819909
Si Si3 0.920515 0.900972 0.262306
Si Si4 0.918381 0.106870 0.063305
Si Si5 0.077345 0.904867 0.585326
Si Si6 0.421131 0.603417 0.330613
Si Si7 0.926289 0.213774 0.830468
O O1 0.250000 0.287726 0.556159
O O2 0.010444 0.188709 0.565260
O O3 0.000000 0.334124 0.500000
O O4 0.026988 0.338922 0.625938
O O5 0.750000 0.406724 0.827078
O O6 0.511675 0.500000 0.842225
O O7 0.543105 0.395422 0.744292
O O8 0.516329 0.311874 0.848762
O O9 0.750000 0.890819 0.239659
O O10 0.918294 0.901666 0.338199
O O11 0.017799 0.820158 0.237526
O O12 0.972712 0.000000 0.241663
O O13 0.750000 0.138922 0.065540
O O14 0.009059 0.141503 0.122448
O O15 0.916451 0.000000 0.062941
O O16 0.000000 0.138199 0.000000
O O17 0.250000 0.906333 0.563964
O O18 0.006276 0.000000 0.568145
O O19 0.250000 0.633586 0.337838
O O20 0.428832 0.500000 0.350462
O O21 0.750000 0.214775 0.831712
#
# Coordination Sequence:
#
# PCOD9407769 Si02
#       7
#     8   8   8   8   8   8   8
#     4  11  22  34  50  71  95 124 160 204 249 296
#     4   8  16  32  53  77 104 133 164 200 247 299
#     4   9  17  30  48  70  98 131 163 197 243 298
#     4  10  21  37  55  75 104 142 179 213 248 287
#     4   8  16  32  51  69  92 125 163 201 244 294
#     4   9  18  35  57  76  97 127 161 200 248 299
#     4  11  20  29  49  79 107 135 167 205 246 291
#
# _framework density 19.753086
#
# number of rings (size 3 to 8) (size 9 to 14) (size 15 to 20)
#    0.000    2.571    0.000    4.286    0.000    3.714 
#    0.000    1.429    0.000    6.857    0.000    0.000 
#    0.000    0.000    0.000    0.000    0.000    0.000 
#
# Total GULP energy -311902.585117 kJ/mol
# GULP energy per Si atom -5569.689020 kJ/mol
# Density = 1.970813 g / cm^3
# Si number density = 19.753086 Si / 1000 Ang^3
#
#
#
# Elastic Constant Matrix: (Units=GPa)
#
#
# Indices 1 2 3 4 5 6 
#
# 1 37.7782 24.8854 7.9553 0.0000 0.0000 0.0000
# 2 24.8854 38.5295 1.6467 0.0000 0.0000 0.0000
# 3 7.9553 1.6467 24.7069 0.0000 0.0000 0.0000
# 4 0.0000 0.0000 0.0000 -25.0017 0.0000 0.0000
# 5 0.0000 0.0000 0.0000 0.0000 11.6145 0.0000
# 6 0.0000 0.0000 0.0000 0.0000 0.0000 -1.6642
#
#
#
# Elastic Compliance Matrix: (Units=1/GPa)
#
#
# Indices 1 2 3 4 5 6 
#
# 1 0.050563 -0.032053 -0.014144 0.000000 0.000000 0.000000
# 2 -0.032053 0.046347 0.007232 0.000000 0.000000 0.000000
# 3 -0.014144 0.007232 0.044547 0.000000 0.000000 0.000000
# 4 0.000000 0.000000 0.000000 -0.039997 0.000000 0.000000
# 5 0.000000 0.000000 0.000000 0.000000 0.086099 0.000000
# 6 0.000000 0.000000 0.000000 0.000000 0.000000 -0.600890
#
#
# Mechanical properties :
#
#
# Convention : Reuss Voigt Hill
#
# Bulk Modulus (GPa) = 15.74162 18.88770 17.31466
# Shear Modulus (GPa) = -15.91216 1.42488 -7.24364
#
# Velocity S-wave (km/s) = -2.84131 0.85024 -1.91704
# Velocity P-wave (km/s) = 1.66659 3.24754 1.97091
#
# Compressibility (1/GPa) = 0.06352585
#
# Stress axis : x y z
#
# Youngs Moduli (GPa) = 19.77741 21.57620 22.44833
#
# Poissons Ratio (x) = 0.69158 0.31751
# Poissons Ratio (y) = 0.63392 -0.16234
# Poissons Ratio (z) = 0.27974 -0.15603
#
# Static dielectric constant tensor:
#      x y z
#    x 1.677710 0.000000 0.000000 
#    y 0.000000 1.761140 0.000000 
#    z 0.000000 0.000000 1.719860 
# 
# From -- ./inp_files/31917.got.cif
#   From: 2010.05.17/outbox.ucp.g08.bks.cvg/sg51_16_cif.got.tgz:31917.got - 2010.06.11 16:27:58.
