data_PCOD9407305
_publ_section_title
;
Structure prediction by ZEFSAII (Michael W. Deem and Ramdas Pophale) SiO2 
 PCOD9407305
Probable space group: P M M A
;
_chemical_formula_sum "Si O2"
_cell_formula_units_Z 48
_cell_length_a 9.333275
_cell_length_b 7.352613
_cell_length_c 32.661763
_cell_angle_alpha 90.000000
_cell_angle_beta 90.000000
_cell_angle_gamma 90.000000
_cell_volume 2241.379488
_symmetry_space_group_name_H-M "P M M A"
_symmetry_group_IT_number 51
_symmetry_cell_setting 'orthorhombic'
loop_
_space_group_symop_operation_xyz
x,y,z
1/2-x,-y,z
1/2+x,-y,-z
-x,y,-z
-x,-y,-z
1/2+x,y,-z
1/2-x,y,z
x,-y,z
loop_
_atom_site_type_symbol
_atom_site_label
_atom_site_fract_x
_atom_site_fract_y
_atom_site_fract_z
Si Si1 0.415238 0.282242 0.127544
Si Si2 0.415155 0.278079 0.378275
Si Si3 0.582525 0.721531 0.783181
Si Si4 0.412177 0.215678 0.038407
Si Si5 0.415319 0.278061 0.540597
Si Si6 0.585066 0.277862 0.297269
O O1 0.250000 0.216075 0.125882
O O2 0.411352 0.500000 0.129396
O O3 0.472329 0.220694 0.171733
O O4 0.480896 0.238210 0.083467
O O5 0.250000 0.220173 0.379375
O O6 0.414785 0.500000 0.378328
O O7 0.502090 0.220741 0.418465
O O8 0.494791 0.220827 0.336869
O O9 0.750000 0.773664 0.779151
O O10 0.580571 0.500000 0.782530
O O11 0.489887 0.782427 0.744729
O O12 0.250000 0.290499 0.039399
O O13 0.400305 0.000000 0.032355
O O14 0.500000 0.289419 0.000000
O O15 0.500000 0.220826 0.500000
O O16 0.250000 0.220238 0.540272
O O17 0.414837 0.500000 0.540592
O O18 0.750000 0.221126 0.299903
O O19 0.584140 0.500000 0.297133
#
# Coordination Sequence:
#
# PCOD9407305 Si02
#       6
#     8   8   8   8   8   8
#     4   8  14  25  41  59  78 101 129 159 191 229
#     4   9  15  21  28  37  49  68  96 127 160 204
#     4   8  13  22  35  48  62  83 110 137 167 207
#     4   9  17  29  44  61  81 105 132 161 193 229
#     4   9  15  21  27  34  45  62  87 123 168 214
#     4   9  15  21  29  42  60  79  98 125 164 208
#
# _framework density 21.415382999999999
#
# number of rings (size 3 to 8) (size 9 to 14) (size 15 to 20)
#    0.000    3.333    0.000    2.500    0.000    6.333 
#    0.000    0.833    0.000    1.000    0.000    0.000 
#    0.000    0.000    0.000    0.000    0.000    0.000 
#
# Total GULP energy -267756.868296 kJ/mol
# GULP energy per Si atom -5578.268089 kJ/mol
# Density = 2.136664 g / cm^3
# Si number density = 21.415383 Si / 1000 Ang^3
#
#
#
# Elastic Constant Matrix: (Units=GPa)
#
#
# Indices 1 2 3 4 5 6 
#
# 1 150.7148 4.0485 129.8959 0.0000 0.0000 0.0000
# 2 4.0485 78.9206 4.9010 0.0000 0.0000 0.0000
# 3 129.8959 4.9010 275.8978 0.0000 0.0000 0.0000
# 4 0.0000 0.0000 0.0000 40.6661 0.0000 0.0000
# 5 0.0000 0.0000 0.0000 0.0000 38.2613 0.0000
# 6 0.0000 0.0000 0.0000 0.0000 0.0000 -20.5243
#
#
#
# Elastic Compliance Matrix: (Units=1/GPa)
#
#
# Indices 1 2 3 4 5 6 
#
# 1 0.011171 -0.000247 -0.005255 0.000000 0.000000 0.000000
# 2 -0.000247 0.012690 -0.000109 0.000000 0.000000 0.000000
# 3 -0.005255 -0.000109 0.006101 0.000000 0.000000 0.000000
# 4 0.000000 0.000000 0.000000 0.024591 0.000000 0.000000
# 5 0.000000 0.000000 0.000000 0.000000 0.026136 0.000000
# 6 0.000000 0.000000 0.000000 0.000000 0.000000 -0.048723
#
#
# Mechanical properties :
#
#
# Convention : Reuss Voigt Hill
#
# Bulk Modulus (GPa) = 53.36219 87.02488 70.19353
# Shear Modulus (GPa) = 101.14520 36.12648 68.63584
#
# Velocity S-wave (km/s) = 6.87988 4.11169 5.66739
# Velocity P-wave (km/s) = 9.38520 7.95401 8.69909
#
# Compressibility (1/GPa) = 0.01873986
#
# Stress axis : x y z
#
# Youngs Moduli (GPa) = 89.51988 78.79970 163.91978
#
# Poissons Ratio (x) = 0.01944 0.86138
# Poissons Ratio (y) = 0.02209 0.01791
# Poissons Ratio (z) = 0.47042 0.00861
#
# Static dielectric constant tensor:
#      x y z
#    x 1.725880 0.000000 0.000000 
#    y 0.000000 1.826440 0.000000 
#    z 0.000000 0.000000 1.773140 
# 
# From -- ./inp_files/36138.got.cif
#   From: 2010.05.17/outbox.cif.g08.bks.cpg/sg51_19_cif.got.tgz:36138.got - 2010.06.03 11:52:47.
