data_PCOD9407653
_publ_section_title
;
Structure prediction by ZEFSAII (Michael W. Deem and Ramdas Pophale) SiO2 
 PCOD9407653
Probable space group: P M M A
;
_chemical_formula_sum "Si O2"
_cell_formula_units_Z 32
_cell_length_a 21.000000
_cell_length_b 9.000000
_cell_length_c 9.000000
_cell_angle_alpha 90.000000
_cell_angle_beta 90.000000
_cell_angle_gamma 90.000000
_cell_volume 1701.000000
_symmetry_space_group_name_H-M "P M M A"
_symmetry_group_IT_number 51
_symmetry_cell_setting 'orthorhombic'
loop_
_space_group_symop_operation_xyz
x,y,z
1/2-x,-y,z
1/2+x,-y,-z
-x,y,-z
-x,-y,-z
1/2+x,y,-z
1/2-x,y,z
x,-y,z
loop_
_atom_site_type_symbol
_atom_site_label
_atom_site_fract_x
_atom_site_fract_y
_atom_site_fract_z
Si Si1 0.547348 0.668945 0.859692
Si Si2 0.177153 0.321027 0.696599
Si Si3 0.323378 0.179205 0.026794
Si Si4 0.952407 0.832424 0.362314
O O1 0.562868 0.500000 0.813888
O O2 0.614488 0.753931 0.888964
O O3 0.499043 0.748184 0.748830
O O4 0.500000 0.661212 0.000000
O O5 0.250000 0.288717 0.640850
O O6 0.170600 0.500000 0.703175
O O7 0.115248 0.251532 0.614856
O O8 0.173712 0.251944 0.862489
O O9 0.250000 0.210721 0.082594
O O10 0.329347 0.000000 0.019636
O O11 0.000000 0.843389 0.500000
O O12 0.936986 0.000000 0.310197
#
# Coordination Sequence:
#
# PCOD9407653 Si02
#       4
#     8   8   8   8
#     4  11  22  36  58  87 115 149 190 234 286 338
#     4  10  20  35  57  85 115 148 189 235 284 342
#     4  10  20  34  56  86 117 150 189 237 289 338
#     4  11  24  40  59  85 116 153 195 238 286 340
#
# _framework density 18.812463000000001
#
# number of rings (size 3 to 8) (size 9 to 14) (size 15 to 20)
#    0.000    1.500    2.500    3.000    0.000    6.000 
#    0.000    1.250    0.000    1.500    0.000    0.000 
#    0.000    0.000    0.000    0.000    0.000    0.000 
#
# Total GULP energy -178230.115864 kJ/mol
# GULP energy per Si atom -5569.691121 kJ/mol
# Density = 1.876965 g / cm^3
# Si number density = 18.812463 Si / 1000 Ang^3
#
#
#
# Elastic Constant Matrix: (Units=GPa)
#
#
# Indices 1 2 3 4 5 6 
#
# 1 210.5799 78.5817 17.2129 0.0000 0.0000 0.0000
# 2 78.5817 143.4398 24.3973 0.0000 0.0000 0.0000
# 3 17.2129 24.3973 30.6051 0.0000 0.0000 0.0000
# 4 0.0000 0.0000 0.0000 34.6230 0.0000 0.0000
# 5 0.0000 0.0000 0.0000 0.0000 26.1882 0.0000
# 6 0.0000 0.0000 0.0000 0.0000 0.0000 48.1027
#
#
#
# Elastic Compliance Matrix: (Units=1/GPa)
#
#
# Indices 1 2 3 4 5 6 
#
# 1 0.005989 -0.003133 -0.000871 0.000000 0.000000 0.000000
# 2 -0.003133 0.009704 -0.005974 0.000000 0.000000 0.000000
# 3 -0.000871 -0.005974 0.037926 0.000000 0.000000 0.000000
# 4 0.000000 0.000000 0.000000 0.028883 0.000000 0.000000
# 5 0.000000 0.000000 0.000000 0.000000 0.038185 0.000000
# 6 0.000000 0.000000 0.000000 0.000000 0.000000 0.020789
#
#
# Mechanical properties :
#
#
# Convention : Reuss Voigt Hill
#
# Bulk Modulus (GPa) = 29.70515 69.44540 49.57528
# Shear Modulus (GPa) = 28.96000 39.41165 34.18583
#
# Velocity S-wave (km/s) = 3.92778 4.58206 4.26748
# Velocity P-wave (km/s) = 6.03278 8.06154 7.11979
#
# Compressibility (1/GPa) = 0.03366419
#
# Stress axis : x y z
#
# Youngs Moduli (GPa) = 166.97044 103.05107 26.36707
#
# Poissons Ratio (x) = 0.32285 0.02296
# Poissons Ratio (y) = 0.52310 0.15751
# Poissons Ratio (z) = 0.14542 0.61559
#
# Static dielectric constant tensor:
#      x y z
#    x 1.636720 0.000000 0.000000 
#    y 0.000000 1.680170 0.000000 
#    z 0.000000 0.000000 1.555850 
# 
# From -- ./inp_files/10273.got.cif
#   From: 2010.05.17/outbox.ucp.g08.bks.cvg/sg51_6_cif.got.tgz:10273.got - 2010.06.11 16:27:58.
