data_PCOD9407228
_publ_section_title
;
Structure prediction by ZEFSAII (Michael W. Deem and Ramdas Pophale) SiO2 
 PCOD9407228
Probable space group: P M M A
;
_chemical_formula_sum "Si O2"
_cell_formula_units_Z 48
_cell_length_a 8.958377
_cell_length_b 7.496130
_cell_length_c 36.561692
_cell_angle_alpha 90.000000
_cell_angle_beta 90.000000
_cell_angle_gamma 90.000000
_cell_volume 2455.233101
_symmetry_space_group_name_H-M "P M M A"
_symmetry_group_IT_number 51
_symmetry_cell_setting 'orthorhombic'
loop_
_space_group_symop_operation_xyz
x,y,z
1/2-x,-y,z
1/2+x,-y,-z
-x,y,-z
-x,-y,-z
1/2+x,y,-z
1/2-x,y,z
x,-y,z
loop_
_atom_site_type_symbol
_atom_site_label
_atom_site_fract_x
_atom_site_fract_y
_atom_site_fract_z
Si Si1 0.929729 0.213400 0.092651
Si Si2 0.571231 0.000000 0.459866
Si Si3 0.919132 0.785858 0.251598
Si Si4 0.930342 0.212016 0.173446
Si Si5 0.082551 0.713260 0.327007
Si Si6 0.071627 0.500000 0.040075
Si Si7 0.569311 0.711342 0.592642
O O1 0.750000 0.239584 0.089853
O O2 0.977517 0.277436 0.133519
O O3 0.012885 0.328193 0.062429
O O4 0.956031 0.000000 0.089466
O O5 0.500000 0.000000 0.500000
O O6 0.511156 0.829173 0.437489
O O7 0.750000 0.000000 0.461852
O O8 0.750000 0.718168 0.254412
O O9 0.986600 0.719481 0.212823
O O10 0.998965 0.749419 0.289536
O O11 0.912890 0.000000 0.247971
O O12 0.750000 0.233184 0.174865
O O13 0.960077 0.000000 0.172195
O O14 0.250000 0.785216 0.323642
O O15 0.091658 0.500000 0.330541
O O16 0.020043 0.771408 0.366387
O O17 0.250000 0.500000 0.037845
O O18 0.000000 0.500000 0.000000
O O19 0.750000 0.734867 0.591010
O O20 0.539810 0.500000 0.588086
#
# Coordination Sequence:
#
# PCOD9407228 Si02
#       7
#     8   4   8   8   8   4   8
#     4   9  18  37  65  89 112 150 195 239 290 348
#     4  12  26  42  64  94 124 152 190 240 296 358
#     4   9  17  29  48  77 110 142 183 233 278 324
#     4   7  12  27  51  77 106 142 184 229 277 332
#     4   9  19  35  52  73 106 149 191 230 277 334
#     4  12  26  42  60  86 120 152 188 238 292 352
#     4   9  20  41  65  86 115 158 201 242 291 348
#
# _framework density 19.550080000000001
#
# number of rings (size 3 to 8) (size 9 to 14) (size 15 to 20)
#    0.000    2.833    0.000    4.500    1.167    2.667 
#    1.500    2.500    0.000    3.000    0.000    0.000 
#    0.000    0.000    0.000    0.000    0.000    0.000 
#
# Total GULP energy -267505.067862 kJ/mol
# GULP energy per Si atom -5573.022247 kJ/mol
# Density = 1.950558 g / cm^3
# Si number density = 19.550080 Si / 1000 Ang^3
#
#
#
# Elastic Constant Matrix: (Units=GPa)
#
#
# Indices 1 2 3 4 5 6 
#
# 1 62.2693 37.9335 85.7083 0.0000 0.0000 0.0000
# 2 37.9335 84.5829 65.3638 0.0000 0.0000 0.0000
# 3 85.7083 65.3638 247.4952 0.0000 0.0000 0.0000
# 4 0.0000 0.0000 0.0000 41.8955 0.0000 0.0000
# 5 0.0000 0.0000 0.0000 0.0000 31.4056 0.0000
# 6 0.0000 0.0000 0.0000 0.0000 0.0000 26.2429
#
#
#
# Elastic Compliance Matrix: (Units=1/GPa)
#
#
# Indices 1 2 3 4 5 6 
#
# 1 0.034350 -0.007806 -0.009834 0.000000 0.000000 0.000000
# 2 -0.007806 0.016628 -0.001688 0.000000 0.000000 0.000000
# 3 -0.009834 -0.001688 0.007892 0.000000 0.000000 0.000000
# 4 0.000000 0.000000 0.000000 0.023869 0.000000 0.000000
# 5 0.000000 0.000000 0.000000 0.000000 0.031841 0.000000
# 6 0.000000 0.000000 0.000000 0.000000 0.000000 0.038106
#
#
# Mechanical properties :
#
#
# Convention : Reuss Voigt Hill
#
# Bulk Modulus (GPa) = 49.47082 85.81761 67.64421
# Shear Modulus (GPa) = 25.24231 33.59825 29.42028
#
# Velocity S-wave (km/s) = 3.59717 4.15007 3.88347
# Velocity P-wave (km/s) = 6.52782 8.18264 7.40163
#
# Compressibility (1/GPa) = 0.02021393
#
# Stress axis : x y z
#
# Youngs Moduli (GPa) = 29.11207 60.13903 126.71168
#
# Poissons Ratio (x) = 0.46943 1.24608
# Poissons Ratio (y) = 0.22724 0.21394
# Poissons Ratio (z) = 0.28629 0.10154
#
# Static dielectric constant tensor:
#      x y z
#    x 1.672060 0.000000 0.000000 
#    y 0.000000 1.714290 0.000000 
#    z 0.000000 0.000000 1.720010 
# 
# From -- ./inp_files/37168.got.cif
#   From: 2010.05.17/outbox.cif.g08.bks.cpg/sg51_19_cif.got.tgz:37168.got - 2010.06.03 11:52:47.
