data_PCOD9407756
_publ_section_title
;
Structure prediction by ZEFSAII (Michael W. Deem and Ramdas Pophale) SiO2 
 PCOD9407756
Probable space group: P M M A
;
_chemical_formula_sum "Si O2"
_cell_formula_units_Z 64
_cell_length_a 9.000000
_cell_length_b 21.000000
_cell_length_c 18.000000
_cell_angle_alpha 90.000000
_cell_angle_beta 90.000000
_cell_angle_gamma 90.000000
_cell_volume 3402.000000
_symmetry_space_group_name_H-M "P M M A"
_symmetry_group_IT_number 51
_symmetry_cell_setting 'orthorhombic'
loop_
_space_group_symop_operation_xyz
x,y,z
1/2-x,-y,z
1/2+x,-y,-z
-x,y,-z
-x,-y,-z
1/2+x,y,-z
1/2-x,y,z
x,-y,z
loop_
_atom_site_type_symbol
_atom_site_label
_atom_site_fract_x
_atom_site_fract_y
_atom_site_fract_z
Si Si1 0.574095 0.426214 0.271156
Si Si2 0.429429 0.375768 0.422410
Si Si3 0.919499 0.247158 0.648233
Si Si4 0.080508 0.315251 0.192193
Si Si5 0.929525 0.205408 0.922245
Si Si6 0.070668 0.073332 0.149313
Si Si7 0.924019 0.880223 0.301198
Si Si8 0.085029 0.927215 0.433803
O O1 0.750000 0.415510 0.281460
O O2 0.549180 0.500000 0.251945
O O3 0.492710 0.411357 0.349624
O O4 0.514221 0.378451 0.207561
O O5 0.500000 0.397955 0.500000
O O6 0.250000 0.380708 0.423468
O O7 0.470122 0.301076 0.409328
O O8 0.750000 0.229059 0.629952
O O9 0.913246 0.283059 0.727030
O O10 0.021070 0.186796 0.664652
O O11 0.250000 0.331861 0.170163
O O12 0.024891 0.259092 0.137856
O O13 0.750000 0.205856 0.924058
O O14 0.974923 0.132315 0.903475
O O15 0.000000 0.223233 0.000000
O O16 0.250000 0.072076 0.151059
O O17 0.010896 0.097464 0.228353
O O18 0.021423 0.000000 0.133305
O O19 0.750000 0.879588 0.286871
O O20 0.975662 0.927447 0.364947
O O21 0.250000 0.902525 0.416789
O O22 0.000000 0.891767 0.500000
O O23 0.107767 0.000000 0.456004
#
# Coordination Sequence:
#
# PCOD9407756 Si02
#       8
#     8   8   8   8   8   8   8   8
#     4  10  21  36  57  87 120 154 194 239 286 339
#     4  10  21  36  55  79 112 154 197 243 289 338
#     4   9  18  35  55  74 102 142 187 233 280 332
#     4   9  18  36  60  83 113 149 188 235 276 328
#     4  10  21  38  60  89 119 150 189 230 281 341
#     4  10  21  39  60  80 111 155 195 234 283 341
#     4  12  23  33  52  80 108 139 181 234 286 338
#     4  10  21  37  54  70  93 128 170 220 278 335
#
# _framework density 18.812463000000001
#
# number of rings (size 3 to 8) (size 9 to 14) (size 15 to 20)
#    0.000    2.000    1.250    3.375    0.000    8.000 
#    0.000    1.250    0.000    0.375    0.000    0.000 
#    0.000    0.000    0.000    0.000    0.000    0.000 
#
# Total GULP energy -356469.618309 kJ/mol
# GULP energy per Si atom -5569.837786 kJ/mol
# Density = 1.876965 g / cm^3
# Si number density = 18.812463 Si / 1000 Ang^3
#
#
#
# Elastic Constant Matrix: (Units=GPa)
#
#
# Indices 1 2 3 4 5 6 
#
# 1 23.9994 40.6037 0.2914 0.0000 0.0000 0.0000
# 2 40.6037 104.6791 12.9776 0.0000 0.0000 0.0000
# 3 0.2914 12.9776 55.2843 0.0000 0.0000 0.0000
# 4 0.0000 0.0000 0.0000 62.0845 0.0000 0.0000
# 5 0.0000 0.0000 0.0000 0.0000 17.7292 0.0000
# 6 0.0000 0.0000 0.0000 0.0000 0.0000 6.5434
#
#
#
# Elastic Compliance Matrix: (Units=1/GPa)
#
#
# Indices 1 2 3 4 5 6 
#
# 1 0.127702 -0.050933 0.011283 0.000000 0.000000 0.000000
# 2 -0.050933 0.030153 -0.006810 0.000000 0.000000 0.000000
# 3 0.011283 -0.006810 0.019627 0.000000 0.000000 0.000000
# 4 0.000000 0.000000 0.000000 0.016107 0.000000 0.000000
# 5 0.000000 0.000000 0.000000 0.000000 0.056404 0.000000
# 6 0.000000 0.000000 0.000000 0.000000 0.000000 0.152826
#
#
# Mechanical properties :
#
#
# Convention : Reuss Voigt Hill
#
# Bulk Modulus (GPa) = 11.82543 32.41203 22.11873
# Shear Modulus (GPa) = 9.54332 25.94408 17.74370
#
# Velocity S-wave (km/s) = 2.25475 3.71764 3.07447
# Velocity P-wave (km/s) = 3.61637 5.97446 4.93823
#
# Compressibility (1/GPa) = 0.08456350
#
# Stress axis : x y z
#
# Youngs Moduli (GPa) = 7.83075 33.16376 50.94915
#
# Poissons Ratio (x) = 1.68912 -0.57486
# Poissons Ratio (y) = 0.39884 0.34696
# Poissons Ratio (z) = -0.08835 0.22584
#
# Static dielectric constant tensor:
#      x y z
#    x 1.666500 0.000000 0.000000 
#    y 0.000000 1.704980 0.000000 
#    z 0.000000 0.000000 1.544720 
# 
# From -- ./inp_files/28371.got.cif
#   From: 2010.05.17/outbox.ucp.g08.bks.cvg/sg51_15_cif.got.tgz:28371.got - 2010.06.11 16:27:58.
