data_PCOD9407771
_publ_section_title
;
Structure prediction by ZEFSAII (Michael W. Deem and Ramdas Pophale) SiO2 
 PCOD9407771
Probable space group: P M M A
;
_chemical_formula_sum "Si O2"
_cell_formula_units_Z 64
_cell_length_a 15.000000
_cell_length_b 9.000000
_cell_length_c 24.000000
_cell_angle_alpha 90.000000
_cell_angle_beta 90.000000
_cell_angle_gamma 90.000000
_cell_volume 3240.000000
_symmetry_space_group_name_H-M "P M M A"
_symmetry_group_IT_number 51
_symmetry_cell_setting 'orthorhombic'
loop_
_space_group_symop_operation_xyz
x,y,z
1/2-x,-y,z
1/2+x,-y,-z
-x,y,-z
-x,-y,-z
1/2+x,y,-z
1/2-x,y,z
x,-y,z
loop_
_atom_site_type_symbol
_atom_site_label
_atom_site_fract_x
_atom_site_fract_y
_atom_site_fract_z
Si Si1 0.347306 0.321686 0.243838
Si Si2 0.149996 0.670194 0.801059
Si Si3 0.148172 0.668758 0.012030
Si Si4 0.115250 0.169396 0.126507
Si Si5 0.031549 0.179088 0.584268
Si Si6 0.972783 0.679456 0.299424
Si Si7 0.147385 0.819527 0.476983
Si Si8 0.410368 0.167630 0.906391
O O1 0.250000 0.279932 0.265416
O O2 0.351902 0.500000 0.238145
O O3 0.359741 0.253863 0.182615
O O4 0.426392 0.276158 0.284426
O O5 0.250000 0.669811 0.778790
O O6 0.122753 0.500000 0.813355
O O7 0.146991 0.756851 0.858593
O O8 0.085459 0.729367 0.753401
O O9 0.250000 0.668820 0.990767
O O10 0.119189 0.500000 0.021040
O O11 0.091342 0.745903 0.964258
O O12 0.148044 0.752144 0.070591
O O13 0.008965 0.168131 0.119069
O O14 0.146336 0.000000 0.129241
O O15 0.055517 0.249136 0.643009
O O16 0.930841 0.226552 0.566156
O O17 0.103125 0.220563 0.536599
O O18 0.031229 0.000000 0.587371
O O19 0.966507 0.500000 0.302874
O O20 0.250000 0.767350 0.469580
O O21 0.150226 0.000000 0.474979
O O22 0.381237 0.000000 0.917468
#
# Coordination Sequence:
#
# PCOD9407771 Si02
#       8
#     8   8   8   8   8   8   8   8
#     4  10  21  38  59  80 105 145 191 227 272 336
#     4  10  21  38  59  80 105 145 191 227 272 336
#     4  11  24  39  56  80 108 141 182 224 273 341
#     4  11  23  38  57  82 110 139 177 228 284 336
#     4   9  18  32  54  82 109 143 189 230 265 321
#     4  10  21  37  55  79 115 150 181 228 280 322
#     4   8  15  31  54  80 112 148 184 226 274 318
#     4  11  23  38  57  82 110 139 177 228 284 336
#
# _framework density 19.753086
#
# number of rings (size 3 to 8) (size 9 to 14) (size 15 to 20)
#    0.000    2.000    1.250    3.000    0.000    9.500 
#    0.000    1.250    0.000    0.750    0.000    0.000 
#    0.000    0.000    0.000    0.000    0.000    0.000 
#
# Total GULP energy -357110.195327 kJ/mol
# GULP energy per Si atom -5579.846802 kJ/mol
# Density = 1.970813 g / cm^3
# Si number density = 19.753086 Si / 1000 Ang^3
#
#
#
# Elastic Constant Matrix: (Units=GPa)
#
#
# Indices 1 2 3 4 5 6 
#
# 1 57.9208 11.4148 -6.2097 0.0000 0.0000 0.0000
# 2 11.4148 12.8253 5.8209 0.0000 0.0000 0.0000
# 3 -6.2097 5.8209 56.4801 0.0000 0.0000 0.0000
# 4 0.0000 0.0000 0.0000 29.1027 0.0000 0.0000
# 5 0.0000 0.0000 0.0000 0.0000 15.1919 0.0000
# 6 0.0000 0.0000 0.0000 0.0000 0.0000 23.2324
#
#
#
# Elastic Compliance Matrix: (Units=1/GPa)
#
#
# Indices 1 2 3 4 5 6 
#
# 1 0.022050 -0.021742 0.004665 0.000000 0.000000 0.000000
# 2 -0.021742 0.103236 -0.013030 0.000000 0.000000 0.000000
# 3 0.004665 -0.013030 0.019561 0.000000 0.000000 0.000000
# 4 0.000000 0.000000 0.000000 0.034361 0.000000 0.000000
# 5 0.000000 0.000000 0.000000 0.000000 0.065825 0.000000
# 6 0.000000 0.000000 0.000000 0.000000 0.000000 0.043043
#
#
# Mechanical properties :
#
#
# Convention : Reuss Voigt Hill
#
# Bulk Modulus (GPa) = 11.81583 16.58649 14.20116
# Shear Modulus (GPa) = 13.28017 21.25207 17.26612
#
# Velocity S-wave (km/s) = 2.59570 3.28363 2.95972
# Velocity P-wave (km/s) = 3.87018 4.77404 4.34567
#
# Compressibility (1/GPa) = 0.08463226
#
# Stress axis : x y z
#
# Youngs Moduli (GPa) = 45.35150 9.68658 51.12175
#
# Poissons Ratio (x) = 0.21061 -0.23849
# Poissons Ratio (y) = 0.98605 0.66612
# Poissons Ratio (z) = -0.21157 0.12622
#
# Static dielectric constant tensor:
#      x y z
#    x 1.759940 0.000000 0.000000 
#    y 0.000000 1.684160 0.000000 
#    z 0.000000 0.000000 1.626090 
# 
# From -- ./inp_files/35835.got.cif
#   From: 2010.05.17/outbox.ucp.g08.bks.cvg/sg51_18_cif.got.tgz:35835.got - 2010.06.11 16:27:58.
