data_PCOD9407557
_publ_section_title
;
Structure prediction by ZEFSAII (Michael W. Deem and Ramdas Pophale) SiO2 
 PCOD9407557
Probable space group: P M M A
;
_chemical_formula_sum "Si O2"
_cell_formula_units_Z 48
_cell_length_a 24.000000
_cell_length_b 9.000000
_cell_length_c 12.000000
_cell_angle_alpha 90.000000
_cell_angle_beta 90.000000
_cell_angle_gamma 90.000000
_cell_volume 2592.000000
_symmetry_space_group_name_H-M "P M M A"
_symmetry_group_IT_number 51
_symmetry_cell_setting 'orthorhombic'
loop_
_space_group_symop_operation_xyz
x,y,z
1/2-x,-y,z
1/2+x,-y,-z
-x,y,-z
-x,-y,-z
1/2+x,y,-z
1/2-x,y,z
x,-y,z
loop_
_atom_site_type_symbol
_atom_site_label
_atom_site_fract_x
_atom_site_fract_y
_atom_site_fract_z
Si Si1 0.312541 0.180573 0.509796
Si Si2 0.188104 0.673755 0.878399
Si Si3 0.110457 0.823453 0.713413
Si Si4 0.810982 0.166919 0.897439
Si Si5 0.609741 0.173311 0.693369
Si Si6 0.000894 0.324003 0.629227
O O1 0.250000 0.238045 0.512538
O O2 0.348730 0.229058 0.614540
O O3 0.345672 0.220477 0.399243
O O4 0.310008 0.000000 0.512697
O O5 0.250000 0.719855 0.837298
O O6 0.181127 0.500000 0.856441
O O7 0.139820 0.768099 0.823886
O O8 0.187224 0.709922 0.008631
O O9 0.051083 0.753168 0.692371
O O10 0.106474 0.000000 0.709954
O O11 0.750000 0.174260 0.840449
O O12 0.859889 0.181487 0.810585
O O13 0.813962 0.000000 0.948197
O O14 0.556433 0.274643 0.683573
O O15 0.594601 0.000000 0.671543
O O16 0.008140 0.500000 0.630830
O O17 0.000000 0.273930 0.500000
#
# Coordination Sequence:
#
# PCOD9407557 Si02
#       6
#     8   8   8   8   8   8
#     4   9  17  29  50  82 113 138 170 220 278 329
#     4  10  21  37  57  82 116 153 185 223 276 335
#     4  11  21  35  58  83 110 144 190 237 276 325
#     4   9  18  34  58  86 114 145 183 228 276 328
#     4  10  19  34  57  83 111 143 185 230 274 326
#     4  11  23  38  55  77 112 153 190 227 276 336
#
# _framework density 18.518519000000001
#
# number of rings (size 3 to 8) (size 9 to 14) (size 15 to 20)
#    0.000    2.000    1.667    2.500    0.000    5.000 
#    0.000    0.833    0.000    7.500    0.000    0.000 
#    0.000    0.000    0.000    0.000    0.000    0.000 
#
# Total GULP energy -267666.216650 kJ/mol
# GULP energy per Si atom -5576.379514 kJ/mol
# Density = 1.847637 g / cm^3
# Si number density = 18.518519 Si / 1000 Ang^3
#
#
#
# Elastic Constant Matrix: (Units=GPa)
#
#
# Indices 1 2 3 4 5 6 
#
# 1 114.0883 37.2075 31.1416 0.0000 0.0000 0.0000
# 2 37.2075 34.1435 16.4709 0.0000 0.0000 0.0000
# 3 31.1416 16.4709 37.2407 0.0000 0.0000 0.0000
# 4 0.0000 0.0000 0.0000 13.6270 0.0000 0.0000
# 5 0.0000 0.0000 0.0000 0.0000 25.8157 0.0000
# 6 0.0000 0.0000 0.0000 0.0000 0.0000 15.3089
#
#
#
# Elastic Compliance Matrix: (Units=1/GPa)
#
#
# Indices 1 2 3 4 5 6 
#
# 1 0.014793 -0.012907 -0.006662 0.000000 0.000000 0.000000
# 2 -0.012907 0.048493 -0.010655 0.000000 0.000000 0.000000
# 3 -0.006662 -0.010655 0.037135 0.000000 0.000000 0.000000
# 4 0.000000 0.000000 0.000000 0.073384 0.000000 0.000000
# 5 0.000000 0.000000 0.000000 0.000000 0.038736 0.000000
# 6 0.000000 0.000000 0.000000 0.000000 0.000000 0.065321
#
#
# Mechanical properties :
#
#
# Convention : Reuss Voigt Hill
#
# Bulk Modulus (GPa) = 25.01564 39.45693 32.23629
# Shear Modulus (GPa) = 14.21935 17.66048 15.93991
#
# Velocity S-wave (km/s) = 2.77401 3.09150 2.93705
# Velocity P-wave (km/s) = 4.87831 5.83919 5.38025
#
# Compressibility (1/GPa) = 0.03997499
#
# Stress axis : x y z
#
# Youngs Moduli (GPa) = 67.60069 20.62157 26.92847
#
# Poissons Ratio (x) = 0.26616 0.17939
# Poissons Ratio (y) = 0.87250 0.28692
# Poissons Ratio (z) = 0.45033 0.21972
#
# Static dielectric constant tensor:
#      x y z
#    x 1.620880 0.000000 0.000000 
#    y 0.000000 1.621150 0.000000 
#    z 0.000000 0.000000 1.644300 
# 
# From -- ./inp_files/18552.got.cif
#   From: 2010.05.17/outbox.ucp.g08.bks.cvg/sg51_10_cif.got.tgz:18552.got - 2010.06.11 16:27:58.
