data_PCOD9407875
_publ_section_title
;
Structure prediction by ZEFSAII (Michael W. Deem and Ramdas Pophale) SiO2 
 PCOD9407875
Probable space group: P N N A
;
_chemical_formula_sum "Si O2"
_cell_formula_units_Z 48
_cell_length_a 10.582650
_cell_length_b 6.952507
_cell_length_c 29.552824
_cell_angle_alpha 90.000000
_cell_angle_beta 90.000000
_cell_angle_gamma 90.000000
_cell_volume 2174.377048
_symmetry_space_group_name_H-M "P N N A"
_symmetry_group_IT_number 52
_symmetry_cell_setting 'orthorhombic'
loop_
_space_group_symop_operation_xyz
x,y,z
1/2-x,-y,z
x,1/2-y,1/2-z
1/2-x,1/2+y,1/2-z
-x,-y,-z
1/2+x,y,-z
-x,1/2+y,1/2+z
1/2+x,1/2-y,1/2+z
loop_
_atom_site_type_symbol
_atom_site_label
_atom_site_fract_x
_atom_site_fract_y
_atom_site_fract_z
Si Si1 0.008798 0.225286 0.156189
Si Si2 0.610046 0.085456 0.939528
Si Si3 0.261220 0.735530 0.627026
Si Si4 0.030025 0.307398 0.697452
Si Si5 0.741795 0.773572 0.803622
Si Si6 0.637565 0.339738 0.464660
O O1 0.874404 0.313111 0.142364
O O2 0.066521 0.170403 0.107685
O O3 0.128602 0.321312 0.180532
O O4 0.976132 0.038334 0.187864
O O5 0.750000 0.000000 0.933296
O O6 0.497290 0.933675 0.950881
O O7 0.618088 0.226183 0.983436
O O8 0.250000 0.500000 0.624171
O O9 0.358257 0.769894 0.667040
O O10 0.314497 0.788382 0.577340
O O11 0.044246 0.250000 0.750000
O O12 0.897137 0.226607 0.678890
O O13 0.735997 0.750000 0.750000
O O14 0.750000 0.000000 0.814159
O O15 0.750000 0.500000 0.469404
#
# Coordination Sequence:
#
# PCOD9407875 Si02
#       6
#     8   8   8   8   8   8
#     4  10  17  27  40  56  81 109 140 176 209 249
#     4  10  16  21  36  54  75 106 141 166 205 264
#     4   9  15  26  36  50  77 107 138 173 206 248
#     4   9  16  26  39  54  73 103 139 172 208 248
#     4   9  18  30  44  62  83 111 146 181 218 254
#     4   9  15  24  33  51  77 106 140 165 207 255
#
# _framework density 22.075285999999998
#
# number of rings (size 3 to 8) (size 9 to 14) (size 15 to 20)
#    0.000    2.667    5.000    1.500    0.000    0.667 
#    0.000    0.000    0.000    0.000    0.000    0.000 
#    0.000    0.000    0.000   28.500    1.333   42.167 
#
# Total GULP energy -267237.412264 kJ/mol
# GULP energy per Si atom -5567.446089 kJ/mol
# Density = 2.202504 g / cm^3
# Si number density = 22.075286 Si / 1000 Ang^3
#
#
#
# Elastic Constant Matrix: (Units=GPa)
#
#
# Indices 1 2 3 4 5 6 
#
# 1 211.0947 -4.2565 60.4275 0.0000 0.0000 0.0000
# 2 -4.2565 56.2338 1.8653 0.0000 0.0000 0.0000
# 3 60.4275 1.8653 125.5516 0.0000 0.0000 0.0000
# 4 0.0000 0.0000 0.0000 6.1233 0.0000 0.0000
# 5 0.0000 0.0000 0.0000 0.0000 61.3510 0.0000
# 6 0.0000 0.0000 0.0000 0.0000 0.0000 5.7586
#
#
#
# Elastic Compliance Matrix: (Units=1/GPa)
#
#
# Indices 1 2 3 4 5 6 
#
# 1 0.005508 0.000505 -0.002659 0.000000 0.000000 0.000000
# 2 0.000505 0.017838 -0.000508 0.000000 0.000000 0.000000
# 3 -0.002659 -0.000508 0.009252 0.000000 0.000000 0.000000
# 4 0.000000 0.000000 0.000000 0.163310 0.000000 0.000000
# 5 0.000000 0.000000 0.000000 0.000000 0.016300 0.000000
# 6 0.000000 0.000000 0.000000 0.000000 0.000000 0.173653
#
#
# Mechanical properties :
#
#
# Convention : Reuss Voigt Hill
#
# Bulk Modulus (GPa) = 36.66349 56.55030 46.60690
# Shear Modulus (GPa) = 12.49135 36.96951 24.73043
#
# Velocity S-wave (km/s) = 2.38135 4.09675 3.35068
# Velocity P-wave (km/s) = 4.91991 6.93184 6.01066
#
# Compressibility (1/GPa) = 0.02727509
#
# Stress axis : x y z
#
# Youngs Moduli (GPa) = 181.53859 56.06011 108.08445
#
# Poissons Ratio (x) = -0.02832 0.28737
# Poissons Ratio (y) = -0.09170 0.05492
# Poissons Ratio (z) = 0.48266 0.02849
#
# Static dielectric constant tensor:
#      x y z
#    x 1.866870 0.000000 0.000000 
#    y 0.000000 1.855220 0.000000 
#    z 0.000000 0.000000 1.701430 
# 
# From -- ./inp_files/40259.got.cif
#   From: 2010.05.17/outbox.cif.g08.bks.cpg/sg52_21_cif.got.tgz:40259.got - 2010.06.03 12:15:38.
