data_PCOD9407655
_publ_section_title
;
Structure prediction by ZEFSAII (Michael W. Deem and Ramdas Pophale) SiO2 
 PCOD9407655
Probable space group: P M M A
;
_chemical_formula_sum "Si O2"
_cell_formula_units_Z 64
_cell_length_a 9.000000
_cell_length_b 24.000000
_cell_length_c 15.000000
_cell_angle_alpha 90.000000
_cell_angle_beta 90.000000
_cell_angle_gamma 90.000000
_cell_volume 3240.000000
_symmetry_space_group_name_H-M "P M M A"
_symmetry_group_IT_number 51
_symmetry_cell_setting 'orthorhombic'
loop_
_space_group_symop_operation_xyz
x,y,z
1/2-x,-y,z
1/2+x,-y,-z
-x,y,-z
-x,-y,-z
1/2+x,y,-z
1/2-x,y,z
x,-y,z
loop_
_atom_site_type_symbol
_atom_site_label
_atom_site_fract_x
_atom_site_fract_y
_atom_site_fract_z
Si Si1 0.571067 0.661023 0.096432
Si Si2 0.079586 0.409090 0.409505
Si Si3 0.078786 0.274014 0.409075
Si Si4 0.426214 0.124333 0.232430
Si Si5 0.927069 0.238363 0.225946
Si Si6 0.572368 0.562092 0.224521
Si Si7 0.571699 0.936217 0.594113
Si Si8 0.416255 0.934194 0.915081
O O1 0.750000 0.659010 0.088465
O O2 0.531111 0.715002 0.154305
O O3 0.520983 0.608066 0.154535
O O4 0.500000 0.661775 0.000000
O O5 0.250000 0.426941 0.409888
O O6 0.075898 0.341493 0.408256
O O7 0.000000 0.427561 0.500000
O O8 0.999483 0.429334 0.320786
O O9 0.250000 0.255601 0.406928
O O10 0.000000 0.255369 0.500000
O O11 0.994431 0.253742 0.321803
O O12 0.250000 0.130732 0.230203
O O13 0.506156 0.179439 0.199670
O O14 0.474132 0.107647 0.331559
O O15 0.480458 0.075414 0.169107
O O16 0.750000 0.236532 0.232410
O O17 0.750000 0.568422 0.235067
O O18 0.540712 0.500000 0.191950
O O19 0.500000 0.923595 0.500000
O O20 0.750000 0.934945 0.587346
O O21 0.529718 0.000000 0.618906
O O22 0.250000 0.911399 0.902886
O O23 0.401811 0.000000 0.929518
O O24 0.500000 0.909065 0.000000
#
# Coordination Sequence:
#
# PCOD9407655 Si02
#       8
#     8   8   8   8   8   8   8   8
#     4  10  23  42  64  87 113 149 192 241 299 357
#     4  10  20  34  57  87 120 156 194 235 283 342
#     4  10  20  35  58  86 114 150 192 236 285 342
#     4  11  23  38  58  86 121 157 197 246 297 353
#     4  11  23  40  60  84 117 155 197 245 295 352
#     4  10  21  39  62  88 120 155 193 240 294 353
#     4   9  19  36  58  84 116 156 199 242 290 342
#     4  10  21  38  61  88 117 151 192 239 295 356
#
# _framework density 19.753086
#
# number of rings (size 3 to 8) (size 9 to 14) (size 15 to 20)
#    0.000    1.875    1.250    2.250    0.000    6.500 
#    0.000    3.750    0.000    0.000    0.000    0.000 
#    0.000    0.000    0.000    0.000    0.000    0.000 
#
# Total GULP energy -357340.358690 kJ/mol
# GULP energy per Si atom -5583.443105 kJ/mol
# Density = 1.970813 g / cm^3
# Si number density = 19.753086 Si / 1000 Ang^3
#
#
#
# Elastic Constant Matrix: (Units=GPa)
#
#
# Indices 1 2 3 4 5 6 
#
# 1 37.2415 42.4883 40.2063 0.0000 0.0000 0.0000
# 2 42.4883 43.1890 40.8697 0.0000 0.0000 0.0000
# 3 40.2063 40.8697 116.2976 0.0000 0.0000 0.0000
# 4 0.0000 0.0000 0.0000 -32.8189 0.0000 0.0000
# 5 0.0000 0.0000 0.0000 0.0000 34.0082 0.0000
# 6 0.0000 0.0000 0.0000 0.0000 0.0000 20.9793
#
#
#
# Elastic Compliance Matrix: (Units=1/GPa)
#
#
# Indices 1 2 3 4 5 6 
#
# 1 -0.219423 0.215864 -0.000001 0.000000 0.000000 0.000000
# 2 0.215864 -0.177672 -0.012190 0.000000 0.000000 0.000000
# 3 -0.000001 -0.012190 0.012883 0.000000 0.000000 0.000000
# 4 0.000000 0.000000 0.000000 -0.030470 0.000000 0.000000
# 5 0.000000 0.000000 0.000000 0.000000 0.029405 0.000000
# 6 0.000000 0.000000 0.000000 0.000000 0.000000 0.047666
#
#
# Mechanical properties :
#
#
# Convention : Reuss Voigt Hill
#
# Bulk Modulus (GPa) = 43.22746 49.31741 46.27243
# Shear Modulus (GPa) = -6.78198 9.31131 1.26466
#
# Velocity S-wave (km/s) = -1.85495 2.17350 0.80102
# Velocity P-wave (km/s) = 4.16457 5.59642 4.93273
#
# Compressibility (1/GPa) = 0.02313344
#
# Stress axis : x y z
#
# Youngs Moduli (GPa) = -4.55740 -5.62834 77.62263
#
# Poissons Ratio (x) = 1.21496 0.00006
# Poissons Ratio (y) = 0.98378 0.94624
# Poissons Ratio (z) = 0.00000 -0.06861
#
# Static dielectric constant tensor:
#      x y z
#    x 1.673760 0.000000 0.000000 
#    y 0.000000 1.743480 0.000000 
#    z 0.000000 0.000000 1.637970 
# 
# From -- ./inp_files/22268.got.cif
#   From: 2010.05.17/outbox.ucp.g08.bks.cvg/sg51_12_cif.got.tgz:22268.got - 2010.06.11 16:27:58.
