data_PCOD9407466
_publ_section_title
;
Structure prediction by ZEFSAII (Michael W. Deem and Ramdas Pophale) SiO2 
 PCOD9407466
Probable space group: P M M A
;
_chemical_formula_sum "Si O2"
_cell_formula_units_Z 64
_cell_length_a 30.000000
_cell_length_b 9.000000
_cell_length_c 15.000000
_cell_angle_alpha 90.000000
_cell_angle_beta 90.000000
_cell_angle_gamma 90.000000
_cell_volume 4050.000000
_symmetry_space_group_name_H-M "P M M A"
_symmetry_group_IT_number 51
_symmetry_cell_setting 'orthorhombic'
loop_
_space_group_symop_operation_xyz
x,y,z
1/2-x,-y,z
1/2+x,-y,-z
-x,y,-z
-x,-y,-z
1/2+x,y,-z
1/2-x,y,z
x,-y,z
loop_
_atom_site_type_symbol
_atom_site_label
_atom_site_fract_x
_atom_site_fract_y
_atom_site_fract_z
Si Si1 0.448863 0.320739 0.478394
Si Si2 0.107949 0.677736 0.651127
Si Si3 0.437448 0.675794 0.170701
Si Si4 0.391138 0.822183 0.328016
Si Si5 0.541306 0.322355 0.189162
Si Si6 0.200091 0.821208 0.623577
Si Si7 0.446291 0.167836 0.990757
Si Si8 0.201076 0.180260 0.413765
O O1 0.500000 0.279886 0.500000
O O2 0.448023 0.500000 0.468219
O O3 0.415112 0.278482 0.557903
O O4 0.429339 0.244538 0.391328
O O5 0.114100 0.500000 0.649717
O O6 0.070917 0.712157 0.725297
O O7 0.155898 0.752006 0.666205
O O8 0.432578 0.500000 0.182543
O O9 0.403097 0.764276 0.230978
O O10 0.488776 0.715544 0.197341
O O11 0.430907 0.724580 0.069052
O O12 0.342674 0.768627 0.361832
O O13 0.392098 0.000000 0.332344
O O14 0.457232 0.500000 0.826832
O O15 0.561641 0.236159 0.105661
O O16 0.250000 0.775596 0.654822
O O17 0.197373 0.781542 0.518335
O O18 0.197940 0.000000 0.630209
O O19 0.429276 0.000000 0.000528
O O20 0.500000 0.162077 0.000000
O O21 0.250000 0.231291 0.381769
O O22 0.201197 0.000000 0.409554
#
# Coordination Sequence:
#
# PCOD9407466 Si02
#       8
#     8   8   8   8   8   8   8   8
#     4  10  20  33  45  60  91 132 164 188 222 273
#     4  10  19  30  46  68  93 122 159 197 229 271
#     4  10  19  32  49  67  95 131 160 187 227 282
#     4  11  20  30  47  70  93 120 158 200 235 272
#     4   9  18  32  48  67  93 129 162 187 228 282
#     4   9  17  31  49  66  88 120 156 194 239 286
#     4   9  17  30  48  71  95 118 153 201 238 265
#     4   8  15  29  47  65  88 119 153 192 239 284
#
# _framework density 15.802469
#
# number of rings (size 3 to 8) (size 9 to 14) (size 15 to 20)
#    0.000    2.500    1.250    2.625    0.000    5.000 
#    0.000    1.250    0.000    1.500    0.000    0.875 
#    0.000    5.000    0.000    0.000    0.000    0.000 
#
# Total GULP energy -356557.531908 kJ/mol
# GULP energy per Si atom -5571.211436 kJ/mol
# Density = 1.576650 g / cm^3
# Si number density = 15.802469 Si / 1000 Ang^3
#
#
#
# Elastic Constant Matrix: (Units=GPa)
#
#
# Indices 1 2 3 4 5 6 
#
# 1 56.1267 11.8519 -4.1258 0.0000 0.0000 0.0000
# 2 11.8519 9.7487 5.3543 0.0000 0.0000 0.0000
# 3 -4.1258 5.3543 30.9298 0.0000 0.0000 0.0000
# 4 0.0000 0.0000 0.0000 22.6353 0.0000 0.0000
# 5 0.0000 0.0000 0.0000 0.0000 6.8220 0.0000
# 6 0.0000 0.0000 0.0000 0.0000 0.0000 19.1245
#
#
#
# Elastic Compliance Matrix: (Units=1/GPa)
#
#
# Indices 1 2 3 4 5 6 
#
# 1 0.026542 -0.037807 0.010085 0.000000 0.000000 0.000000
# 2 -0.037807 0.167208 -0.033989 0.000000 0.000000 0.000000
# 3 0.010085 -0.033989 0.039560 0.000000 0.000000 0.000000
# 4 0.000000 0.000000 0.000000 0.044179 0.000000 0.000000
# 5 0.000000 0.000000 0.000000 0.000000 0.146584 0.000000
# 6 0.000000 0.000000 0.000000 0.000000 0.000000 0.052289
#
#
# Mechanical properties :
#
#
# Convention : Reuss Voigt Hill
#
# Bulk Modulus (GPa) = 9.10003 13.66288 11.38145
# Shear Modulus (GPa) = 7.85655 15.29803 11.57729
#
# Velocity S-wave (km/s) = 2.23215 3.11477 2.70964
# Velocity P-wave (km/s) = 3.52342 4.64764 4.12402
#
# Compressibility (1/GPa) = 0.10988976
#
# Stress axis : x y z
#
# Youngs Moduli (GPa) = 37.67669 5.98057 25.27783
#
# Poissons Ratio (x) = 0.22611 -0.25493
# Poissons Ratio (y) = 1.42443 0.85916
# Poissons Ratio (z) = -0.37998 0.20327
#
# Static dielectric constant tensor:
#      x y z
#    x 1.522690 0.000000 0.000000 
#    y 0.000000 1.529040 0.000000 
#    z 0.000000 0.000000 1.524030 
# 
# From -- ./inp_files/26716.got.cif
#   From: 2010.05.17/outbox.ucp.g08.bks.cvg/sg51_14_cif.got.tgz:26716.got - 2010.06.11 16:27:58.
