data_PCOD9407878
_publ_section_title
;
Structure prediction by ZEFSAII (Michael W. Deem and Ramdas Pophale) SiO2 
 PCOD9407878
Probable space group: P N N A
;
_chemical_formula_sum "Si O2"
_cell_formula_units_Z 48
_cell_length_a 9.970673
_cell_length_b 7.499185
_cell_length_c 27.269566
_cell_angle_alpha 90.000000
_cell_angle_beta 90.000000
_cell_angle_gamma 90.000000
_cell_volume 2038.997846
_symmetry_space_group_name_H-M "P N N A"
_symmetry_group_IT_number 52
_symmetry_cell_setting 'orthorhombic'
loop_
_space_group_symop_operation_xyz
x,y,z
1/2-x,-y,z
x,1/2-y,1/2-z
1/2-x,1/2+y,1/2-z
-x,-y,-z
1/2+x,y,-z
-x,1/2+y,1/2+z
1/2+x,1/2-y,1/2+z
loop_
_atom_site_type_symbol
_atom_site_label
_atom_site_fract_x
_atom_site_fract_y
_atom_site_fract_z
Si Si1 0.329107 0.238245 0.939236
Si Si2 0.442446 0.852792 0.380027
Si Si3 0.056414 0.153005 0.914514
Si Si4 0.587867 0.515992 0.674205
Si Si5 0.217334 0.713087 0.451877
Si Si6 0.404938 0.948983 0.275424
O O1 0.439707 0.373096 0.919355
O O2 0.200552 0.235127 0.904253
O O3 0.403188 0.043272 0.937097
O O4 0.258857 0.264208 0.991811
O O5 0.461947 0.666948 0.350414
O O6 0.307091 0.818659 0.412116
O O7 0.449974 0.973490 0.331423
O O8 0.943231 0.237495 0.948866
O O9 0.970033 0.148844 0.865105
O O10 0.750000 0.500000 0.674582
O O11 0.538490 0.555725 0.728887
O O12 0.250000 0.500000 0.445369
O O13 0.410515 0.750000 0.250000
O O14 0.250000 0.000000 0.279385
#
# Coordination Sequence:
#
# PCOD9407878 Si02
#       6
#     8   8   8   8   8   8
#     4  10  19  24  39  71 107 144 167 205 265 322
#     4  10  18  29  44  72 102 132 170 215 266 310
#     4  10  16  24  40  68 103 138 165 208 264 314
#     4   9  14  27  45  72  96 126 166 220 265 305
#     4  12  16  26  43  69 110 138 175 218 260 305
#     4   9  19  33  56  83 104 131 177 236 276 312
#
# _framework density 23.540976000000001
#
# number of rings (size 3 to 8) (size 9 to 14) (size 15 to 20)
#    0.000    2.000    6.667    1.500    0.000    0.000 
#    0.000    0.000    0.000    1.000   73.667    0.000 
#    0.000    0.000    0.000    0.000    0.000    0.000 
#
# Total GULP energy -267254.257515 kJ/mol
# GULP energy per Si atom -5567.797032 kJ/mol
# Density = 2.348740 g / cm^3
# Si number density = 23.540976 Si / 1000 Ang^3
#
#
#
# Elastic Constant Matrix: (Units=GPa)
#
#
# Indices 1 2 3 4 5 6 
#
# 1 104.2289 -9.7374 17.3211 0.0000 0.0000 0.0000
# 2 -9.7374 51.5644 5.3765 0.0000 0.0000 0.0000
# 3 17.3211 5.3765 157.6577 0.0000 0.0000 0.0000
# 4 0.0000 0.0000 0.0000 12.4826 0.0000 0.0000
# 5 0.0000 0.0000 0.0000 0.0000 -54.9817 0.0000
# 6 0.0000 0.0000 0.0000 0.0000 0.0000 9.0094
#
#
#
# Elastic Compliance Matrix: (Units=1/GPa)
#
#
# Indices 1 2 3 4 5 6 
#
# 1 0.009975 0.002005 -0.001164 0.000000 0.000000 0.000000
# 2 0.002005 0.019865 -0.000898 0.000000 0.000000 0.000000
# 3 -0.001164 -0.000898 0.006501 0.000000 0.000000 0.000000
# 4 0.000000 0.000000 0.000000 0.080111 0.000000 0.000000
# 5 0.000000 0.000000 0.000000 0.000000 -0.018188 0.000000
# 6 0.000000 0.000000 0.000000 0.000000 0.000000 0.110995
#
#
# Mechanical properties :
#
#
# Convention : Reuss Voigt Hill
#
# Bulk Modulus (GPa) = 27.60292 37.70792 32.65542
# Shear Modulus (GPa) = 22.57841 13.33478 17.95660
#
# Velocity S-wave (km/s) = 3.10031 2.38260 2.76484
# Velocity P-wave (km/s) = 4.95649 4.86023 4.90860
#
# Compressibility (1/GPa) = 0.03622806
#
# Stress axis : x y z
#
# Youngs Moduli (GPa) = 100.24986 50.33857 153.81334
#
# Poissons Ratio (x) = -0.10093 0.17908
# Poissons Ratio (y) = -0.20101 0.13809
# Poissons Ratio (z) = 0.11672 0.04519
#
# Static dielectric constant tensor:
#      x y z
#    x 1.781780 0.000000 0.000000 
#    y 0.000000 2.171040 0.000000 
#    z 0.000000 0.000000 2.034590 
# 
# From -- ./inp_files/42227.got.cif
#   From: 2010.05.17/outbox.cif.g08.bks.cpg/sg52_22_cif.got.tgz:42227.got - 2010.06.03 12:15:38.
