data_PCOD9407417
_publ_section_title
;
Structure prediction by ZEFSAII (Michael W. Deem and Ramdas Pophale) SiO2 
 PCOD9407417
Probable space group: P M M A
;
_chemical_formula_sum "Si O2"
_cell_formula_units_Z 64
_cell_length_a 24.000000
_cell_length_b 9.000000
_cell_length_c 18.000000
_cell_angle_alpha 90.000000
_cell_angle_beta 90.000000
_cell_angle_gamma 90.000000
_cell_volume 3888.000000
_symmetry_space_group_name_H-M "P M M A"
_symmetry_group_IT_number 51
_symmetry_cell_setting 'orthorhombic'
loop_
_space_group_symop_operation_xyz
x,y,z
1/2-x,-y,z
1/2+x,-y,-z
-x,y,-z
-x,-y,-z
1/2+x,y,-z
1/2-x,y,z
x,-y,z
loop_
_atom_site_type_symbol
_atom_site_label
_atom_site_fract_x
_atom_site_fract_y
_atom_site_fract_z
Si Si1 0.390311 0.821674 0.584640
Si Si2 0.184662 0.321369 0.711985
Si Si3 0.496318 0.821750 0.914312
Si Si4 0.314234 0.821764 0.445155
Si Si5 0.075508 0.179235 0.223957
Si Si6 0.985056 0.671788 0.326029
Si Si7 0.314596 0.321793 0.282929
Si Si8 0.594132 0.669776 0.179923
O O1 0.346430 0.766377 0.646815
O O2 0.361024 0.781672 0.506194
O O3 0.449359 0.747120 0.607682
O O4 0.396252 0.000000 0.587696
O O5 0.250000 0.291247 0.712439
O O6 0.176275 0.500000 0.700933
O O7 0.154440 0.283316 0.789819
O O8 0.544011 0.776041 0.853565
O O9 0.438068 0.769138 0.878868
O O10 0.498264 0.000000 0.915856
O O11 0.500000 0.768539 0.000000
O O12 0.250000 0.791068 0.471079
O O13 0.321978 0.738528 0.367149
O O14 0.317794 0.000000 0.433098
O O15 0.137237 0.246409 0.233459
O O16 0.038183 0.240615 0.293110
O O17 0.076996 0.000000 0.227068
O O18 0.998778 0.500000 0.343257
O O19 0.943047 0.671402 0.255249
O O20 0.250000 0.286891 0.261747
O O21 0.321012 0.500000 0.281578
O O22 0.596285 0.500000 0.152982
#
# Coordination Sequence:
#
# PCOD9407417 Si02
#       8
#     8   8   8   8   8   8   8   8
#     4  10  18  28  44  68  97 127 164 209 251 291
#     4   9  17  28  42  62  91 128 166 200 235 279
#     4   9  18  32  51  76 101 122 147 183 229 281
#     4   9  18  32  48  67  94 128 166 210 256 297
#     4  10  19  33  55  78 100 128 159 195 240 289
#     4   9  17  30  47  68  97 130 162 198 240 287
#     4  10  21  36  54  75  98 126 162 204 246 289
#     4   8  15  27  43  65  92 123 157 190 225 268
#
# _framework density 16.460905
#
# number of rings (size 3 to 8) (size 9 to 14) (size 15 to 20)
#    0.000    2.750    0.000    2.625    0.000    6.250 
#    0.000    1.875    0.000    4.500    0.000    3.500 
#    0.000    0.000    0.000    0.000    0.000    0.000 
#
# Total GULP energy -356529.067988 kJ/mol
# GULP energy per Si atom -5570.766687 kJ/mol
# Density = 1.642344 g / cm^3
# Si number density = 16.460905 Si / 1000 Ang^3
#
#
#
# Elastic Constant Matrix: (Units=GPa)
#
#
# Indices 1 2 3 4 5 6 
#
# 1 96.6170 34.9815 34.4093 0.0000 0.0000 0.0000
# 2 34.9815 50.2707 25.7775 0.0000 0.0000 0.0000
# 3 34.4093 25.7775 66.7415 0.0000 0.0000 0.0000
# 4 0.0000 0.0000 0.0000 18.4410 0.0000 0.0000
# 5 0.0000 0.0000 0.0000 0.0000 23.0038 0.0000
# 6 0.0000 0.0000 0.0000 0.0000 0.0000 28.6902
#
#
#
# Elastic Compliance Matrix: (Units=1/GPa)
#
#
# Indices 1 2 3 4 5 6 
#
# 1 0.014880 -0.008006 -0.004579 0.000000 0.000000 0.000000
# 2 -0.008006 0.029113 -0.007116 0.000000 0.000000 0.000000
# 3 -0.004579 -0.007116 0.020093 0.000000 0.000000 0.000000
# 4 0.000000 0.000000 0.000000 0.054227 0.000000 0.000000
# 5 0.000000 0.000000 0.000000 0.000000 0.043471 0.000000
# 6 0.000000 0.000000 0.000000 0.000000 0.000000 0.034855
#
#
# Mechanical properties :
#
#
# Convention : Reuss Voigt Hill
#
# Bulk Modulus (GPa) = 40.51647 44.88511 42.70079
# Shear Modulus (GPa) = 20.46924 21.92438 21.19681
#
# Velocity S-wave (km/s) = 3.53016 3.65349 3.59236
# Velocity P-wave (km/s) = 6.42521 6.71746 6.57295
#
# Compressibility (1/GPa) = 0.02468132
#
# Stress axis : x y z
#
# Youngs Moduli (GPa) = 67.20553 34.34934 49.76953
#
# Poissons Ratio (x) = 0.27501 0.22790
# Poissons Ratio (y) = 0.53806 0.35418
# Poissons Ratio (z) = 0.30775 0.24445
#
# Static dielectric constant tensor:
#      x y z
#    x 1.575600 0.000000 0.000000 
#    y 0.000000 1.557150 0.000000 
#    z 0.000000 0.000000 1.544540 
# 
# From -- ./inp_files/30932.got.cif
#   From: 2010.05.17/outbox.ucp.g08.bks.cvg/sg51_16_cif.got.tgz:30932.got - 2010.06.11 16:27:58.
