data_PCOD9407454
_publ_section_title
;
Structure prediction by ZEFSAII (Michael W. Deem and Ramdas Pophale) SiO2 
 PCOD9407454
Probable space group: P M M A
;
_chemical_formula_sum "Si O2"
_cell_formula_units_Z 64
_cell_length_a 30.000000
_cell_length_b 9.000000
_cell_length_c 12.000000
_cell_angle_alpha 90.000000
_cell_angle_beta 90.000000
_cell_angle_gamma 90.000000
_cell_volume 3240.000000
_symmetry_space_group_name_H-M "P M M A"
_symmetry_group_IT_number 51
_symmetry_cell_setting 'orthorhombic'
loop_
_space_group_symop_operation_xyz
x,y,z
1/2-x,-y,z
1/2+x,-y,-z
-x,y,-z
-x,-y,-z
1/2+x,y,-z
1/2-x,y,z
x,-y,z
loop_
_atom_site_type_symbol
_atom_site_label
_atom_site_fract_x
_atom_site_fract_y
_atom_site_fract_z
Si Si1 0.579804 0.175407 0.793840
Si Si2 0.450108 0.678667 0.985691
Si Si3 0.299360 0.319635 0.976546
Si Si4 0.375442 0.826055 0.576421
Si Si5 0.541611 0.818881 0.571144
Si Si6 0.200170 0.665037 0.463001
Si Si7 0.121105 0.679143 0.814689
Si Si8 0.168741 0.327065 0.222606
O O1 0.575958 0.262767 0.908010
O O2 0.544817 0.226945 0.699816
O O3 0.628297 0.218166 0.749404
O O4 0.575359 0.000000 0.811552
O O5 0.450502 0.500000 0.987675
O O6 0.500000 0.735183 0.000000
O O7 0.424619 0.725788 0.875035
O O8 0.250000 0.266668 0.945819
O O9 0.299042 0.500000 0.971985
O O10 0.309951 0.282783 0.105000
O O11 0.338101 0.269832 0.893410
O O12 0.414526 0.771956 0.494983
O O13 0.329585 0.790272 0.516121
O O14 0.376200 0.743601 0.693013
O O15 0.381903 0.000000 0.594760
O O16 0.500000 0.766270 0.500000
O O17 0.540899 0.000000 0.573418
O O18 0.250000 0.671504 0.506266
O O19 0.181370 0.500000 0.489621
O O20 0.200165 0.676436 0.329442
O O21 0.122356 0.500000 0.811001
O O22 0.153347 0.500000 0.211010
#
# Coordination Sequence:
#
# PCOD9407454 Si02
#       8
#     8   8   8   8   8   8   8   8
#     4  11  21  35  60  88 116 148 189 234 285 343
#     4  10  22  40  60  84 117 152 188 235 287 337
#     4   9  17  32  57  84 108 140 182 227 277 331
#     4  11  23  39  59  82 114 153 192 239 290 339
#     4   9  20  38  57  80 113 152 190 232 284 339
#     4  10  21  37  60  88 116 150 193 238 284 344
#     4  10  21  38  57  81 113 149 188 232 282 336
#     4  10  18  34  59  86 117 146 183 231 284 337
#
# _framework density 19.753086
#
# number of rings (size 3 to 8) (size 9 to 14) (size 15 to 20)
#    0.000    2.000    2.500    1.125    1.750    3.000 
#    0.000    1.250    0.000    4.875    0.000    0.000 
#    0.000    0.000    0.000    0.000    0.000    0.000 
#
# Total GULP energy -356819.171943 kJ/mol
# GULP energy per Si atom -5575.299562 kJ/mol
# Density = 1.970813 g / cm^3
# Si number density = 19.753086 Si / 1000 Ang^3
#
#
#
# Elastic Constant Matrix: (Units=GPa)
#
#
# Indices 1 2 3 4 5 6 
#
# 1 56.2856 1.9080 5.9061 0.0000 0.0000 0.0000
# 2 1.9080 -17.7012 4.2927 0.0000 0.0000 0.0000
# 3 5.9061 4.2927 80.7055 0.0000 0.0000 0.0000
# 4 0.0000 0.0000 0.0000 -93.3853 0.0000 0.0000
# 5 0.0000 0.0000 0.0000 0.0000 16.7148 0.0000
# 6 0.0000 0.0000 0.0000 0.0000 0.0000 14.6265
#
#
#
# Elastic Compliance Matrix: (Units=1/GPa)
#
#
# Indices 1 2 3 4 5 6 
#
# 1 0.017859 0.001588 -0.001391 0.000000 0.000000 0.000000
# 2 0.001588 -0.055633 0.002843 0.000000 0.000000 0.000000
# 3 -0.001391 0.002843 0.012341 0.000000 0.000000 0.000000
# 4 0.000000 0.000000 0.000000 -0.010708 0.000000 0.000000
# 5 0.000000 0.000000 0.000000 0.000000 0.059827 0.000000
# 6 0.000000 0.000000 0.000000 0.000000 0.000000 0.068369
#
#
# Mechanical properties :
#
#
# Convention : Reuss Voigt Hill
#
# Bulk Modulus (GPa) = -51.66710 15.94484 -17.86113
# Shear Modulus (GPa) = 62.87314 -5.26325 28.80495
#
# Velocity S-wave (km/s) = 5.64789 -1.63411 3.82285
# Velocity P-wave (km/s) = 4.03959 2.12819 3.22858
#
# Compressibility (1/GPa) = -0.01935468
#
# Stress axis : x y z
#
# Youngs Moduli (GPa) = 55.99505 -17.97496 81.02853
#
# Poissons Ratio (x) = 0.02854 0.11274
# Poissons Ratio (y) = -0.08889 -0.23036
# Poissons Ratio (z) = 0.07791 0.05110
#
# Static dielectric constant tensor:
#      x y z
#    x 1.773120 0.000000 0.000000 
#    y 0.000000 1.664960 0.000000 
#    z 0.000000 0.000000 1.689790 
# 
# From -- ./inp_files/19491.got.cif
#   From: 2010.05.17/outbox.ucp.g08.bks.cvg/sg51_10_cif.got.tgz:19491.got - 2010.06.11 16:27:58.
