data_PCOD9407078
_publ_section_title
;
Structure prediction by ZEFSAII (Michael W. Deem and Ramdas Pophale) SiO2 
 PCOD9407078
Probable space group: P M M A
;
_chemical_formula_sum "Si O2"
_cell_formula_units_Z 40
_cell_length_a 8.037420
_cell_length_b 14.143563
_cell_length_c 19.324304
_cell_angle_alpha 90.000000
_cell_angle_beta 90.000000
_cell_angle_gamma 90.000000
_cell_volume 2196.743517
_symmetry_space_group_name_H-M "P M M A"
_symmetry_group_IT_number 51
_symmetry_cell_setting 'orthorhombic'
loop_
_space_group_symop_operation_xyz
x,y,z
1/2-x,-y,z
1/2+x,-y,-z
-x,y,-z
-x,-y,-z
1/2+x,y,-z
1/2-x,y,z
x,-y,z
loop_
_atom_site_type_symbol
_atom_site_label
_atom_site_fract_x
_atom_site_fract_y
_atom_site_fract_z
Si Si1 0.944718 0.200540 0.922820
Si Si2 0.546579 0.705628 0.284425
Si Si3 0.450548 0.608801 0.575717
Si Si4 0.552865 0.104722 0.215815
Si Si5 0.048626 0.606387 0.857589
O O1 0.750000 0.184607 0.915698
O O2 0.031918 0.139798 0.863009
O O3 0.983324 0.310637 0.906656
O O4 0.000000 0.176760 0.000000
O O5 0.750000 0.707420 0.285468
O O6 0.489260 0.668087 0.358468
O O7 0.486118 0.810080 0.263317
O O8 0.501623 0.636319 0.220865
O O9 0.500000 0.645171 0.500000
O O10 0.250000 0.606890 0.578798
O O11 0.510078 0.500000 0.581246
O O12 0.750000 0.099720 0.229474
O O13 0.481388 0.000000 0.225696
O O14 0.250000 0.608359 0.861158
O O15 0.992578 0.500000 0.873569
#
# Coordination Sequence:
#
# PCOD9407078 Si02
#       5
#     8   8   8   8   8
#     4  11  22  35  50  69  96 126 156 192 234 283
#     4   8  14  27  48  71  93 120 155 193 233 277
#     4   9  16  26  42  66  96 128 159 189 223 267
#     4   9  18  34  55  75  92 114 151 198 244 289
#     4   9  17  31  51  72  94 123 160 199 237 279
#
# _framework density 18.208770000000001
#
# number of rings (size 3 to 8) (size 9 to 14) (size 15 to 20)
#    0.000    2.800    0.000    3.600    0.000    4.000 
#    0.000    4.000    0.000    5.400    0.000    0.000 
#    0.000    0.000    0.000    0.000    0.000    0.000 
#
# Total GULP energy -223026.357549 kJ/mol
# GULP energy per Si atom -5575.658939 kJ/mol
# Density = 1.816733 g / cm^3
# Si number density = 18.208770 Si / 1000 Ang^3
#
#
#
# Elastic Constant Matrix: (Units=GPa)
#
#
# Indices 1 2 3 4 5 6 
#
# 1 11.8447 -4.0837 -8.5772 0.0000 0.0000 0.0000
# 2 -4.0837 73.7007 17.5525 0.0000 0.0000 0.0000
# 3 -8.5772 17.5525 101.4196 0.0000 0.0000 0.0000
# 4 0.0000 0.0000 0.0000 20.3338 0.0000 0.0000
# 5 0.0000 0.0000 0.0000 0.0000 21.0929 0.0000
# 6 0.0000 0.0000 0.0000 0.0000 0.0000 10.9881
#
#
#
# Elastic Compliance Matrix: (Units=1/GPa)
#
#
# Indices 1 2 3 4 5 6 
#
# 1 0.090714 0.003337 0.007094 0.000000 0.000000 0.000000
# 2 0.003337 0.014274 -0.002188 0.000000 0.000000 0.000000
# 3 0.007094 -0.002188 0.010839 0.000000 0.000000 0.000000
# 4 0.000000 0.000000 0.000000 0.049179 0.000000 0.000000
# 5 0.000000 0.000000 0.000000 0.000000 0.047409 0.000000
# 6 0.000000 0.000000 0.000000 0.000000 0.000000 0.091008
#
#
# Mechanical properties :
#
#
# Convention : Reuss Voigt Hill
#
# Bulk Modulus (GPa) = 7.55787 21.86091 14.70939
# Shear Modulus (GPa) = 15.10384 22.62117 18.86250
#
# Velocity S-wave (km/s) = 2.88320 3.52848 3.22203
# Velocity P-wave (km/s) = 3.90429 5.35089 4.68377
#
# Compressibility (1/GPa) = 0.13231236
#
# Stress axis : x y z
#
# Youngs Moduli (GPa) = 11.02370 70.05530 92.26188
#
# Poissons Ratio (x) = -0.23376 -0.65453
# Poissons Ratio (y) = -0.03678 0.20189
# Poissons Ratio (z) = -0.07820 0.15330
#
# Static dielectric constant tensor:
#      x y z
#    x 1.649700 0.000000 0.000000 
#    y 0.000000 1.642040 0.000000 
#    z 0.000000 0.000000 1.621370 
# 
# From -- ./inp_files/27214.got.cif
#   From: 2010.05.17/outbox.cif.g08.bks.cpg/sg51_14_cif.got.tgz:27214.got - 2010.06.03 11:52:47.
