data_PCOD9407004
_publ_section_title
;
Structure prediction by ZEFSAII (Michael W. Deem and Ramdas Pophale) SiO2 
 PCOD9407004
Probable space group: P M M A
;
_chemical_formula_sum "Si O2"
_cell_formula_units_Z 40
_cell_length_a 35.533292
_cell_length_b 14.195368
_cell_length_c 5.148067
_cell_angle_alpha 90.000000
_cell_angle_beta 90.000000
_cell_angle_gamma 90.000000
_cell_volume 2596.726983
_symmetry_space_group_name_H-M "P M M A"
_symmetry_group_IT_number 51
_symmetry_cell_setting 'orthorhombic'
loop_
_space_group_symop_operation_xyz
x,y,z
1/2-x,-y,z
1/2+x,-y,-z
-x,y,-z
-x,-y,-z
1/2+x,y,-z
1/2-x,y,z
x,-y,z
loop_
_atom_site_type_symbol
_atom_site_label
_atom_site_fract_x
_atom_site_fract_y
_atom_site_fract_z
Si Si1 0.338186 0.614398 0.912755
Si Si2 0.973295 0.896288 0.248967
Si Si3 0.707067 0.614773 0.583785
Si Si4 0.921399 0.611828 0.909724
Si Si5 0.956912 0.697171 0.399632
O O1 0.339017 0.500000 0.904733
O O2 0.309237 0.642265 0.137971
O O3 0.380345 0.642660 0.986959
O O4 0.321676 0.646613 0.638799
O O5 0.948778 0.804063 0.304584
O O6 0.000000 0.902631 0.500000
O O7 0.955321 0.000000 0.213471
O O8 0.000000 0.878576 0.000000
O O9 0.750000 0.645493 0.541009
O O10 0.707491 0.500000 0.577417
O O11 0.920625 0.500000 0.856650
O O12 0.932399 0.664009 0.644424
O O13 0.949770 0.633686 0.146247
O O14 0.000000 0.692643 0.500000
#
# Coordination Sequence:
#
# PCOD9407004 Si02
#       5
#     8   8   8   8   8
#     4   9  17  28  39  54  78 108 141 172 207 251
#     4   9  17  31  50  68  84 101 128 177 235 280
#     4   9  15  24  40  59  76  97 133 179 214 243
#     4  11  22  33  44  59  86 123 155 183 214 249
#     4  11  21  33  47  64  83 109 152 193 222 256
#
# _framework density 15.404006000000001
#
# number of rings (size 3 to 8) (size 9 to 14) (size 15 to 20)
#    0.000    2.200    0.000    5.400    0.000    8.000 
#    0.000    0.000    0.000    0.000    0.000    0.000 
#    0.000    0.000    0.000    0.000    0.000   70.000 
#
# Total GULP energy -222850.424291 kJ/mol
# GULP energy per Si atom -5571.260607 kJ/mol
# Density = 1.536895 g / cm^3
# Si number density = 15.404006 Si / 1000 Ang^3
#
#
#
# Elastic Constant Matrix: (Units=GPa)
#
#
# Indices 1 2 3 4 5 6 
#
# 1 38.0762 14.4401 -4.2489 0.0000 0.0000 0.0000
# 2 14.4401 43.7462 5.6149 0.0000 0.0000 0.0000
# 3 -4.2489 5.6149 75.2976 0.0000 0.0000 0.0000
# 4 0.0000 0.0000 0.0000 18.7743 0.0000 0.0000
# 5 0.0000 0.0000 0.0000 0.0000 25.5227 0.0000
# 6 0.0000 0.0000 0.0000 0.0000 0.0000 -0.8031
#
#
#
# Elastic Compliance Matrix: (Units=1/GPa)
#
#
# Indices 1 2 3 4 5 6 
#
# 1 0.030478 -0.010381 0.002494 0.000000 0.000000 0.000000
# 2 -0.010381 0.026616 -0.002570 0.000000 0.000000 0.000000
# 3 0.002494 -0.002570 0.013613 0.000000 0.000000 0.000000
# 4 0.000000 0.000000 0.000000 0.053264 0.000000 0.000000
# 5 0.000000 0.000000 0.000000 0.000000 0.039181 0.000000
# 6 0.000000 0.000000 0.000000 0.000000 0.000000 -1.245125
#
#
# Mechanical properties :
#
#
# Convention : Reuss Voigt Hill
#
# Bulk Modulus (GPa) = 20.08335 20.97024 20.52679
# Shear Modulus (GPa) = -4.78715 18.11971 6.66628
#
# Velocity S-wave (km/s) = -1.76479 3.43344 2.08255
# Velocity P-wave (km/s) = 2.98553 5.41859 4.37461
#
# Compressibility (1/GPa) = 0.04979250
#
# Stress axis : x y z
#
# Youngs Moduli (GPa) = 32.81037 37.57199 73.45897
#
# Poissons Ratio (x) = 0.39002 -0.18320
# Poissons Ratio (y) = 0.34059 0.18882
# Poissons Ratio (z) = -0.08183 0.09658
#
# Static dielectric constant tensor:
#      x y z
#    x 1.516340 0.000000 0.000000 
#    y 0.000000 1.533030 0.000000 
#    z 0.000000 0.000000 1.517330 
# 
# From -- ./inp_files/3919.got.cif
#   From: 2010.05.17/outbox.cif.g08.bks.cpg/sg51_2_cif.got.tgz:3919.got - 2010.06.03 11:52:47.
