data_PCOD9407300
_publ_section_title
;
Structure prediction by ZEFSAII (Michael W. Deem and Ramdas Pophale) SiO2 
 PCOD9407300
Probable space group: P M M A
;
_chemical_formula_sum "Si O2"
_cell_formula_units_Z 44
_cell_length_a 7.402036
_cell_length_b 22.343807
_cell_length_c 14.483375
_cell_angle_alpha 90.000000
_cell_angle_beta 90.000000
_cell_angle_gamma 90.000000
_cell_volume 2395.400522
_symmetry_space_group_name_H-M "P M M A"
_symmetry_group_IT_number 51
_symmetry_cell_setting 'orthorhombic'
loop_
_space_group_symop_operation_xyz
x,y,z
1/2-x,-y,z
1/2+x,-y,-z
-x,y,-z
-x,-y,-z
1/2+x,y,-z
1/2-x,y,z
x,-y,z
loop_
_atom_site_type_symbol
_atom_site_label
_atom_site_fract_x
_atom_site_fract_y
_atom_site_fract_z
Si Si1 0.033962 0.435589 0.889745
Si Si2 0.965786 0.065835 0.109645
Si Si3 0.971180 0.813423 0.210843
Si Si4 0.533645 0.305282 0.109428
Si Si5 0.465879 0.130718 0.608039
Si Si6 0.965202 0.000000 0.389918
O O1 0.250000 0.435800 0.875718
O O2 0.964411 0.500000 0.854334
O O3 0.964596 0.370642 0.858278
O O4 0.000000 0.435642 0.000000
O O5 0.750000 0.064701 0.124497
O O6 0.031527 0.126122 0.158424
O O7 0.034081 0.000000 0.140640
O O8 0.000000 0.070106 0.000000
O O9 0.750000 0.812543 0.206268
O O10 0.035296 0.752839 0.162760
O O11 0.026315 0.820929 0.317519
O O12 0.750000 0.306578 0.121210
O O13 0.500000 0.298906 0.000000
O O14 0.500000 0.141412 0.500000
O O15 0.250000 0.127096 0.615890
O O16 0.536061 0.064898 0.638758
O O17 0.000000 0.000000 0.500000
O O18 0.750000 0.000000 0.371276
#
# Coordination Sequence:
#
# PCOD9407300 Si02
#       6
#     8   8   8   8   8   4
#     4   8  13  21  34  52  74 100 127 153 181 213
#     4   9  17  28  41  55  73  98 128 158 185 215
#     4   9  17  27  41  58  75  99 128 155 187 228
#     4   9  16  26  39  56  79 105 131 157 184 217
#     4   9  17  29  43  58  75  94 120 154 193 234
#     4   8  14  24  40  56  69  86 110 144 185 226
#
# _framework density 18.368534
#
# number of rings (size 3 to 8) (size 9 to 14) (size 15 to 20)
#    0.000    3.273    0.000    0.545    1.273    0.000 
#    0.000    1.818    0.000    0.000    0.000    0.000 
#    0.000    0.727    0.000    0.545    0.000    1.455 
#
# Total GULP energy -245041.006317 kJ/mol
# GULP energy per Si atom -5569.113780 kJ/mol
# Density = 1.832673 g / cm^3
# Si number density = 18.368534 Si / 1000 Ang^3
#
#
#
# Elastic Constant Matrix: (Units=GPa)
#
#
# Indices 1 2 3 4 5 6 
#
# 1 64.7455 11.0178 -2.5019 0.0000 0.0000 0.0000
# 2 11.0178 213.1517 82.4208 0.0000 0.0000 0.0000
# 3 -2.5019 82.4208 72.6448 0.0000 0.0000 0.0000
# 4 0.0000 0.0000 0.0000 9.8781 0.0000 0.0000
# 5 0.0000 0.0000 0.0000 0.0000 8.7061 0.0000
# 6 0.0000 0.0000 0.0000 0.0000 0.0000 -6.9129
#
#
#
# Elastic Compliance Matrix: (Units=1/GPa)
#
#
# Indices 1 2 3 4 5 6 
#
# 1 0.015859 -0.001837 0.002630 0.000000 0.000000 0.000000
# 2 -0.001837 0.008571 -0.009788 0.000000 0.000000 0.000000
# 3 0.002630 -0.009788 0.024961 0.000000 0.000000 0.000000
# 4 0.000000 0.000000 0.000000 0.101234 0.000000 0.000000
# 5 0.000000 0.000000 0.000000 0.000000 0.114862 0.000000
# 6 0.000000 0.000000 0.000000 0.000000 0.000000 -0.144656
#
#
# Mechanical properties :
#
#
# Convention : Reuss Voigt Hill
#
# Bulk Modulus (GPa) = 31.84439 59.15727 45.50083
# Shear Modulus (GPa) = 33.49237 19.64128 26.56682
#
# Velocity S-wave (km/s) = 4.27471 3.27355 3.80718
# Velocity P-wave (km/s) = 6.46051 6.82377 6.64462
#
# Compressibility (1/GPa) = 0.03140271
#
# Stress axis : x y z
#
# Youngs Moduli (GPa) = 63.05454 116.66997 40.06207
#
# Poissons Ratio (x) = 0.21430 -0.10537
# Poissons Ratio (y) = 0.11582 0.39212
# Poissons Ratio (z) = -0.16584 1.14195
#
# Static dielectric constant tensor:
#      x y z
#    x 1.739690 0.000000 0.000000 
#    y 0.000000 1.692870 0.000000 
#    z 0.000000 0.000000 1.611650 
# 
# From -- ./inp_files/21390.got.cif
#   From: 2010.05.17/outbox.cif.g08.bks.cpg/sg51_11_cif.got.tgz:21390.got - 2010.06.03 11:52:47.
