data_PCOD9407223
_publ_section_title
;
Structure prediction by ZEFSAII (Michael W. Deem and Ramdas Pophale) SiO2 
 PCOD9407223
Probable space group: P M M A
;
_chemical_formula_sum "Si O2"
_cell_formula_units_Z 48
_cell_length_a 13.686607
_cell_length_b 8.708218
_cell_length_c 19.160869
_cell_angle_alpha 90.000000
_cell_angle_beta 90.000000
_cell_angle_gamma 90.000000
_cell_volume 2283.706517
_symmetry_space_group_name_H-M "P M M A"
_symmetry_group_IT_number 51
_symmetry_cell_setting 'orthorhombic'
loop_
_space_group_symop_operation_xyz
x,y,z
1/2-x,-y,z
1/2+x,-y,-z
-x,y,-z
-x,-y,-z
1/2+x,y,-z
1/2-x,y,z
x,-y,z
loop_
_atom_site_type_symbol
_atom_site_label
_atom_site_fract_x
_atom_site_fract_y
_atom_site_fract_z
Si Si1 0.367793 0.183002 0.962937
Si Si2 0.143422 0.813172 0.546671
Si Si3 0.547533 0.319088 0.746088
Si Si4 0.565425 0.815036 0.603315
Si Si5 0.637325 0.814305 0.191674
Si Si6 0.367644 0.821712 0.114878
O O1 0.250000 0.200672 0.961894
O O2 0.397105 0.238797 0.886065
O O3 0.386850 0.000000 0.964540
O O4 0.402046 0.240212 0.038841
O O5 0.250000 0.760195 0.571281
O O6 0.127083 0.772659 0.465230
O O7 0.046342 0.763516 0.587272
O O8 0.142853 0.000000 0.550001
O O9 0.542732 0.500000 0.741802
O O10 0.597249 0.252649 0.676806
O O11 0.438813 0.248869 0.753179
O O12 0.600458 0.267969 0.816993
O O13 0.566448 0.000000 0.607902
O O14 0.750000 0.768212 0.202619
O O15 0.635253 0.000000 0.192229
O O16 0.250000 0.823231 0.112042
O O17 0.400168 0.000000 0.121705
#
# Coordination Sequence:
#
# PCOD9407223 Si02
#       6
#     8   8   8   8   8   8
#     4   7  12  27  53  80  99 121 168 234 285 315
#     4   8  15  31  58  86 104 122 158 213 266 303
#     4  12  25  36  48  74 116 154 179 210 256 314
#     4   9  18  34  55  79 105 132 170 213 250 302
#     4   9  18  35  58  79 100 133 181 232 276 318
#     4   9  18  35  58  79 100 133 181 232 276 318
#
# _framework density 21.018464000000002
#
# number of rings (size 3 to 8) (size 9 to 14) (size 15 to 20)
#    0.000    3.000    0.000    4.500    0.000    2.667 
#    0.000    9.167    0.000    4.000    0.000    0.000 
#    0.000    0.000    0.000    0.000    0.000    0.000 
#
# Total GULP energy -267743.626908 kJ/mol
# GULP energy per Si atom -5577.992227 kJ/mol
# Density = 2.097062 g / cm^3
# Si number density = 21.018464 Si / 1000 Ang^3
#
#
#
# Elastic Constant Matrix: (Units=GPa)
#
#
# Indices 1 2 3 4 5 6 
#
# 1 38.4907 0.5275 -14.2461 0.0000 0.0000 0.0000
# 2 0.5275 20.8957 11.7022 0.0000 0.0000 0.0000
# 3 -14.2461 11.7022 84.1736 0.0000 0.0000 0.0000
# 4 0.0000 0.0000 0.0000 -27.1988 0.0000 0.0000
# 5 0.0000 0.0000 0.0000 0.0000 12.3470 0.0000
# 6 0.0000 0.0000 0.0000 0.0000 0.0000 74.7938
#
#
#
# Elastic Compliance Matrix: (Units=1/GPa)
#
#
# Indices 1 2 3 4 5 6 
#
# 1 0.027970 -0.003641 0.005240 0.000000 0.000000 0.000000
# 2 -0.003641 0.052371 -0.007897 0.000000 0.000000 0.000000
# 3 0.005240 -0.007897 0.013865 0.000000 0.000000 0.000000
# 4 0.000000 0.000000 0.000000 -0.036766 0.000000 0.000000
# 5 0.000000 0.000000 0.000000 0.000000 0.080991 0.000000
# 6 0.000000 0.000000 0.000000 0.000000 0.000000 0.013370
#
#
# Mechanical properties :
#
#
# Convention : Reuss Voigt Hill
#
# Bulk Modulus (GPa) = 12.25336 15.50302 13.87819
# Shear Modulus (GPa) = 26.09614 21.69350 23.89482
#
# Velocity S-wave (km/s) = 3.52743 3.21614 3.37538
# Velocity P-wave (km/s) = 4.73633 4.60254 4.66991
#
# Compressibility (1/GPa) = 0.08161026
#
# Stress axis : x y z
#
# Youngs Moduli (GPa) = 35.75314 19.09450 72.12443
#
# Poissons Ratio (x) = 0.06951 -0.37792
# Poissons Ratio (y) = 0.13016 0.56957
# Poissons Ratio (z) = -0.18734 0.15079
#
# Static dielectric constant tensor:
#      x y z
#    x 1.814520 0.000000 0.000000 
#    y 0.000000 1.697080 0.000000 
#    z 0.000000 0.000000 1.765640 
# 
# From -- ./inp_files/29409.got.cif
#   From: 2010.05.17/outbox.cif.g08.bks.cpg/sg51_15_cif.got.tgz:29409.got - 2010.06.03 11:52:47.
