data_PCOD9407451
_publ_section_title
;
Structure prediction by ZEFSAII (Michael W. Deem and Ramdas Pophale) SiO2 
 PCOD9407451
Probable space group: P M M A
;
_chemical_formula_sum "Si O2"
_cell_formula_units_Z 40
_cell_length_a 9.000000
_cell_length_b 12.000000
_cell_length_c 21.000000
_cell_angle_alpha 90.000000
_cell_angle_beta 90.000000
_cell_angle_gamma 90.000000
_cell_volume 2268.000000
_symmetry_space_group_name_H-M "P M M A"
_symmetry_group_IT_number 51
_symmetry_cell_setting 'orthorhombic'
loop_
_space_group_symop_operation_xyz
x,y,z
1/2-x,-y,z
1/2+x,-y,-z
-x,y,-z
-x,-y,-z
1/2+x,y,-z
1/2-x,y,z
x,-y,z
loop_
_atom_site_type_symbol
_atom_site_label
_atom_site_fract_x
_atom_site_fract_y
_atom_site_fract_z
Si Si1 0.075138 0.000000 0.238266
Si Si2 0.431148 0.373606 0.809598
Si Si3 0.070417 0.215452 0.699044
Si Si4 0.575219 0.247831 0.063896
Si Si5 0.428103 0.129673 0.566904
Si Si6 0.422400 0.000000 0.893880
O O1 0.998635 0.107697 0.268133
O O2 0.250000 0.000000 0.249605
O O3 0.035461 0.000000 0.164139
O O4 0.250000 0.372308 0.810443
O O5 0.481124 0.500000 0.815695
O O6 0.475369 0.319005 0.742604
O O7 0.481118 0.301303 0.870238
O O8 0.250000 0.206762 0.701387
O O9 0.026669 0.208394 0.625255
O O10 0.750000 0.271463 0.060103
O O11 0.557550 0.114523 0.068679
O O12 0.500000 0.290627 0.000000
O O13 0.500000 0.159519 0.500000
O O14 0.250000 0.132780 0.561082
O O15 0.468693 0.000000 0.581565
O O16 0.250000 0.000000 0.869602
#
# Coordination Sequence:
#
# PCOD9407451 Si02
#       6
#     4   8   8   8   8   4
#     4  12  22  29  48  81 107 129 165 213 256 302
#     4   9  18  33  55  78  96 126 177 222 250 290
#     4  10  18  34  55  73 102 139 171 205 251 304
#     4  10  20  33  52  74 102 133 165 206 255 305
#     4   9  17  28  46  72 103 136 166 198 242 300
#     4  10  19  35  53  71  99 139 168 199 254 312
#
# _framework density 17.636683999999999
#
# number of rings (size 3 to 8) (size 9 to 14) (size 15 to 20)
#    0.000    2.200    3.000    1.200    0.000    2.000 
#    0.000    0.000    0.000    2.400    0.000    0.000 
#    0.000    0.000    0.000    0.000    0.000    0.000 
#
# Total GULP energy -222918.256180 kJ/mol
# GULP energy per Si atom -5572.956404 kJ/mol
# Density = 1.759654 g / cm^3
# Si number density = 17.636684 Si / 1000 Ang^3
#
#
#
# Elastic Constant Matrix: (Units=GPa)
#
#
# Indices 1 2 3 4 5 6 
#
# 1 -5.6327 18.0253 32.8708 0.0000 0.0000 0.0000
# 2 18.0253 82.9989 49.1872 0.0000 0.0000 0.0000
# 3 32.8708 49.1872 148.4442 0.0000 0.0000 0.0000
# 4 0.0000 0.0000 0.0000 -5.4189 0.0000 0.0000
# 5 0.0000 0.0000 0.0000 0.0000 27.9296 0.0000
# 6 0.0000 0.0000 0.0000 0.0000 0.0000 41.0864
#
#
#
# Elastic Compliance Matrix: (Units=1/GPa)
#
#
# Indices 1 2 3 4 5 6 
#
# 1 -0.073130 0.007821 0.013602 0.000000 0.000000 0.000000
# 2 0.007821 0.014156 -0.006422 0.000000 0.000000 0.000000
# 3 0.013602 -0.006422 0.005853 0.000000 0.000000 0.000000
# 4 0.000000 0.000000 0.000000 -0.184540 0.000000 0.000000
# 5 0.000000 0.000000 0.000000 0.000000 0.035804 0.000000
# 6 0.000000 0.000000 0.000000 0.000000 0.000000 0.024339
#
#
# Mechanical properties :
#
#
# Convention : Reuss Voigt Hill
#
# Bulk Modulus (GPa) = -43.25302 47.33078 2.03888
# Shear Modulus (GPa) = -23.23149 21.10123 -1.06513
#
# Velocity S-wave (km/s) = -3.63330 3.46271 -0.77797
# Velocity P-wave (km/s) = 6.49452 6.54843 0.59293
#
# Compressibility (1/GPa) = -0.02311977
#
# Stress axis : x y z
#
# Youngs Moduli (GPa) = -13.67437 70.64189 170.86216
#
# Poissons Ratio (x) = -0.55250 -2.32406
# Poissons Ratio (y) = 0.10695 1.09735
# Poissons Ratio (z) = 0.18600 0.45369
#
# Static dielectric constant tensor:
#      x y z
#    x 1.592100 0.000000 0.000000 
#    y 0.000000 1.601870 0.000000 
#    z 0.000000 0.000000 1.618560 
# 
# From -- ./inp_files/31431.got.cif
#   From: 2010.05.17/outbox.ucp.g08.bks.cvg/sg51_16_cif.got.tgz:31431.got - 2010.06.11 16:27:58.
