data_PCOD9407811
_publ_section_title
;
Structure prediction by ZEFSAII (Michael W. Deem and Ramdas Pophale) SiO2 
 PCOD9407811
Probable space group: P M M A
;
_chemical_formula_sum "Si O2"
_cell_formula_units_Z 64
_cell_length_a 30.000000
_cell_length_b 9.000000
_cell_length_c 12.000000
_cell_angle_alpha 90.000000
_cell_angle_beta 90.000000
_cell_angle_gamma 90.000000
_cell_volume 3240.000000
_symmetry_space_group_name_H-M "P M M A"
_symmetry_group_IT_number 51
_symmetry_cell_setting 'orthorhombic'
loop_
_space_group_symop_operation_xyz
x,y,z
1/2-x,-y,z
1/2+x,-y,-z
-x,y,-z
-x,-y,-z
1/2+x,y,-z
1/2-x,y,z
x,-y,z
loop_
_atom_site_type_symbol
_atom_site_label
_atom_site_fract_x
_atom_site_fract_y
_atom_site_fract_z
Si Si1 0.675455 0.171255 0.503904
Si Si2 0.699097 0.674926 0.734491
Si Si3 0.951823 0.675169 0.281753
Si Si4 0.373620 0.824313 0.856766
Si Si5 0.042126 0.824113 0.241605
Si Si6 0.301436 0.667940 0.719307
Si Si7 0.619724 0.677689 0.902368
Si Si8 0.068480 0.168879 0.498772
O O1 0.689271 0.229738 0.624796
O O2 0.694400 0.274321 0.406837
O O3 0.621909 0.177354 0.494980
O O4 0.689328 0.000000 0.488524
O O5 0.750000 0.697914 0.769963
O O6 0.693536 0.500000 0.705599
O O7 0.664526 0.709172 0.832159
O O8 0.947679 0.500000 0.268166
O O9 0.910947 0.760308 0.225755
O O10 0.951935 0.719631 0.412028
O O11 0.996250 0.737939 0.225775
O O12 0.327714 0.778581 0.798553
O O13 0.378127 0.000000 0.867868
O O14 0.377542 0.745149 0.975269
O O15 0.079828 0.754001 0.164804
O O16 0.055428 0.804704 0.371331
O O17 0.037441 0.000000 0.220924
O O18 0.250000 0.663823 0.750377
O O19 0.320031 0.500000 0.727843
O O20 0.613661 0.500000 0.907312
O O21 0.054812 0.000000 0.529629
#
# Coordination Sequence:
#
# PCOD9407811 Si02
#       8
#     8   8   8   8   8   8   8   8
#     4  11  21  36  62  95 130 167 206 252 309 370
#     4  10  22  40  63  92 128 168 207 252 309 370
#     4  12  25  41  65  96 128 163 209 257 311 372
#     4  12  26  45  67  91 123 164 212 260 314 371
#     4  11  23  42  66  93 129 167 207 254 313 373
#     4  11  24  42  65  94 128 166 208 257 314 371
#     4  11  24  43  66  92 124 163 213 264 312 368
#     4  10  21  38  62  93 130 168 204 250 310 372
#
# _framework density 19.753086
#
# number of rings (size 3 to 8) (size 9 to 14) (size 15 to 20)
#    0.000    1.000    2.500    4.500    0.000    7.250 
#    0.000    3.750    0.000    0.000    0.000    0.000 
#    0.000    0.000    0.000    0.000    0.000    0.000 
#
# Total GULP energy -358008.155902 kJ/mol
# GULP energy per Si atom -5593.877436 kJ/mol
# Density = 1.970813 g / cm^3
# Si number density = 19.753086 Si / 1000 Ang^3
#
#
#
# Elastic Constant Matrix: (Units=GPa)
#
#
# Indices 1 2 3 4 5 6 
#
# 1 44.1587 -26.8474 -32.4170 0.0000 0.0000 0.0000
# 2 -26.8474 10.1195 -24.1376 0.0000 0.0000 0.0000
# 3 -32.4170 -24.1376 24.1000 0.0000 0.0000 0.0000
# 4 0.0000 0.0000 0.0000 38.5684 0.0000 0.0000
# 5 0.0000 0.0000 0.0000 0.0000 -11.4208 0.0000
# 6 0.0000 0.0000 0.0000 0.0000 0.0000 31.4045
#
#
#
# Elastic Compliance Matrix: (Units=1/GPa)
#
#
# Indices 1 2 3 4 5 6 
#
# 1 0.003986 -0.016822 -0.011486 0.000000 0.000000 0.000000
# 2 -0.016822 -0.000157 -0.022785 0.000000 0.000000 0.000000
# 3 -0.011486 -0.022785 0.003223 0.000000 0.000000 0.000000
# 4 0.000000 0.000000 0.000000 0.025928 0.000000 0.000000
# 5 0.000000 0.000000 0.000000 0.000000 -0.087559 0.000000
# 6 0.000000 0.000000 0.000000 0.000000 0.000000 0.031843
#
#
# Mechanical properties :
#
#
# Convention : Reuss Voigt Hill
#
# Bulk Modulus (GPa) = -10.51160 -9.82510 -10.16835
# Shear Modulus (GPa) = 104.73835 22.49578 63.61706
#
# Velocity S-wave (km/s) = 7.28964 3.37834 5.68120
# Velocity P-wave (km/s) = 8.09437 3.19888 6.15433
#
# Compressibility (1/GPa) = -0.09513300
#
# Stress axis : x y z
#
# Youngs Moduli (GPa) = 250.86086 -6358.26996 310.22861
#
# Poissons Ratio (x) = -106.95803 3.56335
# Poissons Ratio (y) = 4.21995 7.06845
# Poissons Ratio (z) = 2.88144 -144.87091
#
# Static dielectric constant tensor:
#      x y z
#    x 1.713660 0.000000 0.000000 
#    y 0.000000 1.706020 0.000000 
#    z 0.000000 0.000000 1.650110 
# 
# From -- ./inp_files/19457.got.cif
#   From: 2010.05.17/outbox.ucp.g08.bks.cvg/sg51_10_cif.got.tgz:19457.got - 2010.06.11 16:27:58.
