data_PCOD9407674
_publ_section_title
;
Structure prediction by ZEFSAII (Michael W. Deem and Ramdas Pophale) SiO2 
 PCOD9407674
Probable space group: P M M A
;
_chemical_formula_sum "Si O2"
_cell_formula_units_Z 56
_cell_length_a 15.000000
_cell_length_b 9.000000
_cell_length_c 21.000000
_cell_angle_alpha 90.000000
_cell_angle_beta 90.000000
_cell_angle_gamma 90.000000
_cell_volume 2835.000000
_symmetry_space_group_name_H-M "P M M A"
_symmetry_group_IT_number 51
_symmetry_cell_setting 'orthorhombic'
loop_
_space_group_symop_operation_xyz
x,y,z
1/2-x,-y,z
1/2+x,-y,-z
-x,y,-z
-x,-y,-z
1/2+x,y,-z
1/2-x,y,z
x,-y,z
loop_
_atom_site_type_symbol
_atom_site_label
_atom_site_fract_x
_atom_site_fract_y
_atom_site_fract_z
Si Si1 0.396631 0.323628 0.206537
Si Si2 0.642861 0.332368 0.935276
Si Si3 0.649434 0.174942 0.343891
Si Si4 0.142620 0.168864 0.937490
Si Si5 0.004228 0.677713 0.425584
Si Si6 0.583067 0.821805 0.204220
Si Si7 0.351165 0.829609 0.336625
O O1 0.377882 0.500000 0.207882
O O2 0.375027 0.266199 0.134925
O O3 0.499104 0.282455 0.215847
O O4 0.351811 0.245501 0.266822
O O5 0.750000 0.338565 0.940197
O O6 0.606822 0.500000 0.934177
O O7 0.610242 0.254765 0.999783
O O8 0.750000 0.205941 0.363937
O O9 0.581063 0.268982 0.385281
O O10 0.642081 0.198568 0.267421
O O11 0.629989 0.000000 0.353962
O O12 0.250000 0.168685 0.940340
O O13 0.119091 0.219662 0.865975
O O14 0.110570 0.000000 0.943185
O O15 0.010466 0.500000 0.424279
O O16 0.000000 0.724777 0.500000
O O17 0.086627 0.746260 0.386595
O O18 0.561753 0.000000 0.202011
O O19 0.250000 0.829519 0.360000
O O20 0.382432 0.000000 0.329267
#
# Coordination Sequence:
#
# PCOD9407674 Si02
#       7
#     8   8   8   8   8   8   8
#     4  11  22  36  57  84 117 156 200 251 307 363
#     4   9  19  35  52  73 106 149 196 246 301 361
#     4  10  21  39  65  94 125 164 207 252 304 360
#     4   9  18  33  53  77 107 147 196 248 301 358
#     4  11  25  44  66  95 131 166 201 246 299 358
#     4  10  20  35  56  83 117 154 197 250 305 359
#     4  11  24  42  66  95 125 161 207 255 304 363
#
# _framework density 19.753086
#
# number of rings (size 3 to 8) (size 9 to 14) (size 15 to 20)
#    0.000    1.857    1.429    2.143    0.000    7.714 
#    0.000    7.143    0.000    2.571    0.000    0.000 
#    0.000    0.000    0.000    0.000    0.000    0.000 
#
# Total GULP energy -312317.232140 kJ/mol
# GULP energy per Si atom -5577.093431 kJ/mol
# Density = 1.970813 g / cm^3
# Si number density = 19.753086 Si / 1000 Ang^3
#
#
#
# Elastic Constant Matrix: (Units=GPa)
#
#
# Indices 1 2 3 4 5 6 
#
# 1 65.9413 38.0036 45.8224 0.0000 0.0000 0.0000
# 2 38.0036 56.0631 62.3808 0.0000 0.0000 0.0000
# 3 45.8224 62.3808 169.1374 0.0000 0.0000 0.0000
# 4 0.0000 0.0000 0.0000 33.7599 0.0000 0.0000
# 5 0.0000 0.0000 0.0000 0.0000 52.0871 0.0000
# 6 0.0000 0.0000 0.0000 0.0000 0.0000 -82.5099
#
#
#
# Elastic Compliance Matrix: (Units=1/GPa)
#
#
# Indices 1 2 3 4 5 6 
#
# 1 0.024966 -0.015939 -0.000885 0.000000 0.000000 0.000000
# 2 -0.015939 0.040427 -0.010592 0.000000 0.000000 0.000000
# 3 -0.000885 -0.010592 0.010059 0.000000 0.000000 0.000000
# 4 0.000000 0.000000 0.000000 0.029621 0.000000 0.000000
# 5 0.000000 0.000000 0.000000 0.000000 0.019199 0.000000
# 6 0.000000 0.000000 0.000000 0.000000 0.000000 -0.012120
#
#
# Mechanical properties :
#
#
# Convention : Reuss Voigt Hill
#
# Bulk Modulus (GPa) = 48.49731 64.83949 56.66840
# Shear Modulus (GPa) = 28.75919 10.32975 19.54447
#
# Velocity S-wave (km/s) = 3.81981 2.28928 3.14895
# Velocity P-wave (km/s) = 6.63774 6.31538 6.47857
#
# Compressibility (1/GPa) = 0.02061970
#
# Stress axis : x y z
#
# Youngs Moduli (GPa) = 40.05438 24.73580 99.41568
#
# Poissons Ratio (x) = 0.39426 0.08801
# Poissons Ratio (y) = 0.63842 1.05303
# Poissons Ratio (z) = 0.03546 0.26201
#
# Static dielectric constant tensor:
#      x y z
#    x 1.715990 0.000000 0.000000 
#    y 0.000000 1.695530 0.000000 
#    z 0.000000 0.000000 1.700970 
# 
# From -- ./inp_files/33492.got.cif
#   From: 2010.05.17/outbox.ucp.g08.bks.cvg/sg51_17_cif.got.tgz:33492.got - 2010.06.11 16:27:58.
