data_PCOD9407432
_publ_section_title
;
Structure prediction by ZEFSAII (Michael W. Deem and Ramdas Pophale) SiO2 
 PCOD9407432
Probable space group: P M M A
;
_chemical_formula_sum "Si O2"
_cell_formula_units_Z 64
_cell_length_a 9.000000
_cell_length_b 24.000000
_cell_length_c 15.000000
_cell_angle_alpha 90.000000
_cell_angle_beta 90.000000
_cell_angle_gamma 90.000000
_cell_volume 3240.000000
_symmetry_space_group_name_H-M "P M M A"
_symmetry_group_IT_number 51
_symmetry_cell_setting 'orthorhombic'
loop_
_space_group_symop_operation_xyz
x,y,z
1/2-x,-y,z
1/2+x,-y,-z
-x,y,-z
-x,-y,-z
1/2+x,y,-z
1/2-x,y,z
x,-y,z
loop_
_atom_site_type_symbol
_atom_site_label
_atom_site_fract_x
_atom_site_fract_y
_atom_site_fract_z
Si Si1 0.071913 0.560382 0.218716
Si Si2 0.426532 0.165707 0.585426
Si Si3 0.077578 0.642358 0.911919
Si Si4 0.425096 0.750010 0.817424
Si Si5 0.074480 0.127092 0.777744
Si Si6 0.411835 0.065900 0.083449
Si Si7 0.072947 0.594856 0.411742
Si Si8 0.573683 0.279281 0.636351
O O1 0.250000 0.567021 0.212749
O O2 0.031563 0.500000 0.180995
O O3 0.031131 0.563442 0.322172
O O4 0.993626 0.610281 0.169662
O O5 0.500000 0.138734 0.500000
O O6 0.250000 0.165755 0.579287
O O7 0.473040 0.136633 0.676763
O O8 0.484005 0.228936 0.592756
O O9 0.250000 0.630504 0.915229
O O10 0.057665 0.708465 0.898906
O O11 0.000000 0.622066 0.000000
O O12 0.250000 0.746981 0.788373
O O13 0.458304 0.814892 0.828943
O O14 0.529214 0.726692 0.739546
O O15 0.250000 0.118716 0.779511
O O16 0.995399 0.077538 0.826185
O O17 0.250000 0.091351 0.086910
O O18 0.399810 0.000000 0.070369
O O19 0.500000 0.089543 0.000000
O O20 0.250000 0.592825 0.420201
O O21 0.030701 0.659842 0.398002
O O22 0.000000 0.572335 0.500000
O O23 0.750000 0.271782 0.623895
#
# Coordination Sequence:
#
# PCOD9407432 Si02
#       8
#     8   8   8   8   8   8   8   8
#     4  10  22  42  62  79 105 139 179 230 278 326
#     4  10  20  33  50  77 114 152 191 231 274 324
#     4  11  23  39  61  85 111 142 178 222 274 333
#     4   9  19  35  54  80 113 146 178 220 271 324
#     4   9  19  35  55  82 116 150 187 229 276 327
#     4  10  21  37  58  84 113 147 189 235 281 329
#     4  10  21  34  52  80 108 139 177 218 268 324
#     4  10  18  30  51  77 107 144 183 221 267 322
#
# _framework density 19.753086
#
# number of rings (size 3 to 8) (size 9 to 14) (size 15 to 20)
#    0.000    2.125    1.250    2.625    0.000    7.500 
#    0.000    1.250    0.000    0.375    0.000    0.000 
#    0.000    0.000    0.000    0.000    0.000    0.000 
#
# Total GULP energy -356661.982959 kJ/mol
# GULP energy per Si atom -5572.843484 kJ/mol
# Density = 1.970813 g / cm^3
# Si number density = 19.753086 Si / 1000 Ang^3
#
#
#
# Elastic Constant Matrix: (Units=GPa)
#
#
# Indices 1 2 3 4 5 6 
#
# 1 -0.5026 22.6830 46.7277 0.0000 0.0000 0.0000
# 2 22.6830 6.1028 23.9640 0.0000 0.0000 0.0000
# 3 46.7277 23.9640 76.8358 0.0000 0.0000 0.0000
# 4 0.0000 0.0000 0.0000 -98.6634 0.0000 0.0000
# 5 0.0000 0.0000 0.0000 0.0000 25.6798 0.0000
# 6 0.0000 0.0000 0.0000 0.0000 0.0000 5.1178
#
#
#
# Elastic Compliance Matrix: (Units=1/GPa)
#
#
# Indices 1 2 3 4 5 6 
#
# 1 0.052532 0.310659 -0.128838 0.000000 0.000000 0.000000
# 2 0.310659 1.107896 -0.534464 0.000000 0.000000 0.000000
# 3 -0.128838 -0.534464 0.258059 0.000000 0.000000 0.000000
# 4 0.000000 0.000000 0.000000 -0.010135 0.000000 0.000000
# 5 0.000000 0.000000 0.000000 0.000000 0.038941 0.000000
# 6 0.000000 0.000000 0.000000 0.000000 0.000000 0.195397
#
#
# Mechanical properties :
#
#
# Convention : Reuss Voigt Hill
#
# Bulk Modulus (GPa) = 1.40213 29.90948 15.65581
# Shear Modulus (GPa) = 1.93371 -14.30242 -6.18436
#
# Velocity S-wave (km/s) = 0.99049 -2.69376 -1.77133
# Velocity P-wave (km/s) = 1.42107 2.34509 1.93893
#
# Compressibility (1/GPa) = 0.71320140
#
# Stress axis : x y z
#
# Youngs Moduli (GPa) = 19.03595 0.90261 3.87508
#
# Poissons Ratio (x) = -0.28040 0.49926
# Poissons Ratio (y) = -5.91369 2.07109
# Poissons Ratio (z) = 2.45255 0.48241
#
# Static dielectric constant tensor:
#      x y z
#    x 1.689790 0.000000 0.000000 
#    y 0.000000 1.682310 0.000000 
#    z 0.000000 0.000000 1.762700 
# 
# From -- ./inp_files/22281.got.cif
#   From: 2010.05.17/outbox.ucp.g08.bks.cvg/sg51_12_cif.got.tgz:22281.got - 2010.06.11 16:27:58.
