data_PCOD9407487
_publ_section_title
;
Structure prediction by ZEFSAII (Michael W. Deem and Ramdas Pophale) SiO2 
 PCOD9407487
Probable space group: P M M A
;
_chemical_formula_sum "Si O2"
_cell_formula_units_Z 64
_cell_length_a 9.000000
_cell_length_b 15.000000
_cell_length_c 24.000000
_cell_angle_alpha 90.000000
_cell_angle_beta 90.000000
_cell_angle_gamma 90.000000
_cell_volume 3240.000000
_symmetry_space_group_name_H-M "P M M A"
_symmetry_group_IT_number 51
_symmetry_cell_setting 'orthorhombic'
loop_
_space_group_symop_operation_xyz
x,y,z
1/2-x,-y,z
1/2+x,-y,-z
-x,y,-z
-x,-y,-z
1/2+x,y,-z
1/2-x,y,z
x,-y,z
loop_
_atom_site_type_symbol
_atom_site_label
_atom_site_fract_x
_atom_site_fract_y
_atom_site_fract_z
Si Si1 0.422193 0.904071 0.589947
Si Si2 0.074398 0.296450 0.555736
Si Si3 0.573841 0.733530 0.851939
Si Si4 0.580383 0.101959 0.185929
Si Si5 0.572196 0.403198 0.940461
Si Si6 0.574815 0.402945 0.228505
Si Si7 0.080454 0.655108 0.332306
Si Si8 0.082421 0.862639 0.299041
O O1 0.250000 0.899423 0.608978
O O2 0.448376 0.811379 0.558766
O O3 0.527422 0.902977 0.643310
O O4 0.440022 0.000000 0.560802
O O5 0.250000 0.312385 0.558379
O O6 0.000000 0.330119 0.500000
O O7 0.988565 0.338740 0.607093
O O8 0.750000 0.729568 0.848441
O O9 0.520009 0.833439 0.849996
O O10 0.518934 0.679181 0.904840
O O11 0.507862 0.677279 0.801304
O O12 0.750000 0.132190 0.182616
O O13 0.524990 0.111139 0.249247
O O14 0.570154 0.000000 0.168859
O O15 0.750000 0.398673 0.944892
O O16 0.535267 0.500000 0.915444
O O17 0.500000 0.400144 0.000000
O O18 0.750000 0.392425 0.222276
O O19 0.529942 0.500000 0.206487
O O20 0.526254 0.398801 0.292230
O O21 0.250000 0.622820 0.331371
O O22 0.080888 0.756842 0.309603
O O23 0.250000 0.889413 0.284857
#
# Coordination Sequence:
#
# PCOD9407487 Si02
#       8
#     8   8   8   8   8   8   8   8
#     4   9  18  31  46  66  95 132 172 218 274 332
#     4  10  20  34  52  72  97 132 176 226 277 337
#     4  11  22  37  58  86 120 157 195 240 286 333
#     4  11  23  36  52  76 110 153 197 241 288 338
#     4   9  19  36  59  88 121 156 194 235 283 339
#     4  11  23  37  57  87 120 153 186 223 276 342
#     4  10  20  35  55  78 106 141 180 224 276 333
#     4  10  19  31  49  74 102 137 181 228 276 329
#
# _framework density 19.753086
#
# number of rings (size 3 to 8) (size 9 to 14) (size 15 to 20)
#    0.000    1.875    1.250    3.000    0.000    7.000 
#    0.000    1.250    0.000    0.750    0.000    0.000 
#    0.000    0.000    0.000    0.000    0.000    0.000 
#
# Total GULP energy -356874.348686 kJ/mol
# GULP energy per Si atom -5576.161698 kJ/mol
# Density = 1.970813 g / cm^3
# Si number density = 19.753086 Si / 1000 Ang^3
#
#
#
# Elastic Constant Matrix: (Units=GPa)
#
#
# Indices 1 2 3 4 5 6 
#
# 1 10.7560 26.1649 27.5828 0.0000 0.0000 0.0000
# 2 26.1649 30.8263 22.7322 0.0000 0.0000 0.0000
# 3 27.5828 22.7322 69.7849 0.0000 0.0000 0.0000
# 4 0.0000 0.0000 0.0000 70.4740 0.0000 0.0000
# 5 0.0000 0.0000 0.0000 0.0000 12.1890 0.0000
# 6 0.0000 0.0000 0.0000 0.0000 0.0000 24.1650
#
#
#
# Elastic Compliance Matrix: (Units=1/GPa)
#
#
# Indices 1 2 3 4 5 6 
#
# 1 -0.078445 0.057540 0.012262 0.000000 0.000000 0.000000
# 2 0.057540 0.000490 -0.022903 0.000000 0.000000 0.000000
# 3 0.012262 -0.022903 0.016944 0.000000 0.000000 0.000000
# 4 0.000000 0.000000 0.000000 0.014190 0.000000 0.000000
# 5 0.000000 0.000000 0.000000 0.000000 0.082041 0.000000
# 6 0.000000 0.000000 0.000000 0.000000 0.000000 0.041382
#
#
# Mechanical properties :
#
#
# Convention : Reuss Voigt Hill
#
# Bulk Modulus (GPa) = 30.49899 29.36968 29.93433
# Shear Modulus (GPa) = -797.68688 23.69141 -386.99773
#
# Velocity S-wave (km/s) = -20.11730 3.46696 -14.01224
# Velocity P-wave (km/s) = 22.89397 5.56121 15.70361
#
# Compressibility (1/GPa) = 0.03278797
#
# Stress axis : x y z
#
# Youngs Moduli (GPa) = -12.74787 2041.93206 59.01950
#
# Poissons Ratio (x) = -117.49292 -0.72370
# Poissons Ratio (y) = 0.73351 1.35170
# Poissons Ratio (z) = 0.15631 46.76540
#
# Static dielectric constant tensor:
#      x y z
#    x 1.664090 0.000000 0.000000 
#    y 0.000000 1.738620 0.000000 
#    z 0.000000 0.000000 1.637350 
# 
# From -- ./inp_files/34946.got.cif
#   From: 2010.05.17/outbox.ucp.g08.bks.cvg/sg51_18_cif.got.tgz:34946.got - 2010.06.11 16:27:58.
