data_PCOD9407118
_publ_section_title
;
Structure prediction by ZEFSAII (Michael W. Deem and Ramdas Pophale) SiO2 
 PCOD9407118
Probable space group: P M M A
;
_chemical_formula_sum "Si O2"
_cell_formula_units_Z 24
_cell_length_a 20.889758
_cell_length_b 10.943788
_cell_length_c 4.902138
_cell_angle_alpha 90.000000
_cell_angle_beta 90.000000
_cell_angle_gamma 90.000000
_cell_volume 1120.692881
_symmetry_space_group_name_H-M "P M M A"
_symmetry_group_IT_number 51
_symmetry_cell_setting 'orthorhombic'
loop_
_space_group_symop_operation_xyz
x,y,z
1/2-x,-y,z
1/2+x,-y,-z
-x,y,-z
-x,-y,-z
1/2+x,y,-z
1/2-x,y,z
x,-y,z
loop_
_atom_site_type_symbol
_atom_site_label
_atom_site_fract_x
_atom_site_fract_y
_atom_site_fract_z
Si Si1 0.825438 0.641610 0.905703
Si Si2 0.182860 0.000000 0.218766
Si Si3 0.631366 0.211882 0.432973
Si Si4 0.562144 0.000000 0.185156
O O1 0.750000 0.653355 0.828956
O O2 0.835476 0.500000 0.978995
O O3 0.871562 0.681736 0.657964
O O4 0.840856 0.728638 0.160297
O O5 0.177344 0.115996 0.414937
O O6 0.250000 0.000000 0.067196
O O7 0.123751 0.000000 0.013954
O O8 0.571304 0.124140 0.359912
O O9 0.500000 0.000000 0.000000
#
# Coordination Sequence:
#
# PCOD9407118 Si02
#       4
#     8   4   8   4
#     4  11  22  38  62  96 137 174 211 263 327 391
#     4  11  22  38  65 100 131 161 208 278 334 385
#     4  11  23  39  62  96 129 169 215 265 322 390
#     4  11  26  45  68  96 131 179 220 270 332 395
#
# _framework density 21.415322
#
# number of rings (size 3 to 8) (size 9 to 14) (size 15 to 20)
#    0.000    1.000    3.333    4.000    0.000    9.333 
#    0.000    0.000    0.000    6.000    0.000    0.000 
#    0.000    0.000    0.000    0.000    0.000    0.000 
#
# Total GULP energy -134067.851092 kJ/mol
# GULP energy per Si atom -5586.160462 kJ/mol
# Density = 2.136658 g / cm^3
# Si number density = 21.415322 Si / 1000 Ang^3
#
#
#
# Elastic Constant Matrix: (Units=GPa)
#
#
# Indices 1 2 3 4 5 6 
#
# 1 95.3915 21.9423 30.9969 0.0000 0.0000 0.0000
# 2 21.9423 133.5227 24.5297 0.0000 0.0000 0.0000
# 3 30.9969 24.5297 110.2562 0.0000 0.0000 0.0000
# 4 0.0000 0.0000 0.0000 30.1222 0.0000 0.0000
# 5 0.0000 0.0000 0.0000 0.0000 32.3956 0.0000
# 6 0.0000 0.0000 0.0000 0.0000 0.0000 7.2845
#
#
#
# Elastic Compliance Matrix: (Units=1/GPa)
#
#
# Indices 1 2 3 4 5 6 
#
# 1 0.011777 -0.001384 -0.003003 0.000000 0.000000 0.000000
# 2 -0.001384 0.007971 -0.001384 0.000000 0.000000 0.000000
# 3 -0.003003 -0.001384 0.010222 0.000000 0.000000 0.000000
# 4 0.000000 0.000000 0.000000 0.033198 0.000000 0.000000
# 5 0.000000 0.000000 0.000000 0.000000 0.030868 0.000000
# 6 0.000000 0.000000 0.000000 0.000000 0.000000 0.137278
#
#
# Mechanical properties :
#
#
# Convention : Reuss Voigt Hill
#
# Bulk Modulus (GPa) = 54.26546 54.90091 54.58319
# Shear Modulus (GPa) = 20.08029 31.40720 25.74375
#
# Velocity S-wave (km/s) = 3.06545 3.83375 3.47092
# Velocity P-wave (km/s) = 6.15823 6.72969 6.45029
#
# Compressibility (1/GPa) = 0.01842793
#
# Stress axis : x y z
#
# Youngs Moduli (GPa) = 84.90941 125.45349 97.82740
#
# Poissons Ratio (x) = 0.17359 0.29379
# Poissons Ratio (y) = 0.11749 0.13543
# Poissons Ratio (z) = 0.25500 0.17368
#
# Static dielectric constant tensor:
#      x y z
#    x 1.781770 0.000000 0.000000 
#    y 0.000000 1.823140 0.000000 
#    z 0.000000 0.000000 1.809040 
# 
# From -- ./inp_files/2168.got.cif
#   From: 2010.05.17/outbox.cif.g08.bks.cpg/sg51_2_cif.got.tgz:2168.got - 2010.06.03 11:52:47.
