data_PCOD9407630
_publ_section_title
;
Structure prediction by ZEFSAII (Michael W. Deem and Ramdas Pophale) SiO2 
 PCOD9407630
Probable space group: P M M A
;
_chemical_formula_sum "Si O2"
_cell_formula_units_Z 40
_cell_length_a 27.000000
_cell_length_b 9.000000
_cell_length_c 9.000000
_cell_angle_alpha 90.000000
_cell_angle_beta 90.000000
_cell_angle_gamma 90.000000
_cell_volume 2187.000000
_symmetry_space_group_name_H-M "P M M A"
_symmetry_group_IT_number 51
_symmetry_cell_setting 'orthorhombic'
loop_
_space_group_symop_operation_xyz
x,y,z
1/2-x,-y,z
1/2+x,-y,-z
-x,y,-z
-x,-y,-z
1/2+x,y,-z
1/2-x,y,z
x,-y,z
loop_
_atom_site_type_symbol
_atom_site_label
_atom_site_fract_x
_atom_site_fract_y
_atom_site_fract_z
Si Si1 0.996689 0.327809 0.323375
Si Si2 0.303147 0.822244 0.158108
Si Si3 0.403078 0.825040 0.820699
Si Si4 0.696326 0.677268 0.168274
Si Si5 0.089647 0.175838 0.176049
O O1 0.989182 0.500000 0.284992
O O2 0.046984 0.268973 0.251034
O O3 0.000000 0.313083 0.500000
O O4 0.950948 0.235192 0.261148
O O5 0.250000 0.792311 0.232883
O O6 0.355155 0.785433 0.234187
O O7 0.305545 0.000000 0.126994
O O8 0.302696 0.737898 0.000973
O O9 0.353013 0.746966 0.764889
O O10 0.397911 0.000000 0.800983
O O11 0.409587 0.798114 0.998061
O O12 0.750000 0.718829 0.234880
O O13 0.692506 0.500000 0.166887
O O14 0.080704 0.000000 0.199589
#
# Coordination Sequence:
#
# PCOD9407630 Si02
#       5
#     8   8   8   8   8
#     4  11  24  38  51  70  98 132 170 211 256 304
#     4   8  14  26  45  71 103 133 160 196 241 289
#     4  10  20  34  54  78 102 130 167 208 248 295
#     4   9  16  26  44  73 106 135 162 196 241 291
#     4   9  18  32  52  78 103 129 165 205 246 294
#
# _framework density 18.289895000000001
#
# number of rings (size 3 to 8) (size 9 to 14) (size 15 to 20)
#    0.000    2.600    0.000    3.600    0.000    9.200 
#    0.000    0.000    0.000    1.200    0.000    5.600 
#    0.000    0.000    0.000    0.000    0.000    0.000 
#
# Total GULP energy -222838.544768 kJ/mol
# GULP energy per Si atom -5570.963619 kJ/mol
# Density = 1.824827 g / cm^3
# Si number density = 18.289895 Si / 1000 Ang^3
#
#
#
# Elastic Constant Matrix: (Units=GPa)
#
#
# Indices 1 2 3 4 5 6 
#
# 1 169.1399 51.5784 18.5314 0.0000 0.0000 0.0000
# 2 51.5784 31.4174 18.9653 0.0000 0.0000 0.0000
# 3 18.5314 18.9653 -0.0929 0.0000 0.0000 0.0000
# 4 0.0000 0.0000 0.0000 30.1735 0.0000 0.0000
# 5 0.0000 0.0000 0.0000 0.0000 -17.8582 0.0000
# 6 0.0000 0.0000 0.0000 0.0000 0.0000 37.6883
#
#
#
# Elastic Compliance Matrix: (Units=1/GPa)
#
#
# Indices 1 2 3 4 5 6 
#
# 1 0.010180 -0.010002 -0.011118 0.000000 0.000000 0.000000
# 2 -0.010002 0.010083 0.063227 0.000000 0.000000 0.000000
# 3 -0.011118 0.063227 -0.074503 0.000000 0.000000 0.000000
# 4 0.000000 0.000000 0.000000 0.033142 0.000000 0.000000
# 5 0.000000 0.000000 0.000000 0.000000 -0.055997 0.000000
# 6 0.000000 0.000000 0.000000 0.000000 0.000000 0.026533
#
#
# Mechanical properties :
#
#
# Convention : Reuss Voigt Hill
#
# Bulk Modulus (GPa) = 33.36264 42.06830 37.71547
# Shear Modulus (GPa) = -40.06927 17.42668 -11.32129
#
# Velocity S-wave (km/s) = -4.68566 3.09010 -2.49065
# Velocity P-wave (km/s) = 3.31561 5.98184 3.52059
#
# Compressibility (1/GPa) = 0.02997364
#
# Stress axis : x y z
#
# Youngs Moduli (GPa) = 98.22785 99.18024 -13.42227
#
# Poissons Ratio (x) = 0.99199 -0.14923
# Poissons Ratio (y) = 0.98247 0.84865
# Poissons Ratio (z) = 1.09209 -6.27084
#
# Static dielectric constant tensor:
#      x y z
#    x 1.692320 0.000000 0.000000 
#    y 0.000000 1.609090 0.000000 
#    z 0.000000 0.000000 1.587870 
# 
# From -- ./inp_files/12105.got.cif
#   From: 2010.05.17/outbox.ucp.g08.bks.cvg/sg51_7_cif.got.tgz:12105.got - 2010.06.11 16:27:58.
