data_PCOD9407757
_publ_section_title
;
Structure prediction by ZEFSAII (Michael W. Deem and Ramdas Pophale) SiO2 
 PCOD9407757
Probable space group: P M M A
;
_chemical_formula_sum "Si O2"
_cell_formula_units_Z 56
_cell_length_a 9.000000
_cell_length_b 15.000000
_cell_length_c 21.000000
_cell_angle_alpha 90.000000
_cell_angle_beta 90.000000
_cell_angle_gamma 90.000000
_cell_volume 2835.000000
_symmetry_space_group_name_H-M "P M M A"
_symmetry_group_IT_number 51
_symmetry_cell_setting 'orthorhombic'
loop_
_space_group_symop_operation_xyz
x,y,z
1/2-x,-y,z
1/2+x,-y,-z
-x,y,-z
-x,-y,-z
1/2+x,y,-z
1/2-x,y,z
x,-y,z
loop_
_atom_site_type_symbol
_atom_site_label
_atom_site_fract_x
_atom_site_fract_y
_atom_site_fract_z
Si Si1 0.918408 0.899414 0.915048
Si Si2 0.575027 0.720065 0.062669
Si Si3 0.920123 0.901136 0.762439
Si Si4 0.927410 0.898915 0.438223
Si Si5 0.574889 0.772794 0.324262
Si Si6 0.426392 0.597283 0.314778
Si Si7 0.924407 0.399009 0.177822
O O1 0.750000 0.877483 0.936686
O O2 0.915858 0.900711 0.838489
O O3 0.031972 0.823554 0.934053
O O4 0.954721 0.000000 0.934621
O O5 0.750000 0.708194 0.059532
O O6 0.521161 0.670526 0.125914
O O7 0.500000 0.681263 0.000000
O O8 0.750000 0.893371 0.739312
O O9 0.012187 0.816418 0.739731
O O10 0.978438 0.000000 0.742934
O O11 0.750000 0.899882 0.445088
O O12 0.965176 0.846730 0.375555
O O13 0.000000 0.856731 0.500000
O O14 0.982182 0.000000 0.432965
O O15 0.750000 0.762171 0.319530
O O16 0.502689 0.681267 0.345987
O O17 0.250000 0.604081 0.317495
O O18 0.472195 0.500000 0.339260
O O19 0.481423 0.603448 0.241892
O O20 0.750000 0.381460 0.193247
O O21 0.931973 0.500000 0.152115
#
# Coordination Sequence:
#
# PCOD9407757 Si02
#       7
#     8   8   8   8   8   8   8
#     4   9  19  36  54  71  96 130 166 207 253 300
#     4  11  23  36  52  74  98 128 166 207 251 301
#     4   9  18  32  51  77 107 137 169 207 255 310
#     4   9  19  35  53  76 108 145 183 219 255 298
#     4  11  21  32  51  79 110 142 175 215 261 308
#     4  10  21  36  55  80 107 136 172 213 258 310
#     4   9  19  37  58  79 104 132 163 203 255 312
#
# _framework density 19.753086
#
# number of rings (size 3 to 8) (size 9 to 14) (size 15 to 20)
#    0.000    2.286    0.000    3.429    0.000    7.714 
#    0.000    2.857    0.000    0.429    0.000    0.000 
#    0.000    0.000    0.000    0.000    0.000    0.000 
#
# Total GULP energy -312224.162403 kJ/mol
# GULP energy per Si atom -5575.431471 kJ/mol
# Density = 1.970813 g / cm^3
# Si number density = 19.753086 Si / 1000 Ang^3
#
#
#
# Elastic Constant Matrix: (Units=GPa)
#
#
# Indices 1 2 3 4 5 6 
#
# 1 9.5453 31.7738 17.9344 0.0000 0.0000 0.0000
# 2 31.7738 70.2382 12.7592 0.0000 0.0000 0.0000
# 3 17.9344 12.7592 37.2563 0.0000 0.0000 0.0000
# 4 0.0000 0.0000 0.0000 -17.7043 0.0000 0.0000
# 5 0.0000 0.0000 0.0000 0.0000 22.0761 0.0000
# 6 0.0000 0.0000 0.0000 0.0000 0.0000 17.5921
#
#
#
# Elastic Compliance Matrix: (Units=1/GPa)
#
#
# Indices 1 2 3 4 5 6 
#
# 1 -0.110349 0.042941 0.038414 0.000000 0.000000 0.000000
# 2 0.042941 -0.001528 -0.020147 0.000000 0.000000 0.000000
# 3 0.038414 -0.020147 0.015250 0.000000 0.000000 0.000000
# 4 0.000000 0.000000 0.000000 -0.056484 0.000000 0.000000
# 5 0.000000 0.000000 0.000000 0.000000 0.045298 0.000000
# 6 0.000000 0.000000 0.000000 0.000000 0.000000 0.056844
#
#
# Mechanical properties :
#
#
# Convention : Reuss Voigt Hill
#
# Bulk Modulus (GPa) = 38.78017 26.88607 32.83312
# Shear Modulus (GPa) = -30.34212 8.03095 -11.15559
#
# Velocity S-wave (km/s) = -3.92352 2.01854 -2.37903
# Velocity P-wave (km/s) = 0.92212 4.36730 3.01852
#
# Compressibility (1/GPa) = 0.02578638
#
# Stress axis : x y z
#
# Youngs Moduli (GPa) = -9.06217 -654.42964 65.57564
#
# Poissons Ratio (x) = 28.10168 -2.51899
# Poissons Ratio (y) = 0.38914 1.32118
# Poissons Ratio (z) = 0.34811 -13.18504
#
# Static dielectric constant tensor:
#      x y z
#    x 1.682550 0.000000 0.000000 
#    y 0.000000 1.734800 0.000000 
#    z 0.000000 0.000000 1.709250 
# 
# From -- ./inp_files/31870.got.cif
#   From: 2010.05.17/outbox.ucp.g08.bks.cvg/sg51_16_cif.got.tgz:31870.got - 2010.06.11 16:27:58.
