data_PCOD9407723
_publ_section_title
;
Structure prediction by ZEFSAII (Michael W. Deem and Ramdas Pophale) SiO2 
 PCOD9407723
Probable space group: P M M A
;
_chemical_formula_sum "Si O2"
_cell_formula_units_Z 48
_cell_length_a 9.000000
_cell_length_b 9.000000
_cell_length_c 30.000000
_cell_angle_alpha 90.000000
_cell_angle_beta 90.000000
_cell_angle_gamma 90.000000
_cell_volume 2430.000000
_symmetry_space_group_name_H-M "P M M A"
_symmetry_group_IT_number 51
_symmetry_cell_setting 'orthorhombic'
loop_
_space_group_symop_operation_xyz
x,y,z
1/2-x,-y,z
1/2+x,-y,-z
-x,y,-z
-x,-y,-z
1/2+x,y,-z
1/2-x,y,z
x,-y,z
loop_
_atom_site_type_symbol
_atom_site_label
_atom_site_fract_x
_atom_site_fract_y
_atom_site_fract_z
Si Si1 0.426029 0.323040 0.045087
Si Si2 0.068752 0.170218 0.135066
Si Si3 0.250000 0.666849 0.431302
Si Si4 0.484620 0.827735 0.600872
Si Si5 0.928139 0.667129 0.776815
Si Si6 0.250000 0.174604 0.525400
Si Si7 0.917902 0.165879 0.297625
O O1 0.250000 0.294693 0.042442
O O2 0.448256 0.500000 0.046788
O O3 0.483313 0.256295 0.091300
O O4 0.500000 0.264566 0.000000
O O5 0.250000 0.181589 0.135532
O O6 0.016756 0.233265 0.182301
O O7 0.028121 0.000000 0.130976
O O8 0.250000 0.500000 0.444842
O O9 0.386492 0.711627 0.401367
O O10 0.250000 0.755113 0.477459
O O11 0.386859 0.792021 0.557716
O O12 0.412324 0.816356 0.649134
O O13 0.533971 0.000000 0.595991
O O14 0.750000 0.673406 0.776464
O O15 0.975167 0.500000 0.785800
O O16 0.985140 0.719702 0.729227
O O17 0.250000 0.000000 0.518110
O O18 0.750000 0.174105 0.280819
O O19 0.978023 0.000000 0.289292
#
# Coordination Sequence:
#
# PCOD9407723 Si02
#       7
#     8   8   4   8   8   4   8
#     4   9  17  30  49  73 103 139 177 218 268 325
#     4   9  17  31  52  77 104 138 182 228 272 315
#     4  12  26  38  54  86 122 148 180 224 271 320
#     4  10  21  40  63  85 109 144 186 227 271 322
#     4  10  21  36  56  83 113 144 181 223 271 329
#     4  10  20  40  66  86 108 144 190 228 267 324
#     4  10  21  39  61  84 109 139 180 227 275 326
#
# _framework density 19.753086
#
# number of rings (size 3 to 8) (size 9 to 14) (size 15 to 20)
#    0.000    2.167    0.833    2.250    1.167    7.000 
#    0.000    0.833    0.000    3.000    0.000    0.000 
#    0.000    0.000    0.000    0.000    0.000    0.000 
#
# Total GULP energy -267364.827856 kJ/mol
# GULP energy per Si atom -5570.100580 kJ/mol
# Density = 1.970813 g / cm^3
# Si number density = 19.753086 Si / 1000 Ang^3
#
#
#
# Elastic Constant Matrix: (Units=GPa)
#
#
# Indices 1 2 3 4 5 6 
#
# 1 5.6717 61.6120 13.1724 0.0000 0.0000 0.0000
# 2 61.6120 -47.2175 10.7727 0.0000 0.0000 0.0000
# 3 13.1724 10.7727 66.3361 0.0000 0.0000 0.0000
# 4 0.0000 0.0000 0.0000 26.9304 0.0000 0.0000
# 5 0.0000 0.0000 0.0000 0.0000 24.6775 0.0000
# 6 0.0000 0.0000 0.0000 0.0000 0.0000 9.5695
#
#
#
# Elastic Compliance Matrix: (Units=1/GPa)
#
#
# Indices 1 2 3 4 5 6 
#
# 1 0.013282 0.016132 -0.005257 0.000000 0.000000 0.000000
# 2 0.016132 -0.000829 -0.003069 0.000000 0.000000 0.000000
# 3 -0.005257 -0.003069 0.016617 0.000000 0.000000 0.000000
# 4 0.000000 0.000000 0.000000 0.037133 0.000000 0.000000
# 5 0.000000 0.000000 0.000000 0.000000 0.040523 0.000000
# 6 0.000000 0.000000 0.000000 0.000000 0.000000 0.104499
#
#
# Mechanical properties :
#
#
# Convention : Reuss Voigt Hill
#
# Bulk Modulus (GPa) = 22.38029 21.76718 22.07373
# Shear Modulus (GPa) = 23.75219 8.18436 15.96828
#
# Velocity S-wave (km/s) = 3.47140 2.03773 2.84631
# Velocity P-wave (km/s) = 5.23662 4.07185 4.69053
#
# Compressibility (1/GPa) = 0.04468218
#
# Stress axis : x y z
#
# Youngs Moduli (GPa) = 75.28903 -1206.35867 60.17929
#
# Poissons Ratio (x) = 19.46082 0.31637
# Poissons Ratio (y) = -1.21455 0.18467
# Poissons Ratio (z) = 0.39581 -3.70196
#
# Static dielectric constant tensor:
#      x y z
#    x 1.814920 0.000000 0.000000 
#    y 0.000000 1.679210 0.000000 
#    z 0.000000 0.000000 1.687380 
# 
# From -- ./inp_files/37153.got.cif
#   From: 2010.05.17/outbox.ucp.g08.bks.cvg/sg51_19_cif.got.tgz:37153.got - 2010.06.11 16:27:58.
