data_PCOD9407211
_publ_section_title
;
Structure prediction by ZEFSAII (Michael W. Deem and Ramdas Pophale) SiO2 
 PCOD9407211
Probable space group: P M M A
;
_chemical_formula_sum "Si O2"
_cell_formula_units_Z 30
_cell_length_a 16.171678
_cell_length_b 11.877044
_cell_length_c 7.670022
_cell_angle_alpha 90.000000
_cell_angle_beta 90.000000
_cell_angle_gamma 90.000000
_cell_volume 1473.194404
_symmetry_space_group_name_H-M "P M M A"
_symmetry_group_IT_number 51
_symmetry_cell_setting 'orthorhombic'
loop_
_space_group_symop_operation_xyz
x,y,z
1/2-x,-y,z
1/2+x,-y,-z
-x,y,-z
-x,-y,-z
1/2+x,y,-z
1/2-x,y,z
x,-y,z
loop_
_atom_site_type_symbol
_atom_site_label
_atom_site_fract_x
_atom_site_fract_y
_atom_site_fract_z
Si Si1 0.578591 0.500000 0.882997
Si Si2 0.084314 0.297309 0.391455
Si Si3 0.087423 0.134149 0.091224
Si Si4 0.750000 0.266217 0.017013
Si Si5 0.750000 0.500000 0.961779
Si Si6 0.750000 0.364260 0.405888
O O1 0.580672 0.606987 0.757096
O O2 0.655198 0.500000 0.018238
O O3 0.500000 0.500000 0.000000
O O4 0.086572 0.179606 0.288512
O O5 0.166297 0.317758 0.505549
O O6 0.000000 0.305732 0.500000
O O7 0.095854 0.000000 0.081557
O O8 0.167354 0.193591 0.005606
O O9 0.000000 0.165757 0.000000
O O10 0.750000 0.327127 0.203998
O O11 0.750000 0.372331 0.880812
O O12 0.750000 0.500000 0.420093
#
# Coordination Sequence:
#
# PCOD9407211 Si02
#       6
#     4   8   8   4   2   4
#     4  12  25  40  67  99 137 186 226 269 337 406
#     4  12  25  42  65  99 140 174 219 281 340 405
#     4  11  25  47  71  95 130 180 236 282 326 391
#     4  12  24  43  70 101 130 178 226 275 330 408
#     4  12  24  38  70  94 138 168 220 268 334 394
#     4  12  26  41  64  99 143 175 210 269 348 414
#
# _framework density 20.363911999999999
#
# number of rings (size 3 to 8) (size 9 to 14) (size 15 to 20)
#    0.000    0.267    4.667    4.800    3.733    0.533 
#    0.000    2.667    0.000    0.000    0.000    0.000 
#    0.000    0.000    0.000    0.000    0.000    0.000 
#
# Total GULP energy -167520.740643 kJ/mol
# GULP energy per Si atom -5584.024688 kJ/mol
# Density = 2.031756 g / cm^3
# Si number density = 20.363912 Si / 1000 Ang^3
#
#
#
# Elastic Constant Matrix: (Units=GPa)
#
#
# Indices 1 2 3 4 5 6 
#
# 1 258.6144 68.1379 82.6941 0.0000 0.0000 0.0000
# 2 68.1379 117.2466 28.1348 0.0000 0.0000 0.0000
# 3 82.6941 28.1348 101.7649 0.0000 0.0000 0.0000
# 4 0.0000 0.0000 0.0000 23.7373 0.0000 0.0000
# 5 0.0000 0.0000 0.0000 0.0000 53.0696 0.0000
# 6 0.0000 0.0000 0.0000 0.0000 0.0000 32.3558
#
#
#
# Elastic Compliance Matrix: (Units=1/GPa)
#
#
# Indices 1 2 3 4 5 6 
#
# 1 0.005791 -0.002395 -0.004043 0.000000 0.000000 0.000000
# 2 -0.002395 0.010126 -0.000853 0.000000 0.000000 0.000000
# 3 -0.004043 -0.000853 0.013348 0.000000 0.000000 0.000000
# 4 0.000000 0.000000 0.000000 0.042128 0.000000 0.000000
# 5 0.000000 0.000000 0.000000 0.000000 0.018843 0.000000
# 6 0.000000 0.000000 0.000000 0.000000 0.000000 0.030906
#
#
# Mechanical properties :
#
#
# Convention : Reuss Voigt Hill
#
# Bulk Modulus (GPa) = 68.11432 92.83996 80.47714
# Shear Modulus (GPa) = 35.55714 41.74314 38.65014
#
# Velocity S-wave (km/s) = 4.18315 4.53245 4.36130
# Velocity P-wave (km/s) = 7.54008 8.54870 8.06018
#
# Compressibility (1/GPa) = 0.01468120
#
# Stress axis : x y z
#
# Youngs Moduli (GPa) = 172.69138 98.75925 74.91704
#
# Poissons Ratio (x) = 0.23653 0.30292
# Poissons Ratio (y) = 0.41360 0.06392
# Poissons Ratio (z) = 0.69825 0.08427
#
# Static dielectric constant tensor:
#      x y z
#    x 1.720740 0.000000 0.000000 
#    y 0.000000 1.841300 0.000000 
#    z 0.000000 0.000000 1.798500 
# 
# From -- ./inp_files/7534.got.cif
#   From: 2010.05.17/outbox.cif.g08.bks.cpg/sg51_4_cif.got.tgz:7534.got - 2010.06.03 11:52:47.
