data_PCOD9407230
_publ_section_title
;
Structure prediction by ZEFSAII (Michael W. Deem and Ramdas Pophale) SiO2 
 PCOD9407230
Probable space group: P M M A
;
_chemical_formula_sum "Si O2"
_cell_formula_units_Z 44
_cell_length_a 9.491566
_cell_length_b 7.381858
_cell_length_c 31.051997
_cell_angle_alpha 90.000000
_cell_angle_beta 90.000000
_cell_angle_gamma 90.000000
_cell_volume 2175.670355
_symmetry_space_group_name_H-M "P M M A"
_symmetry_group_IT_number 51
_symmetry_cell_setting 'orthorhombic'
loop_
_space_group_symop_operation_xyz
x,y,z
1/2-x,-y,z
1/2+x,-y,-z
-x,y,-z
-x,-y,-z
1/2+x,y,-z
1/2-x,y,z
x,-y,z
loop_
_atom_site_type_symbol
_atom_site_label
_atom_site_fract_x
_atom_site_fract_y
_atom_site_fract_z
Si Si1 0.589574 0.216215 0.635619
Si Si2 0.411141 0.778250 0.717130
Si Si3 0.909961 0.779853 0.798560
Si Si4 0.079671 0.500000 0.954349
Si Si5 0.090025 0.716596 0.460031
Si Si6 0.083627 0.217276 0.102542
O O1 0.750000 0.287527 0.637154
O O2 0.496608 0.283164 0.675122
O O3 0.531059 0.249697 0.587755
O O4 0.598043 0.000000 0.640565
O O5 0.250000 0.721124 0.715409
O O6 0.486232 0.719479 0.761150
O O7 0.412842 0.000000 0.717115
O O8 0.750000 0.722311 0.789048
O O9 0.944354 0.729690 0.847636
O O10 0.909844 0.000000 0.798198
O O11 0.250000 0.500000 0.958017
O O12 0.020006 0.326900 0.928147
O O13 0.000000 0.500000 0.000000
O O14 0.250000 0.787799 0.460853
O O15 0.097837 0.500000 0.464743
O O16 0.000000 0.786803 0.500000
O O17 0.250000 0.257574 0.093884
O O18 0.066718 0.000000 0.098478
#
# Coordination Sequence:
#
# PCOD9407230 Si02
#       6
#     8   8   8   4   8   8
#     4   9  17  29  45  65  90 120 154 193 237 289
#     4   9  16  25  41  69 102 132 163 202 248 299
#     4   8  14  27  50  78 106 139 177 215 259 315
#     4  12  26  42  62  88 122 162 200 246 299 352
#     4   9  18  32  48  64  83 111 148 189 235 291
#     4   9  19  38  64  91 119 154 199 248 295 348
#
# _framework density 20.223652999999999
#
# number of rings (size 3 to 8) (size 9 to 14) (size 15 to 20)
#    0.000    2.909    0.000    2.455    0.000    4.727 
#    0.000    1.818    2.000    0.000    0.000    0.000 
#    0.000    0.000    0.000    0.000    0.000    0.000 
#
# Total GULP energy -245555.035266 kJ/mol
# GULP energy per Si atom -5580.796256 kJ/mol
# Density = 2.017762 g / cm^3
# Si number density = 20.223653 Si / 1000 Ang^3
#
#
#
# Elastic Constant Matrix: (Units=GPa)
#
#
# Indices 1 2 3 4 5 6 
#
# 1 137.4368 27.7191 126.5020 0.0000 0.0000 0.0000
# 2 27.7191 80.3677 25.6911 0.0000 0.0000 0.0000
# 3 126.5020 25.6911 187.8898 0.0000 0.0000 0.0000
# 4 0.0000 0.0000 0.0000 31.0148 0.0000 0.0000
# 5 0.0000 0.0000 0.0000 0.0000 34.4371 0.0000
# 6 0.0000 0.0000 0.0000 0.0000 0.0000 0.9357
#
#
#
# Elastic Compliance Matrix: (Units=1/GPa)
#
#
# Indices 1 2 3 4 5 6 
#
# 1 0.019665 -0.002667 -0.012875 0.000000 0.000000 0.000000
# 2 -0.002667 0.013373 -0.000033 0.000000 0.000000 0.000000
# 3 -0.012875 -0.000033 0.013995 0.000000 0.000000 0.000000
# 4 0.000000 0.000000 0.000000 0.032243 0.000000 0.000000
# 5 0.000000 0.000000 0.000000 0.000000 0.029038 0.000000
# 6 0.000000 0.000000 0.000000 0.000000 0.000000 1.068685
#
#
# Mechanical properties :
#
#
# Convention : Reuss Voigt Hill
#
# Bulk Modulus (GPa) = 62.95952 85.05763 74.00857
# Shear Modulus (GPa) = 4.12050 28.32967 16.22509
#
# Velocity S-wave (km/s) = 1.42895 3.74681 2.83553
# Velocity P-wave (km/s) = 5.82424 7.80179 6.88439
#
# Compressibility (1/GPa) = 0.01588322
#
# Stress axis : x y z
#
# Youngs Moduli (GPa) = 50.85257 74.77676 71.45217
#
# Poissons Ratio (x) = 0.19940 0.91996
# Poissons Ratio (y) = 0.13560 0.00237
# Poissons Ratio (z) = 0.65474 0.00248
#
# Static dielectric constant tensor:
#      x y z
#    x 1.686460 0.000000 0.000000 
#    y 0.000000 1.752270 0.000000 
#    z 0.000000 0.000000 1.698300 
# 
# From -- ./inp_files/36822.got.cif
#   From: 2010.05.17/outbox.cif.g08.bks.cpg/sg51_19_cif.got.tgz:36822.got - 2010.06.03 11:52:47.
