data_PCOD9407589
_publ_section_title
;
Structure prediction by ZEFSAII (Michael W. Deem and Ramdas Pophale) SiO2 
 PCOD9407589
Probable space group: P M M A
;
_chemical_formula_sum "Si O2"
_cell_formula_units_Z 56
_cell_length_a 15.000000
_cell_length_b 9.000000
_cell_length_c 21.000000
_cell_angle_alpha 90.000000
_cell_angle_beta 90.000000
_cell_angle_gamma 90.000000
_cell_volume 2835.000000
_symmetry_space_group_name_H-M "P M M A"
_symmetry_group_IT_number 51
_symmetry_cell_setting 'orthorhombic'
loop_
_space_group_symop_operation_xyz
x,y,z
1/2-x,-y,z
1/2+x,-y,-z
-x,y,-z
-x,-y,-z
1/2+x,y,-z
1/2-x,y,z
x,-y,z
loop_
_atom_site_type_symbol
_atom_site_label
_atom_site_fract_x
_atom_site_fract_y
_atom_site_fract_z
Si Si1 0.654447 0.821195 0.606322
Si Si2 0.346442 0.678158 0.123365
Si Si3 0.853375 0.672809 0.248177
Si Si4 0.040626 0.674171 0.878496
Si Si5 0.896439 0.332048 0.478821
Si Si6 0.149097 0.173764 0.985847
Si Si7 0.958777 0.176297 0.355708
O O1 0.750000 0.773890 0.634868
O O2 0.649927 0.759950 0.534477
O O3 0.562194 0.772044 0.639133
O O4 0.652870 0.000000 0.604964
O O5 0.250000 0.735125 0.148459
O O6 0.342833 0.500000 0.127578
O O7 0.443895 0.722300 0.149039
O O8 0.352177 0.730514 0.050139
O O9 0.750000 0.711004 0.254950
O O10 0.865466 0.500000 0.267810
O O11 0.885633 0.684349 0.175954
O O12 0.915209 0.775947 0.290355
O O13 0.033670 0.500000 0.897645
O O14 0.074769 0.769757 0.937431
O O15 0.862186 0.500000 0.474405
O O16 0.900454 0.251681 0.411313
O O17 0.000000 0.338835 0.500000
O O18 0.250000 0.190643 0.958680
O O19 0.136630 0.000000 0.001020
O O20 0.957626 0.000000 0.365024
#
# Coordination Sequence:
#
# PCOD9407589 Si02
#       7
#     8   8   8   8   8   8   8
#     4   9  18  33  53  78 108 139 170 206 251 304
#     4   9  18  33  53  77 105 136 169 205 249 305
#     4  10  22  39  56  74  99 132 170 214 261 305
#     4  10  20  35  55  76 100 134 174 213 254 301
#     4   9  17  30  50  76 105 135 168 208 252 296
#     4  10  20  32  49  77 110 139 168 207 255 303
#     4  10  20  35  55  77 103 137 175 213 253 301
#
# _framework density 19.753086
#
# number of rings (size 3 to 8) (size 9 to 14) (size 15 to 20)
#    0.000    2.429    0.000    2.143    0.000    7.714 
#    0.000    0.714    0.000    0.857    0.000    0.000 
#    0.000    0.000    0.000    0.000    0.000    0.000 
#
# Total GULP energy -312112.396384 kJ/mol
# GULP energy per Si atom -5573.435650 kJ/mol
# Density = 1.970813 g / cm^3
# Si number density = 19.753086 Si / 1000 Ang^3
#
#
#
# Elastic Constant Matrix: (Units=GPa)
#
#
# Indices 1 2 3 4 5 6 
#
# 1 104.3867 6.3884 2.1636 0.0000 0.0000 0.0000
# 2 6.3884 -2.5954 0.4487 0.0000 0.0000 0.0000
# 3 2.1636 0.4487 10.7511 0.0000 0.0000 0.0000
# 4 0.0000 0.0000 0.0000 40.4688 0.0000 0.0000
# 5 0.0000 0.0000 0.0000 0.0000 19.5899 0.0000
# 6 0.0000 0.0000 0.0000 0.0000 0.0000 17.9765
#
#
#
# Elastic Compliance Matrix: (Units=1/GPa)
#
#
# Indices 1 2 3 4 5 6 
#
# 1 0.008395 0.020224 -0.002533 0.000000 0.000000 0.000000
# 2 0.020224 -0.333806 0.009860 0.000000 0.000000 0.000000
# 3 -0.002533 0.009860 0.093112 0.000000 0.000000 0.000000
# 4 0.000000 0.000000 0.000000 0.024710 0.000000 0.000000
# 5 0.000000 0.000000 0.000000 0.000000 0.051047 0.000000
# 6 0.000000 0.000000 0.000000 0.000000 0.000000 0.055628
#
#
# Mechanical properties :
#
#
# Convention : Reuss Voigt Hill
#
# Bulk Modulus (GPa) = -5.64347 14.50485 4.43069
# Shear Modulus (GPa) = -23.24694 22.50982 -0.36856
#
# Velocity S-wave (km/s) = -3.43428 3.37940 -0.43242
# Velocity P-wave (km/s) = 4.31149 4.75249 1.41371
#
# Compressibility (1/GPa) = -0.17719584
#
# Stress axis : x y z
#
# Youngs Moduli (GPa) = 119.12501 -2.99575 10.73973
#
# Poissons Ratio (x) = 0.06059 0.02721
# Poissons Ratio (y) = -2.40924 -0.10590
# Poissons Ratio (z) = 0.30179 0.02954
#
# Static dielectric constant tensor:
#      x y z
#    x 1.769250 0.000000 0.000000 
#    y 0.000000 1.680820 0.000000 
#    z 0.000000 0.000000 1.670100 
# 
# From -- ./inp_files/33494.got.cif
#   From: 2010.05.17/outbox.ucp.g08.bks.cvg/sg51_17_cif.got.tgz:33494.got - 2010.06.11 16:27:58.
