data_PCOD9407601
_publ_section_title
;
Structure prediction by ZEFSAII (Michael W. Deem and Ramdas Pophale) SiO2 
 PCOD9407601
Probable space group: P M M A
;
_chemical_formula_sum "Si O2"
_cell_formula_units_Z 64
_cell_length_a 24.000000
_cell_length_b 9.000000
_cell_length_c 15.000000
_cell_angle_alpha 90.000000
_cell_angle_beta 90.000000
_cell_angle_gamma 90.000000
_cell_volume 3240.000000
_symmetry_space_group_name_H-M "P M M A"
_symmetry_group_IT_number 51
_symmetry_cell_setting 'orthorhombic'
loop_
_space_group_symop_operation_xyz
x,y,z
1/2-x,-y,z
1/2+x,-y,-z
-x,y,-z
-x,-y,-z
1/2+x,y,-z
1/2-x,y,z
x,-y,z
loop_
_atom_site_type_symbol
_atom_site_label
_atom_site_fract_x
_atom_site_fract_y
_atom_site_fract_z
Si Si1 0.185209 0.180164 0.170763
Si Si2 0.411887 0.173481 0.711033
Si Si3 0.314438 0.827820 0.477862
Si Si4 0.007976 0.331700 0.605170
Si Si5 0.093380 0.180777 0.039462
Si Si6 0.385795 0.323130 0.330296
Si Si7 0.811808 0.670175 0.333264
Si Si8 0.520155 0.179644 0.123764
O O1 0.250000 0.227777 0.175120
O O2 0.152306 0.226610 0.080409
O O3 0.146841 0.241876 0.250477
O O4 0.184928 0.000000 0.176055
O O5 0.439761 0.224537 0.620009
O O6 0.357621 0.266760 0.731818
O O7 0.459687 0.216750 0.779579
O O8 0.400413 0.000000 0.715225
O O9 0.250000 0.817915 0.446642
O O10 0.352361 0.723469 0.418540
O O11 0.314747 0.772713 0.579370
O O12 0.331579 0.000000 0.471519
O O13 0.021236 0.500000 0.636678
O O14 0.950166 0.281967 0.651229
O O15 0.000000 0.339212 0.500000
O O16 0.041966 0.230457 0.102466
O O17 0.095030 0.000000 0.037967
O O18 0.068504 0.229119 0.944506
O O19 0.383780 0.500000 0.316843
O O20 0.750000 0.679420 0.295852
O O21 0.822645 0.500000 0.358825
O O22 0.518085 0.000000 0.115620
#
# Coordination Sequence:
#
# PCOD9407601 Si02
#       8
#     8   8   8   8   8   8   8   8
#     4  10  20  33  51  76 106 141 181 225 270 319
#     4  11  21  33  54  83 109 132 166 215 267 315
#     4  10  20  34  53  76 101 131 173 224 267 303
#     4  10  22  38  53  72 103 142 181 220 262 312
#     4   8  14  29  51  74 103 135 170 212 262 322
#     4  11  22  34  51  75 105 143 181 216 260 317
#     4  10  21  37  55  73  99 138 176 208 250 306
#     4   8  15  28  50  79 105 131 165 213 270 320
#
# _framework density 19.753086
#
# number of rings (size 3 to 8) (size 9 to 14) (size 15 to 20)
#    0.000    2.250    0.000    4.125    0.000    6.500 
#    0.000    0.625    0.000    3.750    0.000    6.125 
#    0.000    0.000    0.000    0.000    0.000    0.000 
#
# Total GULP energy -356543.409099 kJ/mol
# GULP energy per Si atom -5570.990767 kJ/mol
# Density = 1.970813 g / cm^3
# Si number density = 19.753086 Si / 1000 Ang^3
#
#
#
# Elastic Constant Matrix: (Units=GPa)
#
#
# Indices 1 2 3 4 5 6 
#
# 1 121.4700 34.1700 30.1859 0.0000 0.0000 0.0000
# 2 34.1700 16.7971 9.7836 0.0000 0.0000 0.0000
# 3 30.1859 9.7836 25.3933 0.0000 0.0000 0.0000
# 4 0.0000 0.0000 0.0000 -97.6888 0.0000 0.0000
# 5 0.0000 0.0000 0.0000 0.0000 21.8502 0.0000
# 6 0.0000 0.0000 0.0000 0.0000 0.0000 24.8265
#
#
#
# Elastic Compliance Matrix: (Units=1/GPa)
#
#
# Indices 1 2 3 4 5 6 
#
# 1 0.021464 -0.037137 -0.011207 0.000000 0.000000 0.000000
# 2 -0.037137 0.141013 -0.010184 0.000000 0.000000 0.000000
# 3 -0.011207 -0.010184 0.056627 0.000000 0.000000 0.000000
# 4 0.000000 0.000000 0.000000 -0.010237 0.000000 0.000000
# 5 0.000000 0.000000 0.000000 0.000000 0.045766 0.000000
# 6 0.000000 0.000000 0.000000 0.000000 0.000000 0.040280
#
#
# Mechanical properties :
#
#
# Convention : Reuss Voigt Hill
#
# Bulk Modulus (GPa) = 9.79933 34.65994 22.22963
# Shear Modulus (GPa) = 11.21115 -4.23437 3.48839
#
# Velocity S-wave (km/s) = 2.38495 -1.46571 1.33035
# Velocity P-wave (km/s) = 3.54339 3.83670 3.69296
#
# Compressibility (1/GPa) = 0.10204780
#
# Stress axis : x y z
#
# Youngs Moduli (GPa) = 46.58905 7.09155 17.65956
#
# Poissons Ratio (x) = 0.26336 0.19791
# Poissons Ratio (y) = 1.73017 0.17984
# Poissons Ratio (z) = 0.52213 0.07222
#
# Static dielectric constant tensor:
#      x y z
#    x 1.732980 0.000000 0.000000 
#    y 0.000000 1.660590 0.000000 
#    z 0.000000 0.000000 1.777430 
# 
# From -- ./inp_files/26197.got.cif
#   From: 2010.05.17/outbox.ucp.g08.bks.cvg/sg51_14_cif.got.tgz:26197.got - 2010.06.11 16:27:58.
