data_PCOD9407224
_publ_section_title
;
Structure prediction by ZEFSAII (Michael W. Deem and Ramdas Pophale) SiO2 
 PCOD9407224
Probable space group: P M M A
;
_chemical_formula_sum "Si O2"
_cell_formula_units_Z 64
_cell_length_a 8.813943
_cell_length_b 14.992489
_cell_length_c 29.477167
_cell_angle_alpha 90.000000
_cell_angle_beta 90.000000
_cell_angle_gamma 90.000000
_cell_volume 3895.199613
_symmetry_space_group_name_H-M "P M M A"
_symmetry_group_IT_number 51
_symmetry_cell_setting 'orthorhombic'
loop_
_space_group_symop_operation_xyz
x,y,z
1/2-x,-y,z
1/2+x,-y,-z
-x,y,-z
-x,-y,-z
1/2+x,y,-z
1/2-x,y,z
x,-y,z
loop_
_atom_site_type_symbol
_atom_site_label
_atom_site_fract_x
_atom_site_fract_y
_atom_site_fract_z
Si Si1 0.064514 0.220572 0.772479
Si Si2 0.070420 0.721074 0.453263
Si Si3 0.924396 0.891579 0.953231
Si Si4 0.932998 0.103139 0.415996
Si Si5 0.934288 0.101277 0.311627
Si Si6 0.933025 0.103450 0.142374
Si Si7 0.570590 0.606410 0.373133
Si Si8 0.434976 0.600559 0.730794
O O1 0.250000 0.219100 0.772999
O O2 0.014685 0.167576 0.727413
O O3 0.014562 0.167981 0.817228
O O4 0.016747 0.322737 0.765413
O O5 0.250000 0.720833 0.456418
O O6 0.010315 0.821604 0.445753
O O7 0.000000 0.685511 0.500000
O O8 0.016051 0.662729 0.410579
O O9 0.750000 0.863881 0.951487
O O10 0.008583 0.866895 0.906859
O O11 0.928644 0.000000 0.954465
O O12 0.000000 0.860181 0.000000
O O13 0.250000 0.111020 0.580844
O O14 0.977918 0.121056 0.363390
O O15 0.971944 0.000000 0.426513
O O16 0.750000 0.102874 0.311461
O O17 0.980675 0.000000 0.300904
O O18 0.750000 0.103665 0.141856
O O19 0.980438 0.000000 0.150317
O O20 0.750000 0.628146 0.376441
O O21 0.553779 0.500000 0.380260
O O22 0.522272 0.624495 0.321114
O O23 0.250000 0.598822 0.730581
O O24 0.486727 0.500000 0.740790
#
# Coordination Sequence:
#
# PCOD9407224 Si02
#       8
#     8   8   8   8   8   8   8   8
#     4   9  14  20  35  60  91 121 146 177 214 254
#     4  12  25  38  53  72  96 123 150 184 226 275
#     4   9  16  26  40  56  77 110 151 191 227 262
#     4   9  18  34  55  75  95 121 155 193 228 264
#     4   8  13  22  40  66  90 113 144 180 216 254
#     4   9  16  24  35  56  87 120 153 186 218 253
#     4   9  18  35  58  79  98 120 148 185 228 274
#     4   8  14  25  44  70  94 116 145 181 219 258
#
# _framework density 16.430479999999999
#
# number of rings (size 3 to 8) (size 9 to 14) (size 15 to 20)
#    0.000    2.875    0.000    4.125    0.000    6.000 
#    0.000    0.000    0.000    3.000    0.000    3.500 
#    0.000    0.500    0.000    0.875    0.000    1.250 
#
# Total GULP energy -356694.294208 kJ/mol
# GULP energy per Si atom -5573.348347 kJ/mol
# Density = 1.639308 g / cm^3
# Si number density = 16.430480 Si / 1000 Ang^3
#
#
#
# Elastic Constant Matrix: (Units=GPa)
#
#
# Indices 1 2 3 4 5 6 
#
# 1 28.4582 23.0523 23.9762 0.0000 0.0000 0.0000
# 2 23.0523 68.1913 64.7566 0.0000 0.0000 0.0000
# 3 23.9762 64.7566 95.2269 0.0000 0.0000 0.0000
# 4 0.0000 0.0000 0.0000 16.2966 0.0000 0.0000
# 5 0.0000 0.0000 0.0000 0.0000 17.8658 0.0000
# 6 0.0000 0.0000 0.0000 0.0000 0.0000 10.5140
#
#
#
# Elastic Compliance Matrix: (Units=1/GPa)
#
#
# Indices 1 2 3 4 5 6 
#
# 1 0.048694 -0.013603 -0.003010 0.000000 0.000000 0.000000
# 2 -0.013603 0.045199 -0.027311 0.000000 0.000000 0.000000
# 3 -0.003010 -0.027311 0.029832 0.000000 0.000000 0.000000
# 4 0.000000 0.000000 0.000000 0.061362 0.000000 0.000000
# 5 0.000000 0.000000 0.000000 0.000000 0.055973 0.000000
# 6 0.000000 0.000000 0.000000 0.000000 0.000000 0.095112
#
#
# Mechanical properties :
#
#
# Convention : Reuss Voigt Hill
#
# Bulk Modulus (GPa) = 27.87375 46.16074 37.01724
# Shear Modulus (GPa) = 11.46844 14.27468 12.87156
#
# Velocity S-wave (km/s) = 2.64483 2.95073 2.80196
# Velocity P-wave (km/s) = 5.13111 6.30592 5.74861
#
# Compressibility (1/GPa) = 0.03587605
#
# Stress axis : x y z
#
# Youngs Moduli (GPa) = 20.53636 22.12437 33.52156
#
# Poissons Ratio (x) = 0.30096 0.10089
# Poissons Ratio (y) = 0.27936 0.91552
# Poissons Ratio (z) = 0.06181 0.60425
#
# Static dielectric constant tensor:
#      x y z
#    x 1.556980 0.000000 0.000000 
#    y 0.000000 1.559780 0.000000 
#    z 0.000000 0.000000 1.548370 
# 
# From -- ./inp_files/37538.got.cif
#   From: 2010.05.17/outbox.cif.g08.bks.cpg/sg51_19_cif.got.tgz:37538.got - 2010.06.03 11:52:47.
