data_PCOD9407086
_publ_section_title
;
Structure prediction by ZEFSAII (Michael W. Deem and Ramdas Pophale) SiO2 
 PCOD9407086
Probable space group: P M M A
;
_chemical_formula_sum "Si O2"
_cell_formula_units_Z 48
_cell_length_a 18.624291
_cell_length_b 15.262810
_cell_length_c 9.355433
_cell_angle_alpha 90.000000
_cell_angle_beta 90.000000
_cell_angle_gamma 90.000000
_cell_volume 2659.366169
_symmetry_space_group_name_H-M "P M M A"
_symmetry_group_IT_number 51
_symmetry_cell_setting 'orthorhombic'
loop_
_space_group_symop_operation_xyz
x,y,z
1/2-x,-y,z
1/2+x,-y,-z
-x,y,-z
-x,-y,-z
1/2+x,y,-z
1/2-x,y,z
x,-y,z
loop_
_atom_site_type_symbol
_atom_site_label
_atom_site_fract_x
_atom_site_fract_y
_atom_site_fract_z
Si Si1 0.164192 0.604063 0.256196
Si Si2 0.162681 0.599086 0.926524
Si Si3 0.667392 0.248559 0.277456
Si Si4 0.550522 0.101591 0.780760
Si Si5 0.922572 0.256759 0.558129
Si Si6 0.610262 0.899591 0.090225
O O1 0.250000 0.620382 0.272082
O O2 0.153112 0.500000 0.282526
O O3 0.118552 0.666573 0.357475
O O4 0.143828 0.621311 0.090153
O O5 0.250000 0.599916 0.922927
O O6 0.139069 0.500000 0.895890
O O7 0.137023 0.668118 0.809974
O O8 0.750000 0.265844 0.314004
O O9 0.623803 0.231193 0.420224
O O10 0.661067 0.168117 0.168489
O O11 0.566309 0.172853 0.660617
O O12 0.468308 0.108822 0.835685
O O13 0.561223 0.000000 0.735195
O O14 0.598623 0.117661 0.922071
O O15 0.000000 0.285853 0.500000
O O16 0.633569 0.000000 0.106831
#
# Coordination Sequence:
#
# PCOD9407086 Si02
#       6
#     8   8   8   8   8   8
#     4   9  19  38  61  81 107 148 191 230 279 337
#     4   8  16  34  59  81 101 136 186 228 266 324
#     4  11  22  35  54  83 116 147 181 227 287 339
#     4   9  19  37  60  81 106 145 191 230 274 331
#     4  12  23  35  53  84 118 152 185 230 277 337
#     4   9  18  36  60  82 104 140 190 237 277 324
#
# _framework density 18.049413999999999
#
# number of rings (size 3 to 8) (size 9 to 14) (size 15 to 20)
#    0.000    2.333    1.667    3.500    0.000    2.333 
#    0.000    2.500    0.000    5.500    0.000    0.000 
#    0.000    0.000    0.000    0.000    0.000    0.000 
#
# Total GULP energy -267771.892205 kJ/mol
# GULP energy per Si atom -5578.581088 kJ/mol
# Density = 1.800833 g / cm^3
# Si number density = 18.049414 Si / 1000 Ang^3
#
#
#
# Elastic Constant Matrix: (Units=GPa)
#
#
# Indices 1 2 3 4 5 6 
#
# 1 46.4914 28.6725 34.3440 0.0000 0.0000 0.0000
# 2 28.6725 90.1419 73.2503 0.0000 0.0000 0.0000
# 3 34.3440 73.2503 100.9630 0.0000 0.0000 0.0000
# 4 0.0000 0.0000 0.0000 -4.1982 0.0000 0.0000
# 5 0.0000 0.0000 0.0000 0.0000 26.0808 0.0000
# 6 0.0000 0.0000 0.0000 0.0000 0.0000 25.4194
#
#
#
# Elastic Compliance Matrix: (Units=1/GPa)
#
#
# Indices 1 2 3 4 5 6 
#
# 1 0.029046 -0.002948 -0.007742 0.000000 0.000000 0.000000
# 2 -0.002948 0.027328 -0.018824 0.000000 0.000000 0.000000
# 3 -0.007742 -0.018824 0.026195 0.000000 0.000000 0.000000
# 4 0.000000 0.000000 0.000000 -0.238200 0.000000 0.000000
# 5 0.000000 0.000000 0.000000 0.000000 0.038342 0.000000
# 6 0.000000 0.000000 0.000000 0.000000 0.000000 0.039340
#
#
# Mechanical properties :
#
#
# Convention : Reuss Voigt Hill
#
# Bulk Modulus (GPa) = 42.47744 56.68110 49.57927
# Shear Modulus (GPa) = -451.55000 16.21571 -217.66715
#
# Velocity S-wave (km/s) = -15.83406 3.00059 -10.99349
# Velocity P-wave (km/s) = 17.62682 6.59365 11.55917
#
# Compressibility (1/GPa) = 0.02354191
#
# Stress axis : x y z
#
# Youngs Moduli (GPa) = 34.42766 36.59246 38.17502
#
# Poissons Ratio (x) = 0.10789 0.29553
# Poissons Ratio (y) = 0.10150 0.71861
# Poissons Ratio (z) = 0.26652 0.68882
#
# Static dielectric constant tensor:
#      x y z
#    x 1.615000 0.000000 0.000000 
#    y 0.000000 1.611540 0.000000 
#    z 0.000000 0.000000 1.604740 
# 
# From -- ./inp_files/9630.got.cif
#   From: 2010.05.17/outbox.cif.g08.bks.cpg/sg51_5_cif.got.tgz:9630.got - 2010.06.03 11:52:47.
