data_PCOD9407668
_publ_section_title
;
Structure prediction by ZEFSAII (Michael W. Deem and Ramdas Pophale) SiO2 
 PCOD9407668
Probable space group: P M M A
;
_chemical_formula_sum "Si O2"
_cell_formula_units_Z 48
_cell_length_a 18.000000
_cell_length_b 9.000000
_cell_length_c 15.000000
_cell_angle_alpha 90.000000
_cell_angle_beta 90.000000
_cell_angle_gamma 90.000000
_cell_volume 2430.000000
_symmetry_space_group_name_H-M "P M M A"
_symmetry_group_IT_number 51
_symmetry_cell_setting 'orthorhombic'
loop_
_space_group_symop_operation_xyz
x,y,z
1/2-x,-y,z
1/2+x,-y,-z
-x,y,-z
-x,-y,-z
1/2+x,y,-z
1/2-x,y,z
x,-y,z
loop_
_atom_site_type_symbol
_atom_site_label
_atom_site_fract_x
_atom_site_fract_y
_atom_site_fract_z
Si Si1 0.613133 0.327399 0.498691
Si Si2 0.130227 0.177289 0.882547
Si Si3 0.750000 0.818782 0.262474
Si Si4 0.829427 0.323699 0.938954
Si Si5 0.011825 0.673846 0.648117
Si Si6 0.250000 0.827494 0.534358
Si Si7 0.521057 0.320037 0.842384
O O1 0.633422 0.500000 0.485759
O O2 0.553484 0.323028 0.576370
O O3 0.580339 0.262275 0.406478
O O4 0.681170 0.228235 0.520929
O O5 0.177460 0.226120 0.795404
O O6 0.050139 0.253354 0.890140
O O7 0.123628 0.000000 0.879859
O O8 0.171184 0.231730 0.970542
O O9 0.750000 0.762704 0.364162
O O10 0.750000 0.000000 0.263092
O O11 0.750000 0.305385 0.891971
O O12 0.837320 0.500000 0.959842
O O13 0.900291 0.276694 0.882356
O O14 0.029330 0.500000 0.663226
O O15 0.988310 0.736867 0.741509
O O16 0.250000 0.000000 0.545241
O O17 0.517830 0.500000 0.845261
#
# Coordination Sequence:
#
# PCOD9407668 Si02
#       7
#     8   8   4   8   8   4   8
#     4   9  17  33  55  78 105 137 174 215 259 309
#     4  11  21  36  56  78 105 140 179 217 266 318
#     4   9  20  35  51  74 107 140 172 217 263 313
#     4  10  21  37  54  75 106 141 177 218 265 314
#     4   8  16  33  56  79 104 135 174 218 260 305
#     4  11  21  33  49  76 109 138 170 211 261 313
#     4  10  20  35  55  81 108 137 176 221 263 311
#
# _framework density 19.753086
#
# number of rings (size 3 to 8) (size 9 to 14) (size 15 to 20)
#    0.000    2.333    0.833    3.250    0.000    2.667 
#    1.500    5.000    0.000    0.000    0.000    0.000 
#    0.000    0.000    0.000    0.000    0.000    0.000 
#
# Total GULP energy -267209.465695 kJ/mol
# GULP energy per Si atom -5566.863869 kJ/mol
# Density = 1.970813 g / cm^3
# Si number density = 19.753086 Si / 1000 Ang^3
#
#
#
# Elastic Constant Matrix: (Units=GPa)
#
#
# Indices 1 2 3 4 5 6 
#
# 1 100.0335 20.0312 8.3277 0.0000 0.0000 0.0000
# 2 20.0312 4.2074 1.8874 0.0000 0.0000 0.0000
# 3 8.3277 1.8874 20.8797 0.0000 0.0000 0.0000
# 4 0.0000 0.0000 0.0000 13.1619 0.0000 0.0000
# 5 0.0000 0.0000 0.0000 0.0000 21.4017 0.0000
# 6 0.0000 0.0000 0.0000 0.0000 0.0000-5800.4298
#
#
#
# Elastic Compliance Matrix: (Units=1/GPa)
#
#
# Indices 1 2 3 4 5 6 
#
# 1 0.215279 -1.028096 0.007074 0.000000 0.000000 0.000000
# 2 -1.028096 5.157552 -0.056174 0.000000 0.000000 0.000000
# 3 0.007074 -0.056174 0.050150 0.000000 0.000000 0.000000
# 4 0.000000 0.000000 0.000000 0.075977 0.000000 0.000000
# 5 0.000000 0.000000 0.000000 0.000000 0.046725 0.000000
# 6 0.000000 0.000000 0.000000 0.000000 0.000000 -0.000172
#
#
# Mechanical properties :
#
#
# Convention : Reuss Voigt Hill
#
# Bulk Modulus (GPa) = 0.30594 20.62370 10.46482
# Shear Modulus (GPa) = 0.56886 -1146.84829 -573.13971
#
# Velocity S-wave (km/s) = 0.53723 -24.12162 -17.05233
# Velocity P-wave (km/s) = 0.73487 27.66477 19.55505
#
# Compressibility (1/GPa) = 3.26858708
#
# Stress axis : x y z
#
# Youngs Moduli (GPa) = 4.64514 0.19389 19.94015
#
# Poissons Ratio (x) = 0.19934 -0.14105
# Poissons Ratio (y) = 4.77565 1.12012
# Poissons Ratio (z) = -0.03286 0.01089
#
# Static dielectric constant tensor:
#      x y z
#    x 1.754570 0.000000 0.000000 
#    y 0.000000 1.661590 0.000000 
#    z 0.000000 0.000000 1.719090 
# 
# From -- ./inp_files/24859.got.cif
#   From: 2010.05.17/outbox.ucp.g08.bks.cvg/sg51_13_cif.got.tgz:24859.got - 2010.06.11 16:27:58.
