data_PCOD9407731
_publ_section_title
;
Structure prediction by ZEFSAII (Michael W. Deem and Ramdas Pophale) SiO2 
 PCOD9407731
Probable space group: P M M A
;
_chemical_formula_sum "Si O2"
_cell_formula_units_Z 64
_cell_length_a 15.000000
_cell_length_b 18.000000
_cell_length_c 12.000000
_cell_angle_alpha 90.000000
_cell_angle_beta 90.000000
_cell_angle_gamma 90.000000
_cell_volume 3240.000000
_symmetry_space_group_name_H-M "P M M A"
_symmetry_group_IT_number 51
_symmetry_cell_setting 'orthorhombic'
loop_
_space_group_symop_operation_xyz
x,y,z
1/2-x,-y,z
1/2+x,-y,-z
-x,y,-z
-x,-y,-z
1/2+x,y,-z
1/2-x,y,z
x,-y,z
loop_
_atom_site_type_symbol
_atom_site_label
_atom_site_fract_x
_atom_site_fract_y
_atom_site_fract_z
Si Si1 0.855400 0.920196 0.703829
Si Si2 0.357767 0.914560 0.762057
Si Si3 0.643147 0.235440 0.099749
Si Si4 0.101025 0.157358 0.526830
Si Si5 0.495332 0.674515 0.752630
Si Si6 0.647763 0.586844 0.670978
Si Si7 0.849604 0.323143 0.440573
Si Si8 0.856677 0.217588 0.835043
O O1 0.750000 0.927480 0.719165
O O2 0.867175 0.886745 0.581264
O O3 0.883251 0.865720 0.802016
O O4 0.899953 0.000000 0.709625
O O5 0.250000 0.915125 0.754617
O O6 0.378848 0.845693 0.845807
O O7 0.392830 0.890274 0.639953
O O8 0.384342 0.000000 0.790566
O O9 0.750000 0.249419 0.121946
O O10 0.576223 0.296254 0.154628
O O11 0.631454 0.233529 0.965989
O O12 0.151796 0.234552 0.541489
O O13 0.000000 0.178171 0.500000
O O14 0.563806 0.604499 0.752159
O O15 0.431055 0.665231 0.645337
O O16 0.574697 0.735904 0.759252
O O17 0.750000 0.602620 0.713458
O O18 0.645651 0.500000 0.642740
O O19 0.636068 0.634869 0.557815
O O20 0.750000 0.345480 0.399187
O O21 0.750000 0.228322 0.809252
#
# Coordination Sequence:
#
# PCOD9407731 Si02
#       8
#     8   8   8   8   8   8   8   8
#     4  10  21  35  51  73 106 150 199 256 321 380
#     4  10  21  37  57  82 117 163 212 265 328 387
#     4  10  22  40  61  87 120 161 218 276 320 369
#     4  12  22  34  52  83 118 156 203 257 314 384
#     4  12  21  37  63  92 120 158 207 255 309 366
#     4  10  23  42  65  99 139 172 200 236 293 371
#     4  11  22  36  59  89 127 169 207 247 297 368
#     4  10  22  40  60  84 116 158 213 273 323 373
#
# _framework density 19.753086
#
# number of rings (size 3 to 8) (size 9 to 14) (size 15 to 20)
#    0.000    1.375    1.250    5.250    0.000    5.500 
#    0.000    2.500    0.000    4.125    0.000    1.750 
#    0.000    2.000    0.000    0.000    0.000    0.000 
#
# Total GULP energy -356903.763760 kJ/mol
# GULP energy per Si atom -5576.621309 kJ/mol
# Density = 1.970813 g / cm^3
# Si number density = 19.753086 Si / 1000 Ang^3
#
#
#
# Elastic Constant Matrix: (Units=GPa)
#
#
# Indices 1 2 3 4 5 6 
#
# 1 112.3948 23.5271 22.0358 0.0000 0.0000 0.0000
# 2 23.5271 79.1372 22.0779 0.0000 0.0000 0.0000
# 3 22.0358 22.0779 52.6769 0.0000 0.0000 0.0000
# 4 0.0000 0.0000 0.0000 9.1241 0.0000 0.0000
# 5 0.0000 0.0000 0.0000 0.0000 23.3653 0.0000
# 6 0.0000 0.0000 0.0000 0.0000 0.0000 -15.7874
#
#
#
# Elastic Compliance Matrix: (Units=1/GPa)
#
#
# Indices 1 2 3 4 5 6 
#
# 1 0.009975 -0.002040 -0.003318 0.000000 0.000000 0.000000
# 2 -0.002040 0.014727 -0.005319 0.000000 0.000000 0.000000
# 3 -0.003318 -0.005319 0.022601 0.000000 0.000000 0.000000
# 4 0.000000 0.000000 0.000000 0.109600 0.000000 0.000000
# 5 0.000000 0.000000 0.000000 0.000000 0.042798 0.000000
# 6 0.000000 0.000000 0.000000 0.000000 0.000000 -0.063342
#
#
# Mechanical properties :
#
#
# Convention : Reuss Voigt Hill
#
# Bulk Modulus (GPa) = 38.53681 42.16561 40.35121
# Shear Modulus (GPa) = 30.05512 15.11161 22.58336
#
# Velocity S-wave (km/s) = 3.90492 2.76891 3.38491
# Velocity P-wave (km/s) = 6.31529 5.62274 5.97905
#
# Compressibility (1/GPa) = 0.02594922
#
# Stress axis : x y z
#
# Youngs Moduli (GPa) = 100.25408 67.90439 44.24631
#
# Poissons Ratio (x) = 0.13851 0.14679
# Poissons Ratio (y) = 0.20450 0.23534
# Poissons Ratio (z) = 0.33261 0.36118
#
# Static dielectric constant tensor:
#      x y z
#    x 1.751610 0.000000 0.000000 
#    y 0.000000 1.744430 0.000000 
#    z 0.000000 0.000000 1.676430 
# 
# From -- ./inp_files/16881.got.cif
#   From: 2010.05.17/outbox.ucp.g08.bks.cvg/sg51_9_cif.got.tgz:16881.got - 2010.06.11 16:27:58.
