data_PCOD9407621
_publ_section_title
;
Structure prediction by ZEFSAII (Michael W. Deem and Ramdas Pophale) SiO2 
 PCOD9407621
Probable space group: P M M A
;
_chemical_formula_sum "Si O2"
_cell_formula_units_Z 64
_cell_length_a 15.000000
_cell_length_b 9.000000
_cell_length_c 24.000000
_cell_angle_alpha 90.000000
_cell_angle_beta 90.000000
_cell_angle_gamma 90.000000
_cell_volume 3240.000000
_symmetry_space_group_name_H-M "P M M A"
_symmetry_group_IT_number 51
_symmetry_cell_setting 'orthorhombic'
loop_
_space_group_symop_operation_xyz
x,y,z
1/2-x,-y,z
1/2+x,-y,-z
-x,y,-z
-x,-y,-z
1/2+x,y,-z
1/2-x,y,z
x,-y,z
loop_
_atom_site_type_symbol
_atom_site_label
_atom_site_fract_x
_atom_site_fract_y
_atom_site_fract_z
Si Si1 0.031979 0.819557 0.080178
Si Si2 0.146343 0.824932 0.718216
Si Si3 0.965030 0.676646 0.723840
Si Si4 0.145399 0.662524 0.607000
Si Si5 0.893819 0.166281 0.503167
Si Si6 0.147237 0.819048 0.971566
Si Si7 0.352371 0.178686 0.184153
Si Si8 0.148769 0.676487 0.381856
O O1 0.080481 0.772458 0.135836
O O2 0.929107 0.771662 0.072619
O O3 0.029991 0.000000 0.079046
O O4 0.097777 0.777333 0.029304
O O5 0.250000 0.778222 0.731134
O O6 0.127026 0.785504 0.653557
O O7 0.059896 0.744379 0.743839
O O8 0.141725 0.000000 0.728611
O O9 0.970292 0.500000 0.728158
O O10 0.886199 0.740909 0.761326
O O11 0.929651 0.713721 0.661590
O O12 0.250000 0.642469 0.612814
O O13 0.102364 0.500000 0.617537
O O14 0.130209 0.721464 0.545748
O O15 0.863875 0.230453 0.562149
O O16 0.000000 0.157199 0.500000
O O17 0.857696 0.000000 0.493895
O O18 0.250000 0.766968 0.966253
O O19 0.151582 0.000000 0.970287
O O20 0.250000 0.212243 0.170187
O O21 0.359280 0.000000 0.190522
O O22 0.250000 0.702575 0.360069
O O23 0.142475 0.500000 0.394093
#
# Coordination Sequence:
#
# PCOD9407621 Si02
#       8
#     8   8   8   8   8   8   8   8
#     4   8  14  24  40  67 103 141 181 225 275 330
#     4  10  21  38  60  84 109 136 170 217 270 323
#     4  11  23  39  59  80 105 139 180 226 273 326
#     4  10  20  34  53  76 101 130 164 201 246 307
#     4  11  23  35  49  73 103 133 167 210 260 315
#     4   8  12  20  38  66 102 142 181 223 273 327
#     4  10  20  34  53  77 107 143 183 229 279 328
#     4  10  22  39  56  75 101 134 173 218 268 320
#
# _framework density 19.753086
#
# number of rings (size 3 to 8) (size 9 to 14) (size 15 to 20)
#    0.000    2.250    0.000    4.125    0.000    9.500 
#    0.000    0.625    0.000    2.250    0.000    1.750 
#    0.000    1.000    0.000    0.000    0.000    0.000 
#
# Total GULP energy -356498.399081 kJ/mol
# GULP energy per Si atom -5570.287486 kJ/mol
# Density = 1.970813 g / cm^3
# Si number density = 19.753086 Si / 1000 Ang^3
#
#
#
# Elastic Constant Matrix: (Units=GPa)
#
#
# Indices 1 2 3 4 5 6 
#
# 1 144.2498 20.2907 15.4931 0.0000 0.0000 0.0000
# 2 20.2907 20.9553 0.7763 0.0000 0.0000 0.0000
# 3 15.4931 0.7763 32.4840 0.0000 0.0000 0.0000
# 4 0.0000 0.0000 0.0000 17.6886 0.0000 0.0000
# 5 0.0000 0.0000 0.0000 0.0000 28.5085 0.0000
# 6 0.0000 0.0000 0.0000 0.0000 0.0000 55.3778
#
#
#
# Elastic Compliance Matrix: (Units=1/GPa)
#
#
# Indices 1 2 3 4 5 6 
#
# 1 0.008481 -0.008070 -0.003852 0.000000 0.000000 0.000000
# 2 -0.008070 0.055441 0.002524 0.000000 0.000000 0.000000
# 3 -0.003852 0.002524 0.032561 0.000000 0.000000 0.000000
# 4 0.000000 0.000000 0.000000 0.056534 0.000000 0.000000
# 5 0.000000 0.000000 0.000000 0.000000 0.035077 0.000000
# 6 0.000000 0.000000 0.000000 0.000000 0.000000 0.018058
#
#
# Mechanical properties :
#
#
# Convention : Reuss Voigt Hill
#
# Bulk Modulus (GPa) = 12.87211 30.08993 21.48102
# Shear Modulus (GPa) = 19.93272 31.05690 25.49481
#
# Velocity S-wave (km/s) = 3.18007 3.96947 3.59649
# Velocity P-wave (km/s) = 4.47375 6.02287 5.30516
#
# Compressibility (1/GPa) = 0.07768734
#
# Stress axis : x y z
#
# Youngs Moduli (GPa) = 117.90699 18.03729 30.71119
#
# Poissons Ratio (x) = 0.14555 0.11831
# Poissons Ratio (y) = 0.95146 -0.07751
# Poissons Ratio (z) = 0.45421 -0.04552
#
# Static dielectric constant tensor:
#      x y z
#    x 1.743690 0.000000 0.000000 
#    y 0.000000 1.679250 0.000000 
#    z 0.000000 0.000000 1.616030 
# 
# From -- ./inp_files/35616.got.cif
#   From: 2010.05.17/outbox.ucp.g08.bks.cvg/sg51_18_cif.got.tgz:35616.got - 2010.06.11 16:27:58.
