data_PCOD9407614
_publ_section_title
;
Structure prediction by ZEFSAII (Michael W. Deem and Ramdas Pophale) SiO2 
 PCOD9407614
Probable space group: P M M A
;
_chemical_formula_sum "Si O2"
_cell_formula_units_Z 64
_cell_length_a 18.000000
_cell_length_b 9.000000
_cell_length_c 21.000000
_cell_angle_alpha 90.000000
_cell_angle_beta 90.000000
_cell_angle_gamma 90.000000
_cell_volume 3402.000000
_symmetry_space_group_name_H-M "P M M A"
_symmetry_group_IT_number 51
_symmetry_cell_setting 'orthorhombic'
loop_
_space_group_symop_operation_xyz
x,y,z
1/2-x,-y,z
1/2+x,-y,-z
-x,y,-z
-x,-y,-z
1/2+x,y,-z
1/2-x,y,z
x,-y,z
loop_
_atom_site_type_symbol
_atom_site_label
_atom_site_fract_x
_atom_site_fract_y
_atom_site_fract_z
Si Si1 0.426264 0.677704 0.704551
Si Si2 0.594862 0.680510 0.675371
Si Si3 0.072792 0.820853 0.083213
Si Si4 0.598732 0.820387 0.055784
Si Si5 0.333431 0.820519 0.814641
Si Si6 0.333884 0.679224 0.194042
Si Si7 0.839001 0.675705 0.542123
Si Si8 0.839179 0.826353 0.409845
O O1 0.423465 0.500000 0.709430
O O2 0.511051 0.723579 0.691910
O O3 0.393056 0.749493 0.768009
O O4 0.377753 0.733689 0.645415
O O5 0.597783 0.500000 0.672882
O O6 0.646528 0.726502 0.734077
O O7 0.621666 0.731024 0.606216
O O8 0.109392 0.747224 0.143937
O O9 0.985702 0.783773 0.075878
O O10 0.078259 0.000000 0.087927
O O11 0.110765 0.770391 0.016680
O O12 0.652157 0.772499 0.112544
O O13 0.602453 0.000000 0.053186
O O14 0.250000 0.780519 0.794362
O O15 0.339845 0.000000 0.811810
O O16 0.250000 0.723086 0.177798
O O17 0.339024 0.500000 0.191897
O O18 0.750000 0.688969 0.550566
O O19 0.855243 0.500000 0.532957
O O20 0.860937 0.764235 0.479035
O O21 0.750000 0.811215 0.404515
O O22 0.857624 0.000000 0.403444
#
# Coordination Sequence:
#
# PCOD9407614 Si02
#       8
#     8   8   8   8   8   8   8   8
#     4  11  22  35  53  76 102 132 169 212 252 296
#     4   9  19  35  54  76 102 134 170 207 251 301
#     4   9  17  32  54  77 102 133 171 212 251 299
#     4   8  16  32  53  76 102 134 170 208 254 305
#     4  10  20  34  52  73  99 133 171 210 254 303
#     4  10  20  34  52  75 105 138 170 207 254 306
#     4   9  17  33  58  81 100 129 170 209 243 288
#     4  10  21  37  55  76 105 137 166 201 249 302
#
# _framework density 18.812463000000001
#
# number of rings (size 3 to 8) (size 9 to 14) (size 15 to 20)
#    0.000    2.500    0.000    3.000    0.000    5.250 
#    0.000    8.125    0.000    1.500    0.000    0.000 
#    0.000    0.000    0.000    0.000    0.000    0.000 
#
# Total GULP energy -357046.991648 kJ/mol
# GULP energy per Si atom -5578.859244 kJ/mol
# Density = 1.876965 g / cm^3
# Si number density = 18.812463 Si / 1000 Ang^3
#
#
#
# Elastic Constant Matrix: (Units=GPa)
#
#
# Indices 1 2 3 4 5 6 
#
# 1 18.5335 11.6566 1.6131 0.0000 0.0000 0.0000
# 2 11.6566 12.8287 -0.1179 0.0000 0.0000 0.0000
# 3 1.6131 -0.1179 61.1206 0.0000 0.0000 0.0000
# 4 0.0000 0.0000 0.0000 12.8143 0.0000 0.0000
# 5 0.0000 0.0000 0.0000 0.0000 36.1950 0.0000
# 6 0.0000 0.0000 0.0000 0.0000 0.0000 16.5445
#
#
#
# Elastic Compliance Matrix: (Units=1/GPa)
#
#
# Indices 1 2 3 4 5 6 
#
# 1 0.126688 -0.115146 -0.003566 0.000000 0.000000 0.000000
# 2 -0.115146 0.182608 0.003391 0.000000 0.000000 0.000000
# 3 -0.003566 0.003391 0.016462 0.000000 0.000000 0.000000
# 4 0.000000 0.000000 0.000000 0.078038 0.000000 0.000000
# 5 0.000000 0.000000 0.000000 0.000000 0.027628 0.000000
# 6 0.000000 0.000000 0.000000 0.000000 0.000000 0.060443
#
#
# Mechanical properties :
#
#
# Convention : Reuss Voigt Hill
#
# Bulk Modulus (GPa) = 10.51351 13.19851 11.85601
# Shear Modulus (GPa) = 6.62942 18.39947 12.51445
#
# Velocity S-wave (km/s) = 1.87926 3.13077 2.58199
# Velocity P-wave (km/s) = 3.21084 4.48330 3.89933
#
# Compressibility (1/GPa) = 0.09511572
#
# Stress axis : x y z
#
# Youngs Moduli (GPa) = 7.89339 5.47622 60.74689
#
# Poissons Ratio (x) = 0.63057 0.21661
# Poissons Ratio (y) = 0.90890 -0.20600
# Poissons Ratio (z) = 0.02815 -0.01857
#
# Static dielectric constant tensor:
#      x y z
#    x 1.651520 0.000000 0.000000 
#    y 0.000000 1.630450 0.000000 
#    z 0.000000 0.000000 1.644600 
# 
# From -- ./inp_files/33862.got.cif
#   From: 2010.05.17/outbox.ucp.g08.bks.cvg/sg51_17_cif.got.tgz:33862.got - 2010.06.11 16:27:58.
