data_PCOD9407802
_publ_section_title
;
Structure prediction by ZEFSAII (Michael W. Deem and Ramdas Pophale) SiO2 
 PCOD9407802
Probable space group: P M M A
;
_chemical_formula_sum "Si O2"
_cell_formula_units_Z 64
_cell_length_a 9.000000
_cell_length_b 15.000000
_cell_length_c 24.000000
_cell_angle_alpha 90.000000
_cell_angle_beta 90.000000
_cell_angle_gamma 90.000000
_cell_volume 3240.000000
_symmetry_space_group_name_H-M "P M M A"
_symmetry_group_IT_number 51
_symmetry_cell_setting 'orthorhombic'
loop_
_space_group_symop_operation_xyz
x,y,z
1/2-x,-y,z
1/2+x,-y,-z
-x,y,-z
-x,-y,-z
1/2+x,y,-z
1/2-x,y,z
x,-y,z
loop_
_atom_site_type_symbol
_atom_site_label
_atom_site_fract_x
_atom_site_fract_y
_atom_site_fract_z
Si Si1 0.922727 0.601160 0.856585
Si Si2 0.072339 0.099551 0.690208
Si Si3 0.412120 0.107486 0.200431
Si Si4 0.925528 0.726352 0.360635
Si Si5 0.918542 0.100019 0.089304
Si Si6 0.578675 0.604736 0.725121
Si Si7 0.074995 0.595121 0.440702
Si Si8 0.082426 0.707388 0.947187
O O1 0.750000 0.604480 0.872677
O O2 0.976814 0.500000 0.866883
O O3 0.930595 0.618732 0.791037
O O4 0.009803 0.673254 0.891160
O O5 0.250000 0.096419 0.689619
O O6 0.022227 0.172735 0.646767
O O7 0.021965 0.133270 0.750712
O O8 0.014821 0.000000 0.680474
O O9 0.250000 0.147368 0.209284
O O10 0.471039 0.122250 0.139076
O O11 0.402769 0.000000 0.204364
O O12 0.750000 0.724549 0.369507
O O13 0.968138 0.669113 0.306473
O O14 0.010387 0.677271 0.408757
O O15 0.750000 0.096446 0.112350
O O16 0.921154 0.185071 0.050171
O O17 0.950443 0.000000 0.067278
O O18 0.750000 0.621718 0.706922
O O19 0.548919 0.500000 0.715792
O O20 0.250000 0.600926 0.446200
O O21 0.039947 0.500000 0.411917
O O22 0.000000 0.592447 0.500000
O O23 0.250000 0.677953 0.948186
O O24 0.000000 0.668877 0.000000
#
# Coordination Sequence:
#
# PCOD9407802 Si02
#       8
#     8   8   8   8   8   8   8   8
#     4   9  20  40  62  81 105 139 176 218 272 329
#     4   9  19  35  51  71 108 154 192 227 270 320
#     4   9  17  29  48  75 102 132 175 222 265 313
#     4  11  22  33  53  85 116 150 192 233 274 321
#     4   9  19  36  55  75 104 140 173 210 262 324
#     4   9  19  36  56  80 112 147 178 214 270 333
#     4  10  21  38  60  85 116 153 190 231 280 331
#     4  11  24  39  57  80 104 134 176 222 270 324
#
# _framework density 19.753086
#
# number of rings (size 3 to 8) (size 9 to 14) (size 15 to 20)
#    0.000    2.375    0.000    2.625    1.750    7.250 
#    0.000    1.250    0.000    0.375    0.000    0.000 
#    0.000    0.000    0.000    0.000    0.000    0.000 
#
# Total GULP energy -356530.314480 kJ/mol
# GULP energy per Si atom -5570.786164 kJ/mol
# Density = 1.970813 g / cm^3
# Si number density = 19.753086 Si / 1000 Ang^3
#
#
#
# Elastic Constant Matrix: (Units=GPa)
#
#
# Indices 1 2 3 4 5 6 
#
# 1 30.1630 49.2875 43.8813 0.0000 0.0000 0.0000
# 2 49.2875 17.0258 21.5528 0.0000 0.0000 0.0000
# 3 43.8813 21.5528 37.6468 0.0000 0.0000 0.0000
# 4 0.0000 0.0000 0.0000 59.5142 0.0000 0.0000
# 5 0.0000 0.0000 0.0000 0.0000 20.8725 0.0000
# 6 0.0000 0.0000 0.0000 0.0000 0.0000 17.6546
#
#
#
# Elastic Compliance Matrix: (Units=1/GPa)
#
#
# Indices 1 2 3 4 5 6 
#
# 1 -0.006869 0.035417 -0.012270 0.000000 0.000000 0.000000
# 2 0.035417 0.030756 -0.058890 0.000000 0.000000 0.000000
# 3 -0.012270 -0.058890 0.074579 0.000000 0.000000 0.000000
# 4 0.000000 0.000000 0.000000 0.016803 0.000000 0.000000
# 5 0.000000 0.000000 0.000000 0.000000 0.047910 0.000000
# 6 0.000000 0.000000 0.000000 0.000000 0.000000 0.056642
#
#
# Mechanical properties :
#
#
# Convention : Reuss Voigt Hill
#
# Bulk Modulus (GPa) = 37.06396 34.91987 35.99191
# Shear Modulus (GPa) = 16.65001 17.61586 17.13293
#
# Velocity S-wave (km/s) = 2.90644 2.98955 2.94828
# Velocity P-wave (km/s) = 5.48339 5.44363 5.46354
#
# Compressibility (1/GPa) = 0.02698039
#
# Stress axis : x y z
#
# Youngs Moduli (GPa) = -145.58501 32.51392 13.40864
#
# Poissons Ratio (x) = -1.15153 0.16452
# Poissons Ratio (y) = 5.15613 0.78963
# Poissons Ratio (z) = -1.78628 1.91474
#
# Static dielectric constant tensor:
#      x y z
#    x 1.701130 0.000000 0.000000 
#    y 0.000000 1.727980 0.000000 
#    z 0.000000 0.000000 1.681110 
# 
# From -- ./inp_files/34835.got.cif
#   From: 2010.05.17/outbox.ucp.g08.bks.cvg/sg51_18_cif.got.tgz:34835.got - 2010.06.11 16:27:58.
