data_PCOD9407415
_publ_section_title
;
Structure prediction by ZEFSAII (Michael W. Deem and Ramdas Pophale) SiO2 
 PCOD9407415
Probable space group: P M M A
;
_chemical_formula_sum "Si O2"
_cell_formula_units_Z 64
_cell_length_a 9.000000
_cell_length_b 18.000000
_cell_length_c 24.000000
_cell_angle_alpha 90.000000
_cell_angle_beta 90.000000
_cell_angle_gamma 90.000000
_cell_volume 3888.000000
_symmetry_space_group_name_H-M "P M M A"
_symmetry_group_IT_number 51
_symmetry_cell_setting 'orthorhombic'
loop_
_space_group_symop_operation_xyz
x,y,z
1/2-x,-y,z
1/2+x,-y,-z
-x,y,-z
-x,-y,-z
1/2+x,y,-z
1/2-x,y,z
x,-y,z
loop_
_atom_site_type_symbol
_atom_site_label
_atom_site_fract_x
_atom_site_fract_y
_atom_site_fract_z
Si Si1 0.572427 0.919037 0.897127
Si Si2 0.913349 0.777589 0.078849
Si Si3 0.419005 0.727503 0.791450
Si Si4 0.075074 0.583466 0.173934
Si Si5 0.918342 0.090813 0.556145
Si Si6 0.425673 0.125812 0.227773
Si Si7 0.912759 0.086182 0.336975
Si Si8 0.424833 0.608629 0.944518
O O1 0.750000 0.920533 0.897466
O O2 0.522176 0.845919 0.929709
O O3 0.525070 0.905850 0.832426
O O4 0.516866 0.000000 0.915957
O O5 0.750000 0.804670 0.063717
O O6 0.914565 0.754386 0.144027
O O7 0.938646 0.698015 0.052224
O O8 0.250000 0.729330 0.770624
O O9 0.487302 0.645751 0.792039
O O10 0.525634 0.788679 0.765356
O O11 0.250000 0.601899 0.171285
O O12 0.057925 0.500000 0.195866
O O13 0.008655 0.585100 0.111419
O O14 0.750000 0.115929 0.555553
O O15 0.000000 0.113241 0.500000
O O16 0.998641 0.119351 0.611443
O O17 0.916226 0.000000 0.556716
O O18 0.250000 0.117751 0.229860
O O19 0.501103 0.086934 0.279401
O O20 0.750000 0.119851 0.329952
O O21 0.895464 0.000000 0.352029
O O22 0.250000 0.590916 0.940669
O O23 0.500000 0.578757 0.000000
#
# Coordination Sequence:
#
# PCOD9407415 Si02
#       8
#     8   8   8   8   8   8   8   8
#     4   9  17  27  40  59  80 102 129 162 201 243
#     4   8  16  29  43  60  79 101 129 159 193 235
#     4   9  17  30  46  63  84 109 137 166 198 239
#     4  10  20  33  49  69  91 113 137 163 191 228
#     4   9  16  26  39  53  71  99 137 180 224 267
#     4  10  18  28  42  59  82 110 139 172 211 253
#     4  10  19  28  38  55  80 109 143 184 226 263
#     4  10  20  33  49  67  86 108 134 163 197 237
#
# _framework density 16.460905
#
# number of rings (size 3 to 8) (size 9 to 14) (size 15 to 20)
#    0.000    2.625    0.000    3.375    0.000    8.250 
#    0.000    0.000    0.000    0.375    0.000    0.000 
#    0.000    0.000    0.000    0.000    0.000    0.625 
#
# Total GULP energy -356269.819237 kJ/mol
# GULP energy per Si atom -5566.715926 kJ/mol
# Density = 1.642344 g / cm^3
# Si number density = 16.460905 Si / 1000 Ang^3
#
#
#
# Elastic Constant Matrix: (Units=GPa)
#
#
# Indices 1 2 3 4 5 6 
#
# 1 62.6456 39.2082 24.4084 0.0000 0.0000 0.0000
# 2 39.2082 48.6404 -15.6297 0.0000 0.0000 0.0000
# 3 24.4084 -15.6297 20.8945 0.0000 0.0000 0.0000
# 4 0.0000 0.0000 0.0000 8.3572 0.0000 0.0000
# 5 0.0000 0.0000 0.0000 0.0000 9.2299 0.0000
# 6 0.0000 0.0000 0.0000 0.0000 0.0000 0.7196
#
#
#
# Elastic Compliance Matrix: (Units=1/GPa)
#
#
# Indices 1 2 3 4 5 6 
#
# 1 -0.018101 0.028153 0.042204 0.000000 0.000000 0.000000
# 2 0.028153 -0.016721 -0.045395 0.000000 0.000000 0.000000
# 3 0.042204 -0.045395 -0.035400 0.000000 0.000000 0.000000
# 4 0.000000 0.000000 0.000000 0.119657 0.000000 0.000000
# 5 0.000000 0.000000 0.000000 0.000000 0.108344 0.000000
# 6 0.000000 0.000000 0.000000 0.000000 0.000000 1.389678
#
#
# Mechanical properties :
#
#
# Convention : Reuss Voigt Hill
#
# Bulk Modulus (GPa) = -49.26424 25.35048 -11.95688
# Shear Modulus (GPa) = 3.35398 9.27423 6.31410
#
# Velocity S-wave (km/s) = 1.42897 2.37620 1.96065
# Velocity P-wave (km/s) = 5.22210 4.79190 1.46767
#
# Compressibility (1/GPa) = -0.02029870
#
# Stress axis : x y z
#
# Youngs Moduli (GPa) = -55.24483 -59.80353 -28.24884
#
# Poissons Ratio (x) = 1.68363 1.19223
# Poissons Ratio (y) = 1.55529 -1.28237
# Poissons Ratio (z) = 2.33158 -2.71480
#
# Static dielectric constant tensor:
#      x y z
#    x 1.588350 0.000000 0.000000 
#    y 0.000000 1.564030 0.000000 
#    z 0.000000 0.000000 1.553770 
# 
# From -- ./inp_files/35108.got.cif
#   From: 2010.05.17/outbox.ucp.g08.bks.cvg/sg51_18_cif.got.tgz:35108.got - 2010.06.11 16:27:58.
