data_PCOD9407948
_publ_section_title
;
Structure prediction by ZEFSAII (Michael W. Deem and Ramdas Pophale) SiO2 
 PCOD9407948
Probable space group: P N N A
;
_chemical_formula_sum "Si O2"
_cell_formula_units_Z 36
_cell_length_a 19.524972
_cell_length_b 19.104842
_cell_length_c 5.273635
_cell_angle_alpha 90.000000
_cell_angle_beta 90.000000
_cell_angle_gamma 90.000000
_cell_volume 1967.179265
_symmetry_space_group_name_H-M "P N N A"
_symmetry_group_IT_number 52
_symmetry_cell_setting 'orthorhombic'
loop_
_space_group_symop_operation_xyz
x,y,z
1/2-x,-y,z
x,1/2-y,1/2-z
1/2-x,1/2+y,1/2-z
-x,-y,-z
1/2+x,y,-z
-x,1/2+y,1/2+z
1/2+x,1/2-y,1/2+z
loop_
_atom_site_type_symbol
_atom_site_label
_atom_site_fract_x
_atom_site_fract_y
_atom_site_fract_z
Si Si1 0.978755 0.250000 0.750000
Si Si2 0.498007 0.382769 0.486844
Si Si3 0.674188 0.969633 0.297479
Si Si4 0.879134 0.177787 0.346728
Si Si5 0.909937 0.997535 0.785198
O O1 0.024833 0.310549 0.628394
O O2 0.926698 0.204649 0.576136
O O3 0.434281 0.353608 0.649500
O O4 0.551359 0.425732 0.653166
O O5 0.466814 0.440298 0.293220
O O6 0.671867 0.887047 0.373554
O O7 0.750000 0.000000 0.302347
O O8 0.627824 0.003649 0.517939
O O9 0.640656 0.984687 0.021464
O O10 0.845996 0.250000 0.250000
#
# Coordination Sequence:
#
# PCOD9407948 Si02
#       5
#     4   8   8   8   8
#     4  10  16  32  54  80 112 142 182 230 288 342
#     4   9  19  31  56  84 111 138 175 236 292 334
#     4  11  22  38  58  80 112 154 193 227 268 329
#     4   9  19  33  55  83 108 143 187 234 281 334
#     4  10  21  35  57  84 112 138 184 234 283 326
#
# _framework density 18.300315000000001
#
# number of rings (size 3 to 8) (size 9 to 14) (size 15 to 20)
#    0.000    2.222    2.222    0.667    3.111    2.667 
#    0.000    0.000    2.444    0.000    0.000    0.000 
#    0.000    0.000    0.000    0.000    0.000    0.000 
#
# Total GULP energy -200478.637269 kJ/mol
# GULP energy per Si atom -5568.851035 kJ/mol
# Density = 1.825866 g / cm^3
# Si number density = 18.300315 Si / 1000 Ang^3
#
#
#
# Elastic Constant Matrix: (Units=GPa)
#
#
# Indices 1 2 3 4 5 6 
#
# 1 43.2279 38.6123 -6.3116 0.0000 0.0000 0.0000
# 2 38.6123 171.4032 6.0722 0.0000 0.0000 0.0000
# 3 -6.3116 6.0722 35.5805 0.0000 0.0000 0.0000
# 4 0.0000 0.0000 0.0000 24.1147 0.0000 0.0000
# 5 0.0000 0.0000 0.0000 0.0000 16.1159 0.0000
# 6 0.0000 0.0000 0.0000 0.0000 0.0000 27.2973
#
#
#
# Elastic Compliance Matrix: (Units=1/GPa)
#
#
# Indices 1 2 3 4 5 6 
#
# 1 0.030430 -0.007089 0.006608 0.000000 0.000000 0.000000
# 2 -0.007089 0.007521 -0.002541 0.000000 0.000000 0.000000
# 3 0.006608 -0.002541 0.029711 0.000000 0.000000 0.000000
# 4 0.000000 0.000000 0.000000 0.041468 0.000000 0.000000
# 5 0.000000 0.000000 0.000000 0.000000 0.062050 0.000000
# 6 0.000000 0.000000 0.000000 0.000000 0.000000 0.036634
#
#
# Mechanical properties :
#
#
# Convention : Reuss Voigt Hill
#
# Bulk Modulus (GPa) = 16.22912 36.32861 26.27887
# Shear Modulus (GPa) = 21.33112 27.62816 24.47964
#
# Velocity S-wave (km/s) = 3.41781 3.88971 3.66137
# Velocity P-wave (km/s) = 4.94598 6.32990 5.68024
#
# Compressibility (1/GPa) = 0.06161762
#
# Stress axis : x y z
#
# Youngs Moduli (GPa) = 32.86202 132.95725 33.65745
#
# Poissons Ratio (x) = 0.94256 -0.22240
# Poissons Ratio (y) = 0.23296 0.08553
# Poissons Ratio (z) = -0.21715 0.33786
#
# Static dielectric constant tensor:
#      x y z
#    x 1.598880 0.000000 0.000000 
#    y 0.000000 1.693860 0.000000 
#    z 0.000000 0.000000 1.728630 
# 
# From -- ./inp_files/3301.got.cif
#   From: 2010.05.17/outbox.cif.g08.bks.cpg/sg52_2_cif.got.tgz:3301.got - 2010.06.03 12:15:38.
