data_PCOD9407983
_publ_section_title
;
Structure prediction by ZEFSAII (Michael W. Deem and Ramdas Pophale) SiO2 
 PCOD9407983
Probable space group: P N N A
;
_chemical_formula_sum "Si O2"
_cell_formula_units_Z 20
_cell_length_a 8.759433
_cell_length_b 16.358025
_cell_length_c 5.629807
_cell_angle_alpha 90.000000
_cell_angle_beta 90.000000
_cell_angle_gamma 90.000000
_cell_volume 806.678291
_symmetry_space_group_name_H-M "P N N A"
_symmetry_group_IT_number 52
_symmetry_cell_setting 'orthorhombic'
loop_
_space_group_symop_operation_xyz
x,y,z
1/2-x,-y,z
x,1/2-y,1/2-z
1/2-x,1/2+y,1/2-z
-x,-y,-z
1/2+x,y,-z
-x,1/2+y,1/2+z
1/2+x,1/2-y,1/2+z
loop_
_atom_site_type_symbol
_atom_site_label
_atom_site_fract_x
_atom_site_fract_y
_atom_site_fract_z
Si Si1 0.502584 0.890073 0.715340
Si Si2 0.750000 0.500000 0.037834
Si Si3 0.362572 0.238646 0.001789
O O1 0.342847 0.935302 0.696394
O O2 0.518944 0.813655 0.533971
O O3 0.630251 0.953512 0.629302
O O4 0.550490 0.847238 0.961820
O O5 0.285465 0.250000 0.750000
O O6 0.270384 0.250000 0.250000
#
# Coordination Sequence:
#
# PCOD9407983 Si02
#       3
#     8   4   8
#     4   8  20  34  68  85 140 158 230 253 344 370
#     4  10  16  42  58 106 122 180 202 294 314 398
#     4   8  18  42  60  88 124 176 214 264 312 400
#
# _framework density 24.793030999999999
#
# number of rings (size 3 to 8) (size 9 to 14) (size 15 to 20)
#    2.400    0.800    0.000    0.000    0.000    0.000 
#   14.400   12.000    0.000    0.000    0.000    8.400 
#    0.000    0.000    0.000    0.000    0.000    0.000 
#
# Total GULP energy -111506.682295 kJ/mol
# GULP energy per Si atom -5575.334115 kJ/mol
# Density = 2.473660 g / cm^3
# Si number density = 24.793031 Si / 1000 Ang^3
#
#
#
# Elastic Constant Matrix: (Units=GPa)
#
#
# Indices 1 2 3 4 5 6 
#
# 1 102.0603 50.6478 27.7248 0.0000 0.0000 0.0000
# 2 50.6478 128.6864 18.7076 0.0000 0.0000 0.0000
# 3 27.7248 18.7076 172.7116 0.0000 0.0000 0.0000
# 4 0.0000 0.0000 0.0000 28.7390 0.0000 0.0000
# 5 0.0000 0.0000 0.0000 0.0000 16.5845 0.0000
# 6 0.0000 0.0000 0.0000 0.0000 0.0000 30.0163
#
#
#
# Elastic Compliance Matrix: (Units=1/GPa)
#
#
# Indices 1 2 3 4 5 6 
#
# 1 0.012549 -0.004720 -0.001503 0.000000 0.000000 0.000000
# 2 -0.004720 0.009671 -0.000290 0.000000 0.000000 0.000000
# 3 -0.001503 -0.000290 0.006063 0.000000 0.000000 0.000000
# 4 0.000000 0.000000 0.000000 0.034796 0.000000 0.000000
# 5 0.000000 0.000000 0.000000 0.000000 0.060297 0.000000
# 6 0.000000 0.000000 0.000000 0.000000 0.000000 0.033315
#
#
# Mechanical properties :
#
#
# Convention : Reuss Voigt Hill
#
# Bulk Modulus (GPa) = 65.54894 66.40209 65.97551
# Shear Modulus (GPa) = 28.60364 35.49317 32.04840
#
# Velocity S-wave (km/s) = 3.40030 3.78773 3.59923
# Velocity P-wave (km/s) = 6.47394 6.78011 6.62879
#
# Compressibility (1/GPa) = 0.01525578
#
# Stress axis : x y z
#
# Youngs Moduli (GPa) = 79.68766 103.40404 164.94364
#
# Poissons Ratio (x) = 0.48811 0.24793
# Poissons Ratio (y) = 0.37616 0.04779
# Poissons Ratio (z) = 0.11978 0.02996
#
# Static dielectric constant tensor:
#      x y z
#    x 1.915860 0.000000 0.000000 
#    y 0.000000 1.966100 0.000000 
#    z 0.000000 0.000000 1.991790 
# 
# From -- ./inp_files/220.got.cif
#   From: 2010.05.17/outbox.cif.g08.bks.cpg/sg52_1_cif.got.tgz:220.got - 2010.06.03 12:15:38.
