data_PCOD9407503
_publ_section_title
;
Structure prediction by ZEFSAII (Michael W. Deem and Ramdas Pophale) SiO2 
 PCOD9407503
Probable space group: P M M A
;
_chemical_formula_sum "Si O2"
_cell_formula_units_Z 64
_cell_length_a 30.000000
_cell_length_b 9.000000
_cell_length_c 15.000000
_cell_angle_alpha 90.000000
_cell_angle_beta 90.000000
_cell_angle_gamma 90.000000
_cell_volume 4050.000000
_symmetry_space_group_name_H-M "P M M A"
_symmetry_group_IT_number 51
_symmetry_cell_setting 'orthorhombic'
loop_
_space_group_symop_operation_xyz
x,y,z
1/2-x,-y,z
1/2+x,-y,-z
-x,y,-z
-x,-y,-z
1/2+x,y,-z
1/2-x,y,z
x,-y,z
loop_
_atom_site_type_symbol
_atom_site_label
_atom_site_fract_x
_atom_site_fract_y
_atom_site_fract_z
Si Si1 0.637927 0.322860 0.651074
Si Si2 0.456026 0.678422 0.600419
Si Si3 0.367302 0.824901 0.664881
Si Si4 0.802475 0.827340 0.505218
Si Si5 0.699296 0.680813 0.813638
Si Si6 0.953404 0.178745 0.596974
Si Si7 0.300542 0.822242 0.813248
Si Si8 0.196167 0.331745 0.992997
O O1 0.629250 0.500000 0.649261
O O2 0.672722 0.279563 0.573772
O O3 0.664121 0.278819 0.739724
O O4 0.592122 0.233641 0.641469
O O5 0.459389 0.500000 0.594165
O O6 0.411560 0.730256 0.650237
O O7 0.501749 0.749503 0.637901
O O8 0.451173 0.752137 0.502507
O O9 0.332503 0.818366 0.583064
O O10 0.338105 0.767946 0.746811
O O11 0.379374 0.000000 0.675473
O O12 0.750000 0.793092 0.491370
O O13 0.804846 0.000000 0.536081
O O14 0.750000 0.732747 0.795444
O O15 0.701466 0.500000 0.816277
O O16 0.682982 0.727953 0.910842
O O17 0.956267 0.000000 0.593121
O O18 0.250000 0.767025 0.794527
O O19 0.313691 0.773883 0.911678
O O20 0.298994 0.000000 0.804810
O O21 0.250000 0.341322 0.998461
O O22 0.179599 0.500000 0.978523
#
# Coordination Sequence:
#
# PCOD9407503 Si02
#       8
#     8   8   8   8   8   8   8   8
#     4  11  20  31  48  71  96 125 162 203 239 278
#     4  11  21  34  52  73  93 117 157 205 242 278
#     4  10  19  32  48  67  96 132 162 191 236 288
#     4  10  20  32  45  63  93 133 168 193 226 279
#     4   8  15  28  46  68  96 129 161 195 239 284
#     4  11  21  35  52  69  93 125 157 194 243 293
#     4   9  17  29  46  69  97 129 163 197 233 276
#     4   8  14  27  46  66  90 123 161 199 238 278
#
# _framework density 15.802469
#
# number of rings (size 3 to 8) (size 9 to 14) (size 15 to 20)
#    0.000    2.250    1.250    4.875    0.000    2.750 
#    0.000    1.250    0.000    5.250    0.000    0.875 
#    0.000    7.000    0.000    0.000    0.000    0.000 
#
# Total GULP energy -356475.757825 kJ/mol
# GULP energy per Si atom -5569.933716 kJ/mol
# Density = 1.576650 g / cm^3
# Si number density = 15.802469 Si / 1000 Ang^3
#
#
#
# Elastic Constant Matrix: (Units=GPa)
#
#
# Indices 1 2 3 4 5 6 
#
# 1 75.3634 33.6132 0.9992 0.0000 0.0000 0.0000
# 2 33.6132 65.4523 7.2813 0.0000 0.0000 0.0000
# 3 0.9992 7.2813 26.0244 0.0000 0.0000 0.0000
# 4 0.0000 0.0000 0.0000 17.0319 0.0000 0.0000
# 5 0.0000 0.0000 0.0000 0.0000 84.0905 0.0000
# 6 0.0000 0.0000 0.0000 0.0000 0.0000 -13.1379
#
#
#
# Elastic Compliance Matrix: (Units=1/GPa)
#
#
# Indices 1 2 3 4 5 6 
#
# 1 0.017300 -0.009094 0.001880 0.000000 0.000000 0.000000
# 2 -0.009094 0.020549 -0.005400 0.000000 0.000000 0.000000
# 3 0.001880 -0.005400 0.039864 0.000000 0.000000 0.000000
# 4 0.000000 0.000000 0.000000 0.058713 0.000000 0.000000
# 5 0.000000 0.000000 0.000000 0.000000 0.011892 0.000000
# 6 0.000000 0.000000 0.000000 0.000000 0.000000 -0.076116
#
#
# Mechanical properties :
#
#
# Convention : Reuss Voigt Hill
#
# Bulk Modulus (GPa) = 19.05280 27.84750 23.45015
# Shear Modulus (GPa) = 43.50644 25.92666 34.71655
#
# Velocity S-wave (km/s) = 5.25273 4.05491 4.69220
# Velocity P-wave (km/s) = 6.99080 6.29155 6.65037
#
# Compressibility (1/GPa) = 0.05248573
#
# Stress axis : x y z
#
# Youngs Moduli (GPa) = 57.80353 48.66399 25.08516
#
# Poissons Ratio (x) = 0.44253 -0.04716
# Poissons Ratio (y) = 0.52564 0.13546
# Poissons Ratio (z) = -0.10867 0.26280
#
# Static dielectric constant tensor:
#      x y z
#    x 1.529200 0.000000 0.000000 
#    y 0.000000 1.513100 0.000000 
#    z 0.000000 0.000000 1.572470 
# 
# From -- ./inp_files/26620.got.cif
#   From: 2010.05.17/outbox.ucp.g08.bks.cvg/sg51_14_cif.got.tgz:26620.got - 2010.06.11 16:27:58.
