data_PCOD9407980
_publ_section_title
;
Structure prediction by ZEFSAII (Michael W. Deem and Ramdas Pophale) SiO2 
 PCOD9407980
Probable space group: P N N A
;
_chemical_formula_sum "Si O2"
_cell_formula_units_Z 60
_cell_length_a 26.777769
_cell_length_b 10.097551
_cell_length_c 10.985419
_cell_angle_alpha 90.000000
_cell_angle_beta 90.000000
_cell_angle_gamma 90.000000
_cell_volume 2970.346215
_symmetry_space_group_name_H-M "P N N A"
_symmetry_group_IT_number 52
_symmetry_cell_setting 'orthorhombic'
loop_
_space_group_symop_operation_xyz
x,y,z
1/2-x,-y,z
x,1/2-y,1/2-z
1/2-x,1/2+y,1/2-z
-x,-y,-z
1/2+x,y,-z
-x,1/2+y,1/2+z
1/2+x,1/2-y,1/2+z
loop_
_atom_site_type_symbol
_atom_site_label
_atom_site_fract_x
_atom_site_fract_y
_atom_site_fract_z
Si Si1 0.640967 0.750000 0.750000
Si Si2 0.058513 0.036244 0.502307
Si Si3 0.441296 0.008464 0.993614
Si Si4 0.608325 0.770099 0.392001
Si Si5 0.185463 0.130669 0.068426
Si Si6 0.893011 0.543058 0.745074
Si Si7 0.799944 0.176133 0.984010
Si Si8 0.108298 0.274753 0.618616
O O1 0.611295 0.614965 0.758595
O O2 0.675055 0.740334 0.633062
O O3 0.068998 0.160176 0.589451
O O4 0.089648 0.910332 0.554481
O O5 0.079534 0.082205 0.369118
O O6 0.000000 0.000000 0.500000
O O7 0.419480 0.154675 0.970169
O O8 0.419275 0.915431 0.888310
O O9 0.423544 0.943023 0.120517
O O10 0.500000 0.000000 0.000000
O O11 0.595453 0.750000 0.250000
O O12 0.668134 0.745365 0.409218
O O13 0.160636 0.107039 0.203289
O O14 0.241177 0.182558 0.044205
O O15 0.149776 0.220101 0.986220
O O16 0.186387 0.980259 0.015273
O O17 0.131352 0.250000 0.750000
#
# Coordination Sequence:
#
# PCOD9407980 Si02
#       8
#     4   8   8   8   8   8   8   8
#     4  10  16  36  62  92 122 160 208 272 318 384
#     4  12  27  42  63 102 136 174 220 285 334 387
#     4  11  23  42  66  91 123 181 222 261 334 401
#     4  12  24  42  66  97 136 173 226 277 326 412
#     4   9  21  40  67  95 123 175 217 270 331 400
#     4  10  20  39  65  90 131 162 220 273 326 380
#     4  10  19  39  67  96 123 171 219 267 338 388
#     4  11  24  43  63  90 135 170 213 266 326 395
#
# _framework density 20.199665
#
# number of rings (size 3 to 8) (size 9 to 14) (size 15 to 20)
#    0.000    1.333    5.333    1.600    3.733    3.733 
#    0.000    0.667    0.000    0.000    0.000    0.000 
#    0.000    0.000    0.000    0.000    0.000    0.000 
#
# Total GULP energy -334457.548737 kJ/mol
# GULP energy per Si atom -5574.292479 kJ/mol
# Density = 2.015369 g / cm^3
# Si number density = 20.199665 Si / 1000 Ang^3
#
#
#
# Elastic Constant Matrix: (Units=GPa)
#
#
# Indices 1 2 3 4 5 6 
#
# 1 104.6431 7.5540 9.5544 0.0000 0.0000 0.0000
# 2 7.5540 67.9067 -2.8385 0.0000 0.0000 0.0000
# 3 9.5544 -2.8385 98.0246 0.0000 0.0000 0.0000
# 4 0.0000 0.0000 0.0000 24.2340 0.0000 0.0000
# 5 0.0000 0.0000 0.0000 0.0000 18.6408 0.0000
# 6 0.0000 0.0000 0.0000 0.0000 0.0000 18.5270
#
#
#
# Elastic Compliance Matrix: (Units=1/GPa)
#
#
# Indices 1 2 3 4 5 6 
#
# 1 0.009727 -0.001123 -0.000981 0.000000 0.000000 0.000000
# 2 -0.001123 0.014874 0.000540 0.000000 0.000000 0.000000
# 3 -0.000981 0.000540 0.010313 0.000000 0.000000 0.000000
# 4 0.000000 0.000000 0.000000 0.041264 0.000000 0.000000
# 5 0.000000 0.000000 0.000000 0.000000 0.053646 0.000000
# 6 0.000000 0.000000 0.000000 0.000000 0.000000 0.053975
#
#
# Mechanical properties :
#
#
# Convention : Reuss Voigt Hill
#
# Bulk Modulus (GPa) = 31.46009 33.23491 32.34750
# Shear Modulus (GPa) = 25.31379 29.36735 27.34057
#
# Velocity S-wave (km/s) = 3.54387 3.81708 3.68301
# Velocity P-wave (km/s) = 5.68803 5.99297 5.84249
#
# Compressibility (1/GPa) = 0.03178631
#
# Stress axis : x y z
#
# Youngs Moduli (GPa) = 102.80774 67.23330 96.96749
#
# Poissons Ratio (x) = 0.07550 0.09509
# Poissons Ratio (y) = 0.11545 -0.05238
# Poissons Ratio (z) = 0.10081 -0.03632
#
# Static dielectric constant tensor:
#      x y z
#    x 1.760850 0.000000 0.000000 
#    y 0.000000 1.776950 0.000000 
#    z 0.000000 0.000000 1.787040 
# 
# From -- ./inp_files/22887.got.cif
#   From: 2010.05.17/outbox.cif.g08.bks.cpg/sg52_12_cif.got.tgz:22887.got - 2010.06.03 12:15:38.
