data_PCOD9407029
_publ_section_title
;
Structure prediction by ZEFSAII (Michael W. Deem and Ramdas Pophale) SiO2 
 PCOD9407029
Probable space group: P M M A
;
_chemical_formula_sum "Si O2"
_cell_formula_units_Z 48
_cell_length_a 8.542805
_cell_length_b 32.556657
_cell_length_c 9.283908
_cell_angle_alpha 90.000000
_cell_angle_beta 90.000000
_cell_angle_gamma 90.000000
_cell_volume 2582.088511
_symmetry_space_group_name_H-M "P M M A"
_symmetry_group_IT_number 51
_symmetry_cell_setting 'orthorhombic'
loop_
_space_group_symop_operation_xyz
x,y,z
1/2-x,-y,z
1/2+x,-y,-z
-x,y,-z
-x,-y,-z
1/2+x,y,-z
1/2-x,y,z
x,-y,z
loop_
_atom_site_type_symbol
_atom_site_label
_atom_site_fract_x
_atom_site_fract_y
_atom_site_fract_z
Si Si1 0.438251 0.625389 0.161445
Si Si2 0.936642 0.780911 0.836099
Si Si3 0.061083 0.453787 0.338912
Si Si4 0.563160 0.703108 0.338024
Si Si5 0.560933 0.955833 0.164728
Si Si6 0.438387 0.133024 0.835115
O O1 0.250000 0.626729 0.161212
O O2 0.490118 0.582309 0.232790
O O3 0.501215 0.663035 0.255384
O O4 0.500000 0.628856 0.000000
O O5 0.750000 0.779429 0.840246
O O6 0.002863 0.743443 0.744385
O O7 0.991194 0.825050 0.773802
O O8 0.000000 0.777730 0.000000
O O9 0.250000 0.453430 0.342888
O O10 0.010453 0.500000 0.296824
O O11 0.000000 0.445886 0.500000
O O12 0.500000 0.702925 0.500000
O O13 0.750000 0.702843 0.338552
O O14 0.750000 0.955653 0.160813
O O15 0.514247 0.911513 0.229144
O O16 0.510551 0.000000 0.229283
O O17 0.500000 0.955954 0.000000
O O18 0.250000 0.136146 0.835778
O O19 0.500000 0.132045 0.000000
#
# Coordination Sequence:
#
# PCOD9407029 Si02
#       6
#     8   8   8   8   8   8
#     4  11  23  39  59  85 116 149 186 227 272 319
#     4  11  21  35  54  77 105 138 176 218 266 317
#     4   9  19  36  58  84 115 151 190 230 272 319
#     4  12  25  42  61  82 108 138 175 218 268 323
#     4   8  13  20  31  50  80 119 161 203 248 300
#     4   9  15  24  39  61  90 126 167 210 257 308
#
# _framework density 18.589601999999999
#
# number of rings (size 3 to 8) (size 9 to 14) (size 15 to 20)
#    0.000    2.000    0.000    6.000    0.000    3.667 
#    0.000    0.000    0.000    0.000    0.000    0.000 
#    0.000    0.667    0.000    1.833    0.000    8.500 
#
# Total GULP energy -267740.293772 kJ/mol
# GULP energy per Si atom -5577.922787 kJ/mol
# Density = 1.854729 g / cm^3
# Si number density = 18.589602 Si / 1000 Ang^3
#
#
#
# Elastic Constant Matrix: (Units=GPa)
#
#
# Indices 1 2 3 4 5 6 
#
# 1 94.3110 58.6653 32.3549 0.0000 0.0000 0.0000
# 2 58.6653 211.5946 89.0266 0.0000 0.0000 0.0000
# 3 32.3549 89.0266 83.8163 0.0000 0.0000 0.0000
# 4 0.0000 0.0000 0.0000 -16.0160 0.0000 0.0000
# 5 0.0000 0.0000 0.0000 0.0000 24.0973 0.0000
# 6 0.0000 0.0000 0.0000 0.0000 0.0000 28.0323
#
#
#
# Elastic Compliance Matrix: (Units=1/GPa)
#
#
# Indices 1 2 3 4 5 6 
#
# 1 0.013025 -0.002704 -0.002156 0.000000 0.000000 0.000000
# 2 -0.002704 0.009106 -0.008628 0.000000 0.000000 0.000000
# 3 -0.002156 -0.008628 0.021927 0.000000 0.000000 0.000000
# 4 0.000000 0.000000 0.000000 -0.062438 0.000000 0.000000
# 5 0.000000 0.000000 0.000000 0.000000 0.041499 0.000000
# 6 0.000000 0.000000 0.000000 0.000000 0.000000 0.035673
#
#
# Mechanical properties :
#
#
# Convention : Reuss Voigt Hill
#
# Bulk Modulus (GPa) = 58.53963 83.31283 70.92623
# Shear Modulus (GPa) = 54.66725 21.20104 37.93415
#
# Velocity S-wave (km/s) = 5.42875 3.38076 4.52221
# Velocity P-wave (km/s) = 8.41748 7.75587 8.09344
#
# Compressibility (1/GPa) = 0.01708245
#
# Stress axis : x y z
#
# Youngs Moduli (GPa) = 76.77617 109.81748 45.60492
#
# Poissons Ratio (x) = 0.29698 0.09830
# Poissons Ratio (y) = 0.20762 0.39349
# Poissons Ratio (z) = 0.16549 0.94752
#
# Static dielectric constant tensor:
#      x y z
#    x 1.631050 0.000000 0.000000 
#    y 0.000000 1.703420 0.000000 
#    z 0.000000 0.000000 1.595820 
# 
# From -- ./inp_files/6069.got.cif
#   From: 2010.05.17/outbox.cif.g08.bks.cpg/sg51_4_cif.got.tgz:6069.got - 2010.06.03 11:52:47.
