data_PCOD9407592
_publ_section_title
;
Structure prediction by ZEFSAII (Michael W. Deem and Ramdas Pophale) SiO2 
 PCOD9407592
Probable space group: P M M A
;
_chemical_formula_sum "Si O2"
_cell_formula_units_Z 64
_cell_length_a 30.000000
_cell_length_b 9.000000
_cell_length_c 12.000000
_cell_angle_alpha 90.000000
_cell_angle_beta 90.000000
_cell_angle_gamma 90.000000
_cell_volume 3240.000000
_symmetry_space_group_name_H-M "P M M A"
_symmetry_group_IT_number 51
_symmetry_cell_setting 'orthorhombic'
loop_
_space_group_symop_operation_xyz
x,y,z
1/2-x,-y,z
1/2+x,-y,-z
-x,y,-z
-x,-y,-z
1/2+x,y,-z
1/2-x,y,z
x,-y,z
loop_
_atom_site_type_symbol
_atom_site_label
_atom_site_fract_x
_atom_site_fract_y
_atom_site_fract_z
Si Si1 0.197168 0.831762 0.854135
Si Si2 0.041278 0.820141 0.580891
Si Si3 0.701834 0.819651 0.696168
Si Si4 0.527539 0.679751 0.176854
Si Si5 0.196978 0.331146 0.636713
Si Si6 0.935748 0.322338 0.941909
Si Si7 0.345630 0.173848 0.091196
Si Si8 0.367072 0.824355 0.475488
O O1 0.250000 0.827249 0.877068
O O2 0.186812 0.707075 0.764263
O O3 0.187563 0.000000 0.811877
O O4 0.170665 0.807592 0.966232
O O5 0.037707 0.751878 0.704280
O O6 0.086016 0.765405 0.518738
O O7 0.000000 0.783772 0.500000
O O8 0.042950 0.000000 0.592243
O O9 0.750000 0.763325 0.656454
O O10 0.693759 0.785520 0.824749
O O11 0.657819 0.763750 0.633496
O O12 0.702886 0.000000 0.682888
O O13 0.529801 0.500000 0.187135
O O14 0.478215 0.721865 0.132465
O O15 0.558249 0.726374 0.071329
O O16 0.250000 0.313903 0.621519
O O17 0.184564 0.500000 0.607738
O O18 0.169923 0.211799 0.567269
O O19 0.936092 0.500000 0.944745
O O20 0.890505 0.262990 0.891487
O O21 0.355302 0.000000 0.110385
O O22 0.373424 0.000000 0.460086
#
# Coordination Sequence:
#
# PCOD9407592 Si02
#       8
#     8   8   8   8   8   8   8   8
#     4   9  18  33  52  77 112 147 178 218 270 328
#     4  10  23  39  58  86 120 148 181 237 291 333
#     4   9  18  34  57  83 111 146 189 233 276 331
#     4   9  20  40  61  80 109 150 191 226 274 340
#     4  10  21  36  55  81 112 146 187 234 278 324
#     4   9  20  38  58  82 112 146 184 229 277 334
#     4  10  20  32  55  86 112 140 183 230 277 331
#     4  10  21  37  58  83 111 148 189 227 279 341
#
# _framework density 19.753086
#
# number of rings (size 3 to 8) (size 9 to 14) (size 15 to 20)
#    0.000    2.500    0.000    1.875    3.500    5.000 
#    0.000    1.875    0.000    1.875    0.000    0.000 
#    0.000    0.000    0.000    0.000    0.000    0.000 
#
# Total GULP energy -356643.935314 kJ/mol
# GULP energy per Si atom -5572.561489 kJ/mol
# Density = 1.970813 g / cm^3
# Si number density = 19.753086 Si / 1000 Ang^3
#
#
#
# Elastic Constant Matrix: (Units=GPa)
#
#
# Indices 1 2 3 4 5 6 
#
# 1 14.7402 -5.8678 43.4066 0.0000 0.0000 0.0000
# 2 -5.8678 -22.7513 3.1764 0.0000 0.0000 0.0000
# 3 43.4066 3.1764 54.5705 0.0000 0.0000 0.0000
# 4 0.0000 0.0000 0.0000 -1.1137 0.0000 0.0000
# 5 0.0000 0.0000 0.0000 0.0000 10.8899 0.0000
# 6 0.0000 0.0000 0.0000 0.0000 0.0000 8.1862
#
#
#
# Elastic Compliance Matrix: (Units=1/GPa)
#
#
# Indices 1 2 3 4 5 6 
#
# 1 -0.059829 0.021897 0.046315 0.000000 0.000000 0.000000
# 2 0.021897 -0.051613 -0.014413 0.000000 0.000000 0.000000
# 3 0.046315 -0.014413 -0.017676 0.000000 0.000000 0.000000
# 4 0.000000 0.000000 0.000000 -0.897868 0.000000 0.000000
# 5 0.000000 0.000000 0.000000 0.000000 0.091828 0.000000
# 6 0.000000 0.000000 0.000000 0.000000 0.000000 0.122157
#
#
# Mechanical properties :
#
#
# Convention : Reuss Voigt Hill
#
# Bulk Modulus (GPa) = -46.46625 14.22108 -16.12258
# Shear Modulus (GPa) = -5.38925 3.98209 -0.70358
#
# Velocity S-wave (km/s) = -1.65355 1.42138 -0.59746
# Velocity P-wave (km/s) = 5.21730 3.14782 2.94206
#
# Compressibility (1/GPa) = -0.02152100
#
# Stress axis : x y z
#
# Youngs Moduli (GPa) = -16.71417 -19.37487 -56.57304
#
# Poissons Ratio (x) = 0.42425 2.62019
# Poissons Ratio (y) = 0.36599 -0.81539
# Poissons Ratio (z) = 0.77412 -0.27925
#
# Static dielectric constant tensor:
#      x y z
#    x 1.707380 0.000000 0.000000 
#    y 0.000000 1.690140 0.000000 
#    z 0.000000 0.000000 1.736630 
# 
# From -- ./inp_files/19522.got.cif
#   From: 2010.05.17/outbox.ucp.g08.bks.cvg/sg51_10_cif.got.tgz:19522.got - 2010.06.11 16:27:58.
