data_PCOD9407187
_publ_section_title
;
Structure prediction by ZEFSAII (Michael W. Deem and Ramdas Pophale) SiO2 
 PCOD9407187
Probable space group: P M M A
;
_chemical_formula_sum "Si O2"
_cell_formula_units_Z 48
_cell_length_a 14.180007
_cell_length_b 8.898301
_cell_length_c 21.199417
_cell_angle_alpha 90.000000
_cell_angle_beta 90.000000
_cell_angle_gamma 90.000000
_cell_volume 2674.899412
_symmetry_space_group_name_H-M "P M M A"
_symmetry_group_IT_number 51
_symmetry_cell_setting 'orthorhombic'
loop_
_space_group_symop_operation_xyz
x,y,z
1/2-x,-y,z
1/2+x,-y,-z
-x,y,-z
-x,-y,-z
1/2+x,y,-z
1/2-x,y,z
x,-y,z
loop_
_atom_site_type_symbol
_atom_site_label
_atom_site_fract_x
_atom_site_fract_y
_atom_site_fract_z
Si Si1 0.461633 0.822578 0.657883
Si Si2 0.144030 0.182501 0.033396
Si Si3 0.860250 0.319918 0.221835
Si Si4 0.136652 0.326209 0.540541
Si Si5 0.859267 0.319481 0.605086
Si Si6 0.453638 0.181738 0.901595
O O1 0.408248 0.743810 0.715372
O O2 0.409971 0.776164 0.593006
O O3 0.567795 0.761811 0.650317
O O4 0.460453 0.000000 0.666538
O O5 0.250000 0.236734 0.046201
O O6 0.060773 0.228306 0.081009
O O7 0.145585 0.000000 0.035201
O O8 0.109661 0.221929 0.962783
O O9 0.750000 0.276068 0.219971
O O10 0.865518 0.500000 0.222324
O O11 0.913008 0.255523 0.160780
O O12 0.250000 0.322542 0.546972
O O13 0.106222 0.500000 0.550397
O O14 0.115885 0.284381 0.468102
O O15 0.750000 0.278339 0.615320
O O16 0.866700 0.500000 0.611433
O O17 0.451525 0.000000 0.895562
#
# Coordination Sequence:
#
# PCOD9407187 Si02
#       6
#     8   8   8   8   8   8
#     4  12  24  35  52  79 108 138 174 219 268 315
#     4   8  14  27  51  83 115 143 171 207 255 311
#     4  11  24  40  56  74 101 139 179 219 266 319
#     4   9  18  34  56  80 106 138 175 214 260 316
#     4   9  19  37  59  79 102 137 177 215 260 316
#     4   9  17  31  54  82 109 140 177 215 257 305
#
# _framework density 17.944600000000001
#
# number of rings (size 3 to 8) (size 9 to 14) (size 15 to 20)
#    0.000    2.333    0.000    5.500    0.000    7.333 
#    0.000    4.167    0.000    4.500    0.000    0.000 
#    0.000    0.000    0.000    0.000    0.000    0.000 
#
# Total GULP energy -267963.106507 kJ/mol
# GULP energy per Si atom -5582.564719 kJ/mol
# Density = 1.790376 g / cm^3
# Si number density = 17.944600 Si / 1000 Ang^3
#
#
#
# Elastic Constant Matrix: (Units=GPa)
#
#
# Indices 1 2 3 4 5 6 
#
# 1 155.7408 46.4951 84.6611 0.0000 0.0000 0.0000
# 2 46.4951 41.3984 42.2350 0.0000 0.0000 0.0000
# 3 84.6611 42.2350 87.1136 0.0000 0.0000 0.0000
# 4 0.0000 0.0000 0.0000 31.3220 0.0000 0.0000
# 5 0.0000 0.0000 0.0000 0.0000 24.4987 0.0000
# 6 0.0000 0.0000 0.0000 0.0000 0.0000 -9.8058
#
#
#
# Elastic Compliance Matrix: (Units=1/GPa)
#
#
# Indices 1 2 3 4 5 6 
#
# 1 0.013880 -0.003615 -0.011737 0.000000 0.000000 0.000000
# 2 -0.003615 0.048739 -0.020117 0.000000 0.000000 0.000000
# 3 -0.011737 -0.020117 0.032639 0.000000 0.000000 0.000000
# 4 0.000000 0.000000 0.000000 0.031926 0.000000 0.000000
# 5 0.000000 0.000000 0.000000 0.000000 0.040818 0.000000
# 6 0.000000 0.000000 0.000000 0.000000 0.000000 -0.101981
#
#
# Mechanical properties :
#
#
# Convention : Reuss Voigt Hill
#
# Bulk Modulus (GPa) = 41.11701 70.11503 55.61602
# Shear Modulus (GPa) = 34.46701 16.59375 25.53038
#
# Velocity S-wave (km/s) = 4.38739 3.04422 3.77601
# Velocity P-wave (km/s) = 6.97342 7.17734 7.07612
#
# Compressibility (1/GPa) = 0.02432084
#
# Stress axis : x y z
#
# Youngs Moduli (GPa) = 72.04388 20.51752 30.63839
#
# Poissons Ratio (x) = 0.07417 0.35960
# Poissons Ratio (y) = 0.26045 0.61634
# Poissons Ratio (z) = 0.84557 0.41274
#
# Static dielectric constant tensor:
#      x y z
#    x 1.639990 0.000000 0.000000 
#    y 0.000000 1.596980 0.000000 
#    z 0.000000 0.000000 1.580980 
# 
# From -- ./inp_files/29447.got.cif
#   From: 2010.05.17/outbox.cif.g08.bks.cpg/sg51_15_cif.got.tgz:29447.got - 2010.06.03 11:52:47.
