data_PCOD9407199
_publ_section_title
;
Structure prediction by ZEFSAII (Michael W. Deem and Ramdas Pophale) SiO2 
 PCOD9407199
Probable space group: P M M A
;
_chemical_formula_sum "Si O2"
_cell_formula_units_Z 40
_cell_length_a 17.428623
_cell_length_b 12.328559
_cell_length_c 8.747990
_cell_angle_alpha 90.000000
_cell_angle_beta 90.000000
_cell_angle_gamma 90.000000
_cell_volume 1879.678922
_symmetry_space_group_name_H-M "P M M A"
_symmetry_group_IT_number 51
_symmetry_cell_setting 'orthorhombic'
loop_
_space_group_symop_operation_xyz
x,y,z
1/2-x,-y,z
1/2+x,-y,-z
-x,y,-z
-x,-y,-z
1/2+x,y,-z
1/2-x,y,z
x,-y,z
loop_
_atom_site_type_symbol
_atom_site_label
_atom_site_fract_x
_atom_site_fract_y
_atom_site_fract_z
Si Si1 0.160864 0.376040 0.967343
Si Si2 0.555473 0.808000 0.378271
Si Si3 0.940837 0.191732 0.877969
Si Si4 0.160434 0.000000 0.262004
Si Si5 0.161673 0.000000 0.633114
Si Si6 0.662294 0.376119 0.403145
O O1 0.250000 0.358700 0.011166
O O2 0.139765 0.500000 0.008624
O O3 0.107042 0.287446 0.043809
O O4 0.158433 0.369481 0.782193
O O5 0.500000 0.865122 0.500000
O O6 0.498843 0.763715 0.250205
O O7 0.616348 0.893594 0.313924
O O8 0.602687 0.712526 0.459137
O O9 0.884190 0.104138 0.803727
O O10 0.000000 0.140557 0.000000
O O11 0.159195 0.000000 0.447315
O O12 0.250000 0.000000 0.216078
O O13 0.250000 0.000000 0.681707
O O14 0.750000 0.350602 0.448247
O O15 0.645691 0.500000 0.447708
#
# Coordination Sequence:
#
# PCOD9407199 Si02
#       6
#     8   8   8   4   4   8
#     4   9  19  38  62  89 123 161 199 240 295 360
#     4  12  23  40  62  89 123 156 199 246 299 360
#     4  12  23  39  62  93 123 154 194 251 303 351
#     4  11  24  43  63  86 120 159 201 248 302 357
#     4  11  24  44  65  83 116 165 205 240 298 367
#     4   9  19  38  62  88 121 161 203 244 291 353
#
# _framework density 21.28023
#
# number of rings (size 3 to 8) (size 9 to 14) (size 15 to 20)
#    0.000    1.400    4.000    3.600    0.000    1.600 
#    0.000    1.000    0.000    2.400    0.000    0.000 
#    0.000    0.000    0.000    0.000    0.000    0.000 
#
# Total GULP energy -223517.561569 kJ/mol
# GULP energy per Si atom -5587.939039 kJ/mol
# Density = 2.123179 g / cm^3
# Si number density = 21.280230 Si / 1000 Ang^3
#
#
#
# Elastic Constant Matrix: (Units=GPa)
#
#
# Indices 1 2 3 4 5 6 
#
# 1 136.9455 68.8186 12.3092 0.0000 0.0000 0.0000
# 2 68.8186 94.0827 1.1048 0.0000 0.0000 0.0000
# 3 12.3092 1.1048 22.0152 0.0000 0.0000 0.0000
# 4 0.0000 0.0000 0.0000 74.9311 0.0000 0.0000
# 5 0.0000 0.0000 0.0000 0.0000 26.0401 0.0000
# 6 0.0000 0.0000 0.0000 0.0000 0.0000 168.7145
#
#
#
# Elastic Compliance Matrix: (Units=1/GPa)
#
#
# Indices 1 2 3 4 5 6 
#
# 1 0.012408 -0.009000 -0.006486 0.000000 0.000000 0.000000
# 2 -0.009000 0.017163 0.004171 0.000000 0.000000 0.000000
# 3 -0.006486 0.004171 0.048840 0.000000 0.000000 0.000000
# 4 0.000000 0.000000 0.000000 0.013346 0.000000 0.000000
# 5 0.000000 0.000000 0.000000 0.000000 0.038402 0.000000
# 6 0.000000 0.000000 0.000000 0.000000 0.000000 0.005927
#
#
# Mechanical properties :
#
#
# Convention : Reuss Voigt Hill
#
# Bulk Modulus (GPa) = 17.92722 46.38985 32.15853
# Shear Modulus (GPa) = 28.19930 65.32454 46.76192
#
# Velocity S-wave (km/s) = 3.64420 5.54652 4.69277
# Velocity P-wave (km/s) = 5.11366 7.92877 6.67139
#
# Compressibility (1/GPa) = 0.05578110
#
# Stress axis : x y z
#
# Youngs Moduli (GPa) = 80.59493 58.26494 20.47496
#
# Poissons Ratio (x) = 0.52437 0.13280
# Poissons Ratio (y) = 0.72533 -0.08539
# Poissons Ratio (z) = 0.52272 -0.24300
#
# Static dielectric constant tensor:
#      x y z
#    x 1.748150 0.000000 0.000000 
#    y 0.000000 1.741980 0.000000 
#    z 0.000000 0.000000 1.794600 
# 
# From -- ./inp_files/8031.got.cif
#   From: 2010.05.17/outbox.cif.g08.bks.cpg/sg51_5_cif.got.tgz:8031.got - 2010.06.03 11:52:47.
