data_PCOD9407761
_publ_section_title
;
Structure prediction by ZEFSAII (Michael W. Deem and Ramdas Pophale) SiO2 
 PCOD9407761
Probable space group: P M M A
;
_chemical_formula_sum "Si O2"
_cell_formula_units_Z 56
_cell_length_a 15.000000
_cell_length_b 9.000000
_cell_length_c 21.000000
_cell_angle_alpha 90.000000
_cell_angle_beta 90.000000
_cell_angle_gamma 90.000000
_cell_volume 2835.000000
_symmetry_space_group_name_H-M "P M M A"
_symmetry_group_IT_number 51
_symmetry_cell_setting 'orthorhombic'
loop_
_space_group_symop_operation_xyz
x,y,z
1/2-x,-y,z
1/2+x,-y,-z
-x,y,-z
-x,-y,-z
1/2+x,y,-z
1/2-x,y,z
x,-y,z
loop_
_atom_site_type_symbol
_atom_site_label
_atom_site_fract_x
_atom_site_fract_y
_atom_site_fract_z
Si Si1 0.966937 0.677701 0.151287
Si Si2 0.394527 0.327864 0.485153
Si Si3 0.983505 0.676601 0.291876
Si Si4 0.850306 0.827488 0.387501
Si Si5 0.855871 0.172649 0.040475
Si Si6 0.647610 0.823452 0.649607
Si Si7 0.150161 0.678481 0.094233
O O1 0.958458 0.500000 0.141969
O O2 0.941870 0.713095 0.223461
O O3 0.070714 0.718358 0.141381
O O4 0.909204 0.759307 0.098804
O O5 0.500000 0.323845 0.500000
O O6 0.366151 0.500000 0.486711
O O7 0.350861 0.232537 0.540869
O O8 0.373176 0.256585 0.417336
O O9 0.997012 0.500000 0.295776
O O10 0.077341 0.757561 0.301077
O O11 0.918533 0.731128 0.347073
O O12 0.750000 0.815045 0.361807
O O13 0.877313 0.000000 0.386422
O O14 0.750000 0.185679 0.052236
O O15 0.878074 0.000000 0.032103
O O16 0.874407 0.258739 0.975063
O O17 0.750000 0.794790 0.667309
O O18 0.635243 0.000000 0.642389
O O19 0.250000 0.731709 0.110778
O O20 0.153022 0.500000 0.090549
#
# Coordination Sequence:
#
# PCOD9407761 Si02
#       7
#     8   8   8   8   8   8   8
#     4  10  22  38  58  84 114 150 194 236 281 337
#     4  11  22  37  62  93 120 148 187 239 295 344
#     4  11  24  41  60  85 116 154 197 243 290 338
#     4  11  24  41  62  87 116 153 194 238 292 350
#     4  10  21  36  56  85 118 150 187 233 284 337
#     4  11  24  41  62  88 118 154 194 236 288 348
#     4   9  18  35  59  85 114 148 186 231 283 337
#
# _framework density 19.753086
#
# number of rings (size 3 to 8) (size 9 to 14) (size 15 to 20)
#    0.000    1.571    1.429    3.000    0.000   10.000 
#    0.000    4.286    0.000    1.714    0.000    0.000 
#    0.000    0.000    0.000    0.000    0.000    0.000 
#
# Total GULP energy -312892.639213 kJ/mol
# GULP energy per Si atom -5587.368557 kJ/mol
# Density = 1.970813 g / cm^3
# Si number density = 19.753086 Si / 1000 Ang^3
#
#
#
# Elastic Constant Matrix: (Units=GPa)
#
#
# Indices 1 2 3 4 5 6 
#
# 1 36.2528 12.1206 5.8914 0.0000 0.0000 0.0000
# 2 12.1206 26.4718 -0.9728 0.0000 0.0000 0.0000
# 3 5.8914 -0.9728 40.6706 0.0000 0.0000 0.0000
# 4 0.0000 0.0000 0.0000 169.5654 0.0000 0.0000
# 5 0.0000 0.0000 0.0000 0.0000 3029.2385 0.0000
# 6 0.0000 0.0000 0.0000 0.0000 0.0000 34.1995
#
#
#
# Elastic Compliance Matrix: (Units=1/GPa)
#
#
# Indices 1 2 3 4 5 6 
#
# 1 0.033653 -0.015602 -0.005248 0.000000 0.000000 0.000000
# 2 -0.015602 0.045042 0.003337 0.000000 0.000000 0.000000
# 3 -0.005248 0.003337 0.025428 0.000000 0.000000 0.000000
# 4 0.000000 0.000000 0.000000 0.005897 0.000000 0.000000
# 5 0.000000 0.000000 0.000000 0.000000 0.000330 0.000000
# 6 0.000000 0.000000 0.000000 0.000000 0.000000 0.029240
#
#
# Mechanical properties :
#
#
# Convention : Reuss Voigt Hill
#
# Bulk Modulus (GPa) = 14.47207 15.27483 14.87345
# Shear Modulus (GPa) = 25.29749 652.35775 338.82762
#
# Velocity S-wave (km/s) = 3.58255 18.19267 13.11121
# Velocity P-wave (km/s) = 4.94523 21.19073 15.38672
#
# Compressibility (1/GPa) = 0.06909863
#
# Stress axis : x y z
#
# Youngs Moduli (GPa) = 29.71493 22.20144 39.32703
#
# Poissons Ratio (x) = 0.34638 0.20639
# Poissons Ratio (y) = 0.46360 -0.13125
# Poissons Ratio (z) = 0.15594 -0.07409
#
# Static dielectric constant tensor:
#      x y z
#    x 1.717920 0.000000 0.000000 
#    y 0.000000 1.659400 0.000000 
#    z 0.000000 0.000000 1.646320 
# 
# From -- ./inp_files/33394.got.cif
#   From: 2010.05.17/outbox.ucp.g08.bks.cvg/sg51_17_cif.got.tgz:33394.got - 2010.06.11 16:27:58.
