data_PCOD9407405
_publ_section_title
;
Structure prediction by ZEFSAII (Michael W. Deem and Ramdas Pophale) SiO2 
 PCOD9407405
Probable space group: P M M A
;
_chemical_formula_sum "Si O2"
_cell_formula_units_Z 40
_cell_length_a 7.538258
_cell_length_b 9.877202
_cell_length_c 26.411426
_cell_angle_alpha 90.000000
_cell_angle_beta 90.000000
_cell_angle_gamma 90.000000
_cell_volume 1966.512825
_symmetry_space_group_name_H-M "P M M A"
_symmetry_group_IT_number 51
_symmetry_cell_setting 'orthorhombic'
loop_
_space_group_symop_operation_xyz
x,y,z
1/2-x,-y,z
1/2+x,-y,-z
-x,y,-z
-x,-y,-z
1/2+x,y,-z
1/2-x,y,z
x,-y,z
loop_
_atom_site_type_symbol
_atom_site_label
_atom_site_fract_x
_atom_site_fract_y
_atom_site_fract_z
Si Si1 0.532481 0.844260 0.648659
Si Si2 0.462128 0.654378 0.260200
Si Si3 0.463099 0.346284 0.854499
Si Si4 0.962445 0.653433 0.558130
Si Si5 0.462774 0.845935 0.943418
O O1 0.750000 0.845974 0.648746
O O2 0.473449 0.758841 0.697652
O O3 0.473736 0.761799 0.598929
O O4 0.474696 0.000000 0.649197
O O5 0.250000 0.646772 0.266276
O O6 0.531159 0.500000 0.266418
O O7 0.497984 0.699110 0.202722
O O8 0.250000 0.351566 0.859263
O O9 0.531023 0.500000 0.859762
O O10 0.531074 0.248391 0.898437
O O11 0.750000 0.647196 0.563777
O O12 0.030652 0.500000 0.566941
O O13 0.000000 0.690095 0.500000
O O14 0.250000 0.852473 0.938329
O O15 0.531711 0.000000 0.940191
O O16 0.500000 0.793847 0.000000
#
# Coordination Sequence:
#
# PCOD9407405 Si02
#       5
#     8   8   8   8   8
#     4   9  17  29  46  68  92 118 149 185 224 264
#     4   9  17  30  48  68  89 115 149 186 221 261
#     4   9  18  32  48  67  92 120 148 181 224 268
#     4   9  17  30  48  68  90 118 151 185 222 265
#     4   9  18  32  48  66  90 120 151 182 219 264
#
# _framework density 20.340572000000002
#
# number of rings (size 3 to 8) (size 9 to 14) (size 15 to 20)
#    0.000    3.000    0.000    0.600    0.000    4.800 
#    0.000    1.000    0.000    6.000    0.000    0.000 
#    0.000    0.000    0.000    0.000    0.000    0.000 
#
# Total GULP energy -223169.870652 kJ/mol
# GULP energy per Si atom -5579.246766 kJ/mol
# Density = 2.029428 g / cm^3
# Si number density = 20.340572 Si / 1000 Ang^3
#
#
#
# Elastic Constant Matrix: (Units=GPa)
#
#
# Indices 1 2 3 4 5 6 
#
# 1 49.7167 5.8460 -1.8857 0.0000 0.0000 0.0000
# 2 5.8460 141.4457 151.3068 0.0000 0.0000 0.0000
# 3 -1.8857 151.3068 217.8269 0.0000 0.0000 0.0000
# 4 0.0000 0.0000 0.0000 44.0511 0.0000 0.0000
# 5 0.0000 0.0000 0.0000 0.0000 22.0429 0.0000
# 6 0.0000 0.0000 0.0000 0.0000 0.0000 92.8839
#
#
#
# Elastic Compliance Matrix: (Units=1/GPa)
#
#
# Indices 1 2 3 4 5 6 
#
# 1 0.020708 -0.004077 0.003011 0.000000 0.000000 0.000000
# 2 -0.004077 0.028317 -0.019705 0.000000 0.000000 0.000000
# 3 0.003011 -0.019705 0.018304 0.000000 0.000000 0.000000
# 4 0.000000 0.000000 0.000000 0.022701 0.000000 0.000000
# 5 0.000000 0.000000 0.000000 0.000000 0.045366 0.000000
# 6 0.000000 0.000000 0.000000 0.000000 0.000000 0.010766
#
#
# Mechanical properties :
#
#
# Convention : Reuss Voigt Hill
#
# Bulk Modulus (GPa) = 38.77842 79.94706 59.36274
# Shear Modulus (GPa) = 25.47143 48.71038 37.09091
#
# Velocity S-wave (km/s) = 3.54255 4.89892 4.27487
# Velocity P-wave (km/s) = 5.98655 8.44919 7.32214
#
# Compressibility (1/GPa) = 0.02578754
#
# Stress axis : x y z
#
# Youngs Moduli (GPa) = 48.29151 35.31480 54.63258
#
# Poissons Ratio (x) = 0.14398 -0.16451
# Poissons Ratio (y) = 0.19689 1.07652
# Poissons Ratio (z) = -0.14542 0.69587
#
# Static dielectric constant tensor:
#      x y z
#    x 1.760420 0.000000 0.000000 
#    y 0.000000 1.711500 0.000000 
#    z 0.000000 0.000000 1.691330 
# 
# From -- ./inp_files/28788.got.cif
#   From: 2010.05.17/outbox.cif.g08.bks.cpg/sg51_15_cif.got.tgz:28788.got - 2010.06.03 11:52:47.
