data_PCOD9407014
_publ_section_title
;
Structure prediction by ZEFSAII (Michael W. Deem and Ramdas Pophale) SiO2 
 PCOD9407014
Probable space group: P M M A
;
_chemical_formula_sum "Si O2"
_cell_formula_units_Z 32
_cell_length_a 21.411900
_cell_length_b 8.774778
_cell_length_c 9.453879
_cell_angle_alpha 90.000000
_cell_angle_beta 90.000000
_cell_angle_gamma 90.000000
_cell_volume 1776.238927
_symmetry_space_group_name_H-M "P M M A"
_symmetry_group_IT_number 51
_symmetry_cell_setting 'orthorhombic'
loop_
_space_group_symop_operation_xyz
x,y,z
1/2-x,-y,z
1/2+x,-y,-z
-x,y,-z
-x,-y,-z
1/2+x,y,-z
1/2-x,y,z
x,-y,z
loop_
_atom_site_type_symbol
_atom_site_label
_atom_site_fract_x
_atom_site_fract_y
_atom_site_fract_z
Si Si1 0.864686 0.680639 0.652046
Si Si2 0.250000 0.816711 0.174647
Si Si3 0.494138 0.175341 0.328489
Si Si4 0.368337 0.814935 0.663190
Si Si5 0.750000 0.814749 0.150932
O O1 0.857758 0.500000 0.649447
O O2 0.811046 0.755325 0.746144
O O3 0.933650 0.726696 0.706831
O O4 0.859367 0.745626 0.492428
O O5 0.250000 0.000000 0.179665
O O6 0.250000 0.765857 0.011362
O O7 0.500000 0.175712 0.500000
O O8 0.562705 0.227566 0.279708
O O9 0.483637 0.000000 0.284563
O O10 0.312063 0.767745 0.764743
O O11 0.368428 0.000000 0.649439
O O12 0.750000 0.000000 0.151181
#
# Coordination Sequence:
#
# PCOD9407014 Si02
#       5
#     8   4   8   8   4
#     4  11  21  33  52  79 107 136 171 208 252 307
#     4  11  22  37  54  72 100 137 174 213 258 304
#     4   8  15  29  51  78 105 133 167 210 256 299
#     4   9  17  33  57  82 105 131 170 216 258 303
#     4   9  19  35  56  78  98 129 174 219 258 298
#
# _framework density 18.015595000000001
#
# number of rings (size 3 to 8) (size 9 to 14) (size 15 to 20)
#    0.000    2.500    0.000    4.875    0.000    5.500 
#    0.000    3.750    0.000    7.500    0.000    0.000 
#    0.000    0.000    0.000    0.000    0.000    0.000 
#
# Total GULP energy -178476.376265 kJ/mol
# GULP energy per Si atom -5577.386758 kJ/mol
# Density = 1.797459 g / cm^3
# Si number density = 18.015595 Si / 1000 Ang^3
#
#
#
# Elastic Constant Matrix: (Units=GPa)
#
#
# Indices 1 2 3 4 5 6 
#
# 1 197.0732 59.7786 86.4081 0.0000 0.0000 0.0000
# 2 59.7786 63.5346 37.9557 0.0000 0.0000 0.0000
# 3 86.4081 37.9557 85.9382 0.0000 0.0000 0.0000
# 4 0.0000 0.0000 0.0000 -0.6603 0.0000 0.0000
# 5 0.0000 0.0000 0.0000 0.0000 -6.4198 0.0000
# 6 0.0000 0.0000 0.0000 0.0000 0.0000 -0.2827
#
#
#
# Elastic Compliance Matrix: (Units=1/GPa)
#
#
# Indices 1 2 3 4 5 6 
#
# 1 0.009980 -0.004612 -0.007997 0.000000 0.000000 0.000000
# 2 -0.004612 0.023512 -0.005747 0.000000 0.000000 0.000000
# 3 -0.007997 -0.005747 0.022216 0.000000 0.000000 0.000000
# 4 0.000000 0.000000 0.000000 -1.514450 0.000000 0.000000
# 5 0.000000 0.000000 0.000000 0.000000 -0.155767 0.000000
# 6 0.000000 0.000000 0.000000 0.000000 0.000000 -3.537181
#
#
# Mechanical properties :
#
#
# Convention : Reuss Voigt Hill
#
# Bulk Modulus (GPa) = 52.64693 79.42567 66.03630
# Shear Modulus (GPa) = -0.97873 9.35433 4.18780
#
# Velocity S-wave (km/s) = -0.73787 2.28115 1.52630
# Velocity P-wave (km/s) = 5.34420 7.14990 6.31195
#
# Compressibility (1/GPa) = 0.01899446
#
# Stress axis : x y z
#
# Youngs Moduli (GPa) = 100.20293 42.53092 45.01344
#
# Poissons Ratio (x) = 0.19616 0.35999
# Poissons Ratio (y) = 0.46215 0.25870
# Poissons Ratio (z) = 0.80135 0.24443
#
# Static dielectric constant tensor:
#      x y z
#    x 1.643490 0.000000 0.000000 
#    y 0.000000 1.597480 0.000000 
#    z 0.000000 0.000000 1.584640 
# 
# From -- ./inp_files/10321.got.cif
#   From: 2010.05.17/outbox.cif.g08.bks.cpg/sg51_6_cif.got.tgz:10321.got - 2010.06.03 11:52:47.
