data_PCOD9407410
_publ_section_title
;
Structure prediction by ZEFSAII (Michael W. Deem and Ramdas Pophale) SiO2 
 PCOD9407410
Probable space group: P M M A
;
_chemical_formula_sum "Si O2"
_cell_formula_units_Z 64
_cell_length_a 24.000000
_cell_length_b 9.000000
_cell_length_c 21.000000
_cell_angle_alpha 90.000000
_cell_angle_beta 90.000000
_cell_angle_gamma 90.000000
_cell_volume 4536.000000
_symmetry_space_group_name_H-M "P M M A"
_symmetry_group_IT_number 51
_symmetry_cell_setting 'orthorhombic'
loop_
_space_group_symop_operation_xyz
x,y,z
1/2-x,-y,z
1/2+x,-y,-z
-x,y,-z
-x,-y,-z
1/2+x,y,-z
1/2-x,y,z
x,-y,z
loop_
_atom_site_type_symbol
_atom_site_label
_atom_site_fract_x
_atom_site_fract_y
_atom_site_fract_z
Si Si1 0.436082 0.327726 0.525390
Si Si2 0.018889 0.677306 0.785323
Si Si3 0.815453 0.179542 0.712943
Si Si4 0.475740 0.822511 0.650257
Si Si5 0.609750 0.322476 0.822383
Si Si6 0.950556 0.825283 0.087389
Si Si7 0.100787 0.821953 0.399619
Si Si8 0.918640 0.174659 0.950681
O O1 0.500000 0.321000 0.500000
O O2 0.421347 0.500000 0.534199
O O3 0.438623 0.243117 0.592770
O O4 0.399986 0.254791 0.468818
O O5 0.023683 0.500000 0.781321
O O6 0.036086 0.751765 0.718906
O O7 0.052810 0.737415 0.846506
O O8 0.953193 0.713351 0.797788
O O9 0.750000 0.219658 0.709446
O O10 0.846335 0.249732 0.773984
O O11 0.850461 0.222731 0.649474
O O12 0.819131 0.000000 0.717862
O O13 0.540685 0.788591 0.632821
O O14 0.470069 0.000000 0.652555
O O15 0.615730 0.500000 0.822237
O O16 0.613024 0.261494 0.894801
O O17 0.015765 0.814817 0.067434
O O18 0.938698 0.000000 0.097558
O O19 0.916142 0.774658 0.024669
O O20 0.103445 0.000000 0.408499
O O21 0.903826 0.000000 0.948435
#
# Coordination Sequence:
#
# PCOD9407410 Si02
#       8
#     8   8   8   8   8   8   8   8
#     4   9  17  27  40  58  79 101 127 163 203 246
#     4  10  18  25  36  56  82 109 135 166 202 241
#     4  10  20  33  47  61  78 104 140 179 214 247
#     4  10  17  26  41  58  78 106 137 169 200 240
#     4  10  19  28  40  57  78 104 134 170 211 248
#     4   8  14  24  37  54  74 101 134 166 196 231
#     4   9  17  29  43  58  75 100 134 170 206 246
#     4   8  14  25  40  54  72  99 134 168 198 235
#
# _framework density 14.109347
#
# number of rings (size 3 to 8) (size 9 to 14) (size 15 to 20)
#    0.000    2.750    1.250    2.250    0.000    4.250 
#    0.000    2.500    0.000    0.000    0.000    0.000 
#    0.000    0.000    0.000    1.125    0.000   20.000 
#
# Total GULP energy -356355.085182 kJ/mol
# GULP energy per Si atom -5568.048206 kJ/mol
# Density = 1.407723 g / cm^3
# Si number density = 14.109347 Si / 1000 Ang^3
#
#
#
# Elastic Constant Matrix: (Units=GPa)
#
#
# Indices 1 2 3 4 5 6 
#
# 1 43.3815 21.3750 41.8805 0.0000 0.0000 0.0000
# 2 21.3750 44.5185 62.9200 0.0000 0.0000 0.0000
# 3 41.8805 62.9200 166.6833 0.0000 0.0000 0.0000
# 4 0.0000 0.0000 0.0000 18.8987 0.0000 0.0000
# 5 0.0000 0.0000 0.0000 0.0000 15.0495 0.0000
# 6 0.0000 0.0000 0.0000 0.0000 0.0000 10.7433
#
#
#
# Elastic Compliance Matrix: (Units=1/GPa)
#
#
# Indices 1 2 3 4 5 6 
#
# 1 0.031881 -0.008544 -0.004785 0.000000 0.000000 0.000000
# 2 -0.008544 0.050443 -0.016894 0.000000 0.000000 0.000000
# 3 -0.004785 -0.016894 0.013579 0.000000 0.000000 0.000000
# 4 0.000000 0.000000 0.000000 0.052914 0.000000 0.000000
# 5 0.000000 0.000000 0.000000 0.000000 0.066447 0.000000
# 6 0.000000 0.000000 0.000000 0.000000 0.000000 0.093081
#
#
# Mechanical properties :
#
#
# Convention : Reuss Voigt Hill
#
# Bulk Modulus (GPa) = 28.20476 56.32603 42.26540
# Shear Modulus (GPa) = 13.13681 17.49882 15.31782
#
# Velocity S-wave (km/s) = 3.05466 3.52551 3.29850
# Velocity P-wave (km/s) = 5.69866 7.52197 6.67288
#
# Compressibility (1/GPa) = 0.03545501
#
# Stress axis : x y z
#
# Youngs Moduli (GPa) = 31.36705 19.82451 73.64314
#
# Poissons Ratio (x) = 0.16939 0.35238
# Poissons Ratio (y) = 0.26801 1.24416
# Poissons Ratio (z) = 0.15009 0.33492
#
# Static dielectric constant tensor:
#      x y z
#    x 1.431220 0.000000 0.000000 
#    y 0.000000 1.471210 0.000000 
#    z 0.000000 0.000000 1.478390 
# 
# From -- ./inp_files/30843.got.cif
#   From: 2010.05.17/outbox.ucp.g08.bks.cvg/sg51_16_cif.got.tgz:30843.got - 2010.06.11 16:27:58.
