data_PCOD9407309
_publ_section_title
;
Structure prediction by ZEFSAII (Michael W. Deem and Ramdas Pophale) SiO2 
 PCOD9407309
Probable space group: P M M A
;
_chemical_formula_sum "Si O2"
_cell_formula_units_Z 40
_cell_length_a 9.411869
_cell_length_b 7.382506
_cell_length_c 27.249263
_cell_angle_alpha 90.000000
_cell_angle_beta 90.000000
_cell_angle_gamma 90.000000
_cell_volume 1893.365429
_symmetry_space_group_name_H-M "P M M A"
_symmetry_group_IT_number 51
_symmetry_cell_setting 'orthorhombic'
loop_
_space_group_symop_operation_xyz
x,y,z
1/2-x,-y,z
1/2+x,-y,-z
-x,y,-z
-x,-y,-z
1/2+x,y,-z
1/2-x,y,z
x,-y,z
loop_
_atom_site_type_symbol
_atom_site_label
_atom_site_fract_x
_atom_site_fract_y
_atom_site_fract_z
Si Si1 0.412005 0.714226 0.358267
Si Si2 0.413154 0.278527 0.548171
Si Si3 0.584029 0.220756 0.856265
Si Si4 0.586501 0.221314 0.048124
Si Si5 0.414041 0.782866 0.250775
O O1 0.250000 0.788462 0.358852
O O2 0.399680 0.500000 0.366293
O O3 0.507826 0.784107 0.402478
O O4 0.476399 0.736123 0.303716
O O5 0.500000 0.223347 0.500000
O O6 0.250000 0.220229 0.546204
O O7 0.412153 0.500000 0.548513
O O8 0.750000 0.273077 0.861199
O O9 0.491460 0.281337 0.902189
O O10 0.529431 0.278175 0.802230
O O11 0.582499 0.000000 0.856976
O O12 0.750000 0.278265 0.046155
O O13 0.585676 0.000000 0.048332
O O14 0.500000 0.278082 0.000000
O O15 0.250000 0.718445 0.252473
O O16 0.411643 0.000000 0.248960
#
# Coordination Sequence:
#
# PCOD9407309 Si02
#       5
#     8   8   8   8   8
#     4   9  16  26  42  64  86 106 132 167 201 233
#     4   9  16  26  41  61  84 108 133 163 201 242
#     4   8  13  22  35  49  67  95 130 161 188 225
#     4   9  15  21  30  46  69  96 125 158 196 235
#     4   8  14  25  41  59  80 109 140 165 194 236
#
# _framework density 21.126404000000001
#
# number of rings (size 3 to 8) (size 9 to 14) (size 15 to 20)
#    0.000    3.400    0.000    2.400    0.000    4.800 
#    0.000    1.000    0.000    2.400    0.000    0.000 
#    0.000    0.800    0.000    1.400    0.000    2.000 
#
# Total GULP energy -223028.728566 kJ/mol
# GULP energy per Si atom -5575.718214 kJ/mol
# Density = 2.107832 g / cm^3
# Si number density = 21.126404 Si / 1000 Ang^3
#
#
#
# Elastic Constant Matrix: (Units=GPa)
#
#
# Indices 1 2 3 4 5 6 
#
# 1 129.7742 4.8496 126.1148 0.0000 0.0000 0.0000
# 2 4.8496 71.7983 3.9779 0.0000 0.0000 0.0000
# 3 126.1148 3.9779 273.6484 0.0000 0.0000 0.0000
# 4 0.0000 0.0000 0.0000 12.7400 0.0000 0.0000
# 5 0.0000 0.0000 0.0000 0.0000 36.1217 0.0000
# 6 0.0000 0.0000 0.0000 0.0000 0.0000 -18.5935
#
#
#
# Elastic Compliance Matrix: (Units=1/GPa)
#
#
# Indices 1 2 3 4 5 6 
#
# 1 0.013981 -0.000588 -0.006435 0.000000 0.000000 0.000000
# 2 -0.000588 0.013964 0.000068 0.000000 0.000000 0.000000
# 3 -0.006435 0.000068 0.006619 0.000000 0.000000 0.000000
# 4 0.000000 0.000000 0.000000 0.078493 0.000000 0.000000
# 5 0.000000 0.000000 0.000000 0.000000 0.027684 0.000000
# 6 0.000000 0.000000 0.000000 0.000000 0.000000 -0.053782
#
#
# Mechanical properties :
#
#
# Convention : Reuss Voigt Hill
#
# Bulk Modulus (GPa) = 48.41596 82.78950 65.60273
# Shear Modulus (GPa) = 46.40255 28.73889 37.57072
#
# Velocity S-wave (km/s) = 4.69169 3.69227 4.22166
# Velocity P-wave (km/s) = 7.23300 7.57957 7.40831
#
# Compressibility (1/GPa) = 0.02065435
#
# Stress axis : x y z
#
# Youngs Moduli (GPa) = 71.52562 71.61345 151.08234
#
# Poissons Ratio (x) = 0.04210 0.97218
# Poissons Ratio (y) = 0.04205 -0.01026
# Poissons Ratio (z) = 0.46025 -0.00486
#
# Static dielectric constant tensor:
#      x y z
#    x 1.713440 0.000000 0.000000 
#    y 0.000000 1.841980 0.000000 
#    z 0.000000 0.000000 1.770380 
# 
# From -- ./inp_files/31372.got.cif
#   From: 2010.05.17/outbox.cif.g08.bks.cpg/sg51_16_cif.got.tgz:31372.got - 2010.06.03 11:52:47.
