data_PCOD9407797
_publ_section_title
;
Structure prediction by ZEFSAII (Michael W. Deem and Ramdas Pophale) SiO2 
 PCOD9407797
Probable space group: P M M A
;
_chemical_formula_sum "Si O2"
_cell_formula_units_Z 64
_cell_length_a 15.000000
_cell_length_b 9.000000
_cell_length_c 24.000000
_cell_angle_alpha 90.000000
_cell_angle_beta 90.000000
_cell_angle_gamma 90.000000
_cell_volume 3240.000000
_symmetry_space_group_name_H-M "P M M A"
_symmetry_group_IT_number 51
_symmetry_cell_setting 'orthorhombic'
loop_
_space_group_symop_operation_xyz
x,y,z
1/2-x,-y,z
1/2+x,-y,-z
-x,y,-z
-x,-y,-z
1/2+x,y,-z
1/2-x,y,z
x,-y,z
loop_
_atom_site_type_symbol
_atom_site_label
_atom_site_fract_x
_atom_site_fract_y
_atom_site_fract_z
Si Si1 0.150444 0.820974 0.365807
Si Si2 0.648831 0.321235 0.859578
Si Si3 0.525767 0.178951 0.309067
Si Si4 0.358533 0.168896 0.024926
Si Si5 0.396718 0.328846 0.482252
Si Si6 0.651520 0.828300 0.407719
Si Si7 0.470033 0.678692 0.804547
Si Si8 0.855784 0.322799 0.088112
O O1 0.250000 0.771152 0.351655
O O2 0.123921 0.760388 0.426397
O O3 0.075845 0.775636 0.321574
O O4 0.149305 0.000000 0.368612
O O5 0.750000 0.269161 0.847575
O O6 0.650203 0.500000 0.860976
O O7 0.571931 0.274407 0.817241
O O8 0.620689 0.263571 0.920452
O O9 0.581668 0.228515 0.362814
O O10 0.560208 0.249035 0.252600
O O11 0.531501 0.000000 0.306115
O O12 0.250000 0.168054 0.022158
O O13 0.389084 0.240774 0.967247
O O14 0.389239 0.000000 0.030907
O O15 0.500000 0.319294 0.500000
O O16 0.372919 0.500000 0.473281
O O17 0.348345 0.261115 0.535444
O O18 0.750000 0.825465 0.382452
O O19 0.628884 0.000000 0.421059
O O20 0.467121 0.500000 0.800119
O O21 0.409630 0.721843 0.857110
O O22 0.750000 0.293790 0.095222
O O23 0.866346 0.500000 0.080177
#
# Coordination Sequence:
#
# PCOD9407797 Si02
#       8
#     8   8   8   8   8   8   8   8
#     4  10  21  38  60  83 108 144 185 220 264 325
#     4   9  18  34  54  75 103 139 174 211 260 316
#     4  10  22  39  56  77 107 140 178 226 271 312
#     4   9  17  30  51  80 109 135 168 213 263 314
#     4  11  22  35  56  87 119 146 175 218 271 321
#     4  10  21  38  60  83 108 144 185 220 264 325
#     4  10  22  37  54  77 103 136 182 224 259 312
#     4   9  18  34  54  75 103 139 174 211 260 316
#
# _framework density 19.753086
#
# number of rings (size 3 to 8) (size 9 to 14) (size 15 to 20)
#    0.000    2.250    1.250    1.125    0.000    7.500 
#    0.000    2.500    0.000    0.000    0.000    0.000 
#    0.000    0.000    0.000    0.000    0.000    0.000 
#
# Total GULP energy -357173.205085 kJ/mol
# GULP energy per Si atom -5580.831329 kJ/mol
# Density = 1.970813 g / cm^3
# Si number density = 19.753086 Si / 1000 Ang^3
#
#
#
# Elastic Constant Matrix: (Units=GPa)
#
#
# Indices 1 2 3 4 5 6 
#
# 1 42.1695 13.0614 5.5479 0.0000 0.0000 0.0000
# 2 13.0614 -6.6317 -0.8157 0.0000 0.0000 0.0000
# 3 5.5479 -0.8157 59.3505 0.0000 0.0000 0.0000
# 4 0.0000 0.0000 0.0000 21.9432 0.0000 0.0000
# 5 0.0000 0.0000 0.0000 0.0000 -6.1158 0.0000
# 6 0.0000 0.0000 0.0000 0.0000 0.0000 15.6165
#
#
#
# Elastic Compliance Matrix: (Units=1/GPa)
#
#
# Indices 1 2 3 4 5 6 
#
# 1 0.014786 0.029241 -0.000980 0.000000 0.000000 0.000000
# 2 0.029241 -0.092706 -0.004007 0.000000 0.000000 0.000000
# 3 -0.000980 -0.004007 0.016886 0.000000 0.000000 0.000000
# 4 0.000000 0.000000 0.000000 0.045572 0.000000 0.000000
# 5 0.000000 0.000000 0.000000 0.000000 -0.163511 0.000000
# 6 0.000000 0.000000 0.000000 0.000000 0.000000 0.064035
#
#
# Mechanical properties :
#
#
# Convention : Reuss Voigt Hill
#
# Bulk Modulus (GPa) = -79.82885 14.49728 -32.66578
# Shear Modulus (GPa) = -29.82903 11.42844 -9.20029
#
# Velocity S-wave (km/s) = -3.89021 2.40795 -2.16050
# Velocity P-wave (km/s) = 7.78970 3.88409 4.77458
#
# Compressibility (1/GPa) = -0.01252680
#
# Stress axis : x y z
#
# Youngs Moduli (GPa) = 67.63326 -10.78684 59.22208
#
# Poissons Ratio (x) = 0.31542 0.05805
# Poissons Ratio (y) = -1.97770 0.23733
# Poissons Ratio (z) = 0.06630 -0.04323
#
# Static dielectric constant tensor:
#      x y z
#    x 1.758120 0.000000 0.000000 
#    y 0.000000 1.667040 0.000000 
#    z 0.000000 0.000000 1.633140 
# 
# From -- ./inp_files/35607.got.cif
#   From: 2010.05.17/outbox.ucp.g08.bks.cvg/sg51_18_cif.got.tgz:35607.got - 2010.06.11 16:27:58.
