data_PCOD9407685
_publ_section_title
;
Structure prediction by ZEFSAII (Michael W. Deem and Ramdas Pophale) SiO2 
 PCOD9407685
Probable space group: P M M A
;
_chemical_formula_sum "Si O2"
_cell_formula_units_Z 48
_cell_length_a 24.000000
_cell_length_b 9.000000
_cell_length_c 12.000000
_cell_angle_alpha 90.000000
_cell_angle_beta 90.000000
_cell_angle_gamma 90.000000
_cell_volume 2592.000000
_symmetry_space_group_name_H-M "P M M A"
_symmetry_group_IT_number 51
_symmetry_cell_setting 'orthorhombic'
loop_
_space_group_symop_operation_xyz
x,y,z
1/2-x,-y,z
1/2+x,-y,-z
-x,y,-z
-x,-y,-z
1/2+x,y,-z
1/2-x,y,z
x,-y,z
loop_
_atom_site_type_symbol
_atom_site_label
_atom_site_fract_x
_atom_site_fract_y
_atom_site_fract_z
Si Si1 0.316316 0.319934 0.362330
Si Si2 0.687405 0.825079 0.201365
Si Si3 0.979614 0.678890 0.260256
Si Si4 0.406991 0.821117 0.208672
Si Si5 0.082508 0.823995 0.947647
Si Si6 0.626308 0.321723 0.404373
O O1 0.250000 0.281693 0.366614
O O2 0.319573 0.500000 0.354043
O O3 0.350583 0.246452 0.260841
O O4 0.349353 0.273539 0.475904
O O5 0.750000 0.786795 0.169414
O O6 0.644383 0.802862 0.101312
O O7 0.667760 0.733816 0.308212
O O8 0.684886 0.000000 0.230508
O O9 0.984046 0.500000 0.259972
O O10 0.955606 0.734950 0.140401
O O11 0.934909 0.723730 0.356725
O O12 0.039940 0.752755 0.273426
O O13 0.406111 0.000000 0.216918
O O14 0.416726 0.782717 0.077640
O O15 0.067708 0.000000 0.939574
O O16 0.625628 0.500000 0.406723
#
# Coordination Sequence:
#
# PCOD9407685 Si02
#       6
#     8   8   8   8   8   8
#     4  10  22  40  59  78 105 142 181 221 265 315
#     4   9  17  30  51  78 105 135 174 221 269 316
#     4  10  20  35  58  85 110 137 175 224 273 321
#     4  11  23  37  55  79 110 147 182 218 262 318
#     4   9  19  35  53  76 109 146 181 219 267 319
#     4   9  19  36  57  80 106 138 175 219 272 322
#
# _framework density 18.518519000000001
#
# number of rings (size 3 to 8) (size 9 to 14) (size 15 to 20)
#    0.000    2.333    0.000    2.000    0.000    7.333 
#    0.000    5.000    0.000    0.000    0.000    0.000 
#    0.000    0.000    0.000    0.000    0.000    0.000 
#
# Total GULP energy -267763.467778 kJ/mol
# GULP energy per Si atom -5578.405579 kJ/mol
# Density = 1.847637 g / cm^3
# Si number density = 18.518519 Si / 1000 Ang^3
#
#
#
# Elastic Constant Matrix: (Units=GPa)
#
#
# Indices 1 2 3 4 5 6 
#
# 1 117.9264 26.6905 33.7562 0.0000 0.0000 0.0000
# 2 26.6905 26.6108 18.7153 0.0000 0.0000 0.0000
# 3 33.7562 18.7153 62.9129 0.0000 0.0000 0.0000
# 4 0.0000 0.0000 0.0000 29.8292 0.0000 0.0000
# 5 0.0000 0.0000 0.0000 0.0000 17.0367 0.0000
# 6 0.0000 0.0000 0.0000 0.0000 0.0000 28.5796
#
#
#
# Elastic Compliance Matrix: (Units=1/GPa)
#
#
# Indices 1 2 3 4 5 6 
#
# 1 0.011542 -0.009131 -0.003476 0.000000 0.000000 0.000000
# 2 -0.009131 0.054745 -0.011386 0.000000 0.000000 0.000000
# 3 -0.003476 -0.011386 0.021147 0.000000 0.000000 0.000000
# 4 0.000000 0.000000 0.000000 0.033524 0.000000 0.000000
# 5 0.000000 0.000000 0.000000 0.000000 0.058697 0.000000
# 6 0.000000 0.000000 0.000000 0.000000 0.000000 0.034990
#
#
# Mechanical properties :
#
#
# Convention : Reuss Voigt Hill
#
# Bulk Modulus (GPa) = 25.35072 40.64159 32.99616
# Shear Modulus (GPa) = 18.13029 23.64163 20.88596
#
# Velocity S-wave (km/s) = 3.13235 3.57690 3.36198
# Velocity P-wave (km/s) = 5.17699 6.24924 5.73822
#
# Compressibility (1/GPa) = 0.03944661
#
# Stress axis : x y z
#
# Youngs Moduli (GPa) = 86.64252 18.26646 47.28718
#
# Poissons Ratio (x) = 0.16680 0.16439
# Poissons Ratio (y) = 0.79116 0.53842
# Poissons Ratio (z) = 0.30120 0.20798
#
# Static dielectric constant tensor:
#      x y z
#    x 1.658030 0.000000 0.000000 
#    y 0.000000 1.623130 0.000000 
#    z 0.000000 0.000000 1.627960 
# 
# From -- ./inp_files/18596.got.cif
#   From: 2010.05.17/outbox.ucp.g08.bks.cvg/sg51_10_cif.got.tgz:18596.got - 2010.06.11 16:27:58.
