data_PCOD9407379
_publ_section_title
;
Structure prediction by ZEFSAII (Michael W. Deem and Ramdas Pophale) SiO2 
 PCOD9407379
Probable space group: P M M A
;
_chemical_formula_sum "Si O2"
_cell_formula_units_Z 48
_cell_length_a 9.529110
_cell_length_b 7.490456
_cell_length_c 32.190853
_cell_angle_alpha 90.000000
_cell_angle_beta 90.000000
_cell_angle_gamma 90.000000
_cell_volume 2297.698721
_symmetry_space_group_name_H-M "P M M A"
_symmetry_group_IT_number 51
_symmetry_cell_setting 'orthorhombic'
loop_
_space_group_symop_operation_xyz
x,y,z
1/2-x,-y,z
1/2+x,-y,-z
-x,y,-z
-x,-y,-z
1/2+x,y,-z
1/2-x,y,z
x,-y,z
loop_
_atom_site_type_symbol
_atom_site_label
_atom_site_fract_x
_atom_site_fract_y
_atom_site_fract_z
Si Si1 0.087639 0.282013 0.959550
Si Si2 0.409542 0.786049 0.369704
Si Si3 0.089379 0.286684 0.800157
Si Si4 0.590327 0.286135 0.538483
Si Si5 0.088235 0.718417 0.121293
Si Si6 0.409413 0.214206 0.707212
O O1 0.250000 0.224061 0.960207
O O2 0.089781 0.500000 0.959703
O O3 0.004856 0.226866 0.918176
O O4 0.000000 0.225996 0.000000
O O5 0.250000 0.716182 0.368768
O O6 0.469159 0.749680 0.415586
O O7 0.498690 0.717326 0.330973
O O8 0.402453 0.000000 0.365647
O O9 0.250000 0.217196 0.803461
O O10 0.097757 0.500000 0.805059
O O11 0.036352 0.251843 0.753539
O O12 0.988115 0.221246 0.836508
O O13 0.500000 0.217162 0.500000
O O14 0.750000 0.216232 0.537421
O O15 0.597675 0.500000 0.534273
O O16 0.250000 0.775875 0.118403
O O17 0.089891 0.500000 0.121345
O O18 0.250000 0.283316 0.705181
O O19 0.403256 0.000000 0.703304
#
# Coordination Sequence:
#
# PCOD9407379 Si02
#       6
#     8   8   8   8   8   8
#     4   9  15  22  33  50  75 109 146 181 219 264
#     4   9  18  32  48  66  89 116 145 178 217 259
#     4   9  17  29  44  62  85 113 144 178 217 260
#     4   9  18  32  48  67  92 120 148 179 216 257
#     4   9  16  25  37  55  80 109 142 180 220 262
#     4   9  18  32  48  66  89 116 146 181 220 261
#
# _framework density 20.890467999999998
#
# number of rings (size 3 to 8) (size 9 to 14) (size 15 to 20)
#    0.000    3.000    0.000    1.000    0.000    6.333 
#    0.000    0.000    0.000    0.000    0.000    0.000 
#    0.000    0.667    0.000    1.833    0.000    3.333 
#
# Total GULP energy -267850.387562 kJ/mol
# GULP energy per Si atom -5580.216408 kJ/mol
# Density = 2.084292 g / cm^3
# Si number density = 20.890468 Si / 1000 Ang^3
#
#
#
# Elastic Constant Matrix: (Units=GPa)
#
#
# Indices 1 2 3 4 5 6 
#
# 1 134.9985 4.0355 130.4857 0.0000 0.0000 0.0000
# 2 4.0355 57.7793 -1.1739 0.0000 0.0000 0.0000
# 3 130.4857 -1.1739 248.7054 0.0000 0.0000 0.0000
# 4 0.0000 0.0000 0.0000 25.0087 0.0000 0.0000
# 5 0.0000 0.0000 0.0000 0.0000 37.6615 0.0000
# 6 0.0000 0.0000 0.0000 0.0000 0.0000 97.3799
#
#
#
# Elastic Compliance Matrix: (Units=1/GPa)
#
#
# Indices 1 2 3 4 5 6 
#
# 1 0.015114 -0.001217 -0.007935 0.000000 0.000000 0.000000
# 2 -0.001217 0.017407 0.000721 0.000000 0.000000 0.000000
# 3 -0.007935 0.000721 0.008188 0.000000 0.000000 0.000000
# 4 0.000000 0.000000 0.000000 0.039986 0.000000 0.000000
# 5 0.000000 0.000000 0.000000 0.000000 0.026552 0.000000
# 6 0.000000 0.000000 0.000000 0.000000 0.000000 0.010269
#
#
# Mechanical properties :
#
#
# Convention : Reuss Voigt Hill
#
# Bulk Modulus (GPa) = 41.93729 78.68640 60.31185
# Shear Modulus (GPa) = 35.13013 52.55240 43.84126
#
# Velocity S-wave (km/s) = 4.10522 5.02103 4.58605
# Velocity P-wave (km/s) = 6.52602 8.44762 7.54822
#
# Compressibility (1/GPa) = 0.02384513
#
# Stress axis : x y z
#
# Youngs Moduli (GPa) = 66.16343 57.44858 122.13506
#
# Poissons Ratio (x) = 0.06991 0.96920
# Poissons Ratio (y) = 0.08051 -0.08801
# Poissons Ratio (z) = 0.52504 -0.04140
#
# Static dielectric constant tensor:
#      x y z
#    x 1.728660 0.000000 0.000000 
#    y 0.000000 1.792290 0.000000 
#    z 0.000000 0.000000 1.725620 
# 
# From -- ./inp_files/34533.got.cif
#   From: 2010.05.17/outbox.cif.g08.bks.cpg/sg51_18_cif.got.tgz:34533.got - 2010.06.03 11:52:47.
