data_PCOD9407176
_publ_section_title
;
Structure prediction by ZEFSAII (Michael W. Deem and Ramdas Pophale) SiO2 
 PCOD9407176
Probable space group: P M M A
;
_chemical_formula_sum "Si O2"
_cell_formula_units_Z 32
_cell_length_a 11.825133
_cell_length_b 10.303333
_cell_length_c 14.336549
_cell_angle_alpha 90.000000
_cell_angle_beta 90.000000
_cell_angle_gamma 90.000000
_cell_volume 1746.740515
_symmetry_space_group_name_H-M "P M M A"
_symmetry_group_IT_number 51
_symmetry_cell_setting 'orthorhombic'
loop_
_space_group_symop_operation_xyz
x,y,z
1/2-x,-y,z
1/2+x,-y,-z
-x,y,-z
-x,-y,-z
1/2+x,y,-z
1/2-x,y,z
x,-y,z
loop_
_atom_site_type_symbol
_atom_site_label
_atom_site_fract_x
_atom_site_fract_y
_atom_site_fract_z
Si Si1 0.250000 0.000000 0.318110
Si Si2 0.997998 0.500000 0.613188
Si Si3 0.386505 0.751742 0.710173
Si Si4 0.750000 0.500000 0.696956
Si Si5 0.250000 0.756995 0.183263
Si Si6 0.983543 0.845362 0.889347
Si Si7 0.497248 0.000000 0.610209
O O1 0.250000 0.871442 0.257639
O O2 0.369944 0.000000 0.367473
O O3 0.058110 0.374873 0.661178
O O4 0.000000 0.500000 0.500000
O O5 0.865353 0.500000 0.638773
O O6 0.250000 0.745687 0.707487
O O7 0.430252 0.776624 0.816759
O O8 0.434801 0.874747 0.652879
O O9 0.750000 0.376058 0.762840
O O10 0.136751 0.778956 0.126629
O O11 0.980821 0.000000 0.865193
O O12 0.000000 0.836760 0.000000
O O13 0.500000 0.000000 0.500000
#
# Coordination Sequence:
#
# PCOD9407176 Si02
#       7
#     2   4   8   2   4   8   4
#     4  12  20  42  68  86 134 168 226 278 326 384
#     4  12  27  48  69  98 129 182 227 269 332 398
#     4  12  25  45  65  98 139 171 218 279 334 396
#     4  12  24  42  76  90 132 174 228 280 326 392
#     4  12  20  44  64  98 129 171 223 285 320 388
#     4  11  23  41  70 102 131 177 223 272 334 393
#     4  12  25  42  65  98 129 176 219 275 340 392
#
# _framework density 18.319835999999999
#
# number of rings (size 3 to 8) (size 9 to 14) (size 15 to 20)
#    0.000    0.250    7.500    1.500    5.250    0.000 
#    0.000    2.500    0.000    0.000    0.000    0.000 
#    0.000    0.000    0.000    0.000    0.000    0.000 
#
# Total GULP energy -178668.790837 kJ/mol
# GULP energy per Si atom -5583.399714 kJ/mol
# Density = 1.827814 g / cm^3
# Si number density = 18.319836 Si / 1000 Ang^3
#
#
#
# Elastic Constant Matrix: (Units=GPa)
#
#
# Indices 1 2 3 4 5 6 
#
# 1 207.0940 65.7396 76.7407 0.0000 0.0000 0.0000
# 2 65.7396 165.3859 74.6403 0.0000 0.0000 0.0000
# 3 76.7407 74.6403 150.4509 0.0000 0.0000 0.0000
# 4 0.0000 0.0000 0.0000 24.3860 0.0000 0.0000
# 5 0.0000 0.0000 0.0000 0.0000 43.9151 0.0000
# 6 0.0000 0.0000 0.0000 0.0000 0.0000 4.5991
#
#
#
# Elastic Compliance Matrix: (Units=1/GPa)
#
#
# Indices 1 2 3 4 5 6 
#
# 1 0.006173 -0.001331 -0.002489 0.000000 0.000000 0.000000
# 2 -0.001331 0.008078 -0.003329 0.000000 0.000000 0.000000
# 3 -0.002489 -0.003329 0.009567 0.000000 0.000000 0.000000
# 4 0.000000 0.000000 0.000000 0.041007 0.000000 0.000000
# 5 0.000000 0.000000 0.000000 0.000000 0.022771 0.000000
# 6 0.000000 0.000000 0.000000 0.000000 0.000000 0.217433
#
#
# Mechanical properties :
#
#
# Convention : Reuss Voigt Hill
#
# Bulk Modulus (GPa) = 105.01540 106.35245 105.68392
# Shear Modulus (GPa) = 15.50389 34.96739 25.23564
#
# Velocity S-wave (km/s) = 2.91226 4.37363 3.71550
# Velocity P-wave (km/s) = 8.29193 9.14790 8.73041
#
# Compressibility (1/GPa) = 0.00952241
#
# Stress axis : x y z
#
# Youngs Moduli (GPa) = 161.98690 123.79814 104.52081
#
# Poissons Ratio (x) = 0.16474 0.26012
# Poissons Ratio (y) = 0.21555 0.34792
# Poissons Ratio (z) = 0.40313 0.41208
#
# Static dielectric constant tensor:
#      x y z
#    x 1.582680 0.000000 0.000000 
#    y 0.000000 1.615740 0.000000 
#    z 0.000000 0.000000 1.520980 
# 
# From -- ./inp_files/22938.got.cif
#   From: 2010.05.17/outbox.cif.g08.bks.cpg/sg51_12_cif.got.tgz:22938.got - 2010.06.03 11:52:47.
