data_PCOD9407017
_publ_section_title
;
Structure prediction by ZEFSAII (Michael W. Deem and Ramdas Pophale) SiO2 
 PCOD9407017
Probable space group: P M M A
;
_chemical_formula_sum "Si O2"
_cell_formula_units_Z 36
_cell_length_a 8.564329
_cell_length_b 24.386180
_cell_length_c 9.449553
_cell_angle_alpha 90.000000
_cell_angle_beta 90.000000
_cell_angle_gamma 90.000000
_cell_volume 1973.551131
_symmetry_space_group_name_H-M "P M M A"
_symmetry_group_IT_number 51
_symmetry_cell_setting 'orthorhombic'
loop_
_space_group_symop_operation_xyz
x,y,z
1/2-x,-y,z
1/2+x,-y,-z
-x,y,-z
-x,-y,-z
1/2+x,y,-z
1/2-x,y,z
x,-y,z
loop_
_atom_site_type_symbol
_atom_site_label
_atom_site_fract_x
_atom_site_fract_y
_atom_site_fract_z
Si Si1 0.936062 0.266688 0.839389
Si Si2 0.938417 0.061969 0.157467
Si Si3 0.062312 0.834606 0.658585
Si Si4 0.938178 0.500000 0.161248
Si Si5 0.562158 0.618601 0.161735
O O1 0.750000 0.265672 0.844409
O O2 0.000114 0.216715 0.747859
O O3 0.992181 0.325417 0.777901
O O4 0.000000 0.262055 0.000000
O O5 0.750000 0.062477 0.153058
O O6 0.989579 0.109113 0.264745
O O7 0.988722 0.000000 0.196191
O O8 0.000000 0.073664 0.000000
O O9 0.250000 0.833188 0.658102
O O10 0.000000 0.832433 0.500000
O O11 0.750000 0.500000 0.155241
O O12 0.984393 0.440890 0.225145
O O13 0.000000 0.500000 0.000000
O O14 0.750000 0.622751 0.160596
O O15 0.500000 0.617327 0.000000
#
# Coordination Sequence:
#
# PCOD9407017 Si02
#       5
#     8   8   8   4   8
#     4  11  21  34  52  75 103 137 177 219 262 309
#     4   9  19  36  58  83 109 137 171 210 253 303
#     4  11  23  38  55  77 106 139 175 216 262 310
#     4   8  14  22  36  60  93 128 161 202 253 306
#     4   9  15  25  41  65  96 130 167 208 256 307
#
# _framework density 18.241230000000002
#
# number of rings (size 3 to 8) (size 9 to 14) (size 15 to 20)
#    0.000    2.222    0.000    5.333    0.000    4.889 
#    0.000    0.000    0.000    0.000    0.000    0.778 
#    0.000    0.000    0.000    0.000    0.000    0.000 
#
# Total GULP energy -200717.335641 kJ/mol
# GULP energy per Si atom -5575.481546 kJ/mol
# Density = 1.819971 g / cm^3
# Si number density = 18.241230 Si / 1000 Ang^3
#
#
#
# Elastic Constant Matrix: (Units=GPa)
#
#
# Indices 1 2 3 4 5 6 
#
# 1 73.6407 53.9476 27.0125 0.0000 0.0000 0.0000
# 2 53.9476 205.6021 90.3634 0.0000 0.0000 0.0000
# 3 27.0125 90.3634 71.0135 0.0000 0.0000 0.0000
# 4 0.0000 0.0000 0.0000 -2.9352 0.0000 0.0000
# 5 0.0000 0.0000 0.0000 0.0000 22.7021 0.0000
# 6 0.0000 0.0000 0.0000 0.0000 0.0000 17.8566
#
#
#
# Elastic Compliance Matrix: (Units=1/GPa)
#
#
# Indices 1 2 3 4 5 6 
#
# 1 0.016910 -0.003653 -0.001784 0.000000 0.000000 0.000000
# 2 -0.003653 0.011825 -0.013657 0.000000 0.000000 0.000000
# 3 -0.001784 -0.013657 0.032139 0.000000 0.000000 0.000000
# 4 0.000000 0.000000 0.000000 -0.340694 0.000000 0.000000
# 5 0.000000 0.000000 0.000000 0.000000 0.044049 0.000000
# 6 0.000000 0.000000 0.000000 0.000000 0.000000 0.056002
#
#
# Mechanical properties :
#
#
# Convention : Reuss Voigt Hill
#
# Bulk Modulus (GPa) = 44.08146 76.98928 60.53537
# Shear Modulus (GPa) = -37.30797 19.45354 -8.92722
#
# Velocity S-wave (km/s) = -4.52736 3.26921 -2.21463
# Velocity P-wave (km/s) = 1.76379 7.51985 5.16900
#
# Compressibility (1/GPa) = 0.02268527
#
# Stress axis : x y z
#
# Youngs Moduli (GPa) = 59.13708 84.56934 31.11487
#
# Poissons Ratio (x) = 0.30892 0.05551
# Poissons Ratio (y) = 0.21602 0.42494
# Poissons Ratio (z) = 0.10551 1.15498
#
# Static dielectric constant tensor:
#      x y z
#    x 1.609400 0.000000 0.000000 
#    y 0.000000 1.692310 0.000000 
#    z 0.000000 0.000000 1.571760 
# 
# From -- ./inp_files/5254.got.cif
#   From: 2010.05.17/outbox.cif.g08.bks.cpg/sg51_3_cif.got.tgz:5254.got - 2010.06.03 11:52:47.
