data_PCOD9407521
_publ_section_title
;
Structure prediction by ZEFSAII (Michael W. Deem and Ramdas Pophale) SiO2 
 PCOD9407521
Probable space group: P M M A
;
_chemical_formula_sum "Si O2"
_cell_formula_units_Z 64
_cell_length_a 9.000000
_cell_length_b 18.000000
_cell_length_c 21.000000
_cell_angle_alpha 90.000000
_cell_angle_beta 90.000000
_cell_angle_gamma 90.000000
_cell_volume 3402.000000
_symmetry_space_group_name_H-M "P M M A"
_symmetry_group_IT_number 51
_symmetry_cell_setting 'orthorhombic'
loop_
_space_group_symop_operation_xyz
x,y,z
1/2-x,-y,z
1/2+x,-y,-z
-x,y,-z
-x,-y,-z
1/2+x,y,-z
1/2-x,y,z
x,-y,z
loop_
_atom_site_type_symbol
_atom_site_label
_atom_site_fract_x
_atom_site_fract_y
_atom_site_fract_z
Si Si1 0.926640 0.085252 0.809574
Si Si2 0.575434 0.585718 0.170926
Si Si3 0.072733 0.628763 0.301424
Si Si4 0.928587 0.853934 0.066146
Si Si5 0.422207 0.622736 0.565573
Si Si6 0.573266 0.805975 0.695618
Si Si7 0.920272 0.196138 0.435589
Si Si8 0.929215 0.690168 0.933331
O O1 0.750000 0.097550 0.822567
O O2 0.973708 0.143930 0.755359
O O3 0.018816 0.098728 0.873619
O O4 0.943671 0.000000 0.787976
O O5 0.750000 0.606725 0.170223
O O6 0.563474 0.500000 0.150310
O O7 0.510606 0.592556 0.242043
O O8 0.482164 0.638198 0.124122
O O9 0.250000 0.616180 0.298916
O O10 0.045776 0.717944 0.294842
O O11 0.008333 0.602831 0.369581
O O12 0.750000 0.849470 0.061238
O O13 0.000117 0.771960 0.075896
O O14 0.000000 0.882155 0.000000
O O15 0.500000 0.597533 0.500000
O O16 0.250000 0.599556 0.567868
O O17 0.424864 0.713300 0.564171
O O18 0.750000 0.814907 0.688719
O O19 0.497319 0.828340 0.629543
O O20 0.750000 0.173276 0.436285
O O21 0.000000 0.171100 0.500000
O O22 0.750000 0.694512 0.937024
O O23 0.000000 0.662464 0.000000
#
# Coordination Sequence:
#
# PCOD9407521 Si02
#       8
#     8   8   8   8   8   8   8   8
#     4  10  21  37  56  79 110 147 185 226 273 324
#     4  11  24  40  57  80 112 148 185 225 269 318
#     4  10  19  32  53  79 107 141 182 226 273 326
#     4  11  22  38  61  86 113 143 179 223 270 322
#     4   9  16  27  45  72 105 137 173 219 272 326
#     4   9  18  32  51  76 105 138 176 220 269 320
#     4   9  16  26  44  71 102 134 169 215 267 318
#     4  11  22  39  63  88 114 143 179 222 269 322
#
# _framework density 18.812463000000001
#
# number of rings (size 3 to 8) (size 9 to 14) (size 15 to 20)
#    0.000    2.000    0.000    5.250    0.000    6.750 
#    0.000    0.000    0.000    0.750    0.000    0.000 
#    0.000    0.000    0.000    0.000    0.000    0.000 
#
# Total GULP energy -357483.573485 kJ/mol
# GULP energy per Si atom -5585.680836 kJ/mol
# Density = 1.876965 g / cm^3
# Si number density = 18.812463 Si / 1000 Ang^3
#
#
#
# Elastic Constant Matrix: (Units=GPa)
#
#
# Indices 1 2 3 4 5 6 
#
# 1 110.0100 22.6538 37.6579 0.0000 0.0000 0.0000
# 2 22.6538 27.3091 19.0528 0.0000 0.0000 0.0000
# 3 37.6579 19.0528 99.6755 0.0000 0.0000 0.0000
# 4 0.0000 0.0000 0.0000 -9.5005 0.0000 0.0000
# 5 0.0000 0.0000 0.0000 0.0000 41.0695 0.0000
# 6 0.0000 0.0000 0.0000 0.0000 0.0000 13.7897
#
#
#
# Elastic Compliance Matrix: (Units=1/GPa)
#
#
# Indices 1 2 3 4 5 6 
#
# 1 0.011670 -0.007621 -0.002952 0.000000 0.000000 0.000000
# 2 -0.007621 0.047229 -0.006149 0.000000 0.000000 0.000000
# 3 -0.002952 -0.006149 0.012323 0.000000 0.000000 0.000000
# 4 0.000000 0.000000 0.000000 -0.105258 0.000000 0.000000
# 5 0.000000 0.000000 0.000000 0.000000 0.024349 0.000000
# 6 0.000000 0.000000 0.000000 0.000000 0.000000 0.072518
#
#
# Mechanical properties :
#
#
# Convention : Reuss Voigt Hill
#
# Bulk Modulus (GPa) = 26.46972 43.96929 35.21950
# Shear Modulus (GPa) = 45.92722 19.58042 32.75382
#
# Velocity S-wave (km/s) = 4.94633 3.22968 4.17714
# Velocity P-wave (km/s) = 6.83538 6.10990 6.48280
#
# Compressibility (1/GPa) = 0.03777902
#
# Stress axis : x y z
#
# Youngs Moduli (GPa) = 85.68963 21.17329 81.14762
#
# Poissons Ratio (x) = 0.16136 0.23957
# Poissons Ratio (y) = 0.65304 0.49894
# Poissons Ratio (z) = 0.25298 0.13018
#
# Static dielectric constant tensor:
#      x y z
#    x 1.629040 0.000000 0.000000 
#    y 0.000000 1.650230 0.000000 
#    z 0.000000 0.000000 1.641420 
# 
# From -- ./inp_files/32428.got.cif
#   From: 2010.05.17/outbox.ucp.g08.bks.cvg/sg51_17_cif.got.tgz:32428.got - 2010.06.11 16:27:58.
