data_PCOD9407270
_publ_section_title
;
Structure prediction by ZEFSAII (Michael W. Deem and Ramdas Pophale) SiO2 
 PCOD9407270
Probable space group: P M M A
;
_chemical_formula_sum "Si O2"
_cell_formula_units_Z 64
_cell_length_a 24.415629
_cell_length_b 7.487215
_cell_length_c 17.308921
_cell_angle_alpha 90.000000
_cell_angle_beta 90.000000
_cell_angle_gamma 90.000000
_cell_volume 3164.158406
_symmetry_space_group_name_H-M "P M M A"
_symmetry_group_IT_number 51
_symmetry_cell_setting 'orthorhombic'
loop_
_space_group_symop_operation_xyz
x,y,z
1/2-x,-y,z
1/2+x,-y,-z
-x,y,-z
-x,-y,-z
1/2+x,y,-z
1/2-x,y,z
x,-y,z
loop_
_atom_site_type_symbol
_atom_site_label
_atom_site_fract_x
_atom_site_fract_y
_atom_site_fract_z
Si Si1 0.607993 0.717573 0.056506
Si Si2 0.493847 0.790468 0.585506
Si Si3 0.984014 0.285902 0.162463
Si Si4 0.690661 0.209164 0.747341
Si Si5 0.404532 0.284903 0.697200
Si Si6 0.810884 0.283642 0.928060
Si Si7 0.688214 0.717540 0.198153
Si Si8 0.072268 0.786315 0.278240
O O1 0.605786 0.500000 0.052097
O O2 0.547622 0.777238 0.085242
O O3 0.650647 0.764715 0.124930
O O4 0.637822 0.779738 0.978892
O O5 0.500000 0.713150 0.500000
O O6 0.432356 0.775791 0.618554
O O7 0.533504 0.715183 0.652815
O O8 0.507465 0.000000 0.580097
O O9 0.982144 0.500000 0.158951
O O10 0.945087 0.225481 0.233475
O O11 0.044137 0.243065 0.194253
O O12 0.750000 0.286951 0.725257
O O13 0.686693 0.220918 0.840216
O O14 0.633712 0.286333 0.716898
O O15 0.691822 0.000000 0.726240
O O16 0.405262 0.500000 0.696822
O O17 0.344644 0.227265 0.724845
O O18 0.750000 0.233553 0.959420
O O19 0.812269 0.500000 0.927620
O O20 0.750000 0.782533 0.193178
O O21 0.689878 0.500000 0.197838
O O22 0.074753 0.000000 0.286070
#
# Coordination Sequence:
#
# PCOD9407270 Si02
#       8
#     8   8   8   8   8   8   8   8
#     4   8  13  22  37  59  86 112 140 175 210 241
#     4   9  17  29  46  66  85 104 127 160 203 248
#     4   8  14  25  41  61  85 111 137 167 203 240
#     4   9  18  32  47  61  79 105 137 173 210 246
#     4   8  14  24  39  61  86 109 135 165 194 229
#     4   9  16  26  42  63  84 108 142 182 217 245
#     4   8  12  19  35  59  84 111 142 171 197 229
#     4   9  17  30  47  64  81 104 135 167 202 248
#
# _framework density 20.226545999999999
#
# number of rings (size 3 to 8) (size 9 to 14) (size 15 to 20)
#    0.000    3.500    0.000    1.875    0.000    2.250 
#    0.000    1.250    0.000    5.625    0.000    1.750 
#    0.000    0.000    0.000    0.000    0.000    0.000 
#
# Total GULP energy -356272.784024 kJ/mol
# GULP energy per Si atom -5566.762250 kJ/mol
# Density = 2.018051 g / cm^3
# Si number density = 20.226546 Si / 1000 Ang^3
#
#
#
# Elastic Constant Matrix: (Units=GPa)
#
#
# Indices 1 2 3 4 5 6 
#
# 1 104.2464 1.6331 13.3399 0.0000 0.0000 0.0000
# 2 1.6331 53.4422 -2.9448 0.0000 0.0000 0.0000
# 3 13.3399 -2.9448 35.6144 0.0000 0.0000 0.0000
# 4 0.0000 0.0000 0.0000 5.2685 0.0000 0.0000
# 5 0.0000 0.0000 0.0000 0.0000 20.3948 0.0000
# 6 0.0000 0.0000 0.0000 0.0000 0.0000 10.9280
#
#
#
# Elastic Compliance Matrix: (Units=1/GPa)
#
#
# Indices 1 2 3 4 5 6 
#
# 1 0.010090 -0.000519 -0.003822 0.000000 0.000000 0.000000
# 2 -0.000519 0.018824 0.001751 0.000000 0.000000 0.000000
# 3 -0.003822 0.001751 0.029655 0.000000 0.000000 0.000000
# 4 0.000000 0.000000 0.000000 0.189809 0.000000 0.000000
# 5 0.000000 0.000000 0.000000 0.000000 0.049032 0.000000
# 6 0.000000 0.000000 0.000000 0.000000 0.000000 0.091508
#
#
# Mechanical properties :
#
#
# Convention : Reuss Voigt Hill
#
# Bulk Modulus (GPa) = 18.73068 24.15106 21.44087
# Shear Modulus (GPa) = 12.13902 19.40324 15.77113
#
# Velocity S-wave (km/s) = 2.45246 3.10061 2.79538
# Velocity P-wave (km/s) = 4.15932 4.97841 4.58719
#
# Compressibility (1/GPa) = 0.05338836
#
# Stress axis : x y z
#
# Youngs Moduli (GPa) = 99.10898 53.12327 33.72116
#
# Poissons Ratio (x) = 0.02757 0.12889
# Poissons Ratio (y) = 0.05143 -0.05904
# Poissons Ratio (z) = 0.37882 -0.09301
#
# Static dielectric constant tensor:
#      x y z
#    x 1.779020 0.000000 0.000000 
#    y 0.000000 1.790440 0.000000 
#    z 0.000000 0.000000 1.713590 
# 
# From -- ./inp_files/30875.got.cif
#   From: 2010.05.17/outbox.cif.g08.bks.cpg/sg51_16_cif.got.tgz:30875.got - 2010.06.03 11:52:47.
