data_PCOD9407396
_publ_section_title
;
Structure prediction by ZEFSAII (Michael W. Deem and Ramdas Pophale) SiO2 
 PCOD9407396
Probable space group: P M M A
;
_chemical_formula_sum "Si O2"
_cell_formula_units_Z 40
_cell_length_a 18.898247
_cell_length_b 7.430790
_cell_length_c 14.156866
_cell_angle_alpha 90.000000
_cell_angle_beta 90.000000
_cell_angle_gamma 90.000000
_cell_volume 1988.033188
_symmetry_space_group_name_H-M "P M M A"
_symmetry_group_IT_number 51
_symmetry_cell_setting 'orthorhombic'
loop_
_space_group_symop_operation_xyz
x,y,z
1/2-x,-y,z
1/2+x,-y,-z
-x,y,-z
-x,-y,-z
1/2+x,y,-z
1/2-x,y,z
x,-y,z
loop_
_atom_site_type_symbol
_atom_site_label
_atom_site_fract_x
_atom_site_fract_y
_atom_site_fract_z
Si Si1 0.670770 0.282064 0.201635
Si Si2 0.169088 0.779745 0.411501
Si Si3 0.403614 0.210801 0.603200
Si Si4 0.033807 0.710878 0.905043
Si Si5 0.040789 0.217760 0.288545
O O1 0.750000 0.221616 0.179187
O O2 0.669895 0.500000 0.199453
O O3 0.648590 0.228843 0.307646
O O4 0.608772 0.214794 0.132403
O O5 0.250000 0.719858 0.403773
O O6 0.132505 0.717019 0.508952
O O7 0.116982 0.726319 0.326784
O O8 0.170583 0.000000 0.413542
O O9 0.478918 0.283312 0.639990
O O10 0.415979 0.000000 0.584191
O O11 0.046854 0.500000 0.923690
O O12 0.980896 0.725074 0.816260
O O13 0.000000 0.788908 0.000000
O O14 0.038299 0.000000 0.289182
#
# Coordination Sequence:
#
# PCOD9407396 Si02
#       5
#     8   8   8   8   8
#     4   9  17  29  45  66  90 113 140 179 224 262
#     4   9  16  26  42  65  93 123 150 175 208 253
#     4   9  16  27  45  67  90 117 148 179 211 252
#     4   9  18  33  50  65  84 113 147 181 220 266
#     4   9  17  29  46  67  89 114 147 184 217 253
#
# _framework density 20.120387999999998
#
# number of rings (size 3 to 8) (size 9 to 14) (size 15 to 20)
#    0.000    3.000    0.000    1.200    0.000    4.000 
#    0.000    2.000    0.000    7.800    0.000    0.000 
#    0.000    0.000    0.000    0.000    0.000    0.000 
#
# Total GULP energy -223137.820602 kJ/mol
# GULP energy per Si atom -5578.445515 kJ/mol
# Density = 2.007459 g / cm^3
# Si number density = 20.120388 Si / 1000 Ang^3
#
#
#
# Elastic Constant Matrix: (Units=GPa)
#
#
# Indices 1 2 3 4 5 6 
#
# 1 133.6134 -13.0051 78.7314 0.0000 0.0000 0.0000
# 2 -13.0051 57.1933 -18.4330 0.0000 0.0000 0.0000
# 3 78.7314 -18.4330 95.3692 0.0000 0.0000 0.0000
# 4 0.0000 0.0000 0.0000 12.6128 0.0000 0.0000
# 5 0.0000 0.0000 0.0000 0.0000 18.0829 0.0000
# 6 0.0000 0.0000 0.0000 0.0000 0.0000 8.3517
#
#
#
# Elastic Compliance Matrix: (Units=1/GPa)
#
#
# Indices 1 2 3 4 5 6 
#
# 1 0.014593 -0.000602 -0.012164 0.000000 0.000000 0.000000
# 2 -0.000602 0.018671 0.004106 0.000000 0.000000 0.000000
# 3 -0.012164 0.004106 0.021321 0.000000 0.000000 0.000000
# 4 0.000000 0.000000 0.000000 0.079285 0.000000 0.000000
# 5 0.000000 0.000000 0.000000 0.000000 0.055301 0.000000
# 6 0.000000 0.000000 0.000000 0.000000 0.000000 0.119736
#
#
# Mechanical properties :
#
#
# Convention : Reuss Voigt Hill
#
# Bulk Modulus (GPa) = 26.83488 42.30694 34.57091
# Shear Modulus (GPa) = 14.76463 23.73499 19.24981
#
# Velocity S-wave (km/s) = 2.71184 3.43833 3.09646
# Velocity P-wave (km/s) = 4.81368 6.06921 5.47754
#
# Compressibility (1/GPa) = 0.03726493
#
# Stress axis : x y z
#
# Youngs Moduli (GPa) = 68.52593 53.55929 46.90296
#
# Poissons Ratio (x) = 0.03224 0.57050
# Poissons Ratio (y) = 0.04125 -0.19257
# Poissons Ratio (z) = 0.83352 -0.21989
#
# Static dielectric constant tensor:
#      x y z
#    x 1.716340 0.000000 0.000000 
#    y 0.000000 1.755610 0.000000 
#    z 0.000000 0.000000 1.675230 
# 
# From -- ./inp_files/9301.got.cif
#   From: 2010.05.17/outbox.cif.g08.bks.cpg/sg51_5_cif.got.tgz:9301.got - 2010.06.03 11:52:47.
