data_PCOD9407599
_publ_section_title
;
Structure prediction by ZEFSAII (Michael W. Deem and Ramdas Pophale) SiO2 
 PCOD9407599
Probable space group: P M M A
;
_chemical_formula_sum "Si O2"
_cell_formula_units_Z 48
_cell_length_a 9.000000
_cell_length_b 9.000000
_cell_length_c 30.000000
_cell_angle_alpha 90.000000
_cell_angle_beta 90.000000
_cell_angle_gamma 90.000000
_cell_volume 2430.000000
_symmetry_space_group_name_H-M "P M M A"
_symmetry_group_IT_number 51
_symmetry_cell_setting 'orthorhombic'
loop_
_space_group_symop_operation_xyz
x,y,z
1/2-x,-y,z
1/2+x,-y,-z
-x,y,-z
-x,-y,-z
1/2+x,y,-z
1/2-x,y,z
x,-y,z
loop_
_atom_site_type_symbol
_atom_site_label
_atom_site_fract_x
_atom_site_fract_y
_atom_site_fract_z
Si Si1 0.082700 0.679791 0.543053
Si Si2 0.428403 0.836570 0.881417
Si Si3 0.930923 0.664210 0.202436
Si Si4 0.084167 0.322799 0.042698
Si Si5 0.571991 0.832391 0.287328
Si Si6 0.426386 0.669401 0.365211
O O1 0.250000 0.735876 0.548240
O O2 0.092610 0.500000 0.538305
O O3 0.000000 0.739909 0.500000
O O4 0.983475 0.705070 0.585882
O O5 0.250000 0.836763 0.882822
O O6 0.476446 0.788425 0.832485
O O7 0.489581 0.715983 0.914687
O O8 0.482024 0.000000 0.893610
O O9 0.750000 0.661948 0.202273
O O10 0.982563 0.500000 0.190090
O O11 0.979083 0.713816 0.250886
O O12 0.250000 0.262958 0.046200
O O13 0.093207 0.500000 0.037982
O O14 0.000000 0.260335 0.000000
O O15 0.750000 0.821217 0.291744
O O16 0.495734 0.788355 0.332588
O O17 0.538338 0.000000 0.272935
O O18 0.250000 0.670919 0.363122
O O19 0.477690 0.500000 0.354157
#
# Coordination Sequence:
#
# PCOD9407599 Si02
#       6
#     8   8   8   8   8   8
#     4   9  16  27  46  73 104 136 171 214 262 310
#     4  10  20  34  54  81 112 144 177 215 262 316
#     4   9  17  31  54  81 107 137 174 216 261 310
#     4  10  21  37  57  80 106 139 180 224 268 314
#     4  10  20  34  53  77 105 137 174 216 262 313
#     4  10  20  33  50  74 104 138 177 219 262 310
#
# _framework density 19.753086
#
# number of rings (size 3 to 8) (size 9 to 14) (size 15 to 20)
#    0.000    2.333    0.000    3.000    0.000    8.333 
#    0.000    0.833    0.000    5.500    0.000    0.000 
#    0.000    0.000    0.000    0.000    0.000    0.000 
#
# Total GULP energy -267412.264260 kJ/mol
# GULP energy per Si atom -5571.088839 kJ/mol
# Density = 1.970813 g / cm^3
# Si number density = 19.753086 Si / 1000 Ang^3
#
#
#
# Elastic Constant Matrix: (Units=GPa)
#
#
# Indices 1 2 3 4 5 6 
#
# 1 -10.1672 36.2435 9.0223 0.0000 0.0000 0.0000
# 2 36.2435 14.4450 11.6797 0.0000 0.0000 0.0000
# 3 9.0223 11.6797 60.3523 0.0000 0.0000 0.0000
# 4 0.0000 0.0000 0.0000 104.4358 0.0000 0.0000
# 5 0.0000 0.0000 0.0000 0.0000 -134.9490 0.0000
# 6 0.0000 0.0000 0.0000 0.0000 0.0000 20.3694
#
#
#
# Elastic Compliance Matrix: (Units=1/GPa)
#
#
# Indices 1 2 3 4 5 6 
#
# 1 -0.009159 0.025930 -0.003649 0.000000 0.000000 0.000000
# 2 0.025930 0.008656 -0.005552 0.000000 0.000000 0.000000
# 3 -0.003649 -0.005552 0.018189 0.000000 0.000000 0.000000
# 4 0.000000 0.000000 0.000000 0.009575 0.000000 0.000000
# 5 0.000000 0.000000 0.000000 0.000000 -0.007410 0.000000
# 6 0.000000 0.000000 0.000000 0.000000 0.000000 0.049093
#
#
# Mechanical properties :
#
#
# Convention : Reuss Voigt Hill
#
# Bulk Modulus (GPa) = 19.55188 19.83568 19.69378
# Shear Modulus (GPa) = 95.17590 -1.51646 46.82972
#
# Velocity S-wave (km/s) = 6.94891 -0.87714 4.87432
# Velocity P-wave (km/s) = 8.61991 3.00629 6.45525
#
# Compressibility (1/GPa) = 0.05114598
#
# Stress axis : x y z
#
# Youngs Moduli (GPa) = -109.18572 115.52583 54.97754
#
# Poissons Ratio (x) = -2.99562 0.20061
# Poissons Ratio (y) = 2.83121 0.30521
# Poissons Ratio (z) = -0.39842 0.64135
#
# Static dielectric constant tensor:
#      x y z
#    x 1.675640 0.000000 0.000000 
#    y 0.000000 1.723570 0.000000 
#    z 0.000000 0.000000 1.664390 
# 
# From -- ./inp_files/36936.got.cif
#   From: 2010.05.17/outbox.ucp.g08.bks.cvg/sg51_19_cif.got.tgz:36936.got - 2010.06.11 16:27:58.
