data_PCOD9407567
_publ_section_title
;
Structure prediction by ZEFSAII (Michael W. Deem and Ramdas Pophale) SiO2 
 PCOD9407567
Probable space group: P M M A
;
_chemical_formula_sum "Si O2"
_cell_formula_units_Z 64
_cell_length_a 24.000000
_cell_length_b 9.000000
_cell_length_c 15.000000
_cell_angle_alpha 90.000000
_cell_angle_beta 90.000000
_cell_angle_gamma 90.000000
_cell_volume 3240.000000
_symmetry_space_group_name_H-M "P M M A"
_symmetry_group_IT_number 51
_symmetry_cell_setting 'orthorhombic'
loop_
_space_group_symop_operation_xyz
x,y,z
1/2-x,-y,z
1/2+x,-y,-z
-x,y,-z
-x,-y,-z
1/2+x,y,-z
1/2-x,y,z
x,-y,z
loop_
_atom_site_type_symbol
_atom_site_label
_atom_site_fract_x
_atom_site_fract_y
_atom_site_fract_z
Si Si1 0.005879 0.680789 0.211304
Si Si2 0.812449 0.828563 0.253921
Si Si3 0.131544 0.320871 0.190036
Si Si4 0.029326 0.678846 0.591341
Si Si5 0.186271 0.177869 0.022679
Si Si6 0.392203 0.676176 0.876027
Si Si7 0.684711 0.326922 0.621992
Si Si8 0.354689 0.828197 0.555247
O O1 0.004676 0.500000 0.213203
O O2 0.067026 0.723340 0.178195
O O3 0.995899 0.730500 0.313896
O O4 0.954863 0.727224 0.147839
O O5 0.750000 0.801622 0.221006
O O6 0.855597 0.716417 0.210576
O O7 0.813911 0.817813 0.360442
O O8 0.827655 0.000000 0.230722
O O9 0.136442 0.500000 0.178790
O O10 0.149583 0.286168 0.290985
O O11 0.170545 0.239703 0.119691
O O12 0.026485 0.500000 0.592242
O O13 0.092106 0.732600 0.582652
O O14 0.000000 0.730641 0.500000
O O15 0.250000 0.222063 0.999878
O O16 0.140539 0.244191 0.955485
O O17 0.183623 0.000000 0.020737
O O18 0.393167 0.500000 0.892459
O O19 0.750000 0.314926 0.643521
O O20 0.672395 0.500000 0.601147
O O21 0.670491 0.231239 0.536003
O O22 0.370952 0.000000 0.545391
#
# Coordination Sequence:
#
# PCOD9407567 Si02
#       8
#     8   8   8   8   8   8   8   8
#     4   9  19  36  59  90 123 154 193 245 301 352
#     4  10  21  37  55  79 116 159 197 238 293 350
#     4  10  21  41  67  91 117 153 199 249 301 357
#     4  10  19  35  59  83 115 160 206 250 295 348
#     4  11  25  44  64  89 122 157 194 242 304 366
#     4  11  22  38  62  90 120 154 198 246 292 349
#     4  10  21  37  59  87 118 155 203 255 301 354
#     4  11  22  35  54  83 120 160 199 244 300 360
#
# _framework density 19.753086
#
# number of rings (size 3 to 8) (size 9 to 14) (size 15 to 20)
#    0.000    1.750    1.250    3.000    0.000    7.750 
#    0.000    4.375    0.000    0.000    0.000    0.000 
#    0.000    0.000    0.000    0.000    0.000    0.000 
#
# Total GULP energy -357380.237628 kJ/mol
# GULP energy per Si atom -5584.066213 kJ/mol
# Density = 1.970813 g / cm^3
# Si number density = 19.753086 Si / 1000 Ang^3
#
#
#
# Elastic Constant Matrix: (Units=GPa)
#
#
# Indices 1 2 3 4 5 6 
#
# 1 62.8924 6.2287 18.4310 0.0000 0.0000 0.0000
# 2 6.2287 8.6387 15.5113 0.0000 0.0000 0.0000
# 3 18.4310 15.5113 57.5937 0.0000 0.0000 0.0000
# 4 0.0000 0.0000 0.0000 34.9003 0.0000 0.0000
# 5 0.0000 0.0000 0.0000 0.0000 -15.8691 0.0000
# 6 0.0000 0.0000 0.0000 0.0000 0.0000 6.1432
#
#
#
# Elastic Compliance Matrix: (Units=1/GPa)
#
#
# Indices 1 2 3 4 5 6 
#
# 1 0.017657 -0.005006 -0.004302 0.000000 0.000000 0.000000
# 2 -0.005006 0.225575 -0.059151 0.000000 0.000000 0.000000
# 3 -0.004302 -0.059151 0.034670 0.000000 0.000000 0.000000
# 4 0.000000 0.000000 0.000000 0.028653 0.000000 0.000000
# 5 0.000000 0.000000 0.000000 0.000000 -0.063016 0.000000
# 6 0.000000 0.000000 0.000000 0.000000 0.000000 0.162782
#
#
# Mechanical properties :
#
#
# Convention : Reuss Voigt Hill
#
# Bulk Modulus (GPa) = 7.09296 23.27408 15.18352
# Shear Modulus (GPa) = 8.47121 10.96514 9.71818
#
# Velocity S-wave (km/s) = 2.07313 2.35863 2.22047
# Velocity P-wave (km/s) = 3.05436 4.38470 3.77854
#
# Compressibility (1/GPa) = 0.14098490
#
# Stress axis : x y z
#
# Youngs Moduli (GPa) = 56.63554 4.43311 28.84303
#
# Poissons Ratio (x) = 0.02219 0.12409
# Poissons Ratio (y) = 0.28351 1.70608
# Poissons Ratio (z) = 0.24366 0.26222
#
# Static dielectric constant tensor:
#      x y z
#    x 1.546780 0.000000 0.000000 
#    y 0.000000 1.674740 0.000000 
#    z 0.000000 0.000000 1.710980 
# 
# From -- ./inp_files/26248.got.cif
#   From: 2010.05.17/outbox.ucp.g08.bks.cvg/sg51_14_cif.got.tgz:26248.got - 2010.06.11 16:27:58.
