data_PCOD9407027
_publ_section_title
;
Structure prediction by ZEFSAII (Michael W. Deem and Ramdas Pophale) SiO2 
 PCOD9407027
Probable space group: P M M A
;
_chemical_formula_sum "Si O2"
_cell_formula_units_Z 40
_cell_length_a 10.478767
_cell_length_b 18.204847
_cell_length_c 13.780787
_cell_angle_alpha 90.000000
_cell_angle_beta 90.000000
_cell_angle_gamma 90.000000
_cell_volume 2628.882874
_symmetry_space_group_name_H-M "P M M A"
_symmetry_group_IT_number 51
_symmetry_cell_setting 'orthorhombic'
loop_
_space_group_symop_operation_xyz
x,y,z
1/2-x,-y,z
1/2+x,-y,-z
-x,y,-z
-x,-y,-z
1/2+x,y,-z
1/2-x,y,z
x,-y,z
loop_
_atom_site_type_symbol
_atom_site_label
_atom_site_fract_x
_atom_site_fract_y
_atom_site_fract_z
Si Si1 0.750000 0.651679 0.092063
Si Si2 0.993775 0.915505 0.118228
Si Si3 0.750000 0.822113 0.109144
Si Si4 0.750000 0.663311 0.859035
Si Si5 0.750000 0.166000 0.873622
Si Si6 0.011894 0.412145 0.794687
Si Si7 0.104621 0.410759 0.577837
O O1 0.750000 0.735784 0.129524
O O2 0.623171 0.612556 0.131823
O O3 0.750000 0.653217 0.975647
O O4 0.874909 0.864474 0.145065
O O5 0.124022 0.878796 0.153929
O O6 0.978998 0.000000 0.148949
O O7 0.000000 0.916302 0.000000
O O8 0.750000 0.828721 0.991504
O O9 0.750000 0.750399 0.837983
O O10 0.621786 0.626409 0.818319
O O11 0.996091 0.500000 0.799822
O O12 0.060363 0.392668 0.686669
O O13 0.250000 0.385478 0.559850
O O14 0.107339 0.500000 0.572413
O O15 0.000000 0.385071 0.500000
#
# Coordination Sequence:
#
# PCOD9407027 Si02
#       7
#     4   8   4   4   4   8   8
#     4  11  21  35  48  61  91 133 167 201 237 270
#     4   9  15  24  40  60  80 104 142 193 234 264
#     4   9  17  27  41  58  81 113 152 190 226 273
#     4  11  23  33  46  65  91 131 171 201 231 270
#     4   9  17  29  39  56  83 115 154 188 224 271
#     4  11  22  35  49  68  91 118 163 210 242 278
#     4   9  18  33  53  73  91 110 138 188 250 303
#
# _framework density 15.215589
#
# number of rings (size 3 to 8) (size 9 to 14) (size 15 to 20)
#    0.000    2.200    1.000    3.000    1.400    8.000 
#    0.000    0.000    0.000    0.000    0.000    0.000 
#    0.000    0.000    0.000    0.000    0.000   70.000 
#
# Total GULP energy -223039.258545 kJ/mol
# GULP energy per Si atom -5575.981464 kJ/mol
# Density = 1.518096 g / cm^3
# Si number density = 15.215589 Si / 1000 Ang^3
#
#
#
# Elastic Constant Matrix: (Units=GPa)
#
#
# Indices 1 2 3 4 5 6 
#
# 1 160.0739 52.8805 32.0161 0.0000 0.0000 0.0000
# 2 52.8805 87.6380 12.8180 0.0000 0.0000 0.0000
# 3 32.0161 12.8180 46.2889 0.0000 0.0000 0.0000
# 4 0.0000 0.0000 0.0000 -1.1427 0.0000 0.0000
# 5 0.0000 0.0000 0.0000 0.0000 18.4665 0.0000
# 6 0.0000 0.0000 0.0000 0.0000 0.0000 25.8577
#
#
#
# Elastic Compliance Matrix: (Units=1/GPa)
#
#
# Indices 1 2 3 4 5 6 
#
# 1 0.008704 -0.004556 -0.004759 0.000000 0.000000 0.000000
# 2 -0.004556 0.014277 -0.000802 0.000000 0.000000 0.000000
# 3 -0.004759 -0.000802 0.025117 0.000000 0.000000 0.000000
# 4 0.000000 0.000000 0.000000 -0.875154 0.000000 0.000000
# 5 0.000000 0.000000 0.000000 0.000000 0.054152 0.000000
# 6 0.000000 0.000000 0.000000 0.000000 0.000000 0.038673
#
#
# Mechanical properties :
#
#
# Convention : Reuss Voigt Hill
#
# Bulk Modulus (GPa) = 35.88836 54.38111 45.13474
# Shear Modulus (GPa) = -7.09512 21.72206 7.31347
#
# Velocity S-wave (km/s) = -2.16175 3.78248 2.19477
# Velocity P-wave (km/s) = 4.17215 7.40906 6.01253
#
# Compressibility (1/GPa) = 0.02786419
#
# Stress axis : x y z
#
# Youngs Moduli (GPa) = 114.89082 70.04300 39.81380
#
# Poissons Ratio (x) = 0.31911 0.18946
# Poissons Ratio (y) = 0.52343 0.03194
# Poissons Ratio (z) = 0.54671 0.05620
#
# Static dielectric constant tensor:
#      x y z
#    x 1.514460 0.000000 0.000000 
#    y 0.000000 1.491870 0.000000 
#    z 0.000000 0.000000 1.490410 
# 
# From -- ./inp_files/14303.got.cif
#   From: 2010.05.17/outbox.cif.g08.bks.cpg/sg51_8_cif.got.tgz:14303.got - 2010.06.03 11:52:47.
