data_PCOD9407993
_publ_section_title
;
Structure prediction by ZEFSAII (Michael W. Deem and Ramdas Pophale) SiO2 
 PCOD9407993
Probable space group: P N N A
;
_chemical_formula_sum "Si O2"
_cell_formula_units_Z 40
_cell_length_a 11.889234
_cell_length_b 14.268468
_cell_length_c 8.648779
_cell_angle_alpha 90.000000
_cell_angle_beta 90.000000
_cell_angle_gamma 90.000000
_cell_volume 1467.188858
_symmetry_space_group_name_H-M "P N N A"
_symmetry_group_IT_number 52
_symmetry_cell_setting 'orthorhombic'
loop_
_space_group_symop_operation_xyz
x,y,z
1/2-x,-y,z
x,1/2-y,1/2-z
1/2-x,1/2+y,1/2-z
-x,-y,-z
1/2+x,y,-z
-x,1/2+y,1/2+z
1/2+x,1/2-y,1/2+z
loop_
_atom_site_type_symbol
_atom_site_label
_atom_site_fract_x
_atom_site_fract_y
_atom_site_fract_z
Si Si1 0.216821 0.823496 0.486090
Si Si2 0.474666 0.351112 0.742891
Si Si3 0.082182 0.982730 0.351183
Si Si4 0.715464 0.607706 0.499360
Si Si5 0.100544 0.352650 0.761309
O O1 0.119411 0.835527 0.620381
O O2 0.183691 0.912757 0.382100
O O3 0.215526 0.715397 0.427301
O O4 0.330909 0.849886 0.577375
O O5 0.528427 0.250000 0.750000
O O6 0.579466 0.418161 0.771439
O O7 0.402973 0.388111 0.596762
O O8 0.999885 0.922515 0.245147
O O9 0.000000 0.000000 0.500000
O O10 0.750000 0.500000 0.555280
O O11 0.809248 0.625236 0.367756
O O12 0.051070 0.250000 0.750000
#
# Coordination Sequence:
#
# PCOD9407993 Si02
#       5
#     8   8   8   8   8
#     4   8  17  25  39  70  97 122 161 212 253 300
#     4   8  14  23  37  63  94 127 163 201 250 305
#     4  10  17  26  44  72 101 125 156 218 259 285
#     4   9  13  24  44  65  95 133 165 201 248 302
#     4   9  17  29  45  69 101 127 159 203 254 300
#
# _framework density 27.263020000000001
#
# number of rings (size 3 to 8) (size 9 to 14) (size 15 to 20)
#    0.000    3.200    2.000    2.400    0.000    0.000 
#    0.000    0.000    0.000    4.800    0.000   25.200 
#    0.000    0.000    0.000    0.000    0.000    0.000 
#
# Total GULP energy -223052.156833 kJ/mol
# GULP energy per Si atom -5576.303921 kJ/mol
# Density = 2.720097 g / cm^3
# Si number density = 27.263020 Si / 1000 Ang^3
#
#
#
# Elastic Constant Matrix: (Units=GPa)
#
#
# Indices 1 2 3 4 5 6 
#
# 1 74.1643 83.9681 25.5877 0.0000 0.0000 0.0000
# 2 83.9681 314.9381 52.7014 0.0000 0.0000 0.0000
# 3 25.5877 52.7014 50.1221 0.0000 0.0000 0.0000
# 4 0.0000 0.0000 0.0000 30.5094 0.0000 0.0000
# 5 0.0000 0.0000 0.0000 0.0000 15.6447 0.0000
# 6 0.0000 0.0000 0.0000 0.0000 0.0000 -18.6677
#
#
#
# Elastic Compliance Matrix: (Units=1/GPa)
#
#
# Indices 1 2 3 4 5 6 
#
# 1 0.020595 -0.004528 -0.005753 0.000000 0.000000 0.000000
# 2 -0.004528 0.004849 -0.002787 0.000000 0.000000 0.000000
# 3 -0.005753 -0.002787 0.025818 0.000000 0.000000 0.000000
# 4 0.000000 0.000000 0.000000 0.032777 0.000000 0.000000
# 5 0.000000 0.000000 0.000000 0.000000 0.063919 0.000000
# 6 0.000000 0.000000 0.000000 0.000000 0.000000 -0.053568
#
#
# Mechanical properties :
#
#
# Convention : Reuss Voigt Hill
#
# Bulk Modulus (GPa) = 39.79786 84.85986 62.32886
# Shear Modulus (GPa) = 38.78939 23.96176 31.37558
#
# Velocity S-wave (km/s) = 3.77607 2.96786 3.39609
# Velocity P-wave (km/s) = 5.80009 6.55272 6.18786
#
# Compressibility (1/GPa) = 0.02512698
#
# Stress axis : x y z
#
# Youngs Moduli (GPa) = 48.55454 206.23220 38.73259
#
# Poissons Ratio (x) = 0.93391 0.22281
# Poissons Ratio (y) = 0.21988 0.10793
# Poissons Ratio (z) = 0.27932 0.57469
#
# Static dielectric constant tensor:
#      x y z
#    x 2.077910 0.000000 0.000000 
#    y 0.000000 2.132670 0.000000 
#    z 0.000000 0.000000 2.300370 
# 
# From -- ./inp_files/18010.got.cif
#   From: 2010.05.17/outbox.cif.g08.bks.cpg/sg52_10_cif.got.tgz:18010.got - 2010.06.03 12:15:38.
