data_PCOD9407100
_publ_section_title
;
Structure prediction by ZEFSAII (Michael W. Deem and Ramdas Pophale) SiO2 
 PCOD9407100
Probable space group: P M M A
;
_chemical_formula_sum "Si O2"
_cell_formula_units_Z 56
_cell_length_a 15.445675
_cell_length_b 7.673518
_cell_length_c 22.270354
_cell_angle_alpha 90.000000
_cell_angle_beta 90.000000
_cell_angle_gamma 90.000000
_cell_volume 2639.541710
_symmetry_space_group_name_H-M "P M M A"
_symmetry_group_IT_number 51
_symmetry_cell_setting 'orthorhombic'
loop_
_space_group_symop_operation_xyz
x,y,z
1/2-x,-y,z
1/2+x,-y,-z
-x,y,-z
-x,-y,-z
1/2+x,y,-z
1/2-x,y,z
x,-y,z
loop_
_atom_site_type_symbol
_atom_site_label
_atom_site_fract_x
_atom_site_fract_y
_atom_site_fract_z
Si Si1 0.502775 0.300960 0.222987
Si Si2 0.896221 0.290505 0.566384
Si Si3 0.149533 0.786780 0.992506
Si Si4 0.655616 0.202854 0.698138
Si Si5 0.990954 0.795893 0.912688
Si Si6 0.154921 0.286766 0.694736
Si Si7 0.102304 0.289426 0.564254
O O1 0.526574 0.500000 0.210506
O O2 0.420930 0.295427 0.266999
O O3 0.484289 0.222693 0.158337
O O4 0.581020 0.220177 0.261184
O O5 0.884549 0.500000 0.568897
O O6 0.855645 0.216096 0.626440
O O7 0.865348 0.227269 0.500855
O O8 0.999399 0.256284 0.568238
O O9 0.250000 0.726606 0.989864
O O10 0.083341 0.730397 0.939031
O O11 0.154747 0.000000 0.992075
O O12 0.093725 0.729599 0.051290
O O13 0.750000 0.272535 0.714267
O O14 0.651054 0.000000 0.714874
O O15 0.992296 0.000000 0.926765
O O16 0.250000 0.241962 0.716595
O O17 0.147888 0.500000 0.692203
O O18 0.143061 0.225878 0.626048
O O19 0.112879 0.500000 0.562827
#
# Coordination Sequence:
#
# PCOD9407100 Si02
#       7
#     8   8   8   8   8   8   8
#     4  11  22  37  56  78 109 146 182 223 267 316
#     4   9  16  30  54  80 102 129 172 224 276 329
#     4   8  15  31  56  83 110 142 178 213 252 305
#     4  11  24  39  54  74 103 141 183 227 277 329
#     4   9  18  33  55  82 109 140 179 218 256 304
#     4   9  17  30  50  76 104 137 178 220 264 318
#     4   8  14  27  50  79 105 130 168 219 271 324
#
# _framework density 21.215803000000001
#
# number of rings (size 3 to 8) (size 9 to 14) (size 15 to 20)
#    0.000    2.714    1.429    2.571    0.000    2.857 
#    0.000    5.714    0.000    2.143    0.000    0.000 
#    0.000    0.000    0.000    0.000    0.000    0.000 
#
# Total GULP energy -312286.830542 kJ/mol
# GULP energy per Si atom -5576.550545 kJ/mol
# Density = 2.116752 g / cm^3
# Si number density = 21.215803 Si / 1000 Ang^3
#
#
#
# Elastic Constant Matrix: (Units=GPa)
#
#
# Indices 1 2 3 4 5 6 
#
# 1 129.1469 4.3666 46.2562 0.0000 0.0000 0.0000
# 2 4.3666 31.8879 -3.2787 0.0000 0.0000 0.0000
# 3 46.2562 -3.2787 109.4194 0.0000 0.0000 0.0000
# 4 0.0000 0.0000 0.0000 19.6744 0.0000 0.0000
# 5 0.0000 0.0000 0.0000 0.0000 -33.5156 0.0000
# 6 0.0000 0.0000 0.0000 0.0000 0.0000 9.6067
#
#
#
# Elastic Compliance Matrix: (Units=1/GPa)
#
#
# Indices 1 2 3 4 5 6 
#
# 1 0.009212 -0.001667 -0.003944 0.000000 0.000000 0.000000
# 2 -0.001667 0.031758 0.001656 0.000000 0.000000 0.000000
# 3 -0.003944 0.001656 0.010856 0.000000 0.000000 0.000000
# 4 0.000000 0.000000 0.000000 0.050827 0.000000 0.000000
# 5 0.000000 0.000000 0.000000 0.000000 -0.029837 0.000000
# 6 0.000000 0.000000 0.000000 0.000000 0.000000 0.104094
#
#
# Mechanical properties :
#
#
# Convention : Reuss Voigt Hill
#
# Bulk Modulus (GPa) = 22.77033 40.57138 31.67085
# Shear Modulus (GPa) = 25.06765 14.02711 19.54738
#
# Velocity S-wave (km/s) = 3.44111 2.57410 3.03868
# Velocity P-wave (km/s) = 5.15212 5.29144 5.22224
#
# Compressibility (1/GPa) = 0.04391680
#
# Stress axis : x y z
#
# Youngs Moduli (GPa) = 108.55150 31.48769 92.11312
#
# Poissons Ratio (x) = 0.05249 0.36333
# Poissons Ratio (y) = 0.18096 -0.15257
# Poissons Ratio (z) = 0.42816 -0.05215
#
# Static dielectric constant tensor:
#      x y z
#    x 1.768770 0.000000 0.000000 
#    y 0.000000 1.802040 0.000000 
#    z 0.000000 0.000000 1.746210 
# 
# From -- ./inp_files/33285.got.cif
#   From: 2010.05.17/outbox.cif.g08.bks.cpg/sg51_17_cif.got.tgz:33285.got - 2010.06.03 11:52:47.
