data_PCOD9407033
_publ_section_title
;
Structure prediction by ZEFSAII (Michael W. Deem and Ramdas Pophale) SiO2 
 PCOD9407033
Probable space group: P M M A
;
_chemical_formula_sum "Si O2"
_cell_formula_units_Z 32
_cell_length_a 16.154026
_cell_length_b 20.385811
_cell_length_c 5.088473
_cell_angle_alpha 90.000000
_cell_angle_beta 90.000000
_cell_angle_gamma 90.000000
_cell_volume 1675.699907
_symmetry_space_group_name_H-M "P M M A"
_symmetry_group_IT_number 51
_symmetry_cell_setting 'orthorhombic'
loop_
_space_group_symop_operation_xyz
x,y,z
1/2-x,-y,z
1/2+x,-y,-z
-x,y,-z
-x,-y,-z
1/2+x,y,-z
1/2-x,y,z
x,-y,z
loop_
_atom_site_type_symbol
_atom_site_label
_atom_site_fract_x
_atom_site_fract_y
_atom_site_fract_z
Si Si1 0.439169 0.570363 0.750586
Si Si2 0.154244 0.924622 0.115072
Si Si3 0.592836 0.147799 0.383993
Si Si4 0.439409 0.287662 0.749258
O O1 0.500000 0.570077 0.500000
O O2 0.393001 0.500000 0.749677
O O3 0.395112 0.641263 0.763339
O O4 0.500000 0.570415 0.000000
O O5 0.250000 0.923219 0.029049
O O6 0.145250 0.881789 0.377720
O O7 0.131360 0.000000 0.173347
O O8 0.101300 0.896065 0.875391
O O9 0.500000 0.147991 0.500000
O O10 0.613496 0.222287 0.296668
O O11 0.500000 0.291887 0.500000
O O12 0.500000 0.278473 0.000000
#
# Coordination Sequence:
#
# PCOD9407033 Si02
#       4
#     8   8   8   8
#     4   8  13  21  35  57  89 128 159 184 228 288
#     4  11  24  40  55  73 101 134 167 208 257 307
#     4  11  21  35  56  80 103 130 167 210 255 303
#     4   9  16  27  43  67  99 128 157 199 246 286
#
# _framework density 19.096496999999999
#
# number of rings (size 3 to 8) (size 9 to 14) (size 15 to 20)
#    0.000    2.250    0.000    5.250    0.000    5.000 
#    0.000    0.000    0.000    0.000    0.000    0.000 
#    0.000    6.000    0.000    0.000    0.000    0.000 
#
# Total GULP energy -178180.886421 kJ/mol
# GULP energy per Si atom -5568.152701 kJ/mol
# Density = 1.905303 g / cm^3
# Si number density = 19.096497 Si / 1000 Ang^3
#
#
#
# Elastic Constant Matrix: (Units=GPa)
#
#
# Indices 1 2 3 4 5 6 
#
# 1 18.4315 27.1541 2.9909 0.0000 0.0000 0.0000
# 2 27.1541 210.3377 41.0304 0.0000 0.0000 0.0000
# 3 2.9909 41.0304 138.6911 0.0000 0.0000 0.0000
# 4 0.0000 0.0000 0.0000 30.9496 0.0000 0.0000
# 5 0.0000 0.0000 0.0000 0.0000 20.7462 0.0000
# 6 0.0000 0.0000 0.0000 0.0000 0.0000 -34.6642
#
#
#
# Elastic Compliance Matrix: (Units=1/GPa)
#
#
# Indices 1 2 3 4 5 6 
#
# 1 0.067180 -0.008904 0.001185 0.000000 0.000000 0.000000
# 2 -0.008904 0.006226 -0.001650 0.000000 0.000000 0.000000
# 3 0.001185 -0.001650 0.007673 0.000000 0.000000 0.000000
# 4 0.000000 0.000000 0.000000 0.032311 0.000000 0.000000
# 5 0.000000 0.000000 0.000000 0.000000 0.048202 0.000000
# 6 0.000000 0.000000 0.000000 0.000000 0.000000 -0.028848
#
#
# Mechanical properties :
#
#
# Convention : Reuss Voigt Hill
#
# Bulk Modulus (GPa) = 16.04059 56.64568 36.34314
# Shear Modulus (GPa) = 29.02589 23.15865 26.09227
#
# Velocity S-wave (km/s) = 3.90289 3.48619 3.70041
# Velocity P-wave (km/s) = 5.35986 6.77731 6.10983
#
# Compressibility (1/GPa) = 0.06234184
#
# Stress axis : x y z
#
# Youngs Moduli (GPa) = 14.88532 160.62797 130.33105
#
# Poissons Ratio (x) = 1.43024 -0.15450
# Poissons Ratio (y) = 0.13254 0.21501
# Poissons Ratio (z) = -0.01765 0.26500
#
# Static dielectric constant tensor:
#      x y z
#    x 1.634200 0.000000 0.000000 
#    y 0.000000 1.795130 0.000000 
#    z 0.000000 0.000000 1.627180 
# 
# From -- ./inp_files/1374.got.cif
#   From: 2010.05.17/outbox.cif.g08.bks.cpg/sg51_1_cif.got.tgz:1374.got - 2010.06.03 11:52:47.
