data_PCOD9407469
_publ_section_title
;
Structure prediction by ZEFSAII (Michael W. Deem and Ramdas Pophale) SiO2 
 PCOD9407469
Probable space group: P M M A
;
_chemical_formula_sum "Si O2"
_cell_formula_units_Z 64
_cell_length_a 9.000000
_cell_length_b 21.000000
_cell_length_c 18.000000
_cell_angle_alpha 90.000000
_cell_angle_beta 90.000000
_cell_angle_gamma 90.000000
_cell_volume 3402.000000
_symmetry_space_group_name_H-M "P M M A"
_symmetry_group_IT_number 51
_symmetry_cell_setting 'orthorhombic'
loop_
_space_group_symop_operation_xyz
x,y,z
1/2-x,-y,z
1/2+x,-y,-z
-x,y,-z
-x,-y,-z
1/2+x,y,-z
1/2-x,y,z
x,-y,z
loop_
_atom_site_type_symbol
_atom_site_label
_atom_site_fract_x
_atom_site_fract_y
_atom_site_fract_z
Si Si1 0.429994 0.930835 0.757487
Si Si2 0.427897 0.296642 0.575203
Si Si3 0.082731 0.424477 0.780303
Si Si4 0.421671 0.372580 0.075505
Si Si5 0.570423 0.211506 0.280062
Si Si6 0.426968 0.896570 0.924762
Si Si7 0.927309 0.426312 0.624773
Si Si8 0.078079 0.770221 0.124516
O O1 0.250000 0.931298 0.754848
O O2 0.473205 0.863988 0.718599
O O3 0.470747 0.926247 0.845048
O O4 0.482011 0.000000 0.728473
O O5 0.500000 0.269849 0.500000
O O6 0.250000 0.299025 0.569110
O O7 0.465238 0.252808 0.646901
O O8 0.490706 0.368430 0.584207
O O9 0.250000 0.399289 0.764991
O O10 0.094039 0.500000 0.790610
O O11 0.012816 0.396142 0.853841
O O12 0.975883 0.415476 0.710110
O O13 0.250000 0.393550 0.078748
O O14 0.424187 0.296067 0.081505
O O15 0.500000 0.393666 0.000000
O O16 0.750000 0.214263 0.269249
O O17 0.488810 0.238711 0.207209
O O18 0.250000 0.900907 0.931285
O O19 0.479418 0.823653 0.914827
O O20 0.500000 0.922286 0.000000
O O21 0.750000 0.421194 0.615696
O O22 0.970407 0.500000 0.605244
O O23 0.250000 0.791814 0.129343
#
# Coordination Sequence:
#
# PCOD9407469 Si02
#       8
#     8   8   8   8   8   8   8   8
#     4   8  15  30  52  76 102 136 180 226 270 317
#     4  11  23  38  58  85 116 147 178 214 259 312
#     4  10  21  37  56  76  99 131 171 214 261 314
#     4  11  23  35  49  70  96 130 173 222 275 324
#     4   9  19  35  56  81 107 138 176 218 263 313
#     4  10  19  30  46  70 102 139 177 218 266 316
#     4  10  21  38  60  85 113 145 180 217 258 309
#     4  10  20  33  51  74  99 131 171 214 262 315
#
# _framework density 18.812463000000001
#
# number of rings (size 3 to 8) (size 9 to 14) (size 15 to 20)
#    0.000    2.125    0.000    4.125    0.000    8.250 
#    0.000    0.000    0.000    9.375    0.000    0.000 
#    0.000    0.000    0.000    0.000    0.000    0.125 
#
# Total GULP energy -357173.862078 kJ/mol
# GULP energy per Si atom -5580.841595 kJ/mol
# Density = 1.876965 g / cm^3
# Si number density = 18.812463 Si / 1000 Ang^3
#
#
#
# Elastic Constant Matrix: (Units=GPa)
#
#
# Indices 1 2 3 4 5 6 
#
# 1 55.5390 22.1769 20.9490 0.0000 0.0000 0.0000
# 2 22.1769 58.3931 46.4434 0.0000 0.0000 0.0000
# 3 20.9490 46.4434 80.8015 0.0000 0.0000 0.0000
# 4 0.0000 0.0000 0.0000 2.5347 0.0000 0.0000
# 5 0.0000 0.0000 0.0000 0.0000 29.7333 0.0000
# 6 0.0000 0.0000 0.0000 0.0000 0.0000 13.0697
#
#
#
# Elastic Compliance Matrix: (Units=1/GPa)
#
#
# Indices 1 2 3 4 5 6 
#
# 1 0.021337 -0.006823 -0.001610 0.000000 0.000000 0.000000
# 2 -0.006823 0.033729 -0.017618 0.000000 0.000000 0.000000
# 3 -0.001610 -0.017618 0.022920 0.000000 0.000000 0.000000
# 4 0.000000 0.000000 0.000000 0.394516 0.000000 0.000000
# 5 0.000000 0.000000 0.000000 0.000000 0.033632 0.000000
# 6 0.000000 0.000000 0.000000 0.000000 0.000000 0.076513
#
#
# Mechanical properties :
#
#
# Convention : Reuss Voigt Hill
#
# Bulk Modulus (GPa) = 38.63383 41.54133 40.08758
# Shear Modulus (GPa) = 7.77148 16.07850 11.92499
#
# Velocity S-wave (km/s) = 2.03470 2.92665 2.52044
# Velocity P-wave (km/s) = 5.10890 5.79225 5.46127
#
# Compressibility (1/GPa) = 0.02588405
#
# Stress axis : x y z
#
# Youngs Moduli (GPa) = 46.86665 29.64795 43.62985
#
# Poissons Ratio (x) = 0.20228 0.07026
# Poissons Ratio (y) = 0.31976 0.76867
# Poissons Ratio (z) = 0.07547 0.52234
#
# Static dielectric constant tensor:
#      x y z
#    x 1.639350 0.000000 0.000000 
#    y 0.000000 1.685150 0.000000 
#    z 0.000000 0.000000 1.649030 
# 
# From -- ./inp_files/28418.got.cif
#   From: 2010.05.17/outbox.ucp.g08.bks.cvg/sg51_15_cif.got.tgz:28418.got - 2010.06.11 16:27:58.
