data_PCOD9407212
_publ_section_title
;
Structure prediction by ZEFSAII (Michael W. Deem and Ramdas Pophale) SiO2 
 PCOD9407212
Probable space group: P M M A
;
_chemical_formula_sum "Si O2"
_cell_formula_units_Z 30
_cell_length_a 14.135853
_cell_length_b 11.506840
_cell_length_c 9.361660
_cell_angle_alpha 90.000000
_cell_angle_beta 90.000000
_cell_angle_gamma 90.000000
_cell_volume 1522.758242
_symmetry_space_group_name_H-M "P M M A"
_symmetry_group_IT_number 51
_symmetry_cell_setting 'orthorhombic'
loop_
_space_group_symop_operation_xyz
x,y,z
1/2-x,-y,z
1/2+x,-y,-z
-x,y,-z
-x,-y,-z
1/2+x,y,-z
1/2-x,y,z
x,-y,z
loop_
_atom_site_type_symbol
_atom_site_label
_atom_site_fract_x
_atom_site_fract_y
_atom_site_fract_z
Si Si1 0.250000 0.278811 0.302434
Si Si2 0.951125 0.500000 0.348558
Si Si3 0.444532 0.862618 0.354516
Si Si4 0.250000 0.500000 0.513109
Si Si5 0.948811 0.286567 0.149322
Si Si6 0.750000 0.641318 0.030309
O O1 0.154370 0.205179 0.332675
O O2 0.250000 0.388127 0.409851
O O3 0.250000 0.320894 0.136853
O O4 0.840615 0.500000 0.385025
O O5 0.978432 0.388123 0.257692
O O6 0.000000 0.500000 0.500000
O O7 0.500000 0.829247 0.500000
O O8 0.515340 0.829609 0.225454
O O9 0.425971 0.000000 0.358964
O O10 0.839990 0.305767 0.111556
O O11 0.000000 0.302144 0.000000
O O12 0.750000 0.500000 0.036414
#
# Coordination Sequence:
#
# PCOD9407212 Si02
#       6
#     4   4   8   2   8   4
#     4  12  23  45  70 105 137 181 227 285 349 405
#     4  12  25  38  63 101 137 179 215 275 341 401
#     4  11  26  48  72  99 136 182 235 287 340 403
#     4  12  24  38  66  96 140 168 226 272 334 422
#     4  12  24  43  68  98 139 181 226 279 340 408
#     4  12  25  43  66 104 147 177 225 277 350 418
#
# _framework density 19.701091000000002
#
# number of rings (size 3 to 8) (size 9 to 14) (size 15 to 20)
#    0.000    0.267    4.667    5.600    0.000    1.600 
#    0.000    2.000    0.000    0.000    0.000    0.000 
#    0.000    0.000    0.000    0.000    0.000    0.000 
#
# Total GULP energy -167842.958229 kJ/mol
# GULP energy per Si atom -5594.765274 kJ/mol
# Density = 1.965625 g / cm^3
# Si number density = 19.701091 Si / 1000 Ang^3
#
#
#
# Elastic Constant Matrix: (Units=GPa)
#
#
# Indices 1 2 3 4 5 6 
#
# 1 152.4447 47.9925 51.2517 0.0000 0.0000 0.0000
# 2 47.9925 89.6503 42.8007 0.0000 0.0000 0.0000
# 3 51.2517 42.8007 151.2981 0.0000 0.0000 0.0000
# 4 0.0000 0.0000 0.0000 13.4957 0.0000 0.0000
# 5 0.0000 0.0000 0.0000 0.0000 44.4697 0.0000
# 6 0.0000 0.0000 0.0000 0.0000 0.0000 40.5725
#
#
#
# Elastic Compliance Matrix: (Units=1/GPa)
#
#
# Indices 1 2 3 4 5 6 
#
# 1 0.008291 -0.003581 -0.001795 0.000000 0.000000 0.000000
# 2 -0.003581 0.014443 -0.002873 0.000000 0.000000 0.000000
# 3 -0.001795 -0.002873 0.008030 0.000000 0.000000 0.000000
# 4 0.000000 0.000000 0.000000 0.074097 0.000000 0.000000
# 5 0.000000 0.000000 0.000000 0.000000 0.022487 0.000000
# 6 0.000000 0.000000 0.000000 0.000000 0.000000 0.024647
#
#
# Mechanical properties :
#
#
# Convention : Reuss Voigt Hill
#
# Bulk Modulus (GPa) = 70.09849 75.27587 72.68718
# Shear Modulus (GPa) = 28.86009 36.46415 32.66212
#
# Velocity S-wave (km/s) = 3.83155 4.30684 4.07613
# Velocity P-wave (km/s) = 7.43187 7.93875 7.68949
#
# Compressibility (1/GPa) = 0.01426564
#
# Stress axis : x y z
#
# Youngs Moduli (GPa) = 120.61593 69.23768 124.52827
#
# Poissons Ratio (x) = 0.24795 0.22358
# Poissons Ratio (y) = 0.43194 0.35773
# Poissons Ratio (z) = 0.21655 0.19890
#
# Static dielectric constant tensor:
#      x y z
#    x 5.489900 0.000000 0.000000 
#    y 0.000000 1.681850 0.000000 
#    z 0.000000 0.000000 1.670730 
# 
# From -- ./inp_files/7541.got.cif
#   From: 2010.05.17/outbox.cif.g08.bks.cpg/sg51_4_cif.got.tgz:7541.got - 2010.06.03 11:52:47.
