data_PCOD9407940
_publ_section_title
;
Structure prediction by ZEFSAII (Michael W. Deem and Ramdas Pophale) SiO2 
 PCOD9407940
Probable space group: P N N A
;
_chemical_formula_sum "Si O2"
_cell_formula_units_Z 40
_cell_length_a 9.303204
_cell_length_b 11.695127
_cell_length_c 14.452322
_cell_angle_alpha 90.000000
_cell_angle_beta 90.000000
_cell_angle_gamma 90.000000
_cell_volume 1572.443739
_symmetry_space_group_name_H-M "P N N A"
_symmetry_group_IT_number 52
_symmetry_cell_setting 'orthorhombic'
loop_
_space_group_symop_operation_xyz
x,y,z
1/2-x,-y,z
x,1/2-y,1/2-z
1/2-x,1/2+y,1/2-z
-x,-y,-z
1/2+x,y,-z
-x,1/2+y,1/2+z
1/2+x,1/2-y,1/2+z
loop_
_atom_site_type_symbol
_atom_site_label
_atom_site_fract_x
_atom_site_fract_y
_atom_site_fract_z
Si Si1 0.215570 0.854171 0.509316
Si Si2 0.344784 0.603670 0.467015
Si Si3 0.984594 0.885660 0.367606
Si Si4 0.394915 0.873546 0.829393
Si Si5 0.074092 0.716265 0.656432
O O1 0.259756 0.723822 0.480087
O O2 0.355061 0.908352 0.559245
O O3 0.132262 0.906444 0.421911
O O4 0.106588 0.827361 0.593714
O O5 0.250000 0.500000 0.430360
O O6 0.397010 0.570771 0.569928
O O7 0.474053 0.636741 0.402363
O O8 0.955196 0.931681 0.263744
O O9 0.971692 0.748595 0.348230
O O10 0.225781 0.842510 0.815716
O O11 0.996987 0.750000 0.750000
#
# Coordination Sequence:
#
# PCOD9407940 Si02
#       5
#     8   8   8   8   8
#     4  10  17  31  51  76 102 138 174 229 268 319
#     4  10  21  33  50  82 119 149 174 221 284 340
#     4   9  16  31  49  75 102 132 183 228 274 307
#     4   9  17  30  52  70 104 144 179 223 270 327
#     4  10  16  32  50  70 102 146 186 217 276 317
#
# _framework density 25.438110999999999
#
# number of rings (size 3 to 8) (size 9 to 14) (size 15 to 20)
#    0.000    2.800    8.000    0.000    0.000    3.200 
#    3.600    0.000    0.000    0.000    0.000    2.800 
#    0.000    4.600    0.000    0.000    0.000    0.000 
#
# Total GULP energy -223716.371912 kJ/mol
# GULP energy per Si atom -5592.909298 kJ/mol
# Density = 2.538021 g / cm^3
# Si number density = 25.438111 Si / 1000 Ang^3
#
#
#
# Elastic Constant Matrix: (Units=GPa)
#
#
# Indices 1 2 3 4 5 6 
#
# 1 98.3869 35.3286 98.6203 0.0000 0.0000 0.0000
# 2 35.3286 65.2985 37.9626 0.0000 0.0000 0.0000
# 3 98.6203 37.9626 206.6568 0.0000 0.0000 0.0000
# 4 0.0000 0.0000 0.0000 16.0865 0.0000 0.0000
# 5 0.0000 0.0000 0.0000 0.0000 43.2725 0.0000
# 6 0.0000 0.0000 0.0000 0.0000 0.0000 34.7276
#
#
#
# Elastic Compliance Matrix: (Units=1/GPa)
#
#
# Indices 1 2 3 4 5 6 
#
# 1 0.021624 -0.006382 -0.009147 0.000000 0.000000 0.000000
# 2 -0.006382 0.019029 -0.000450 0.000000 0.000000 0.000000
# 3 -0.009147 -0.000450 0.009287 0.000000 0.000000 0.000000
# 4 0.000000 0.000000 0.000000 0.062164 0.000000 0.000000
# 5 0.000000 0.000000 0.000000 0.000000 0.023109 0.000000
# 6 0.000000 0.000000 0.000000 0.000000 0.000000 0.028796
#
#
# Mechanical properties :
#
#
# Convention : Reuss Voigt Hill
#
# Bulk Modulus (GPa) = 55.61129 79.35169 67.48149
# Shear Modulus (GPa) = 24.75732 32.04605 28.40169
#
# Velocity S-wave (km/s) = 3.12306 3.55317 3.34503
# Velocity P-wave (km/s) = 5.90877 6.93506 6.44238
#
# Compressibility (1/GPa) = 0.01798196
#
# Stress axis : x y z
#
# Youngs Moduli (GPa) = 46.24405 52.55251 107.67881
#
# Poissons Ratio (x) = 0.33537 0.98497
# Poissons Ratio (y) = 0.29511 0.04847
# Poissons Ratio (z) = 0.42301 0.02366
#
# Static dielectric constant tensor:
#      x y z
#    x 2.002810 0.000000 0.000000 
#    y 0.000000 2.257130 0.000000 
#    z 0.000000 0.000000 2.020340 
# 
# From -- ./inp_files/24441.got.cif
#   From: 2010.05.17/outbox.cif.g08.bks.cpg/sg52_13_cif.got.tgz:24441.got - 2010.06.03 12:15:38.
