data_PCOD9407009
_publ_section_title
;
Structure prediction by ZEFSAII (Michael W. Deem and Ramdas Pophale) SiO2 
 PCOD9407009
Probable space group: P M M A
;
_chemical_formula_sum "Si O2"
_cell_formula_units_Z 48
_cell_length_a 9.052929
_cell_length_b 19.239202
_cell_length_c 15.204828
_cell_angle_alpha 90.000000
_cell_angle_beta 90.000000
_cell_angle_gamma 90.000000
_cell_volume 2648.242070
_symmetry_space_group_name_H-M "P M M A"
_symmetry_group_IT_number 51
_symmetry_cell_setting 'orthorhombic'
loop_
_space_group_symop_operation_xyz
x,y,z
1/2-x,-y,z
1/2+x,-y,-z
-x,y,-z
-x,-y,-z
1/2+x,y,-z
1/2-x,y,z
x,-y,z
loop_
_atom_site_type_symbol
_atom_site_label
_atom_site_fract_x
_atom_site_fract_y
_atom_site_fract_z
Si Si1 0.570969 0.693580 0.262785
Si Si2 0.571654 0.222784 0.093078
Si Si3 0.914336 0.920604 0.636568
Si Si4 0.922910 0.078905 0.848881
Si Si5 0.421529 0.206754 0.585162
Si Si6 0.572692 0.418250 0.405915
O O1 0.750000 0.689491 0.258228
O O2 0.524340 0.719794 0.166399
O O3 0.525883 0.756526 0.326610
O O4 0.523853 0.626339 0.320221
O O5 0.750000 0.221599 0.089261
O O6 0.515095 0.144849 0.117636
O O7 0.500000 0.240585 0.000000
O O8 0.750000 0.893164 0.613723
O O9 0.927363 0.919691 0.742457
O O10 0.038713 0.873410 0.595287
O O11 0.923751 0.000000 0.608303
O O12 0.750000 0.086886 0.874696
O O13 0.970322 0.000000 0.875637
O O14 0.500000 0.235785 0.500000
O O15 0.250000 0.218729 0.577232
O O16 0.500000 0.399083 0.500000
O O17 0.750000 0.408868 0.414601
O O18 0.542699 0.500000 0.391628
#
# Coordination Sequence:
#
# PCOD9407009 Si02
#       6
#     8   8   8   8   8   8
#     4   9  19  35  53  76 107 138 171 211 257 309
#     4  11  22  37  55  77 104 136 177 223 267 318
#     4   9  18  33  51  70  95 128 168 214 259 306
#     4   9  18  34  55  77 101 130 170 222 276 325
#     4  11  21  33  49  72 100 133 171 212 255 306
#     4   9  17  32  56  85 115 145 175 208 249 301
#
# _framework density 18.125229999999998
#
# number of rings (size 3 to 8) (size 9 to 14) (size 15 to 20)
#    0.000    2.333    1.667    2.500    0.000    1.333 
#    0.000    4.167    0.000    0.500    0.000    0.000 
#    0.000    0.000    0.000    0.000    0.000    0.167 
#
# Total GULP energy -267473.263738 kJ/mol
# GULP energy per Si atom -5572.359661 kJ/mol
# Density = 1.808398 g / cm^3
# Si number density = 18.125230 Si / 1000 Ang^3
#
#
#
# Elastic Constant Matrix: (Units=GPa)
#
#
# Indices 1 2 3 4 5 6 
#
# 1 36.8448 26.7154 34.9574 0.0000 0.0000 0.0000
# 2 26.7154 103.5833 58.8479 0.0000 0.0000 0.0000
# 3 34.9574 58.8479 132.2243 0.0000 0.0000 0.0000
# 4 0.0000 0.0000 0.0000 61.5632 0.0000 0.0000
# 5 0.0000 0.0000 0.0000 0.0000 26.1178 0.0000
# 6 0.0000 0.0000 0.0000 0.0000 0.0000 12.5971
#
#
#
# Elastic Compliance Matrix: (Units=1/GPa)
#
#
# Indices 1 2 3 4 5 6 
#
# 1 0.038470 -0.005546 -0.007702 0.000000 0.000000 0.000000
# 2 -0.005546 0.013721 -0.004640 0.000000 0.000000 0.000000
# 3 -0.007702 -0.004640 0.011664 0.000000 0.000000 0.000000
# 4 0.000000 0.000000 0.000000 0.016243 0.000000 0.000000
# 5 0.000000 0.000000 0.000000 0.000000 0.038288 0.000000
# 6 0.000000 0.000000 0.000000 0.000000 0.000000 0.079384
#
#
# Mechanical properties :
#
#
# Convention : Reuss Voigt Hill
#
# Bulk Modulus (GPa) = 35.61533 57.07709 46.34621
# Shear Modulus (GPa) = 20.58403 30.19773 25.39088
#
# Velocity S-wave (km/s) = 3.37361 4.08617 3.74686
# Velocity P-wave (km/s) = 5.90485 7.33629 6.65914
#
# Compressibility (1/GPa) = 0.02807780
#
# Stress axis : x y z
#
# Youngs Moduli (GPa) = 25.99432 72.88257 85.73052
#
# Poissons Ratio (x) = 0.40421 0.66033
# Poissons Ratio (y) = 0.14416 0.39781
# Poissons Ratio (z) = 0.20022 0.33820
#
# Static dielectric constant tensor:
#      x y z
#    x 1.623710 0.000000 0.000000 
#    y 0.000000 1.641830 0.000000 
#    z 0.000000 0.000000 1.643480 
# 
# From -- ./inp_files/21114.got.cif
#   From: 2010.05.17/outbox.cif.g08.bks.cpg/sg51_11_cif.got.tgz:21114.got - 2010.06.03 11:52:47.
