data_PCOD9407865
_publ_section_title
;
Structure prediction by ZEFSAII (Michael W. Deem and Ramdas Pophale) SiO2 
 PCOD9407865
Probable space group: P N N A
;
_chemical_formula_sum "Si O2"
_cell_formula_units_Z 48
_cell_length_a 14.607870
_cell_length_b 5.211973
_cell_length_c 30.265291
_cell_angle_alpha 90.000000
_cell_angle_beta 90.000000
_cell_angle_gamma 90.000000
_cell_volume 2304.272870
_symmetry_space_group_name_H-M "P N N A"
_symmetry_group_IT_number 52
_symmetry_cell_setting 'orthorhombic'
loop_
_space_group_symop_operation_xyz
x,y,z
1/2-x,-y,z
x,1/2-y,1/2-z
1/2-x,1/2+y,1/2-z
-x,-y,-z
1/2+x,y,-z
-x,1/2+y,1/2+z
1/2+x,1/2-y,1/2+z
loop_
_atom_site_type_symbol
_atom_site_label
_atom_site_fract_x
_atom_site_fract_y
_atom_site_fract_z
Si Si1 0.595099 0.015740 0.610206
Si Si2 0.001575 0.481068 0.722300
Si Si3 0.482522 0.511428 0.624084
Si Si4 0.610854 0.489172 0.991602
Si Si5 0.404922 0.486285 0.529645
Si Si6 0.806463 0.259198 0.809646
O O1 0.514090 0.802465 0.613159
O O2 0.663827 0.895844 0.645143
O O3 0.563830 0.299903 0.623595
O O4 0.627368 0.036158 0.560114
O O5 0.993972 0.750000 0.750000
O O6 0.050526 0.510844 0.674617
O O7 0.901888 0.355458 0.709940
O O8 0.046796 0.250000 0.750000
O O9 0.424439 0.437054 0.580949
O O10 0.648605 0.754493 0.008456
O O11 0.641880 0.253767 0.020653
O O12 0.500000 0.500000 0.000000
O O13 0.500000 0.500000 0.500000
O O14 0.750000 0.500000 0.786224
O O15 0.750000 0.000000 0.816335
#
# Coordination Sequence:
#
# PCOD9407865 Si02
#       6
#     8   8   8   8   8   8
#     4  11  18  29  45  61  82 101 119 157 210 263
#     4  11  23  37  48  60  73 101 142 186 227 259
#     4  11  18  29  45  61  82 101 119 157 210 263
#     4  10  15  24  40  65  87  98 112 137 189 266
#     4  10  15  24  40  65  87  98 112 137 189 266
#     4  11  23  37  48  60  73 101 142 186 227 259
#
# _framework density 20.830867000000001
#
# number of rings (size 3 to 8) (size 9 to 14) (size 15 to 20)
#    0.000    1.333    6.667    5.000    0.000    1.333 
#    0.000    1.667    0.000    0.000    0.000    0.000 
#    0.000    0.000    0.000    0.000    0.000    0.000 
#
# Total GULP energy -267332.170062 kJ/mol
# GULP energy per Si atom -5569.420210 kJ/mol
# Density = 2.078345 g / cm^3
# Si number density = 20.830867 Si / 1000 Ang^3
#
#
#
# Elastic Constant Matrix: (Units=GPa)
#
#
# Indices 1 2 3 4 5 6 
#
# 1 23.1972 -2.0369 2.1644 0.0000 0.0000 0.0000
# 2 -2.0369 158.4664 38.6403 0.0000 0.0000 0.0000
# 3 2.1644 38.6403 184.8668 0.0000 0.0000 0.0000
# 4 0.0000 0.0000 0.0000 39.5436 0.0000 0.0000
# 5 0.0000 0.0000 0.0000 0.0000 3.9429 0.0000
# 6 0.0000 0.0000 0.0000 0.0000 0.0000 3.3628
#
#
#
# Elastic Compliance Matrix: (Units=1/GPa)
#
#
# Indices 1 2 3 4 5 6 
#
# 1 0.043233 0.000716 -0.000656 0.000000 0.000000 0.000000
# 2 0.000716 0.006661 -0.001401 0.000000 0.000000 0.000000
# 3 -0.000656 -0.001401 0.005710 0.000000 0.000000 0.000000
# 4 0.000000 0.000000 0.000000 0.025289 0.000000 0.000000
# 5 0.000000 0.000000 0.000000 0.000000 0.253622 0.000000
# 6 0.000000 0.000000 0.000000 0.000000 0.000000 0.297374
#
#
# Mechanical properties :
#
#
# Convention : Reuss Voigt Hill
#
# Bulk Modulus (GPa) = 18.89577 49.34066 34.11822
# Shear Modulus (GPa) = 7.66623 31.22069 19.44346
#
# Velocity S-wave (km/s) = 1.92047 3.87560 3.05847
# Velocity P-wave (km/s) = 3.74277 6.61549 5.37462
#
# Compressibility (1/GPa) = 0.05292190
#
# Stress axis : x y z
#
# Youngs Moduli (GPa) = 23.13070 150.12251 175.13913
#
# Poissons Ratio (x) = -0.10743 0.11485
# Poissons Ratio (y) = -0.01655 0.24532
# Poissons Ratio (z) = 0.01517 0.21027
#
# Static dielectric constant tensor:
#      x y z
#    x 1.377360 0.000000 0.000000 
#    y 0.000000 1.874540 0.000000 
#    z 0.000000 0.000000 1.746960 
# 
# From -- ./inp_files/41107.got.cif
#   From: 2010.05.17/outbox.cif.g08.bks.cpg/sg52_21_cif.got.tgz:41107.got - 2010.06.03 12:15:38.
