data_PCOD9407561
_publ_section_title
;
Structure prediction by ZEFSAII (Michael W. Deem and Ramdas Pophale) SiO2 
 PCOD9407561
Probable space group: P M M A
;
_chemical_formula_sum "Si O2"
_cell_formula_units_Z 56
_cell_length_a 15.000000
_cell_length_b 9.000000
_cell_length_c 21.000000
_cell_angle_alpha 90.000000
_cell_angle_beta 90.000000
_cell_angle_gamma 90.000000
_cell_volume 2835.000000
_symmetry_space_group_name_H-M "P M M A"
_symmetry_group_IT_number 51
_symmetry_cell_setting 'orthorhombic'
loop_
_space_group_symop_operation_xyz
x,y,z
1/2-x,-y,z
1/2+x,-y,-z
-x,y,-z
-x,-y,-z
1/2+x,y,-z
1/2-x,y,z
x,-y,z
loop_
_atom_site_type_symbol
_atom_site_label
_atom_site_fract_x
_atom_site_fract_y
_atom_site_fract_z
Si Si1 0.148995 0.823045 0.603250
Si Si2 0.845604 0.322223 0.889834
Si Si3 0.604613 0.828508 0.016394
Si Si4 0.018662 0.321253 0.213226
Si Si5 0.351983 0.821857 0.839832
Si Si6 0.146098 0.673950 0.467426
Si Si7 0.525088 0.321595 0.649338
O O1 0.250000 0.779787 0.621101
O O2 0.134421 0.769484 0.530690
O O3 0.072885 0.744567 0.643041
O O4 0.141659 0.000000 0.607765
O O5 0.750000 0.282479 0.861372
O O6 0.852700 0.500000 0.891250
O O7 0.850616 0.264286 0.961082
O O8 0.923943 0.262272 0.845742
O O9 0.633983 0.000000 0.012700
O O10 0.500000 0.822911 0.000000
O O11 0.625613 0.775647 0.087437
O O12 0.015135 0.500000 0.209471
O O13 0.920661 0.256825 0.206189
O O14 0.060867 0.281426 0.281028
O O15 0.250000 0.786805 0.825618
O O16 0.363630 0.000000 0.836484
O O17 0.250000 0.679882 0.448959
O O18 0.125054 0.500000 0.481825
O O19 0.085151 0.727374 0.409710
O O20 0.520671 0.500000 0.645827
#
# Coordination Sequence:
#
# PCOD9407561 Si02
#       7
#     8   8   8   8   8   8   8
#     4  10  21  36  55  81 111 141 174 216 266 314
#     4  10  21  36  55  80 109 141 176 217 268 321
#     4  10  19  34  58  82 105 135 174 222 271 319
#     4  10  22  38  54  76 108 143 179 220 262 310
#     4  10  21  37  56  78 105 138 177 221 269 319
#     4   9  18  34  57  83 109 138 174 216 261 311
#     4  10  21  36  55  79 107 142 181 218 260 310
#
# _framework density 19.753086
#
# number of rings (size 3 to 8) (size 9 to 14) (size 15 to 20)
#    0.000    2.143    1.429    1.286    0.000    6.857 
#    0.000    5.714    0.000    0.000    0.000    4.000 
#    0.000    0.000    0.000    0.000    0.000    0.000 
#
# Total GULP energy -312409.758285 kJ/mol
# GULP energy per Si atom -5578.745684 kJ/mol
# Density = 1.970813 g / cm^3
# Si number density = 19.753086 Si / 1000 Ang^3
#
#
#
# Elastic Constant Matrix: (Units=GPa)
#
#
# Indices 1 2 3 4 5 6 
#
# 1 55.1133 10.5625 27.9128 0.0000 0.0000 0.0000
# 2 10.5625 -14.3225 0.1058 0.0000 0.0000 0.0000
# 3 27.9128 0.1058 42.8222 0.0000 0.0000 0.0000
# 4 0.0000 0.0000 0.0000 83.6565 0.0000 0.0000
# 5 0.0000 0.0000 0.0000 0.0000 -19.1341 0.0000
# 6 0.0000 0.0000 0.0000 0.0000 0.0000 32.7174
#
#
#
# Elastic Compliance Matrix: (Units=1/GPa)
#
#
# Indices 1 2 3 4 5 6 
#
# 1 0.022418 0.016425 -0.014653 0.000000 0.000000 0.000000
# 2 0.016425 -0.057785 -0.010563 0.000000 0.000000 0.000000
# 3 -0.014653 -0.010563 0.032930 0.000000 0.000000 0.000000
# 4 0.000000 0.000000 0.000000 0.011954 0.000000 0.000000
# 5 0.000000 0.000000 0.000000 0.000000 -0.052263 0.000000
# 6 0.000000 0.000000 0.000000 0.000000 0.000000 0.030565
#
#
# Mechanical properties :
#
#
# Convention : Reuss Voigt Hill
#
# Bulk Modulus (GPa) = -49.94628 17.86391 -16.04118
# Shear Modulus (GPa) = -3931.49019 22.45007 -1954.52006
#
# Velocity S-wave (km/s) = -44.66137 3.37491 -31.49006
# Velocity P-wave (km/s) = 51.81561 4.92442 36.47333
#
# Compressibility (1/GPa) = -0.02002151
#
# Stress axis : x y z
#
# Youngs Moduli (GPa) = 44.60712 -17.30540 30.36758
#
# Poissons Ratio (x) = 0.28423 0.44498
# Poissons Ratio (y) = -0.73265 0.32078
# Poissons Ratio (z) = 0.65364 -0.18280
#
# Static dielectric constant tensor:
#      x y z
#    x 1.718330 0.000000 0.000000 
#    y 0.000000 1.660990 0.000000 
#    z 0.000000 0.000000 1.690950 
# 
# From -- ./inp_files/33311.got.cif
#   From: 2010.05.17/outbox.ucp.g08.bks.cvg/sg51_17_cif.got.tgz:33311.got - 2010.06.11 16:27:58.
