data_PCOD9407604
_publ_section_title
;
Structure prediction by ZEFSAII (Michael W. Deem and Ramdas Pophale) SiO2 
 PCOD9407604
Probable space group: P M M A
;
_chemical_formula_sum "Si O2"
_cell_formula_units_Z 48
_cell_length_a 9.000000
_cell_length_b 30.000000
_cell_length_c 9.000000
_cell_angle_alpha 90.000000
_cell_angle_beta 90.000000
_cell_angle_gamma 90.000000
_cell_volume 2430.000000
_symmetry_space_group_name_H-M "P M M A"
_symmetry_group_IT_number 51
_symmetry_cell_setting 'orthorhombic'
loop_
_space_group_symop_operation_xyz
x,y,z
1/2-x,-y,z
1/2+x,-y,-z
-x,y,-z
-x,-y,-z
1/2+x,y,-z
1/2-x,y,z
x,-y,z
loop_
_atom_site_type_symbol
_atom_site_label
_atom_site_fract_x
_atom_site_fract_y
_atom_site_fract_z
Si Si1 0.927296 0.047841 0.834479
Si Si2 0.571129 0.448603 0.845647
Si Si3 0.573509 0.629139 0.651889
Si Si4 0.417684 0.782364 0.645914
Si Si5 0.425139 0.711513 0.155522
Si Si6 0.418236 0.868802 0.845305
O O1 0.750000 0.050971 0.845220
O O2 0.995380 0.091649 0.762198
O O3 0.965062 0.000000 0.765299
O O4 0.000000 0.047621 0.000000
O O5 0.750000 0.445184 0.857821
O O6 0.530323 0.500000 0.825639
O O7 0.522471 0.419109 0.706781
O O8 0.500000 0.432984 0.000000
O O9 0.500000 0.643840 0.500000
O O10 0.750000 0.629114 0.629269
O O11 0.541728 0.662017 0.787906
O O12 0.500000 0.797569 0.500000
O O13 0.250000 0.767514 0.614445
O O14 0.509927 0.743305 0.719748
O O15 0.414789 0.823552 0.756621
O O16 0.250000 0.717441 0.142101
O O17 0.500000 0.721517 0.000000
O O18 0.250000 0.883646 0.873598
O O19 0.500000 0.860178 0.000000
#
# Coordination Sequence:
#
# PCOD9407604 Si02
#       6
#     8   8   8   8   8   8
#     4   9  16  26  44  72 104 137 173 215 262 310
#     4   9  18  34  55  79 108 142 182 227 272 319
#     4  10  22  37  54  80 112 145 181 222 269 322
#     4  11  24  40  58  81 109 142 180 222 271 324
#     4  11  23  39  60  84 110 141 179 223 270 322
#     4  10  20  33  52  78 106 138 176 218 264 315
#
# _framework density 19.753086
#
# number of rings (size 3 to 8) (size 9 to 14) (size 15 to 20)
#    0.000    2.000    0.000    4.500    0.000    8.667 
#    0.000    0.000    0.000    0.500    0.000    0.000 
#    0.000    0.000    0.000    0.000    0.000    0.000 
#
# Total GULP energy -267591.684241 kJ/mol
# GULP energy per Si atom -5574.826755 kJ/mol
# Density = 1.970813 g / cm^3
# Si number density = 19.753086 Si / 1000 Ang^3
#
#
#
# Elastic Constant Matrix: (Units=GPa)
#
#
# Indices 1 2 3 4 5 6 
#
# 1 12.6029 48.3216 17.8274 0.0000 0.0000 0.0000
# 2 48.3216 57.8336 9.2512 0.0000 0.0000 0.0000
# 3 17.8274 9.2512 33.9543 0.0000 0.0000 0.0000
# 4 0.0000 0.0000 0.0000 16.8075 0.0000 0.0000
# 5 0.0000 0.0000 0.0000 0.0000 23.0076 0.0000
# 6 0.0000 0.0000 0.0000 0.0000 0.0000 29.7073
#
#
#
# Elastic Compliance Matrix: (Units=1/GPa)
#
#
# Indices 1 2 3 4 5 6 
#
# 1 -0.032351 0.025421 0.010059 0.000000 0.000000 0.000000
# 2 0.025421 -0.001897 -0.012830 0.000000 0.000000 0.000000
# 3 0.010059 -0.012830 0.027665 0.000000 0.000000 0.000000
# 4 0.000000 0.000000 0.000000 0.059497 0.000000 0.000000
# 5 0.000000 0.000000 0.000000 0.000000 0.043464 0.000000
# 6 0.000000 0.000000 0.000000 0.000000 0.000000 0.033662
#
#
# Mechanical properties :
#
#
# Convention : Reuss Voigt Hill
#
# Bulk Modulus (GPa) = 25.82774 28.35457 27.09116
# Shear Modulus (GPa) = 51.20507 15.83718 33.52112
#
# Velocity S-wave (km/s) = 5.09694 2.83460 4.12394
# Velocity P-wave (km/s) = 6.90957 5.00989 6.03494
#
# Compressibility (1/GPa) = 0.03871806
#
# Stress axis : x y z
#
# Youngs Moduli (GPa) = -30.91090 -527.24993 36.14616
#
# Poissons Ratio (x) = 13.40325 -0.36361
# Poissons Ratio (y) = 0.78579 0.46377
# Poissons Ratio (z) = 0.31095 -6.76479
#
# Static dielectric constant tensor:
#      x y z
#    x 1.679020 0.000000 0.000000 
#    y 0.000000 1.764590 0.000000 
#    z 0.000000 0.000000 1.668930 
# 
# From -- ./inp_files/6062.got.cif
#   From: 2010.05.17/outbox.ucp.g08.bks.cvg/sg51_4_cif.got.tgz:6062.got - 2010.06.11 16:27:58.
