data_PCOD9407071
_publ_section_title
;
Structure prediction by ZEFSAII (Michael W. Deem and Ramdas Pophale) SiO2 
 PCOD9407071
Probable space group: P M M A
;
_chemical_formula_sum "Si O2"
_cell_formula_units_Z 64
_cell_length_a 19.281122
_cell_length_b 8.304179
_cell_length_c 21.682509
_cell_angle_alpha 90.000000
_cell_angle_beta 90.000000
_cell_angle_gamma 90.000000
_cell_volume 3471.670826
_symmetry_space_group_name_H-M "P M M A"
_symmetry_group_IT_number 51
_symmetry_cell_setting 'orthorhombic'
loop_
_space_group_symop_operation_xyz
x,y,z
1/2-x,-y,z
1/2+x,-y,-z
-x,y,-z
-x,-y,-z
1/2+x,y,-z
1/2-x,y,z
x,-y,z
loop_
_atom_site_type_symbol
_atom_site_label
_atom_site_fract_x
_atom_site_fract_y
_atom_site_fract_z
Si Si1 0.468049 0.303162 0.435598
Si Si2 0.467038 0.694870 0.693613
Si Si3 0.107652 0.190707 0.251025
Si Si4 0.827575 0.696327 0.243389
Si Si5 0.330270 0.306852 0.899545
Si Si6 0.173110 0.306289 0.377418
Si Si7 0.077916 0.189581 0.009142
Si Si8 0.670478 0.307960 0.877705
O O1 0.500000 0.247526 0.500000
O O2 0.467764 0.500000 0.436760
O O3 0.512543 0.254649 0.375637
O O4 0.389356 0.249452 0.421389
O O5 0.467365 0.500000 0.694739
O O6 0.528635 0.751700 0.738508
O O7 0.391726 0.751779 0.715475
O O8 0.151353 0.265692 0.307469
O O9 0.138611 0.240043 0.185420
O O10 0.110106 0.000000 0.257273
O O11 0.750000 0.750737 0.261066
O O12 0.826594 0.500000 0.245432
O O13 0.840162 0.739243 0.171861
O O14 0.250000 0.274332 0.915643
O O15 0.340612 0.500000 0.904478
O O16 0.380634 0.219528 0.946225
O O17 0.250000 0.243508 0.391109
O O18 0.174777 0.500000 0.382367
O O19 0.121660 0.265388 0.064765
O O20 0.072807 0.000000 0.022257
O O21 0.000000 0.254664 0.000000
O O22 0.750000 0.249780 0.886780
O O23 0.672772 0.500000 0.872062
#
# Coordination Sequence:
#
# PCOD9407071 Si02
#       8
#     8   8   8   8   8   8   8   8
#     4   8  14  26  45  71 104 139 174 214 257 300
#     4   9  17  31  52  76 104 142 181 214 256 310
#     4  11  22  34  52  79 109 137 168 214 269 318
#     4   8  15  29  51  78 102 126 166 218 261 301
#     4   9  18  34  55  76  97 127 170 215 259 309
#     4   9  17  31  51  74 102 138 181 221 258 310
#     4  11  25  40  53  76 108 137 169 211 257 304
#     4  11  24  41  60  80 103 135 175 214 257 313
#
# _framework density 18.434926999999998
#
# number of rings (size 3 to 8) (size 9 to 14) (size 15 to 20)
#    0.000    2.500    0.000    4.125    1.750    5.500 
#    0.000    0.625    0.000   10.875    0.000    0.000 
#    0.000    0.000    0.000    0.000    0.000    0.000 
#
# Total GULP energy -357047.174345 kJ/mol
# GULP energy per Si atom -5578.862099 kJ/mol
# Density = 1.839297 g / cm^3
# Si number density = 18.434927 Si / 1000 Ang^3
#
#
#
# Elastic Constant Matrix: (Units=GPa)
#
#
# Indices 1 2 3 4 5 6 
#
# 1 164.5241 7.4449 96.5145 0.0000 0.0000 0.0000
# 2 7.4449 6.5282 2.4904 0.0000 0.0000 0.0000
# 3 96.5145 2.4904 93.1218 0.0000 0.0000 0.0000
# 4 0.0000 0.0000 0.0000 -30.5145 0.0000 0.0000
# 5 0.0000 0.0000 0.0000 0.0000 22.3076 0.0000
# 6 0.0000 0.0000 0.0000 0.0000 0.0000 -3.1760
#
#
#
# Elastic Compliance Matrix: (Units=1/GPa)
#
#
# Indices 1 2 3 4 5 6 
#
# 1 0.016439 -0.012374 -0.016707 0.000000 0.000000 0.000000
# 2 -0.012374 0.164074 0.008436 0.000000 0.000000 0.000000
# 3 -0.016707 0.008436 0.027828 0.000000 0.000000 0.000000
# 4 0.000000 0.000000 0.000000 -0.032771 0.000000 0.000000
# 5 0.000000 0.000000 0.000000 0.000000 0.044828 0.000000
# 6 0.000000 0.000000 0.000000 0.000000 0.000000 -0.314860
#
#
# Mechanical properties :
#
#
# Convention : Reuss Voigt Hill
#
# Bulk Modulus (GPa) = 5.98612 53.00821 29.49716
# Shear Modulus (GPa) = 1992.44463 8.23838 1000.34150
#
# Velocity S-wave (km/s) = 32.91117 2.11627 23.31977
# Velocity P-wave (km/s) = 38.04534 5.89814 27.22348
#
# Compressibility (1/GPa) = 0.16705318
#
# Stress axis : x y z
#
# Youngs Moduli (GPa) = 60.83225 6.09482 35.93463
#
# Poissons Ratio (x) = 0.07541 0.60035
# Poissons Ratio (y) = 0.75271 -0.30316
# Poissons Ratio (z) = 1.01630 -0.05142
#
# Static dielectric constant tensor:
#      x y z
#    x 1.653370 0.000000 0.000000 
#    y 0.000000 1.629930 0.000000 
#    z 0.000000 0.000000 1.599410 
# 
# From -- ./inp_files/33750.got.cif
#   From: 2010.05.17/outbox.cif.g08.bks.cpg/sg51_17_cif.got.tgz:33750.got - 2010.06.03 11:52:47.
