data_PCOD9407743
_publ_section_title
;
Structure prediction by ZEFSAII (Michael W. Deem and Ramdas Pophale) SiO2 
 PCOD9407743
Probable space group: P M M A
;
_chemical_formula_sum "Si O2"
_cell_formula_units_Z 64
_cell_length_a 30.000000
_cell_length_b 9.000000
_cell_length_c 12.000000
_cell_angle_alpha 90.000000
_cell_angle_beta 90.000000
_cell_angle_gamma 90.000000
_cell_volume 3240.000000
_symmetry_space_group_name_H-M "P M M A"
_symmetry_group_IT_number 51
_symmetry_cell_setting 'orthorhombic'
loop_
_space_group_symop_operation_xyz
x,y,z
1/2-x,-y,z
1/2+x,-y,-z
-x,y,-z
-x,-y,-z
1/2+x,y,-z
1/2-x,y,z
x,-y,z
loop_
_atom_site_type_symbol
_atom_site_label
_atom_site_fract_x
_atom_site_fract_y
_atom_site_fract_z
Si Si1 0.458492 0.821007 0.581605
Si Si2 0.298495 0.819125 0.302625
Si Si3 0.698665 0.165295 0.334952
Si Si4 0.473302 0.320600 0.823110
Si Si5 0.656381 0.173923 0.917128
Si Si6 0.129513 0.170596 0.464505
Si Si7 0.565273 0.321952 0.942463
Si Si8 0.196489 0.666756 0.880270
O O1 0.500000 0.792798 0.500000
O O2 0.463105 0.751067 0.704090
O O3 0.415010 0.762941 0.515776
O O4 0.454153 0.000000 0.596037
O O5 0.250000 0.765630 0.340824
O O6 0.306137 0.787578 0.173356
O O7 0.342128 0.759436 0.365080
O O8 0.298475 0.000000 0.318078
O O9 0.750000 0.186826 0.370239
O O10 0.665708 0.165552 0.437349
O O11 0.686019 0.287909 0.245498
O O12 0.696461 0.000000 0.282367
O O13 0.471233 0.500000 0.813108
O O14 0.522607 0.279235 0.868124
O O15 0.441951 0.275955 0.927882
O O16 0.610379 0.256683 0.895371
O O17 0.648214 0.000000 0.909424
O O18 0.673819 0.220493 0.036796
O O19 0.117952 0.000000 0.431380
O O20 0.566563 0.500000 0.942943
O O21 0.250000 0.675027 0.890891
O O22 0.181641 0.500000 0.906194
#
# Coordination Sequence:
#
# PCOD9407743 Si02
#       8
#     8   8   8   8   8   8   8   8
#     4  10  22  36  55  83 119 152 181 230 286 335
#     4   9  18  33  54  80 111 147 187 231 277 328
#     4   9  17  31  54  81 107 137 181 235 277 321
#     4   9  20  40  62  81 109 148 190 233 277 335
#     4  11  22  33  55  86 114 143 184 234 282 336
#     4   9  18  33  53  79 110 145 183 224 278 333
#     4   9  20  39  60  83 111 146 185 230 283 338
#     4  10  21  36  53  75 110 152 185 221 275 332
#
# _framework density 19.753086
#
# number of rings (size 3 to 8) (size 9 to 14) (size 15 to 20)
#    0.000    2.500    0.000    2.250    3.500    4.000 
#    0.000    1.250    0.000    1.500    0.000    1.750 
#    0.000    0.000    0.000    0.000    0.000    0.000 
#
# Total GULP energy -356748.612832 kJ/mol
# GULP energy per Si atom -5574.197075 kJ/mol
# Density = 1.970813 g / cm^3
# Si number density = 19.753086 Si / 1000 Ang^3
#
#
#
# Elastic Constant Matrix: (Units=GPa)
#
#
# Indices 1 2 3 4 5 6 
#
# 1 54.5565 18.7730 40.6016 0.0000 0.0000 0.0000
# 2 18.7730 5.0205 13.2257 0.0000 0.0000 0.0000
# 3 40.6016 13.2257 46.4091 0.0000 0.0000 0.0000
# 4 0.0000 0.0000 0.0000 22.3627 0.0000 0.0000
# 5 0.0000 0.0000 0.0000 0.0000 19.7410 0.0000
# 6 0.0000 0.0000 0.0000 0.0000 0.0000 18.6645
#
#
#
# Elastic Compliance Matrix: (Units=1/GPa)
#
#
# Indices 1 2 3 4 5 6 
#
# 1 -0.044612 0.256752 -0.034140 0.000000 0.000000 0.000000
# 2 0.256752 -0.678591 -0.031237 0.000000 0.000000 0.000000
# 3 -0.034140 -0.031237 0.060317 0.000000 0.000000 0.000000
# 4 0.000000 0.000000 0.000000 0.044717 0.000000 0.000000
# 5 0.000000 0.000000 0.000000 0.000000 0.050656 0.000000
# 6 0.000000 0.000000 0.000000 0.000000 0.000000 0.053578
#
#
# Mechanical properties :
#
#
# Convention : Reuss Voigt Hill
#
# Bulk Modulus (GPa) = -3.56969 27.90961 12.16996
# Shear Modulus (GPa) = -5.05018 14.37936 4.66459
#
# Velocity S-wave (km/s) = -1.60069 2.70099 1.53837
# Velocity P-wave (km/s) = 2.28634 4.88744 3.05448
#
# Compressibility (1/GPa) = -0.28013670
#
# Stress axis : x y z
#
# Youngs Moduli (GPa) = -22.41553 -1.47364 16.57897
#
# Poissons Ratio (x) = 0.37836 0.56601
# Poissons Ratio (y) = 5.75523 0.51789
# Poissons Ratio (z) = -0.76527 -0.04603
#
# Static dielectric constant tensor:
#      x y z
#    x 1.708890 0.000000 0.000000 
#    y 0.000000 1.675990 0.000000 
#    z 0.000000 0.000000 1.689230 
# 
# From -- ./inp_files/19482.got.cif
#   From: 2010.05.17/outbox.ucp.g08.bks.cvg/sg51_10_cif.got.tgz:19482.got - 2010.06.11 16:27:58.
