data_PCOD9407441
_publ_section_title
;
Structure prediction by ZEFSAII (Michael W. Deem and Ramdas Pophale) SiO2 
 PCOD9407441
Probable space group: P M M A
;
_chemical_formula_sum "Si O2"
_cell_formula_units_Z 44
_cell_length_a 9.000000
_cell_length_b 30.000000
_cell_length_c 9.000000
_cell_angle_alpha 90.000000
_cell_angle_beta 90.000000
_cell_angle_gamma 90.000000
_cell_volume 2430.000000
_symmetry_space_group_name_H-M "P M M A"
_symmetry_group_IT_number 51
_symmetry_cell_setting 'orthorhombic'
loop_
_space_group_symop_operation_xyz
x,y,z
1/2-x,-y,z
1/2+x,-y,-z
-x,y,-z
-x,-y,-z
1/2+x,y,-z
1/2-x,y,z
x,-y,z
loop_
_atom_site_type_symbol
_atom_site_label
_atom_site_fract_x
_atom_site_fract_y
_atom_site_fract_z
Si Si1 0.430677 0.500000 0.832598
Si Si2 0.572840 0.773121 0.337725
Si Si3 0.071266 0.048023 0.164322
Si Si4 0.071502 0.672861 0.663535
Si Si5 0.571028 0.145373 0.836381
Si Si6 0.429897 0.590640 0.164622
O O1 0.250000 0.500000 0.836295
O O2 0.497646 0.545607 0.765894
O O3 0.500000 0.500000 0.000000
O O4 0.500000 0.773387 0.500000
O O5 0.750000 0.779779 0.347798
O O6 0.548446 0.723093 0.274306
O O7 0.497937 0.812939 0.248199
O O8 0.250000 0.048078 0.149216
O O9 0.032933 0.096346 0.232289
O O10 0.028828 0.000000 0.234839
O O11 0.000000 0.047910 0.000000
O O12 0.250000 0.664958 0.658107
O O13 0.000000 0.672693 0.500000
O O14 0.987439 0.634443 0.752461
O O15 0.750000 0.149292 0.843612
O O16 0.500000 0.145492 0.000000
O O17 0.250000 0.587596 0.160090
O O18 0.500000 0.593512 0.000000
#
# Coordination Sequence:
#
# PCOD9407441 Si02
#       6
#     4   8   8   8   8   8
#     4  10  18  32  53  78 109 142 175 212 254 304
#     4  10  21  37  56  75 100 134 172 211 256 311
#     4   8  14  25  42  66  96 129 163 201 247 298
#     4  10  21  38  57  78 103 135 172 212 259 310
#     4  10  19  31  50  76 105 134 168 211 256 301
#     4  11  21  35  56  82 110 141 176 215 256 301
#
# _framework density 18.106995999999999
#
# number of rings (size 3 to 8) (size 9 to 14) (size 15 to 20)
#    0.000    2.182    0.000    5.182    0.000    3.636 
#    0.000    0.455    0.000    0.545    0.000    0.000 
#    0.000    0.000    0.000    0.000    0.000    0.000 
#
# Total GULP energy -245108.819542 kJ/mol
# GULP energy per Si atom -5570.654990 kJ/mol
# Density = 1.806578 g / cm^3
# Si number density = 18.106996 Si / 1000 Ang^3
#
#
#
# Elastic Constant Matrix: (Units=GPa)
#
#
# Indices 1 2 3 4 5 6 
#
# 1 135.3045 87.3827 20.6475 0.0000 0.0000 0.0000
# 2 87.3827 220.1222 55.2019 0.0000 0.0000 0.0000
# 3 20.6475 55.2019 27.8390 0.0000 0.0000 0.0000
# 4 0.0000 0.0000 0.0000 3499.5710 0.0000 0.0000
# 5 0.0000 0.0000 0.0000 0.0000 26.6943 0.0000
# 6 0.0000 0.0000 0.0000 0.0000 0.0000 40.4827
#
#
#
# Elastic Compliance Matrix: (Units=1/GPa)
#
#
# Indices 1 2 3 4 5 6 
#
# 1 0.009950 -0.004176 0.000900 0.000000 0.000000 0.000000
# 2 -0.004176 0.010789 -0.018296 0.000000 0.000000 0.000000
# 3 0.000900 -0.018296 0.071533 0.000000 0.000000 0.000000
# 4 0.000000 0.000000 0.000000 0.000286 0.000000 0.000000
# 5 0.000000 0.000000 0.000000 0.000000 0.037461 0.000000
# 6 0.000000 0.000000 0.000000 0.000000 0.000000 0.024702
#
#
# Mechanical properties :
#
#
# Convention : Reuss Voigt Hill
#
# Bulk Modulus (GPa) = 20.35488 78.85887 49.60688
# Shear Modulus (GPa) = 23.33831 728.01850 375.67841
#
# Velocity S-wave (km/s) = 3.59404 20.07331 14.41969
# Velocity P-wave (km/s) = 5.33748 24.10179 17.45544
#
# Compressibility (1/GPa) = 0.04912826
#
# Stress axis : x y z
#
# Youngs Moduli (GPa) = 100.50134 92.68821 13.97962
#
# Poissons Ratio (x) = 0.38704 -0.01258
# Poissons Ratio (y) = 0.41966 0.25577
# Poissons Ratio (z) = -0.09047 1.69584
#
# Static dielectric constant tensor:
#      x y z
#    x 1.593880 0.000000 0.000000 
#    y 0.000000 1.705600 0.000000 
#    z 0.000000 0.000000 1.609430 
# 
# From -- ./inp_files/5844.got.cif
#   From: 2010.05.17/outbox.ucp.g08.bks.cvg/sg51_3_cif.got.tgz:5844.got - 2010.06.11 16:27:58.
