data_PCOD9407054
_publ_section_title
;
Structure prediction by ZEFSAII (Michael W. Deem and Ramdas Pophale) SiO2 
 PCOD9407054
Probable space group: P M M A
;
_chemical_formula_sum "Si O2"
_cell_formula_units_Z 48
_cell_length_a 14.861691
_cell_length_b 8.772072
_cell_length_c 20.056269
_cell_angle_alpha 90.000000
_cell_angle_beta 90.000000
_cell_angle_gamma 90.000000
_cell_volume 2614.692137
_symmetry_space_group_name_H-M "P M M A"
_symmetry_group_IT_number 51
_symmetry_cell_setting 'orthorhombic'
loop_
_space_group_symop_operation_xyz
x,y,z
1/2-x,-y,z
1/2+x,-y,-z
-x,y,-z
-x,-y,-z
1/2+x,y,-z
1/2-x,y,z
x,-y,z
loop_
_atom_site_type_symbol
_atom_site_label
_atom_site_fract_x
_atom_site_fract_y
_atom_site_fract_z
Si Si1 0.357385 0.319780 0.435387
Si Si2 0.439937 0.182863 0.935064
Si Si3 0.487573 0.179554 0.327449
Si Si4 0.443622 0.316881 0.184616
Si Si5 0.750000 0.684816 0.868585
Si Si6 0.250000 0.683489 0.975894
Si Si7 0.644426 0.682766 0.411521
O O1 0.250000 0.302279 0.427178
O O2 0.378299 0.500000 0.427415
O O3 0.412232 0.226720 0.381368
O O4 0.379547 0.277352 0.511822
O O5 0.489861 0.246714 0.870176
O O6 0.340829 0.252348 0.943513
O O7 0.434390 0.000000 0.931979
O O8 0.500000 0.224582 0.000000
O O9 0.469272 0.264585 0.258315
O O10 0.581265 0.232448 0.359976
O O11 0.486795 0.000000 0.316147
O O12 0.446969 0.500000 0.180014
O O13 0.341861 0.265440 0.166744
O O14 0.750000 0.500000 0.867464
O O15 0.750000 0.730773 0.946046
O O16 0.250000 0.500000 0.972716
O O17 0.750000 0.715577 0.402035
O O18 0.632439 0.500000 0.405216
#
# Coordination Sequence:
#
# PCOD9407054 Si02
#       7
#     8   8   8   8   4   4   8
#     4   9  19  37  62  89 116 152 200 249 292 346
#     4  11  23  40  62  93 128 159 194 245 307 361
#     4  12  25  38  55  87 126 161 193 239 303 363
#     4  11  23  42  64  88 119 160 206 249 290 349
#     4   9  20  37  63  93 117 148 197 250 291 337
#     4  11  21  39  67  95 119 154 205 252 291 349
#     4   9  19  39  65  88 111 149 204 254 294 347
#
# _framework density 18.357803000000001
#
# number of rings (size 3 to 8) (size 9 to 14) (size 15 to 20)
#    0.000    1.667    1.667    4.250    1.167    4.000 
#    1.500    2.917    0.000    0.000    0.000    0.000 
#    0.000    0.000    0.000    0.000    0.000    0.000 
#
# Total GULP energy -268279.575106 kJ/mol
# GULP energy per Si atom -5589.157815 kJ/mol
# Density = 1.831602 g / cm^3
# Si number density = 18.357803 Si / 1000 Ang^3
#
#
#
# Elastic Constant Matrix: (Units=GPa)
#
#
# Indices 1 2 3 4 5 6 
#
# 1 133.4088 48.6387 75.2081 0.0000 0.0000 0.0000
# 2 48.6387 59.3614 40.4840 0.0000 0.0000 0.0000
# 3 75.2081 40.4840 116.8586 0.0000 0.0000 0.0000
# 4 0.0000 0.0000 0.0000 25.4937 0.0000 0.0000
# 5 0.0000 0.0000 0.0000 0.0000 -662.2620 0.0000
# 6 0.0000 0.0000 0.0000 0.0000 0.0000 124.3987
#
#
#
# Elastic Compliance Matrix: (Units=1/GPa)
#
#
# Indices 1 2 3 4 5 6 
#
# 1 0.013558 -0.006754 -0.006386 0.000000 0.000000 0.000000
# 2 -0.006754 0.025422 -0.004460 0.000000 0.000000 0.000000
# 3 -0.006386 -0.004460 0.014212 0.000000 0.000000 0.000000
# 4 0.000000 0.000000 0.000000 0.039225 0.000000 0.000000
# 5 0.000000 0.000000 0.000000 0.000000 -0.001510 0.000000
# 6 0.000000 0.000000 0.000000 0.000000 0.000000 0.008039
#
#
# Mechanical properties :
#
#
# Convention : Reuss Voigt Hill
#
# Bulk Modulus (GPa) = 55.58034 70.92117 63.25076
# Shear Modulus (GPa) = 35.67750 -92.78739 -28.55494
#
# Velocity S-wave (km/s) = 4.41324 -7.11713 -3.94822
# Velocity P-wave (km/s) = 7.50405 5.36857 3.70738
#
# Compressibility (1/GPa) = 0.01799197
#
# Stress axis : x y z
#
# Youngs Moduli (GPa) = 73.75625 39.33638 70.36062
#
# Poissons Ratio (x) = 0.26567 0.44932
# Poissons Ratio (y) = 0.49814 0.31383
# Poissons Ratio (z) = 0.47101 0.17545
#
# Static dielectric constant tensor:
#      x y z
#    x 1.622170 0.000000 0.000000 
#    y 0.000000 1.612780 0.000000 
#    z 0.000000 0.000000 1.597140 
# 
# From -- ./inp_files/29649.got.cif
#   From: 2010.05.17/outbox.cif.g08.bks.cpg/sg51_15_cif.got.tgz:29649.got - 2010.06.03 11:52:47.
