data_PCOD9407019
_publ_section_title
;
Structure prediction by ZEFSAII (Michael W. Deem and Ramdas Pophale) SiO2 
 PCOD9407019
Probable space group: P M M A
;
_chemical_formula_sum "Si O2"
_cell_formula_units_Z 56
_cell_length_a 18.342682
_cell_length_b 8.772568
_cell_length_c 20.088454
_cell_angle_alpha 90.000000
_cell_angle_beta 90.000000
_cell_angle_gamma 90.000000
_cell_volume 3232.481851
_symmetry_space_group_name_H-M "P M M A"
_symmetry_group_IT_number 51
_symmetry_cell_setting 'orthorhombic'
loop_
_space_group_symop_operation_xyz
x,y,z
1/2-x,-y,z
1/2+x,-y,-z
-x,y,-z
-x,-y,-z
1/2+x,y,-z
1/2-x,y,z
x,-y,z
loop_
_atom_site_type_symbol
_atom_site_label
_atom_site_fract_x
_atom_site_fract_y
_atom_site_fract_z
Si Si1 0.330201 0.814919 0.355254
Si Si2 0.573123 0.172380 0.044739
Si Si3 0.664638 0.184685 0.919290
Si Si4 0.163586 0.177086 0.506744
Si Si5 0.477970 0.679887 0.153690
Si Si6 0.463302 0.679375 0.570233
Si Si7 0.524027 0.182296 0.705717
O O1 0.250000 0.758661 0.338568
O O2 0.349499 0.769373 0.430659
O O3 0.391481 0.771239 0.304046
O O4 0.327941 0.000000 0.357364
O O5 0.544417 0.275045 0.104621
O O6 0.590164 0.000000 0.067836
O O7 0.500000 0.162513 0.000000
O O8 0.636853 0.224800 0.994408
O O9 0.750000 0.229654 0.907508
O O10 0.599517 0.247452 0.871722
O O11 0.661863 0.000000 0.914478
O O12 0.250000 0.179466 0.516237
O O13 0.120853 0.282622 0.557101
O O14 0.139279 0.000000 0.512718
O O15 0.468151 0.500000 0.153990
O O16 0.499659 0.741029 0.226276
O O17 0.500000 0.731842 0.500000
O O18 0.477735 0.500000 0.577375
O O19 0.487909 0.764521 0.636743
O O20 0.518503 0.000000 0.710930
#
# Coordination Sequence:
#
# PCOD9407019 Si02
#       7
#     8   8   8   8   8   8   8
#     4   8  15  28  47  71  95 122 162 210 256 303
#     4   8  15  31  54  77 101 133 175 213 246 293
#     4   9  18  34  57  83 109 139 176 215 252 298
#     4   9  17  32  54  76  96 123 166 215 260 313
#     4  11  22  34  49  74 111 145 175 213 264 319
#     4  11  22  34  50  75 107 136 170 221 276 325
#     4  11  21  34  54  74  99 139 184 224 264 311
#
# _framework density 17.324148999999998
#
# number of rings (size 3 to 8) (size 9 to 14) (size 15 to 20)
#    0.000    2.429    1.429    3.857    0.000    4.286 
#    0.000    1.429    0.000    2.143    0.000    2.000 
#    0.000    0.000    0.000    0.000    0.000    0.000 
#
# Total GULP energy -311825.845390 kJ/mol
# GULP energy per Si atom -5568.318668 kJ/mol
# Density = 1.728472 g / cm^3
# Si number density = 17.324149 Si / 1000 Ang^3
#
#
#
# Elastic Constant Matrix: (Units=GPa)
#
#
# Indices 1 2 3 4 5 6 
#
# 1 25.1037 12.0783 18.1959 0.0000 0.0000 0.0000
# 2 12.0783 48.1184 38.6228 0.0000 0.0000 0.0000
# 3 18.1959 38.6228 96.4292 0.0000 0.0000 0.0000
# 4 0.0000 0.0000 0.0000 11.1126 0.0000 0.0000
# 5 0.0000 0.0000 0.0000 0.0000 18.9365 0.0000
# 6 0.0000 0.0000 0.0000 0.0000 0.0000 13.9280
#
#
#
# Elastic Compliance Matrix: (Units=1/GPa)
#
#
# Indices 1 2 3 4 5 6 
#
# 1 0.047693 -0.006998 -0.006197 0.000000 0.000000 0.000000
# 2 -0.006998 0.031656 -0.011359 0.000000 0.000000 0.000000
# 3 -0.006197 -0.011359 0.016089 0.000000 0.000000 0.000000
# 4 0.000000 0.000000 0.000000 0.089988 0.000000 0.000000
# 5 0.000000 0.000000 0.000000 0.000000 0.052808 0.000000
# 6 0.000000 0.000000 0.000000 0.000000 0.000000 0.071798
#
#
# Mechanical properties :
#
#
# Convention : Reuss Voigt Hill
#
# Bulk Modulus (GPa) = 21.58343 34.16059 27.87201
# Shear Modulus (GPa) = 13.34822 15.51238 14.43030
#
# Velocity S-wave (km/s) = 2.77880 2.99560 2.88923
# Velocity P-wave (km/s) = 4.77297 5.63260 5.22051
#
# Compressibility (1/GPa) = 0.04633183
#
# Stress axis : x y z
#
# Youngs Moduli (GPa) = 20.96733 31.58993 62.15406
#
# Poissons Ratio (x) = 0.22106 0.38515
# Poissons Ratio (y) = 0.14672 0.70598
# Poissons Ratio (z) = 0.12993 0.35882
#
# Static dielectric constant tensor:
#      x y z
#    x 1.620090 0.000000 0.000000 
#    y 0.000000 1.586890 0.000000 
#    z 0.000000 0.000000 1.599890 
# 
# From -- ./inp_files/33737.got.cif
#   From: 2010.05.17/outbox.cif.g08.bks.cpg/sg51_17_cif.got.tgz:33737.got - 2010.06.03 11:52:47.
