data_PCOD9407597
_publ_section_title
;
Structure prediction by ZEFSAII (Michael W. Deem and Ramdas Pophale) SiO2 
 PCOD9407597
Probable space group: P M M A
;
_chemical_formula_sum "Si O2"
_cell_formula_units_Z 56
_cell_length_a 15.000000
_cell_length_b 9.000000
_cell_length_c 21.000000
_cell_angle_alpha 90.000000
_cell_angle_beta 90.000000
_cell_angle_gamma 90.000000
_cell_volume 2835.000000
_symmetry_space_group_name_H-M "P M M A"
_symmetry_group_IT_number 51
_symmetry_cell_setting 'orthorhombic'
loop_
_space_group_symop_operation_xyz
x,y,z
1/2-x,-y,z
1/2+x,-y,-z
-x,y,-z
-x,-y,-z
1/2+x,y,-z
1/2-x,y,z
x,-y,z
loop_
_atom_site_type_symbol
_atom_site_label
_atom_site_fract_x
_atom_site_fract_y
_atom_site_fract_z
Si Si1 0.393258 0.167422 0.854104
Si Si2 0.402615 0.166247 0.099717
Si Si3 0.647613 0.681130 0.531628
Si Si4 0.042361 0.679431 0.732966
Si Si5 0.351653 0.333772 0.978888
Si Si6 0.536692 0.319597 0.408271
Si Si7 0.345827 0.321883 0.223487
O O1 0.496347 0.160254 0.876108
O O2 0.396565 0.245425 0.785956
O O3 0.350333 0.265395 0.908929
O O4 0.358222 0.000000 0.851906
O O5 0.352756 0.268421 0.150681
O O6 0.365225 0.000000 0.099734
O O7 0.401138 0.232387 0.029540
O O8 0.750000 0.731776 0.542138
O O9 0.650835 0.500000 0.533925
O O10 0.566061 0.727199 0.578151
O O11 0.606126 0.725114 0.463021
O O12 0.046686 0.500000 0.739628
O O13 0.066687 0.723794 0.661715
O O14 0.938385 0.725034 0.743816
O O15 0.250000 0.339880 0.002113
O O16 0.388955 0.500000 0.976984
O O17 0.534298 0.500000 0.410375
O O18 0.250000 0.270220 0.250383
O O19 0.345847 0.500000 0.225771
#
# Coordination Sequence:
#
# PCOD9407597 Si02
#       7
#     8   8   8   8   8   8   8
#     4  10  21  36  52  70  93 123 160 196 233 284
#     4  10  20  33  50  71  93 120 155 194 239 291
#     4   8  13  22  38  63  95 125 153 190 234 280
#     4   9  17  30  47  66  93 127 159 196 239 281
#     4  11  23  36  51  72  95 119 152 196 244 289
#     4   8  14  24  39  62  92 125 157 189 234 286
#     4   9  17  28  42  63  91 122 157 196 240 290
#
# _framework density 19.753086
#
# number of rings (size 3 to 8) (size 9 to 14) (size 15 to 20)
#    0.000    2.714    0.000    3.000    0.000    7.143 
#    0.000    3.571    0.000    2.571    0.000    2.000 
#    0.000    1.143    0.000    0.000    0.000    0.000 
#
# Total GULP energy -311972.823713 kJ/mol
# GULP energy per Si atom -5570.943281 kJ/mol
# Density = 1.970813 g / cm^3
# Si number density = 19.753086 Si / 1000 Ang^3
#
#
#
# Elastic Constant Matrix: (Units=GPa)
#
#
# Indices 1 2 3 4 5 6 
#
# 1 36.5935 0.0004 -14.3827 0.0000 0.0000 0.0000
# 2 0.0004 6.1847 7.9020 0.0000 0.0000 0.0000
# 3 -14.3827 7.9020 94.5590 0.0000 0.0000 0.0000
# 4 0.0000 0.0000 0.0000 -25.9236 0.0000 0.0000
# 5 0.0000 0.0000 0.0000 0.0000 7.2772 0.0000
# 6 0.0000 0.0000 0.0000 0.0000 0.0000 -12.9568
#
#
#
# Elastic Compliance Matrix: (Units=1/GPa)
#
#
# Indices 1 2 3 4 5 6 
#
# 1 0.029288 -0.006374 0.004987 0.000000 0.000000 0.000000
# 2 -0.006374 0.182404 -0.016212 0.000000 0.000000 0.000000
# 3 0.004987 -0.016212 0.012689 0.000000 0.000000 0.000000
# 4 0.000000 0.000000 0.000000 -0.038575 0.000000 0.000000
# 5 0.000000 0.000000 0.000000 0.000000 0.137415 0.000000
# 6 0.000000 0.000000 0.000000 0.000000 0.000000 -0.077180
#
#
# Mechanical properties :
#
#
# Convention : Reuss Voigt Hill
#
# Bulk Modulus (GPa) = 5.28590 13.81961 9.55276
# Shear Modulus (GPa) = 14.52219 3.26719 8.89469
#
# Velocity S-wave (km/s) = 2.71437 1.28748 2.12431
# Velocity P-wave (km/s) = 3.53632 3.03669 3.29599
#
# Compressibility (1/GPa) = 0.18918242
#
# Stress axis : x y z
#
# Youngs Moduli (GPa) = 34.14416 5.48233 78.80943
#
# Poissons Ratio (x) = 0.03494 -0.39305
# Poissons Ratio (y) = 0.21764 1.27770
# Poissons Ratio (z) = -0.17029 0.08888
#
# Static dielectric constant tensor:
#      x y z
#    x 1.796910 0.000000 0.000000 
#    y 0.000000 1.688040 0.000000 
#    z 0.000000 0.000000 1.693200 
# 
# From -- ./inp_files/33474.got.cif
#   From: 2010.05.17/outbox.ucp.g08.bks.cvg/sg51_17_cif.got.tgz:33474.got - 2010.06.11 16:27:58.
