data_PCOD9407215
_publ_section_title
;
Structure prediction by ZEFSAII (Michael W. Deem and Ramdas Pophale) SiO2 
 PCOD9407215
Probable space group: P M M A
;
_chemical_formula_sum "Si O2"
_cell_formula_units_Z 56
_cell_length_a 29.587371
_cell_length_b 8.564956
_cell_length_c 13.928220
_cell_angle_alpha 90.000000
_cell_angle_beta 90.000000
_cell_angle_gamma 90.000000
_cell_volume 3529.613336
_symmetry_space_group_name_H-M "P M M A"
_symmetry_group_IT_number 51
_symmetry_cell_setting 'orthorhombic'
loop_
_space_group_symop_operation_xyz
x,y,z
1/2-x,-y,z
1/2+x,-y,-z
-x,y,-z
-x,-y,-z
1/2+x,y,-z
1/2-x,y,z
x,-y,z
loop_
_atom_site_type_symbol
_atom_site_label
_atom_site_fract_x
_atom_site_fract_y
_atom_site_fract_z
Si Si1 0.981801 0.808570 0.396787
Si Si2 0.800935 0.811905 0.999759
Si Si3 0.199228 0.809060 0.776938
Si Si4 0.967669 0.187901 0.795815
Si Si5 0.944355 0.816810 0.095111
Si Si6 0.609166 0.683165 0.916213
Si Si7 0.392831 0.183913 0.701025
O O1 0.014348 0.761611 0.308571
O O2 0.000000 0.758834 0.500000
O O3 0.931037 0.752957 0.370824
O O4 0.980748 0.000000 0.395874
O O5 0.750000 0.763656 0.972356
O O6 0.808062 0.764049 0.111386
O O7 0.802571 0.000000 0.998788
O O8 0.840997 0.749821 0.934323
O O9 0.250000 0.761479 0.748811
O O10 0.157653 0.750757 0.712413
O O11 0.198204 0.000000 0.775797
O O12 0.919050 0.245639 0.828274
O O13 0.005688 0.237196 0.874034
O O14 0.968335 0.000000 0.796576
O O15 0.915259 0.808180 0.193040
O O16 0.946405 0.000000 0.066723
O O17 0.919736 0.725947 0.011206
O O18 0.611742 0.500000 0.904798
O O19 0.388008 0.000000 0.677751
#
# Coordination Sequence:
#
# PCOD9407215 Si02
#       7
#     8   8   8   8   8   8   8
#     4   8  14  25  42  64  84 103 138 186 231 265
#     4   9  17  30  47  62  80 113 153 183 207 249
#     4   8  12  19  35  58  80 104 136 169 201 246
#     4   9  18  30  45  62  82 113 150 184 215 259
#     4   9  16  28  43  58  81 115 152 180 206 249
#     4  12  22  28  39  61  91 120 144 179 218 252
#     4   8  12  20  37  59  82 106 134 174 216 258
#
# _framework density 15.865760999999999
#
# number of rings (size 3 to 8) (size 9 to 14) (size 15 to 20)
#    0.000    3.000    1.429    4.286    0.000    2.571 
#    0.000    0.000    0.000    0.429    0.000    1.000 
#    0.000    5.714    0.000    0.000    0.000    0.000 
#
# Total GULP energy -311836.088869 kJ/mol
# GULP energy per Si atom -5568.501587 kJ/mol
# Density = 1.582965 g / cm^3
# Si number density = 15.865761 Si / 1000 Ang^3
#
#
#
# Elastic Constant Matrix: (Units=GPa)
#
#
# Indices 1 2 3 4 5 6 
#
# 1 164.5182 17.9381 62.3814 0.0000 0.0000 0.0000
# 2 17.9381 7.3027 10.2247 0.0000 0.0000 0.0000
# 3 62.3814 10.2247 61.7651 0.0000 0.0000 0.0000
# 4 0.0000 0.0000 0.0000 -21.2145 0.0000 0.0000
# 5 0.0000 0.0000 0.0000 0.0000 20.4139 0.0000
# 6 0.0000 0.0000 0.0000 0.0000 0.0000 -4.1356
#
#
#
# Elastic Compliance Matrix: (Units=1/GPa)
#
#
# Indices 1 2 3 4 5 6 
#
# 1 0.010966 -0.014879 -0.008613 0.000000 0.000000 0.000000
# 2 -0.014879 0.198436 -0.017822 0.000000 0.000000 0.000000
# 3 -0.008613 -0.017822 0.027839 0.000000 0.000000 0.000000
# 4 0.000000 0.000000 0.000000 -0.047138 0.000000 0.000000
# 5 0.000000 0.000000 0.000000 0.000000 0.048986 0.000000
# 6 0.000000 0.000000 0.000000 0.000000 0.000000 -0.241800
#
#
# Mechanical properties :
#
#
# Convention : Reuss Voigt Hill
#
# Bulk Modulus (GPa) = 6.46771 46.07495 26.27133
# Shear Modulus (GPa) = 38.03559 8.54886 23.29223
#
# Velocity S-wave (km/s) = 4.90157 2.32378 3.83571
# Velocity P-wave (km/s) = 6.00993 6.02524 6.01759
#
# Compressibility (1/GPa) = 0.15461432
#
# Stress axis : x y z
#
# Youngs Moduli (GPa) = 91.18758 5.03941 35.92022
#
# Poissons Ratio (x) = 0.07498 0.30937
# Poissons Ratio (y) = 1.35674 0.64018
# Poissons Ratio (z) = 0.78538 0.08981
#
# Static dielectric constant tensor:
#      x y z
#    x 1.574420 0.000000 0.000000 
#    y 0.000000 1.527960 0.000000 
#    z 0.000000 0.000000 1.513510 
# 
# From -- ./inp_files/26522.got.cif
#   From: 2010.05.17/outbox.cif.g08.bks.cpg/sg51_14_cif.got.tgz:26522.got - 2010.06.03 11:52:47.
