data_PCOD9407511
_publ_section_title
;
Structure prediction by ZEFSAII (Michael W. Deem and Ramdas Pophale) SiO2 
 PCOD9407511
Probable space group: P M M A
;
_chemical_formula_sum "Si O2"
_cell_formula_units_Z 44
_cell_length_a 9.000000
_cell_length_b 30.000000
_cell_length_c 9.000000
_cell_angle_alpha 90.000000
_cell_angle_beta 90.000000
_cell_angle_gamma 90.000000
_cell_volume 2430.000000
_symmetry_space_group_name_H-M "P M M A"
_symmetry_group_IT_number 51
_symmetry_cell_setting 'orthorhombic'
loop_
_space_group_symop_operation_xyz
x,y,z
1/2-x,-y,z
1/2+x,-y,-z
-x,y,-z
-x,-y,-z
1/2+x,y,-z
1/2-x,y,z
x,-y,z
loop_
_atom_site_type_symbol
_atom_site_label
_atom_site_fract_x
_atom_site_fract_y
_atom_site_fract_z
Si Si1 0.430087 0.176420 0.835922
Si Si2 0.572024 0.000000 0.837608
Si Si3 0.570327 0.640654 0.164844
Si Si4 0.428106 0.268051 0.661948
Si Si5 0.930119 0.908204 0.664118
Si Si6 0.428911 0.549712 0.165346
O O1 0.250000 0.172250 0.842043
O O2 0.466940 0.223398 0.754653
O O3 0.500008 0.134380 0.748568
O O4 0.500000 0.177018 0.000000
O O5 0.533023 0.045401 0.749056
O O6 0.750000 0.000000 0.854283
O O7 0.500000 0.000000 0.000000
O O8 0.750000 0.636862 0.155247
O O9 0.532082 0.685598 0.255210
O O10 0.502303 0.594590 0.231882
O O11 0.500000 0.645086 0.000000
O O12 0.500000 0.266242 0.500000
O O13 0.250000 0.268046 0.646637
O O14 0.750000 0.904119 0.657556
O O15 0.000000 0.909838 0.500000
O O16 0.250000 0.554997 0.156462
O O17 0.458305 0.500000 0.231445
O O18 0.500000 0.548165 0.000000
#
# Coordination Sequence:
#
# PCOD9407511 Si02
#       6
#     8   4   8   8   8   8
#     4  11  23  40  61  87 116 148 186 230 279 332
#     4  10  23  40  60  86 118 154 195 240 285 332
#     4  10  19  32  51  77 105 136 175 218 265 318
#     4  10  23  39  56  79 108 142 181 223 271 325
#     4  11  23  40  61  88 119 154 193 235 283 335
#     4   9  16  26  43  70 102 135 171 213 262 314
#
# _framework density 18.106995999999999
#
# number of rings (size 3 to 8) (size 9 to 14) (size 15 to 20)
#    0.000    1.818    0.000    5.182    0.000    8.364 
#    0.000    0.000    0.000    0.545    0.000    0.000 
#    0.000    0.000    0.000    0.000    0.000    0.000 
#
# Total GULP energy -245622.413881 kJ/mol
# GULP energy per Si atom -5582.327588 kJ/mol
# Density = 1.806578 g / cm^3
# Si number density = 18.106996 Si / 1000 Ang^3
#
#
#
# Elastic Constant Matrix: (Units=GPa)
#
#
# Indices 1 2 3 4 5 6 
#
# 1 87.6403 74.0124 51.1078 0.0000 0.0000 0.0000
# 2 74.0124 233.5168 101.0876 0.0000 0.0000 0.0000
# 3 51.1078 101.0876 137.2677 0.0000 0.0000 0.0000
# 4 0.0000 0.0000 0.0000 20.1067 0.0000 0.0000
# 5 0.0000 0.0000 0.0000 0.0000 33.8423 0.0000
# 6 0.0000 0.0000 0.0000 0.0000 0.0000 38.6196
#
#
#
# Elastic Compliance Matrix: (Units=1/GPa)
#
#
# Indices 1 2 3 4 5 6 
#
# 1 0.016585 -0.003793 -0.003382 0.000000 0.000000 0.000000
# 2 -0.003793 0.007154 -0.003856 0.000000 0.000000 0.000000
# 3 -0.003382 -0.003856 0.011384 0.000000 0.000000 0.000000
# 4 0.000000 0.000000 0.000000 0.049735 0.000000 0.000000
# 5 0.000000 0.000000 0.000000 0.000000 0.029549 0.000000
# 6 0.000000 0.000000 0.000000 0.000000 0.000000 0.025894
#
#
# Mechanical properties :
#
#
# Convention : Reuss Voigt Hill
#
# Bulk Modulus (GPa) = 76.56121 101.20451 88.88286
# Shear Modulus (GPa) = 29.99114 33.99482 31.99298
#
# Velocity S-wave (km/s) = 4.07422 4.33765 4.20799
# Velocity P-wave (km/s) = 8.03161 9.00559 8.53251
#
# Compressibility (1/GPa) = 0.01306144
#
# Stress axis : x y z
#
# Youngs Moduli (GPa) = 60.29383 139.78837 87.84245
#
# Poissons Ratio (x) = 0.53016 0.29710
# Poissons Ratio (y) = 0.22867 0.33873
# Poissons Ratio (z) = 0.20392 0.53904
#
# Static dielectric constant tensor:
#      x y z
#    x 1.607160 0.000000 0.000000 
#    y 0.000000 1.649380 0.000000 
#    z 0.000000 0.000000 1.594590 
# 
# From -- ./inp_files/5698.got.cif
#   From: 2010.05.17/outbox.ucp.g08.bks.cvg/sg51_3_cif.got.tgz:5698.got - 2010.06.11 16:27:58.
