data_PCOD9407094
_publ_section_title
;
Structure prediction by ZEFSAII (Michael W. Deem and Ramdas Pophale) SiO2 
 PCOD9407094
Probable space group: P M M A
;
_chemical_formula_sum "Si O2"
_cell_formula_units_Z 32
_cell_length_a 15.007700
_cell_length_b 8.805000
_cell_length_c 12.678669
_cell_angle_alpha 90.000000
_cell_angle_beta 90.000000
_cell_angle_gamma 90.000000
_cell_volume 1675.394803
_symmetry_space_group_name_H-M "P M M A"
_symmetry_group_IT_number 51
_symmetry_cell_setting 'orthorhombic'
loop_
_space_group_symop_operation_xyz
x,y,z
1/2-x,-y,z
1/2+x,-y,-z
-x,y,-z
-x,-y,-z
1/2+x,y,-z
1/2-x,y,z
x,-y,z
loop_
_atom_site_type_symbol
_atom_site_label
_atom_site_fract_x
_atom_site_fract_y
_atom_site_fract_z
Si Si1 0.891695 0.174106 0.493343
Si Si2 0.250000 0.182469 0.872695
Si Si3 0.750000 0.815370 0.884707
Si Si4 0.899085 0.320006 0.275021
Si Si5 0.096446 0.184325 0.274169
O O1 0.867166 0.272888 0.392627
O O2 0.863932 0.224108 0.610291
O O3 0.000000 0.173954 0.500000
O O4 0.863189 0.000000 0.475382
O O5 0.164370 0.243645 0.810692
O O6 0.250000 0.000000 0.870499
O O7 0.250000 0.234221 0.994400
O O8 0.662937 0.769614 0.818597
O O9 0.750000 0.000000 0.884761
O O10 0.897382 0.500000 0.264453
O O11 0.999499 0.257548 0.263139
O O12 0.086721 0.000000 0.274521
#
# Coordination Sequence:
#
# PCOD9407094 Si02
#       5
#     8   4   4   8   8
#     4   8  15  30  55  84 112 143 178 218 267 326
#     4  11  23  40  59  78 104 143 192 237 274 319
#     4   9  20  38  61  84 104 137 190 239 270 315
#     4  11  22  36  55  82 116 149 181 222 274 330
#     4   9  18  36  60  86 113 142 181 227 275 325
#
# _framework density 19.099975000000001
#
# number of rings (size 3 to 8) (size 9 to 14) (size 15 to 20)
#    0.000    2.500    0.000    4.125    0.000    6.500 
#    0.000   10.625    0.000    0.000    0.000    0.000 
#    0.000    0.000    0.000    0.000    0.000    0.000 
#
# Total GULP energy -178634.787163 kJ/mol
# GULP energy per Si atom -5582.337099 kJ/mol
# Density = 1.905650 g / cm^3
# Si number density = 19.099975 Si / 1000 Ang^3
#
#
#
# Elastic Constant Matrix: (Units=GPa)
#
#
# Indices 1 2 3 4 5 6 
#
# 1 103.4061 42.3909 85.8894 0.0000 0.0000 0.0000
# 2 42.3909 71.2205 66.1311 0.0000 0.0000 0.0000
# 3 85.8894 66.1311 204.6506 0.0000 0.0000 0.0000
# 4 0.0000 0.0000 0.0000 -1.0388 0.0000 0.0000
# 5 0.0000 0.0000 0.0000 0.0000 31.0283 0.0000
# 6 0.0000 0.0000 0.0000 0.0000 0.0000 -8.4584
#
#
#
# Elastic Compliance Matrix: (Units=1/GPa)
#
#
# Indices 1 2 3 4 5 6 
#
# 1 0.015857 -0.004656 -0.005151 0.000000 0.000000 0.000000
# 2 -0.004656 0.021427 -0.004970 0.000000 0.000000 0.000000
# 3 -0.005151 -0.004970 0.008654 0.000000 0.000000 0.000000
# 4 0.000000 0.000000 0.000000 -0.962685 0.000000 0.000000
# 5 0.000000 0.000000 0.000000 0.000000 0.032229 0.000000
# 6 0.000000 0.000000 0.000000 0.000000 0.000000 -0.118226
#
#
# Mechanical properties :
#
#
# Convention : Reuss Voigt Hill
#
# Bulk Modulus (GPa) = 61.02966 85.34444 73.18705
# Shear Modulus (GPa) = -5.16673 16.63060 5.73193
#
# Velocity S-wave (km/s) = -1.64650 2.95399 1.73422
# Velocity P-wave (km/s) = 5.32987 7.51097 6.51238
#
# Compressibility (1/GPa) = 0.01638548
#
# Stress axis : x y z
#
# Youngs Moduli (GPa) = 63.06197 46.67038 115.55301
#
# Poissons Ratio (x) = 0.21729 0.59518
# Poissons Ratio (y) = 0.29361 0.57429
# Poissons Ratio (z) = 0.32481 0.23195
#
# Static dielectric constant tensor:
#      x y z
#    x 1.674900 0.000000 0.000000 
#    y 0.000000 1.629340 0.000000 
#    z 0.000000 0.000000 1.670910 
# 
# From -- ./inp_files/15956.got.cif
#   From: 2010.05.17/outbox.cif.g08.bks.cpg/sg51_8_cif.got.tgz:15956.got - 2010.06.03 11:52:47.
