data_PCOD9407192
_publ_section_title
;
Structure prediction by ZEFSAII (Michael W. Deem and Ramdas Pophale) SiO2 
 PCOD9407192
Probable space group: P M M A
;
_chemical_formula_sum "Si O2"
_cell_formula_units_Z 48
_cell_length_a 10.594698
_cell_length_b 16.330211
_cell_length_c 12.905339
_cell_angle_alpha 90.000000
_cell_angle_beta 90.000000
_cell_angle_gamma 90.000000
_cell_volume 2232.799854
_symmetry_space_group_name_H-M "P M M A"
_symmetry_group_IT_number 51
_symmetry_cell_setting 'orthorhombic'
loop_
_space_group_symop_operation_xyz
x,y,z
1/2-x,-y,z
1/2+x,-y,-z
-x,y,-z
-x,-y,-z
1/2+x,y,-z
1/2-x,y,z
x,-y,z
loop_
_atom_site_type_symbol
_atom_site_label
_atom_site_fract_x
_atom_site_fract_y
_atom_site_fract_z
Si Si1 0.602904 0.500000 0.406418
Si Si2 0.888111 0.265614 0.073061
Si Si3 0.108242 0.091137 0.835457
Si Si4 0.108242 0.091137 0.335457
Si Si5 0.888111 0.265614 0.573061
Si Si6 0.500000 0.634136 0.250000
Si Si7 0.897096 0.500000 0.906418
O O1 0.750000 0.500000 0.441073
O O2 0.500000 0.500000 0.500000
O O3 0.574005 0.576885 0.331086
O O4 0.750000 0.285878 0.031131
O O5 0.898472 0.167972 0.088679
O O6 0.907850 0.308434 0.183560
O O7 0.000000 0.293584 0.000000
O O8 0.250000 0.095070 0.788484
O O9 1.000000 0.099666 0.750000
O O10 0.095752 0.000000 0.882624
O O11 0.250000 0.095070 0.288484
O O12 0.101528 0.167972 0.411321
O O13 0.095751 0.000000 0.382624
O O14 0.750000 0.285878 0.531131
O O15 0.907850 0.308434 0.683560
O O16 0.000000 0.293584 0.500000
O O17 0.425995 0.576886 0.168914
O O18 0.750000 0.500000 0.941073
O O19 0.000000 0.500000 0.000000
#
# Coordination Sequence:
#
# PCOD9407192 Si02
#       7
#     4   8   8   8   8   8   4
#     4  11  26  46  71  99 127 159 203 253 312 380
#     4  11  24  40  62  94 129 168 213 260 311 368
#     4   9  18  35  59  87 122 166 214 260 308 362
#     4   9  18  35  59  87 122 166 214 260 308 362
#     4  11  24  40  62  94 129 168 213 260 311 368
#     4  11  24  44  69  94 126 166 205 256 310 369
#     4  11  26  46  71  99 127 159 203 253 312 380
#
# _framework density 21.497672999999999
#
# number of rings (size 3 to 8) (size 9 to 14) (size 15 to 20)
#    0.000    1.667    1.667    2.000    0.000   11.333 
#    0.000    0.000    0.000    0.000    0.000    0.000 
#    0.000    0.000    0.000    0.000    0.000    0.000 
#
# Total GULP energy -268077.646621 kJ/mol
# GULP energy per Si atom -5584.950971 kJ/mol
# Density = 2.144874 g / cm^3
# Si number density = 21.497673 Si / 1000 Ang^3
#
#
#
# Elastic Constant Matrix: (Units=GPa)
#
#
# Indices 1 2 3 4 5 6 
#
# 1 195.3860 36.0258 71.9860 0.0000 0.0000 0.0000
# 2 36.0258 104.5920 32.1258 0.0000 0.0000 0.0000
# 3 71.9860 32.1258 83.3232 0.0000 0.0000 0.0000
# 4 0.0000 0.0000 0.0000 13.7038 0.0000 0.0000
# 5 0.0000 0.0000 0.0000 0.0000 35.0079 0.0000
# 6 0.0000 0.0000 0.0000 0.0000 0.0000 -132.5374
#
#
#
# Elastic Compliance Matrix: (Units=1/GPa)
#
#
# Indices 1 2 3 4 5 6 
#
# 1 0.007550 -0.000677 -0.006261 0.000000 0.000000 0.000000
# 2 -0.000677 0.010906 -0.003620 0.000000 0.000000 0.000000
# 3 -0.006261 -0.003620 0.018807 0.000000 0.000000 0.000000
# 4 0.000000 0.000000 0.000000 0.072973 0.000000 0.000000
# 5 0.000000 0.000000 0.000000 0.000000 0.028565 0.000000
# 6 0.000000 0.000000 0.000000 0.000000 0.000000 -0.007545
#
#
# Mechanical properties :
#
#
# Convention : Reuss Voigt Hill
#
# Bulk Modulus (GPa) = 61.93685 73.73070 67.83377
# Shear Modulus (GPa) = 31.69488 -0.55426 15.57031
#
# Velocity S-wave (km/s) = 3.84388 -0.50831 2.69416
# Velocity P-wave (km/s) = 6.96951 5.83327 6.42655
#
# Compressibility (1/GPa) = 0.01614548
#
# Stress axis : x y z
#
# Youngs Moduli (GPa) = 132.45267 91.69204 53.17271
#
# Poissons Ratio (x) = 0.06210 0.33294
# Poissons Ratio (y) = 0.08970 0.19248
# Poissons Ratio (z) = 0.82935 0.33191
#
# Static dielectric constant tensor:
#      x y z
#    x 1.771440 0.000000 0.000000 
#    y 0.000000 1.808180 0.000000 
#    z 0.000000 0.000000 1.737310 
# 
# From -- ./inp_files/21181.got.cif
#   From: 2010.05.17/outbox.cif.g08.bks.cpg/sg51_11_cif.got.tgz:21181.got - 2010.06.03 11:52:47.
