data_PCOD9407082
_publ_section_title
;
Structure prediction by ZEFSAII (Michael W. Deem and Ramdas Pophale) SiO2 
 PCOD9407082
Probable space group: P M M A
;
_chemical_formula_sum "Si O2"
_cell_formula_units_Z 44
_cell_length_a 9.139960
_cell_length_b 17.130846
_cell_length_c 15.858941
_cell_angle_alpha 90.000000
_cell_angle_beta 90.000000
_cell_angle_gamma 90.000000
_cell_volume 2483.117608
_symmetry_space_group_name_H-M "P M M A"
_symmetry_group_IT_number 51
_symmetry_cell_setting 'orthorhombic'
loop_
_space_group_symop_operation_xyz
x,y,z
1/2-x,-y,z
1/2+x,-y,-z
-x,y,-z
-x,-y,-z
1/2+x,y,-z
1/2-x,y,z
x,-y,z
loop_
_atom_site_type_symbol
_atom_site_label
_atom_site_fract_x
_atom_site_fract_y
_atom_site_fract_z
Si Si1 0.576162 0.799018 0.757710
Si Si2 0.080644 0.500000 0.912546
Si Si3 0.087347 0.622965 0.189782
Si Si4 0.417915 0.588327 0.386630
Si Si5 0.424921 0.249561 0.585556
Si Si6 0.074738 0.092316 0.087582
O O1 0.750000 0.809344 0.738651
O O2 0.561696 0.714918 0.802774
O O3 0.488899 0.791814 0.669766
O O4 0.529431 0.862577 0.827169
O O5 0.250000 0.500000 0.925603
O O6 0.030579 0.575895 0.861393
O O7 0.000000 0.500000 0.000000
O O8 0.250000 0.608884 0.153980
O O9 0.087714 0.591878 0.285295
O O10 0.250000 0.603655 0.416215
O O11 0.459922 0.500000 0.410518
O O12 0.524106 0.659259 0.410017
O O13 0.500000 0.218218 0.500000
O O14 0.250000 0.244001 0.582561
O O15 0.250000 0.102677 0.079562
O O16 0.044103 0.000000 0.096704
O O17 0.000000 0.118963 0.000000
#
# Coordination Sequence:
#
# PCOD9407082 Si02
#       6
#     8   4   8   8   8   8
#     4   9  19  36  57  80 109 145 179 217 269 323
#     4  12  24  34  46  64  91 128 173 222 268 314
#     4   9  17  33  51  68  94 130 170 213 262 312
#     4   9  17  32  53  72  96 132 170 216 272 323
#     4  11  22  35  52  76 106 141 183 229 273 322
#     4   9  18  34  58  88 119 147 175 213 264 322
#
# _framework density 17.719659
#
# number of rings (size 3 to 8) (size 9 to 14) (size 15 to 20)
#    0.000    2.364    0.909    3.545    0.000    5.091 
#    0.000    1.818    0.000    0.545    0.000    0.000 
#    0.000    0.000    0.000    0.000    0.000    0.000 
#
# Total GULP energy -245355.761783 kJ/mol
# GULP energy per Si atom -5576.267313 kJ/mol
# Density = 1.767933 g / cm^3
# Si number density = 17.719659 Si / 1000 Ang^3
#
#
#
# Elastic Constant Matrix: (Units=GPa)
#
#
# Indices 1 2 3 4 5 6 
#
# 1 113.3024 34.4483 78.1894 0.0000 0.0000 0.0000
# 2 34.4483 60.8794 53.4323 0.0000 0.0000 0.0000
# 3 78.1894 53.4323 135.7292 0.0000 0.0000 0.0000
# 4 0.0000 0.0000 0.0000 28.6487 0.0000 0.0000
# 5 0.0000 0.0000 0.0000 0.0000 33.0309 0.0000
# 6 0.0000 0.0000 0.0000 0.0000 0.0000 16.2171
#
#
#
# Elastic Compliance Matrix: (Units=1/GPa)
#
#
# Indices 1 2 3 4 5 6 
#
# 1 0.014723 -0.001355 -0.007948 0.000000 0.000000 0.000000
# 2 -0.001355 0.025222 -0.009148 0.000000 0.000000 0.000000
# 3 -0.007948 -0.009148 0.015548 0.000000 0.000000 0.000000
# 4 0.000000 0.000000 0.000000 0.034906 0.000000 0.000000
# 5 0.000000 0.000000 0.000000 0.000000 0.030275 0.000000
# 6 0.000000 0.000000 0.000000 0.000000 0.000000 0.061663
#
#
# Mechanical properties :
#
#
# Convention : Reuss Voigt Hill
#
# Bulk Modulus (GPa) = 53.79387 71.33900 62.56644
# Shear Modulus (GPa) = 22.17928 25.16872 23.67400
#
# Velocity S-wave (km/s) = 3.54174 3.77289 3.65914
# Velocity P-wave (km/s) = 6.86655 7.70239 7.29645
#
# Compressibility (1/GPa) = 0.01858948
#
# Stress axis : x y z
#
# Youngs Moduli (GPa) = 67.92225 39.64770 64.31876
#
# Poissons Ratio (x) = 0.05373 0.51119
# Poissons Ratio (y) = 0.09205 0.58842
# Poissons Ratio (z) = 0.53983 0.36272
#
# Static dielectric constant tensor:
#      x y z
#    x 1.604940 0.000000 0.000000 
#    y 0.000000 1.618920 0.000000 
#    z 0.000000 0.000000 1.635520 
# 
# From -- ./inp_files/20907.got.cif
#   From: 2010.05.17/outbox.cif.g08.bks.cpg/sg51_11_cif.got.tgz:20907.got - 2010.06.03 11:52:47.
