data_PCOD9407327
_publ_section_title
;
Structure prediction by ZEFSAII (Michael W. Deem and Ramdas Pophale) SiO2 
 PCOD9407327
Probable space group: P M M A
;
_chemical_formula_sum "Si O2"
_cell_formula_units_Z 48
_cell_length_a 19.253765
_cell_length_b 7.727662
_cell_length_c 16.963654
_cell_angle_alpha 90.000000
_cell_angle_beta 90.000000
_cell_angle_gamma 90.000000
_cell_volume 2523.964201
_symmetry_space_group_name_H-M "P M M A"
_symmetry_group_IT_number 51
_symmetry_cell_setting 'orthorhombic'
loop_
_space_group_symop_operation_xyz
x,y,z
1/2-x,-y,z
1/2+x,-y,-z
-x,y,-z
-x,-y,-z
1/2+x,y,-z
1/2-x,y,z
x,-y,z
loop_
_atom_site_type_symbol
_atom_site_label
_atom_site_fract_x
_atom_site_fract_y
_atom_site_fract_z
Si Si1 0.402984 0.292664 0.824154
Si Si2 0.540118 0.292703 0.742686
Si Si3 0.828303 0.711344 0.334666
Si Si4 0.969364 0.711640 0.416820
Si Si5 0.828862 0.792368 0.016062
Si Si6 0.171609 0.207727 0.159390
O O1 0.404003 0.500000 0.818540
O O2 0.479852 0.228156 0.801952
O O3 0.351750 0.233714 0.753588
O O4 0.377354 0.250766 0.910984
O O5 0.534889 0.500000 0.740351
O O6 0.518530 0.232253 0.655656
O O7 0.615412 0.251407 0.775330
O O8 0.750000 0.769622 0.352715
O O9 0.827535 0.500000 0.335291
O O10 0.890667 0.764179 0.393437
O O11 0.968930 0.500000 0.418316
O O12 0.000000 0.770822 0.500000
O O13 0.750000 0.729551 0.031291
O O14 0.826065 0.000000 0.012308
O O15 0.849751 0.730222 0.928580
O O16 0.250000 0.271005 0.174971
O O17 0.174853 0.000000 0.155900
#
# Coordination Sequence:
#
# PCOD9407327 Si02
#       6
#     8   8   8   8   8   8
#     4   9  17  28  43  65  92 119 146 180 225 273
#     4   9  18  31  47  69  93 116 146 185 228 272
#     4   8  13  22  38  60  85 114 147 178 211 259
#     4   8  14  26  43  63  91 121 144 176 223 266
#     4   9  18  31  45  63  88 118 154 192 224 257
#     4   9  19  35  50  63  85 120 157 189 223 264
#
# _framework density 19.017702
#
# number of rings (size 3 to 8) (size 9 to 14) (size 15 to 20)
#    0.000    3.333    0.000    3.500    0.000    3.333 
#    0.000    5.833    0.000    3.500    0.000    0.000 
#    0.000   10.667    0.000    0.000    0.000    0.000 
#
# Total GULP energy -267409.384602 kJ/mol
# GULP energy per Si atom -5571.028846 kJ/mol
# Density = 1.897442 g / cm^3
# Si number density = 19.017702 Si / 1000 Ang^3
#
#
#
# Elastic Constant Matrix: (Units=GPa)
#
#
# Indices 1 2 3 4 5 6 
#
# 1 157.0287 6.2968 117.0291 0.0000 0.0000 0.0000
# 2 6.2968 24.3307 7.2760 0.0000 0.0000 0.0000
# 3 117.0291 7.2760 144.0315 0.0000 0.0000 0.0000
# 4 0.0000 0.0000 0.0000 26.5616 0.0000 0.0000
# 5 0.0000 0.0000 0.0000 0.0000 25.4846 0.0000
# 6 0.0000 0.0000 0.0000 0.0000 0.0000 52.6480
#
#
#
# Elastic Compliance Matrix: (Units=1/GPa)
#
#
# Indices 1 2 3 4 5 6 
#
# 1 0.016146 -0.000259 -0.013106 0.000000 0.000000 0.000000
# 2 -0.000259 0.041735 -0.001898 0.000000 0.000000 0.000000
# 3 -0.013106 -0.001898 0.017688 0.000000 0.000000 0.000000
# 4 0.000000 0.000000 0.000000 0.037648 0.000000 0.000000
# 5 0.000000 0.000000 0.000000 0.000000 0.039239 0.000000
# 6 0.000000 0.000000 0.000000 0.000000 0.000000 0.018994
#
#
# Mechanical properties :
#
#
# Convention : Reuss Voigt Hill
#
# Bulk Modulus (GPa) = 22.20108 65.17717 43.68913
# Shear Modulus (GPa) = 23.04239 33.92478 28.48358
#
# Velocity S-wave (km/s) = 3.48462 4.22815 3.87426
# Velocity P-wave (km/s) = 5.28104 7.62775 6.56018
#
# Compressibility (1/GPa) = 0.04504285
#
# Stress axis : x y z
#
# Youngs Moduli (GPa) = 61.93357 23.96079 56.53589
#
# Poissons Ratio (x) = 0.00621 0.74097
# Poissons Ratio (y) = 0.01606 0.10728
# Poissons Ratio (z) = 0.81171 0.04547
#
# Static dielectric constant tensor:
#      x y z
#    x 1.669060 0.000000 0.000000 
#    y 0.000000 1.710090 0.000000 
#    z 0.000000 0.000000 1.649150 
# 
# From -- ./inp_files/25048.got.cif
#   From: 2010.05.17/outbox.cif.g08.bks.cpg/sg51_13_cif.got.tgz:25048.got - 2010.06.03 11:52:47.
