data_PCOD9407059
_publ_section_title
;
Structure prediction by ZEFSAII (Michael W. Deem and Ramdas Pophale) SiO2 
 PCOD9407059
Probable space group: P M M A
;
_chemical_formula_sum "Si O2"
_cell_formula_units_Z 48
_cell_length_a 15.104781
_cell_length_b 7.621729
_cell_length_c 20.464237
_cell_angle_alpha 90.000000
_cell_angle_beta 90.000000
_cell_angle_gamma 90.000000
_cell_volume 2355.936022
_symmetry_space_group_name_H-M "P M M A"
_symmetry_group_IT_number 51
_symmetry_cell_setting 'orthorhombic'
loop_
_space_group_symop_operation_xyz
x,y,z
1/2-x,-y,z
1/2+x,-y,-z
-x,y,-z
-x,-y,-z
1/2+x,y,-z
1/2-x,y,z
x,-y,z
loop_
_atom_site_type_symbol
_atom_site_label
_atom_site_fract_x
_atom_site_fract_y
_atom_site_fract_z
Si Si1 0.354126 0.211042 0.433307
Si Si2 0.442786 0.285886 0.936894
Si Si3 0.495849 0.298707 0.326426
Si Si4 0.439292 0.284656 0.185547
Si Si5 0.750000 0.714109 0.869075
Si Si6 0.250000 0.714322 0.978773
Si Si7 0.651143 0.792075 0.421959
O O1 0.250000 0.248769 0.424620
O O2 0.414202 0.286226 0.376447
O O3 0.378898 0.274465 0.506474
O O4 0.365977 0.000000 0.430384
O O5 0.442487 0.500000 0.937123
O O6 0.492533 0.231057 0.871133
O O7 0.341321 0.228479 0.945185
O O8 0.500000 0.231663 0.000000
O O9 0.516090 0.500000 0.313000
O O10 0.469411 0.219969 0.256630
O O11 0.580877 0.230829 0.365116
O O12 0.437332 0.500000 0.186065
O O13 0.340137 0.228858 0.166086
O O14 0.750000 0.500000 0.869055
O O15 0.750000 0.767327 0.945080
O O16 0.250000 0.500000 0.978269
O O17 0.750000 0.722969 0.407641
O O18 0.659534 0.000000 0.431534
#
# Coordination Sequence:
#
# PCOD9407059 Si02
#       7
#     8   8   8   8   4   4   8
#     4   9  19  36  57  78  98 127 172 218 252 290
#     4   9  14  23  37  55  80 116 166 206 234 281
#     4  11  22  32  47  76 111 141 163 196 255 316
#     4   9  18  28  38  59  95 132 160 192 242 303
#     4   9  14  24  40  56  81 124 169 200 234 287
#     4   9  14  20  38  58  72 110 169 216 240 267
#     4   9  19  38  60  75  92 128 176 218 253 293
#
# _framework density 20.37407
#
# number of rings (size 3 to 8) (size 9 to 14) (size 15 to 20)
#    0.000    2.667    1.667    2.000    1.167    3.333 
#    1.500    1.667    0.000    0.000    0.000    0.000 
#    0.000    2.667    0.000    5.000    0.000    2.667 
#
# Total GULP energy -267857.114994 kJ/mol
# GULP energy per Si atom -5580.356562 kJ/mol
# Density = 2.032770 g / cm^3
# Si number density = 20.374070 Si / 1000 Ang^3
#
#
#
# Elastic Constant Matrix: (Units=GPa)
#
#
# Indices 1 2 3 4 5 6 
#
# 1 139.6496 -2.1243 109.0995 0.0000 0.0000 0.0000
# 2 -2.1243 32.6442 1.4373 0.0000 0.0000 0.0000
# 3 109.0995 1.4373 193.8368 0.0000 0.0000 0.0000
# 4 0.0000 0.0000 0.0000 38.1645 0.0000 0.0000
# 5 0.0000 0.0000 0.0000 0.0000 -77.4368 0.0000
# 6 0.0000 0.0000 0.0000 0.0000 0.0000 15.1767
#
#
#
# Elastic Compliance Matrix: (Units=1/GPa)
#
#
# Indices 1 2 3 4 5 6 
#
# 1 0.012824 0.001153 -0.007226 0.000000 0.000000 0.000000
# 2 0.001153 0.030747 -0.000877 0.000000 0.000000 0.000000
# 3 -0.007226 -0.000877 0.009233 0.000000 0.000000 0.000000
# 4 0.000000 0.000000 0.000000 0.026202 0.000000 0.000000
# 5 0.000000 0.000000 0.000000 0.000000 -0.012914 0.000000
# 6 0.000000 0.000000 0.000000 0.000000 0.000000 0.065891
#
#
# Mechanical properties :
#
#
# Convention : Reuss Voigt Hill
#
# Bulk Modulus (GPa) = 25.70515 64.77282 45.23898
# Shear Modulus (GPa) = 31.47604 12.36209 21.91906
#
# Velocity S-wave (km/s) = 3.93479 2.46591 3.28355
# Velocity P-wave (km/s) = 5.76953 6.32206 6.05210
#
# Compressibility (1/GPa) = 0.03890272
#
# Stress axis : x y z
#
# Youngs Moduli (GPa) = 77.98011 32.52353 108.31006
#
# Poissons Ratio (x) = -0.03749 0.78268
# Poissons Ratio (y) = -0.08989 0.09496
# Poissons Ratio (z) = 0.56351 0.02852
#
# Static dielectric constant tensor:
#      x y z
#    x 1.702810 0.000000 0.000000 
#    y 0.000000 1.766120 0.000000 
#    z 0.000000 0.000000 1.717620 
# 
# From -- ./inp_files/29650.got.cif
#   From: 2010.05.17/outbox.cif.g08.bks.cpg/sg51_15_cif.got.tgz:29650.got - 2010.06.03 11:52:47.
