data_PCOD9407478
_publ_section_title
;
Structure prediction by ZEFSAII (Michael W. Deem and Ramdas Pophale) SiO2 
 PCOD9407478
Probable space group: P M M A
;
_chemical_formula_sum "Si O2"
_cell_formula_units_Z 64
_cell_length_a 18.000000
_cell_length_b 15.000000
_cell_length_c 15.000000
_cell_angle_alpha 90.000000
_cell_angle_beta 90.000000
_cell_angle_gamma 90.000000
_cell_volume 4050.000000
_symmetry_space_group_name_H-M "P M M A"
_symmetry_group_IT_number 51
_symmetry_cell_setting 'orthorhombic'
loop_
_space_group_symop_operation_xyz
x,y,z
1/2-x,-y,z
1/2+x,-y,-z
-x,y,-z
-x,-y,-z
1/2+x,y,-z
1/2-x,y,z
x,-y,z
loop_
_atom_site_type_symbol
_atom_site_label
_atom_site_fract_x
_atom_site_fract_y
_atom_site_fract_z
Si Si1 0.905848 0.206927 0.773121
Si Si2 0.086621 0.395777 0.972717
Si Si3 0.659726 0.777817 0.103715
Si Si4 0.428304 0.106652 0.553613
Si Si5 0.662405 0.896225 0.612426
Si Si6 0.338593 0.898662 0.064732
Si Si7 0.436237 0.889145 0.761473
Si Si8 0.839544 0.394844 0.833196
O O1 0.879947 0.171033 0.677020
O O2 0.858223 0.151784 0.845000
O O3 0.885592 0.312439 0.787087
O O4 0.988894 0.166477 0.786941
O O5 0.090685 0.500000 0.940939
O O6 0.119146 0.318757 0.907605
O O7 0.135608 0.390126 0.063194
O O8 0.000000 0.379008 0.000000
O O9 0.750000 0.767324 0.107235
O O10 0.629054 0.841122 0.182726
O O11 0.637834 0.834897 0.015871
O O12 0.500000 0.142606 0.500000
O O13 0.358527 0.124372 0.489755
O O14 0.424161 0.131259 0.656582
O O15 0.436754 0.000000 0.556384
O O16 0.750000 0.890900 0.627477
O O17 0.638881 0.000000 0.630449
O O18 0.250000 0.905647 0.058349
O O19 0.369122 0.000000 0.061147
O O20 0.440980 0.000000 0.773564
O O21 0.750000 0.379675 0.824472
O O22 0.854000 0.500000 0.805565
#
# Coordination Sequence:
#
# PCOD9407478 Si02
#       8
#     8   8   8   8   8   8   8   8
#     4  12  20  32  52  78 108 137 177 222 269 320
#     4  10  20  36  57  80 104 136 184 238 282 317
#     4  11  23  37  52  76 109 149 189 222 261 316
#     4   9  17  34  53  72 102 138 175 218 269 320
#     4  10  19  30  50  80 108 135 172 219 270 326
#     4  10  20  32  46  68 106 149 180 211 254 307
#     4  11  23  36  55  78 106 147 185 221 267 322
#     4  10  20  34  53  76 105 141 177 218 271 324
#
# _framework density 15.802469
#
# number of rings (size 3 to 8) (size 9 to 14) (size 15 to 20)
#    0.000    1.625    2.500    3.750    0.000    3.000 
#    0.000    2.500    0.000    0.000    0.000    2.625 
#    0.000    0.000    0.000    0.000    0.000    0.000 
#
# Total GULP energy -356482.295051 kJ/mol
# GULP energy per Si atom -5570.035860 kJ/mol
# Density = 1.576650 g / cm^3
# Si number density = 15.802469 Si / 1000 Ang^3
#
#
#
# Elastic Constant Matrix: (Units=GPa)
#
#
# Indices 1 2 3 4 5 6 
#
# 1 55.6566 35.6917 5.3295 0.0000 0.0000 0.0000
# 2 35.6917 125.2025 32.3474 0.0000 0.0000 0.0000
# 3 5.3295 32.3474 63.5547 0.0000 0.0000 0.0000
# 4 0.0000 0.0000 0.0000 14.0148 0.0000 0.0000
# 5 0.0000 0.0000 0.0000 0.0000 25.4873 0.0000
# 6 0.0000 0.0000 0.0000 0.0000 0.0000 26.9733
#
#
#
# Elastic Compliance Matrix: (Units=1/GPa)
#
#
# Indices 1 2 3 4 5 6 
#
# 1 0.022120 -0.006709 0.001560 0.000000 0.000000 0.000000
# 2 -0.006709 0.011231 -0.005154 0.000000 0.000000 0.000000
# 3 0.001560 -0.005154 0.018227 0.000000 0.000000 0.000000
# 4 0.000000 0.000000 0.000000 0.071353 0.000000 0.000000
# 5 0.000000 0.000000 0.000000 0.000000 0.039235 0.000000
# 6 0.000000 0.000000 0.000000 0.000000 0.000000 0.037074
#
#
# Mechanical properties :
#
#
# Convention : Reuss Voigt Hill
#
# Bulk Modulus (GPa) = 32.28688 43.46124 37.87406
# Shear Modulus (GPa) = 21.72310 24.69810 23.21060
#
# Velocity S-wave (km/s) = 3.71167 3.95768 3.83664
# Velocity P-wave (km/s) = 6.23254 6.96037 6.60649
#
# Compressibility (1/GPa) = 0.03097233
#
# Stress axis : x y z
#
# Youngs Moduli (GPa) = 45.20749 89.03882 54.86444
#
# Poissons Ratio (x) = 0.59734 -0.08557
# Poissons Ratio (y) = 0.30329 0.28275
# Poissons Ratio (z) = -0.07051 0.45888
#
# Static dielectric constant tensor:
#      x y z
#    x 1.566320 0.000000 0.000000 
#    y 0.000000 1.539120 0.000000 
#    z 0.000000 0.000000 1.535360 
# 
# From -- ./inp_files/25390.got.cif
#   From: 2010.05.17/outbox.ucp.g08.bks.cvg/sg51_13_cif.got.tgz:25390.got - 2010.06.11 16:27:58.
