data_PCOD9407694
_publ_section_title
;
Structure prediction by ZEFSAII (Michael W. Deem and Ramdas Pophale) SiO2 
 PCOD9407694
Probable space group: P M M A
;
_chemical_formula_sum "Si O2"
_cell_formula_units_Z 64
_cell_length_a 9.000000
_cell_length_b 24.000000
_cell_length_c 15.000000
_cell_angle_alpha 90.000000
_cell_angle_beta 90.000000
_cell_angle_gamma 90.000000
_cell_volume 3240.000000
_symmetry_space_group_name_H-M "P M M A"
_symmetry_group_IT_number 51
_symmetry_cell_setting 'orthorhombic'
loop_
_space_group_symop_operation_xyz
x,y,z
1/2-x,-y,z
1/2+x,-y,-z
-x,y,-z
-x,-y,-z
1/2+x,y,-z
1/2-x,y,z
x,-y,z
loop_
_atom_site_type_symbol
_atom_site_label
_atom_site_fract_x
_atom_site_fract_y
_atom_site_fract_z
Si Si1 0.424646 0.851856 0.595830
Si Si2 0.574514 0.938592 0.726584
Si Si3 0.571156 0.560462 0.224129
Si Si4 0.427929 0.223782 0.906332
Si Si5 0.916338 0.434023 0.585790
Si Si6 0.931655 0.320990 0.221493
Si Si7 0.575746 0.721490 0.405730
Si Si8 0.427404 0.093449 0.905538
O O1 0.500000 0.859723 0.500000
O O2 0.250000 0.864158 0.590473
O O3 0.500792 0.891369 0.667041
O O4 0.439961 0.786694 0.620085
O O5 0.750000 0.928930 0.735322
O O6 0.499808 0.937676 0.823274
O O7 0.551924 0.000000 0.685943
O O8 0.750000 0.559200 0.223397
O O9 0.517749 0.500000 0.189914
O O10 0.514708 0.566309 0.325423
O O11 0.524164 0.619168 0.181295
O O12 0.250000 0.228075 0.912428
O O13 0.481593 0.267663 0.833619
O O14 0.460647 0.159107 0.888181
O O15 0.500000 0.238311 0.000000
O O16 0.750000 0.410922 0.598293
O O17 0.897918 0.500000 0.567236
O O18 0.000000 0.409731 0.500000
O O19 0.750000 0.319284 0.223963
O O20 0.983748 0.313944 0.323222
O O21 0.500000 0.714099 0.500000
O O22 0.750000 0.709683 0.416013
O O23 0.250000 0.085905 0.908824
O O24 0.500000 0.078435 0.000000
#
# Coordination Sequence:
#
# PCOD9407694 Si02
#       8
#     8   8   8   8   8   8   8   8
#     4  10  20  36  58  80 104 138 180 226 275 321
#     4  11  24  39  55  79 111 146 184 222 259 305
#     4   9  17  29  45  65  90 125 167 204 242 294
#     4   9  18  34  56  81 105 130 164 209 261 313
#     4   9  16  26  40  57  80 113 153 197 240 281
#     4   9  17  31  51  73 101 134 166 206 255 306
#     4   9  18  33  52  75 102 133 169 210 259 311
#     4  10  20  36  59  84 110 140 173 212 262 318
#
# _framework density 19.753086
#
# number of rings (size 3 to 8) (size 9 to 14) (size 15 to 20)
#    0.000    2.500    0.000    2.250    0.000    6.500 
#    0.000    3.125    0.000    0.375    0.000    0.000 
#    0.000    0.000    0.000    0.000    0.000    0.000 
#
# Total GULP energy -356874.120007 kJ/mol
# GULP energy per Si atom -5576.158125 kJ/mol
# Density = 1.970813 g / cm^3
# Si number density = 19.753086 Si / 1000 Ang^3
#
#
#
# Elastic Constant Matrix: (Units=GPa)
#
#
# Indices 1 2 3 4 5 6 
#
# 1 28.6718 45.5215 16.9955 0.0000 0.0000 0.0000
# 2 45.5215 75.0350 45.4660 0.0000 0.0000 0.0000
# 3 16.9955 45.4660 44.8049 0.0000 0.0000 0.0000
# 4 0.0000 0.0000 0.0000 -12.0478 0.0000 0.0000
# 5 0.0000 0.0000 0.0000 0.0000 25.8294 0.0000
# 6 0.0000 0.0000 0.0000 0.0000 0.0000 -5.9711
#
#
#
# Elastic Compliance Matrix: (Units=1/GPa)
#
#
# Indices 1 2 3 4 5 6 
#
# 1 -0.183799 0.179837 -0.112771 0.000000 0.000000 0.000000
# 2 0.179837 -0.141356 0.075226 0.000000 0.000000 0.000000
# 3 -0.112771 0.075226 -0.011240 0.000000 0.000000 0.000000
# 4 0.000000 0.000000 0.000000 -0.083003 0.000000 0.000000
# 5 0.000000 0.000000 0.000000 0.000000 0.038716 0.000000
# 6 0.000000 0.000000 0.000000 0.000000 0.000000 -0.167473
#
#
# Mechanical properties :
#
#
# Convention : Reuss Voigt Hill
#
# Bulk Modulus (GPa) = -19.30044 40.49754 10.59855
# Shear Modulus (GPa) = -5.88229 4.26400 -0.80915
#
# Velocity S-wave (km/s) = -1.72753 1.47083 -0.64072
# Velocity P-wave (km/s) = 3.71096 4.84054 2.19768
#
# Compressibility (1/GPa) = -0.05181230
#
# Stress axis : x y z
#
# Youngs Moduli (GPa) = -5.44074 -7.07432 -88.96834
#
# Poissons Ratio (x) = 1.27222 -10.03309
# Poissons Ratio (y) = 0.97845 6.69272
# Poissons Ratio (z) = -0.61356 0.53217
#
# Static dielectric constant tensor:
#      x y z
#    x 1.693690 0.000000 0.000000 
#    y 0.000000 1.767340 0.000000 
#    z 0.000000 0.000000 1.674830 
# 
# From -- ./inp_files/22297.got.cif
#   From: 2010.05.17/outbox.ucp.g08.bks.cvg/sg51_12_cif.got.tgz:22297.got - 2010.06.11 16:27:58.
