data_PCOD9407179
_publ_section_title
;
Structure prediction by ZEFSAII (Michael W. Deem and Ramdas Pophale) SiO2 
 PCOD9407179
Probable space group: P M M A
;
_chemical_formula_sum "Si O2"
_cell_formula_units_Z 32
_cell_length_a 16.239061
_cell_length_b 14.299907
_cell_length_c 6.718122
_cell_angle_alpha 90.000000
_cell_angle_beta 90.000000
_cell_angle_gamma 90.000000
_cell_volume 1560.062553
_symmetry_space_group_name_H-M "P M M A"
_symmetry_group_IT_number 51
_symmetry_cell_setting 'orthorhombic'
loop_
_space_group_symop_operation_xyz
x,y,z
1/2-x,-y,z
1/2+x,-y,-z
-x,y,-z
-x,-y,-z
1/2+x,y,-z
1/2-x,y,z
x,-y,z
loop_
_atom_site_type_symbol
_atom_site_label
_atom_site_fract_x
_atom_site_fract_y
_atom_site_fract_z
Si Si1 0.000000 0.158110 0.000000
Si Si2 0.250000 0.300241 0.475272
Si Si3 0.403625 0.500000 0.948625
Si Si4 0.436376 0.000000 0.302007
Si Si5 0.750000 0.199692 0.921070
Si Si6 0.750000 0.500000 0.743202
Si Si7 0.750000 0.000000 0.781523
Si Si8 0.617500 0.293229 0.196094
O O1 0.961772 0.230540 0.161935
O O2 0.047618 0.087875 0.151758
O O3 0.250000 0.224601 0.306368
O O4 0.250000 0.405229 0.386515
O O5 0.330914 0.282384 0.604996
O O6 0.332989 0.500000 0.120467
O O7 0.500000 0.500000 0.000000
O O8 0.391742 0.403509 0.832333
O O9 0.500000 0.000000 0.500000
O O10 0.336847 0.000000 0.342106
O O11 0.750000 0.089140 0.928779
O O12 0.673521 0.250464 0.021444
#
# Coordination Sequence:
#
# PCOD9407179 Si02
#       8
#     4   4   4   4   4   2   2   8
#     4  11  24  45  68 100 140 177 230 289 348 412
#     4  11  24  40  72  98 131 189 229 279 351 407
#     4  12  23  43  71 100 138 185 226 282 350 407
#     4  11  27  47  71 102 138 182 231 293 348 412
#     4  11  23  44  65  99 130 182 229 288 338 410
#     4  12  22  46  68 100 150 174 240 298 334 414
#     4  12  24  44  72  96 140 174 232 288 352 406
#     4  11  23  43  68  98 141 180 231 282 345 417
#
# _framework density 20.511998999999999
#
# number of rings (size 3 to 8) (size 9 to 14) (size 15 to 20)
#    0.000    0.750    6.250    1.500    3.500    0.000 
#    0.000   10.000    0.000    0.000    0.000    0.000 
#    0.000    0.000    0.000    0.000    0.000    0.000 
#
# Total GULP energy -178270.923114 kJ/mol
# GULP energy per Si atom -5570.966347 kJ/mol
# Density = 2.046531 g / cm^3
# Si number density = 20.511999 Si / 1000 Ang^3
#
#
#
# Elastic Constant Matrix: (Units=GPa)
#
#
# Indices 1 2 3 4 5 6 
#
# 1 81.8506 27.8877 29.6866 0.0000 0.0000 0.0000
# 2 27.8877 169.4780 25.9823 0.0000 0.0000 0.0000
# 3 29.6866 25.9823 77.8239 0.0000 0.0000 0.0000
# 4 0.0000 0.0000 0.0000 9.1660 0.0000 0.0000
# 5 0.0000 0.0000 0.0000 0.0000 60.7607 0.0000
# 6 0.0000 0.0000 0.0000 0.0000 0.0000 30.9771
#
#
#
# Elastic Compliance Matrix: (Units=1/GPa)
#
#
# Indices 1 2 3 4 5 6 
#
# 1 0.014595 -0.001632 -0.005023 0.000000 0.000000 0.000000
# 2 -0.001632 0.006401 -0.001515 0.000000 0.000000 0.000000
# 3 -0.005023 -0.001515 0.015271 0.000000 0.000000 0.000000
# 4 0.000000 0.000000 0.000000 0.109099 0.000000 0.000000
# 5 0.000000 0.000000 0.000000 0.000000 0.016458 0.000000
# 6 0.000000 0.000000 0.000000 0.000000 0.000000 0.032282
#
#
# Mechanical properties :
#
#
# Convention : Reuss Voigt Hill
#
# Bulk Modulus (GPa) = 50.17718 55.14062 52.65890
# Shear Modulus (GPa) = 23.03225 36.55382 29.79304
#
# Velocity S-wave (km/s) = 3.35456 4.22604 3.81526
# Velocity P-wave (km/s) = 6.28646 7.12411 6.71835
#
# Compressibility (1/GPa) = 0.01992938
#
# Stress axis : x y z
#
# Youngs Moduli (GPa) = 68.51674 156.22148 65.48294
#
# Poissons Ratio (x) = 0.25489 0.32890
# Poissons Ratio (y) = 0.11179 0.09919
# Poissons Ratio (z) = 0.34414 0.23663
#
# Static dielectric constant tensor:
#      x y z
#    x 1.811340 0.000000 0.000000 
#    y 0.000000 1.684250 0.000000 
#    z 0.000000 0.000000 1.699000 
# 
# From -- ./inp_files/1889.got.cif
#   From: 2010.05.17/outbox.cif.g08.bks.cpg/sg51_1_cif.got.tgz:1889.got - 2010.06.03 11:52:47.
