data_PCOD9407877
_publ_section_title
;
Structure prediction by ZEFSAII (Michael W. Deem and Ramdas Pophale) SiO2 
 PCOD9407877
Probable space group: P N N A
;
_chemical_formula_sum "Si O2"
_cell_formula_units_Z 32
_cell_length_a 5.307557
_cell_length_b 7.094309
_cell_length_c 35.228569
_cell_angle_alpha 90.000000
_cell_angle_beta 90.000000
_cell_angle_gamma 90.000000
_cell_volume 1326.477140
_symmetry_space_group_name_H-M "P N N A"
_symmetry_group_IT_number 52
_symmetry_cell_setting 'orthorhombic'
loop_
_space_group_symop_operation_xyz
x,y,z
1/2-x,-y,z
x,1/2-y,1/2-z
1/2-x,1/2+y,1/2-z
-x,-y,-z
1/2+x,y,-z
-x,1/2+y,1/2+z
1/2+x,1/2-y,1/2+z
loop_
_atom_site_type_symbol
_atom_site_label
_atom_site_fract_x
_atom_site_fract_y
_atom_site_fract_z
Si Si1 0.797565 0.225883 0.365068
Si Si2 0.521307 0.715489 0.984290
Si Si3 0.499545 0.875829 0.286457
Si Si4 0.704827 0.719904 0.898146
O O1 0.918100 0.243167 0.323461
O O2 0.515960 0.301176 0.371447
O O3 0.012457 0.296975 0.393818
O O4 0.750000 0.000000 0.370786
O O5 0.602001 0.723574 0.940754
O O6 0.500000 0.500000 0.000000
O O7 0.248249 0.798212 0.991407
O O8 0.443261 0.750000 0.250000
O O9 0.750000 0.000000 0.278374
O O10 0.250000 0.000000 0.294944
O O11 0.750000 0.500000 0.888208
#
# Coordination Sequence:
#
# PCOD9407877 Si02
#       4
#     8   8   8   8
#     4   9  18  28  43  64  87 123 167 212 251 304
#     4  10  17  22  29  48  75 113 164 204 234 281
#     4  11  22  39  58  83 110 141 183 232 275 336
#     4  10  16  24  37  53  83 119 163 217 236 292
#
# _framework density 24.124048999999999
#
# number of rings (size 3 to 8) (size 9 to 14) (size 15 to 20)
#    0.000    2.000    2.500    6.000    7.000    0.000 
#    0.000    0.000    0.000    0.000    0.000    0.000 
#    0.000    0.000    0.000    0.000    0.000   87.500 
#
# Total GULP energy -178704.933789 kJ/mol
# GULP energy per Si atom -5584.529181 kJ/mol
# Density = 2.406914 g / cm^3
# Si number density = 24.124049 Si / 1000 Ang^3
#
#
#
# Elastic Constant Matrix: (Units=GPa)
#
#
# Indices 1 2 3 4 5 6 
#
# 1 188.0187 5.0297 70.7802 0.0000 0.0000 0.0000
# 2 5.0297 78.6982 6.9663 0.0000 0.0000 0.0000
# 3 70.7802 6.9663 155.7749 0.0000 0.0000 0.0000
# 4 0.0000 0.0000 0.0000 -11.4030 0.0000 0.0000
# 5 0.0000 0.0000 0.0000 0.0000 46.0193 0.0000
# 6 0.0000 0.0000 0.0000 0.0000 0.0000 -26.3555
#
#
#
# Elastic Compliance Matrix: (Units=1/GPa)
#
#
# Indices 1 2 3 4 5 6 
#
# 1 0.006418 -0.000153 -0.002909 0.000000 0.000000 0.000000
# 2 -0.000153 0.012761 -0.000501 0.000000 0.000000 0.000000
# 3 -0.002909 -0.000501 0.007764 0.000000 0.000000 0.000000
# 4 0.000000 0.000000 0.000000 -0.087696 0.000000 0.000000
# 5 0.000000 0.000000 0.000000 0.000000 0.021730 0.000000
# 6 0.000000 0.000000 0.000000 0.000000 0.000000 -0.037943
#
#
# Mechanical properties :
#
#
# Convention : Reuss Voigt Hill
#
# Bulk Modulus (GPa) = 50.46395 65.33825 57.90110
# Shear Modulus (GPa) = -79.07113 24.29987 -27.38563
#
# Velocity S-wave (km/s) = -5.73132 3.17722 -3.37293
# Velocity P-wave (km/s) = 4.77844 6.37203 2.98071
#
# Compressibility (1/GPa) = 0.01981613
#
# Stress axis : x y z
#
# Youngs Moduli (GPa) = 155.81361 78.36436 128.80191
#
# Poissons Ratio (x) = 0.01196 0.37473
# Poissons Ratio (y) = 0.02378 0.06457
# Poissons Ratio (z) = 0.45331 0.03929
#
# Static dielectric constant tensor:
#      x y z
#    x 1.969090 0.000000 0.000000 
#    y 0.000000 1.932160 0.000000 
#    z 0.000000 0.000000 1.916670 
# 
# From -- ./inp_files/43462.got.cif
#   From: 2010.05.17/outbox.cif.g08.bks.cpg/sg52_22_cif.got.tgz:43462.got - 2010.06.03 12:15:38.
