data_PCOD9407606
_publ_section_title
;
Structure prediction by ZEFSAII (Michael W. Deem and Ramdas Pophale) SiO2 
 PCOD9407606
Probable space group: P M M A
;
_chemical_formula_sum "Si O2"
_cell_formula_units_Z 64
_cell_length_a 15.000000
_cell_length_b 9.000000
_cell_length_c 24.000000
_cell_angle_alpha 90.000000
_cell_angle_beta 90.000000
_cell_angle_gamma 90.000000
_cell_volume 3240.000000
_symmetry_space_group_name_H-M "P M M A"
_symmetry_group_IT_number 51
_symmetry_cell_setting 'orthorhombic'
loop_
_space_group_symop_operation_xyz
x,y,z
1/2-x,-y,z
1/2+x,-y,-z
-x,y,-z
-x,-y,-z
1/2+x,y,-z
1/2-x,y,z
x,-y,z
loop_
_atom_site_type_symbol
_atom_site_label
_atom_site_fract_x
_atom_site_fract_y
_atom_site_fract_z
Si Si1 0.355051 0.175080 0.534124
Si Si2 0.352206 0.332478 0.976797
Si Si3 0.037569 0.320857 0.757211
Si Si4 0.401916 0.832602 0.085307
Si Si5 0.398021 0.831104 0.866434
Si Si6 0.645642 0.677508 0.584607
Si Si7 0.345594 0.678174 0.195010
Si Si8 0.978624 0.821755 0.359943
O O1 0.250000 0.193757 0.547239
O O2 0.374434 0.268231 0.478485
O O3 0.415395 0.213978 0.587113
O O4 0.370087 0.000000 0.521320
O O5 0.250000 0.338512 0.996246
O O6 0.387868 0.500000 0.972243
O O7 0.351782 0.257856 0.916180
O O8 0.401324 0.241134 0.024807
O O9 0.044313 0.500000 0.756909
O O10 0.096606 0.252901 0.807364
O O11 0.056415 0.252822 0.696768
O O12 0.934747 0.277068 0.772234
O O13 0.501315 0.838843 0.109767
O O14 0.351124 0.739336 0.132245
O O15 0.366553 0.000000 0.081059
O O16 0.365021 0.000000 0.860140
O O17 0.750000 0.713656 0.595573
O O18 0.635199 0.500000 0.588961
O O19 0.576174 0.757958 0.625106
O O20 0.250000 0.724593 0.219849
O O21 0.347753 0.500000 0.192789
O O22 0.981253 0.000000 0.353812
#
# Coordination Sequence:
#
# PCOD9407606 Si02
#       8
#     8   8   8   8   8   8   8   8
#     4   9  19  37  59  83 113 148 186 229 278 330
#     4  11  23  36  52  77 106 134 168 212 263 320
#     4  10  21  37  56  77 105 143 184 226 269 316
#     4  10  20  33  52  79 106 132 167 210 258 317
#     4  10  21  38  57  76 101 135 175 218 264 316
#     4  10  21  36  56  85 120 154 186 223 272 330
#     4   9  18  33  52  74 102 137 175 215 263 319
#     4  11  22  36  57  84 113 148 190 234 278 327
#
# _framework density 19.753086
#
# number of rings (size 3 to 8) (size 9 to 14) (size 15 to 20)
#    0.000    2.000    0.000    3.375    0.000   10.000 
#    0.000    1.875    0.000    2.250    0.000    0.000 
#    0.000    0.000    0.000    0.000    0.000    0.000 
#
# Total GULP energy -357340.962230 kJ/mol
# GULP energy per Si atom -5583.452535 kJ/mol
# Density = 1.970813 g / cm^3
# Si number density = 19.753086 Si / 1000 Ang^3
#
#
#
# Elastic Constant Matrix: (Units=GPa)
#
#
# Indices 1 2 3 4 5 6 
#
# 1 28.7069 4.9155 1.7261 0.0000 0.0000 0.0000
# 2 4.9155 57.9646 32.9654 0.0000 0.0000 0.0000
# 3 1.7261 32.9654 96.7008 0.0000 0.0000 0.0000
# 4 0.0000 0.0000 0.0000 36.3086 0.0000 0.0000
# 5 0.0000 0.0000 0.0000 0.0000 16.9584 0.0000
# 6 0.0000 0.0000 0.0000 0.0000 0.0000 2.2967
#
#
#
# Elastic Compliance Matrix: (Units=1/GPa)
#
#
# Indices 1 2 3 4 5 6 
#
# 1 0.035366 -0.003275 0.000485 0.000000 0.000000 0.000000
# 2 -0.003275 0.021704 -0.007341 0.000000 0.000000 0.000000
# 3 0.000485 -0.007341 0.012835 0.000000 0.000000 0.000000
# 4 0.000000 0.000000 0.000000 0.027542 0.000000 0.000000
# 5 0.000000 0.000000 0.000000 0.000000 0.058968 0.000000
# 6 0.000000 0.000000 0.000000 0.000000 0.000000 0.435416
#
#
# Mechanical properties :
#
#
# Convention : Reuss Voigt Hill
#
# Bulk Modulus (GPa) = 20.14311 29.17626 24.65968
# Shear Modulus (GPa) = 7.95367 20.69709 14.32538
#
# Velocity S-wave (km/s) = 2.00880 3.24047 2.69592
# Velocity P-wave (km/s) = 3.94968 5.36688 4.71187
#
# Compressibility (1/GPa) = 0.04964477
#
# Stress axis : x y z
#
# Youngs Moduli (GPa) = 28.27542 46.07377 77.91247
#
# Poissons Ratio (x) = 0.15089 -0.03780
# Poissons Ratio (y) = 0.09260 0.57192
# Poissons Ratio (z) = -0.01372 0.33821
#
# Static dielectric constant tensor:
#      x y z
#    x 1.745780 0.000000 0.000000 
#    y 0.000000 1.685000 0.000000 
#    z 0.000000 0.000000 1.652880 
# 
# From -- ./inp_files/35697.got.cif
#   From: 2010.05.17/outbox.ucp.g08.bks.cvg/sg51_18_cif.got.tgz:35697.got - 2010.06.11 16:27:58.
