data_PCOD9407508
_publ_section_title
;
Structure prediction by ZEFSAII (Michael W. Deem and Ramdas Pophale) SiO2 
 PCOD9407508
Probable space group: P M M A
;
_chemical_formula_sum "Si O2"
_cell_formula_units_Z 64
_cell_length_a 9.000000
_cell_length_b 21.000000
_cell_length_c 18.000000
_cell_angle_alpha 90.000000
_cell_angle_beta 90.000000
_cell_angle_gamma 90.000000
_cell_volume 3402.000000
_symmetry_space_group_name_H-M "P M M A"
_symmetry_group_IT_number 51
_symmetry_cell_setting 'orthorhombic'
loop_
_space_group_symop_operation_xyz
x,y,z
1/2-x,-y,z
1/2+x,-y,-z
-x,y,-z
-x,-y,-z
1/2+x,y,-z
1/2-x,y,z
x,-y,z
loop_
_atom_site_type_symbol
_atom_site_label
_atom_site_fract_x
_atom_site_fract_y
_atom_site_fract_z
Si Si1 0.426627 0.871832 0.572137
Si Si2 0.071788 0.404365 0.576618
Si Si3 0.916504 0.924799 0.713945
Si Si4 0.069702 0.700038 0.785416
Si Si5 0.071432 0.211085 0.924660
Si Si6 0.428615 0.737484 0.621656
Si Si7 0.929169 0.927566 0.128038
Si Si8 0.927482 0.429097 0.735597
O O1 0.500000 0.902283 0.500000
O O2 0.250000 0.873414 0.564677
O O3 0.478628 0.902141 0.648427
O O4 0.485469 0.799418 0.580622
O O5 0.250000 0.414377 0.577032
O O6 0.038761 0.328852 0.582560
O O7 0.000000 0.427986 0.500000
O O8 0.000161 0.428990 0.653125
O O9 0.750000 0.896424 0.711331
O O10 0.995476 0.915801 0.792577
O O11 0.901412 0.000000 0.705086
O O12 0.250000 0.693721 0.784795
O O13 0.027941 0.745347 0.854075
O O14 0.023362 0.732913 0.707527
O O15 0.999163 0.629467 0.781071
O O16 0.250000 0.213274 0.929029
O O17 0.028976 0.136275 0.916347
O O18 0.000000 0.236171 0.000000
O O19 0.250000 0.743312 0.623675
O O20 0.750000 0.927572 0.134983
O O21 0.971660 0.000000 0.102489
O O22 0.750000 0.419426 0.728905
O O23 0.953199 0.500000 0.767595
#
# Coordination Sequence:
#
# PCOD9407508 Si02
#       8
#     8   8   8   8   8   8   8   8
#     4  11  21  33  49  69  96 129 168 216 268 318
#     4  10  19  32  50  73 105 142 178 217 263 314
#     4  10  21  36  52  71  95 125 167 217 265 314
#     4   9  18  35  57  79 106 140 177 217 261 313
#     4  10  21  36  56  85 118 148 178 214 257 308
#     4   8  16  31  51  73  96 127 168 212 256 305
#     4   9  18  35  58  81 108 145 183 215 253 305
#     4  10  21  36  54  78 106 137 178 226 273 322
#
# _framework density 18.812463000000001
#
# number of rings (size 3 to 8) (size 9 to 14) (size 15 to 20)
#    0.000    2.375    0.000    3.375    0.000    5.500 
#    0.000    8.125    0.000    0.375    0.000    0.000 
#    0.000    0.000    0.000    0.000    0.000    0.000 
#
# Total GULP energy -356756.281062 kJ/mol
# GULP energy per Si atom -5574.316892 kJ/mol
# Density = 1.876965 g / cm^3
# Si number density = 18.812463 Si / 1000 Ang^3
#
#
#
# Elastic Constant Matrix: (Units=GPa)
#
#
# Indices 1 2 3 4 5 6 
#
# 1 31.6350 25.3880 34.1653 0.0000 0.0000 0.0000
# 2 25.3880 55.9064 73.0283 0.0000 0.0000 0.0000
# 3 34.1653 73.0283 98.3225 0.0000 0.0000 0.0000
# 4 0.0000 0.0000 0.0000 -198.4875 0.0000 0.0000
# 5 0.0000 0.0000 0.0000 0.0000 229.3415 0.0000
# 6 0.0000 0.0000 0.0000 0.0000 0.0000 17.3581
#
#
#
# Elastic Compliance Matrix: (Units=1/GPa)
#
#
# Indices 1 2 3 4 5 6 
#
# 1 0.050600 -0.000364 -0.017312 0.000000 0.000000 0.000000
# 2 -0.000364 0.600567 -0.445941 0.000000 0.000000 0.000000
# 3 -0.017312 -0.445941 0.347406 0.000000 0.000000 0.000000
# 4 0.000000 0.000000 0.000000 -0.005038 0.000000 0.000000
# 5 0.000000 0.000000 0.000000 0.000000 0.004360 0.000000
# 6 0.000000 0.000000 0.000000 0.000000 0.000000 0.057610
#
#
# Mechanical properties :
#
#
# Convention : Reuss Voigt Hill
#
# Bulk Modulus (GPa) = 14.01758 50.11413 32.06586
# Shear Modulus (GPa) = 2.49188 13.19457 7.84322
#
# Velocity S-wave (km/s) = 1.15216 2.65122 2.04407
# Velocity P-wave (km/s) = 3.03930 6.00571 4.75951
#
# Compressibility (1/GPa) = 0.07133897
#
# Stress axis : x y z
#
# Youngs Moduli (GPa) = 19.76304 1.66509 2.87848
#
# Poissons Ratio (x) = 0.00061 0.04983
# Poissons Ratio (y) = 0.00719 1.28363
# Poissons Ratio (z) = 0.34215 0.74253
#
# Static dielectric constant tensor:
#      x y z
#    x 1.636570 0.000000 0.000000 
#    y 0.000000 1.711240 0.000000 
#    z 0.000000 0.000000 1.599280 
# 
# From -- ./inp_files/28488.got.cif
#   From: 2010.05.17/outbox.ucp.g08.bks.cvg/sg51_15_cif.got.tgz:28488.got - 2010.06.11 16:27:58.
