data_PCOD9407070
_publ_section_title
;
Structure prediction by ZEFSAII (Michael W. Deem and Ramdas Pophale) SiO2 
 PCOD9407070
Probable space group: P M M A
;
_chemical_formula_sum "Si O2"
_cell_formula_units_Z 48
_cell_length_a 31.340786
_cell_length_b 8.324660
_cell_length_c 9.802758
_cell_angle_alpha 90.000000
_cell_angle_beta 90.000000
_cell_angle_gamma 90.000000
_cell_volume 2557.553164
_symmetry_space_group_name_H-M "P M M A"
_symmetry_group_IT_number 51
_symmetry_cell_setting 'orthorhombic'
loop_
_space_group_symop_operation_xyz
x,y,z
1/2-x,-y,z
1/2+x,-y,-z
-x,y,-z
-x,-y,-z
1/2+x,y,-z
1/2-x,y,z
x,-y,z
loop_
_atom_site_type_symbol
_atom_site_label
_atom_site_fract_x
_atom_site_fract_y
_atom_site_fract_z
Si Si1 0.625072 0.808437 0.656074
Si Si2 0.298931 0.806050 0.840588
Si Si3 0.048446 0.694009 0.157879
Si Si4 0.450992 0.695914 0.846444
Si Si5 0.701362 0.196001 0.847648
Si Si6 0.624846 0.691505 0.346768
O O1 0.582568 0.757032 0.735590
O O2 0.666035 0.746421 0.741411
O O3 0.625138 0.751723 0.500915
O O4 0.627461 0.000000 0.656597
O O5 0.250000 0.758109 0.811299
O O6 0.332719 0.739897 0.734417
O O7 0.300488 0.000000 0.836901
O O8 0.308928 0.755493 0.996551
O O9 0.049343 0.500000 0.160804
O O10 0.999577 0.744586 0.186241
O O11 0.058928 0.745122 0.002313
O O12 0.450639 0.500000 0.845924
O O13 0.415815 0.753628 0.739865
O O14 0.750000 0.246130 0.816356
O O15 0.701269 0.000000 0.846459
O O16 0.621866 0.500000 0.349710
#
# Coordination Sequence:
#
# PCOD9407070 Si02
#       6
#     8   8   8   8   8   8
#     4  11  22  34  50  77 109 139 173 213 258 306
#     4   9  18  35  58  80 101 129 167 211 259 307
#     4   9  17  35  59  78  98 130 174 218 263 314
#     4   8  17  34  57  79  99 131 174 217 261 313
#     4   8  16  33  56  77  98 130 171 210 250 301
#     4  11  22  35  51  75 107 140 173 209 253 305
#
# _framework density 18.767935999999999
#
# number of rings (size 3 to 8) (size 9 to 14) (size 15 to 20)
#    0.000    2.667    0.000    4.000    0.000    1.667 
#    0.000   10.000    0.000    3.500    0.000    0.000 
#    0.000    0.000    0.000    0.000    0.000    0.000 
#
# Total GULP energy -267831.649204 kJ/mol
# GULP energy per Si atom -5579.826025 kJ/mol
# Density = 1.872522 g / cm^3
# Si number density = 18.767936 Si / 1000 Ang^3
#
#
#
# Elastic Constant Matrix: (Units=GPa)
#
#
# Indices 1 2 3 4 5 6 
#
# 1 157.6066 25.1717 144.9368 0.0000 0.0000 0.0000
# 2 25.1717 18.2246 28.2410 0.0000 0.0000 0.0000
# 3 144.9368 28.2410 189.7578 0.0000 0.0000 0.0000
# 4 0.0000 0.0000 0.0000 26.3643 0.0000 0.0000
# 5 0.0000 0.0000 0.0000 0.0000 -6.8178 0.0000
# 6 0.0000 0.0000 0.0000 0.0000 0.0000 27.8195
#
#
#
# Elastic Compliance Matrix: (Units=1/GPa)
#
#
# Indices 1 2 3 4 5 6 
#
# 1 0.021749 -0.005586 -0.015781 0.000000 0.000000 0.000000
# 2 -0.005586 0.072753 -0.006561 0.000000 0.000000 0.000000
# 3 -0.015781 -0.006561 0.018300 0.000000 0.000000 0.000000
# 4 0.000000 0.000000 0.000000 0.037930 0.000000 0.000000
# 5 0.000000 0.000000 0.000000 0.000000 -0.146676 0.000000
# 6 0.000000 0.000000 0.000000 0.000000 0.000000 0.035946
#
#
# Mechanical properties :
#
#
# Convention : Reuss Voigt Hill
#
# Bulk Modulus (GPa) = 17.56025 84.69865 51.12945
# Shear Modulus (GPa) = 43.53897 20.62250 32.08073
#
# Velocity S-wave (km/s) = 4.82172 3.31844 4.13890
# Velocity P-wave (km/s) = 6.35417 7.74016 7.08116
#
# Compressibility (1/GPa) = 0.05694679
#
# Stress axis : x y z
#
# Youngs Moduli (GPa) = 45.97913 13.74506 54.64626
#
# Poissons Ratio (x) = 0.07678 0.86235
# Poissons Ratio (y) = 0.25683 0.35854
# Poissons Ratio (z) = 0.72558 0.09018
#
# Static dielectric constant tensor:
#      x y z
#    x 1.647820 0.000000 0.000000 
#    y 0.000000 1.661650 0.000000 
#    z 0.000000 0.000000 1.628200 
# 
# From -- ./inp_files/12790.got.cif
#   From: 2010.05.17/outbox.cif.g08.bks.cpg/sg51_7_cif.got.tgz:12790.got - 2010.06.03 11:52:47.
