data_PCOD9407516
_publ_section_title
;
Structure prediction by ZEFSAII (Michael W. Deem and Ramdas Pophale) SiO2 
 PCOD9407516
Probable space group: P M M A
;
_chemical_formula_sum "Si O2"
_cell_formula_units_Z 64
_cell_length_a 15.000000
_cell_length_b 9.000000
_cell_length_c 24.000000
_cell_angle_alpha 90.000000
_cell_angle_beta 90.000000
_cell_angle_gamma 90.000000
_cell_volume 3240.000000
_symmetry_space_group_name_H-M "P M M A"
_symmetry_group_IT_number 51
_symmetry_cell_setting 'orthorhombic'
loop_
_space_group_symop_operation_xyz
x,y,z
1/2-x,-y,z
1/2+x,-y,-z
-x,y,-z
-x,-y,-z
1/2+x,y,-z
1/2-x,y,z
x,-y,z
loop_
_atom_site_type_symbol
_atom_site_label
_atom_site_fract_x
_atom_site_fract_y
_atom_site_fract_z
Si Si1 0.348828 0.329274 0.204489
Si Si2 0.153482 0.678530 0.748385
Si Si3 0.147520 0.828345 0.986198
Si Si4 0.090291 0.171177 0.100502
Si Si5 0.964682 0.178924 0.582508
Si Si6 0.028463 0.679711 0.302896
Si Si7 0.147588 0.819621 0.526198
Si Si8 0.386718 0.172205 0.865241
O O1 0.250000 0.324712 0.228575
O O2 0.374843 0.500000 0.194780
O O3 0.350129 0.252065 0.145196
O O4 0.416254 0.265960 0.249547
O O5 0.250000 0.725095 0.726915
O O6 0.150327 0.500000 0.751910
O O7 0.140820 0.741276 0.810440
O O8 0.073005 0.725548 0.709175
O O9 0.250000 0.830309 0.004736
O O10 0.145521 0.762685 0.924404
O O11 0.115896 0.000000 0.977529
O O12 0.092928 0.764601 0.037991
O O13 0.992625 0.174858 0.126783
O O14 0.118270 0.000000 0.095018
O O15 0.938389 0.250518 0.640436
O O16 0.894549 0.219489 0.534074
O O17 0.066442 0.227116 0.567063
O O18 0.965364 0.000000 0.585693
O O19 0.034528 0.500000 0.305424
O O20 0.250000 0.767016 0.534601
O O21 0.150605 0.000000 0.528789
O O22 0.357037 0.000000 0.859849
#
# Coordination Sequence:
#
# PCOD9407516 Si02
#       8
#     8   8   8   8   8   8   8   8
#     4  10  21  37  55  73  98 137 179 216 261 315
#     4  10  21  37  55  73  98 137 179 216 261 315
#     4   9  17  29  46  71 102 131 160 203 263 322
#     4  10  19  32  52  76 101 130 167 212 263 319
#     4   9  18  32  54  82 107 137 179 214 244 297
#     4  10  21  37  53  73 107 142 172 214 265 306
#     4   8  15  31  54  80 112 144 170 206 256 298
#     4  10  19  32  52  76 101 130 167 212 263 319
#
# _framework density 19.753086
#
# number of rings (size 3 to 8) (size 9 to 14) (size 15 to 20)
#    0.000    2.500    1.250    1.875    0.000    5.000 
#    0.000    1.875    0.000    4.500    0.000    0.000 
#    0.000    0.000    0.000    0.000    0.000    0.000 
#
# Total GULP energy -356477.932596 kJ/mol
# GULP energy per Si atom -5569.967697 kJ/mol
# Density = 1.970813 g / cm^3
# Si number density = 19.753086 Si / 1000 Ang^3
#
#
#
# Elastic Constant Matrix: (Units=GPa)
#
#
# Indices 1 2 3 4 5 6 
#
# 1 47.3355 7.3804 -5.7952 0.0000 0.0000 0.0000
# 2 7.3804 -3.8367 5.4004 0.0000 0.0000 0.0000
# 3 -5.7952 5.4004 62.1005 0.0000 0.0000 0.0000
# 4 0.0000 0.0000 0.0000 41.9173 0.0000 0.0000
# 5 0.0000 0.0000 0.0000 0.0000 32.6307 0.0000
# 6 0.0000 0.0000 0.0000 0.0000 0.0000 12.9891
#
#
#
# Elastic Compliance Matrix: (Units=1/GPa)
#
#
# Indices 1 2 3 4 5 6 
#
# 1 0.016332 0.029902 -0.001076 0.000000 0.000000 0.000000
# 2 0.029902 -0.177471 0.018224 0.000000 0.000000 0.000000
# 3 -0.001076 0.018224 0.014418 0.000000 0.000000 0.000000
# 4 0.000000 0.000000 0.000000 0.023856 0.000000 0.000000
# 5 0.000000 0.000000 0.000000 0.000000 0.030646 0.000000
# 6 0.000000 0.000000 0.000000 0.000000 0.000000 0.076987
#
#
# Mechanical properties :
#
#
# Convention : Reuss Voigt Hill
#
# Bulk Modulus (GPa) = -19.00301 13.28561 -2.85870
# Shear Modulus (GPa) = -39.41003 24.08168 -7.66417
#
# Velocity S-wave (km/s) = -4.47154 3.49540 -1.97191
# Velocity P-wave (km/s) = 6.02500 4.79905 2.57583
#
# Compressibility (1/GPa) = -0.05262324
#
# Stress axis : x y z
#
# Youngs Moduli (GPa) = 61.22999 -5.63472 69.35910
#
# Poissons Ratio (x) = 0.16849 0.07465
# Poissons Ratio (y) = -1.83089 -1.26398
# Poissons Ratio (z) = 0.06590 0.10269
#
# Static dielectric constant tensor:
#      x y z
#    x 1.767780 0.000000 0.000000 
#    y 0.000000 1.677190 0.000000 
#    z 0.000000 0.000000 1.682690 
# 
# From -- ./inp_files/35836.got.cif
#   From: 2010.05.17/outbox.ucp.g08.bks.cvg/sg51_18_cif.got.tgz:35836.got - 2010.06.11 16:27:58.
