data_PCOD9407933
_publ_section_title
;
Structure prediction by ZEFSAII (Michael W. Deem and Ramdas Pophale) SiO2 
 PCOD9407933
Probable space group: P N N A
;
_chemical_formula_sum "Si O2"
_cell_formula_units_Z 40
_cell_length_a 8.074794
_cell_length_b 22.407617
_cell_length_c 10.456039
_cell_angle_alpha 90.000000
_cell_angle_beta 90.000000
_cell_angle_gamma 90.000000
_cell_volume 1891.883192
_symmetry_space_group_name_H-M "P N N A"
_symmetry_group_IT_number 52
_symmetry_cell_setting 'orthorhombic'
loop_
_space_group_symop_operation_xyz
x,y,z
1/2-x,-y,z
x,1/2-y,1/2-z
1/2-x,1/2+y,1/2-z
-x,-y,-z
1/2+x,y,-z
-x,1/2+y,1/2+z
1/2+x,1/2-y,1/2+z
loop_
_atom_site_type_symbol
_atom_site_label
_atom_site_fract_x
_atom_site_fract_y
_atom_site_fract_z
Si Si1 0.980496 0.197853 0.352442
Si Si2 0.560351 0.479488 0.359177
Si Si3 0.074653 0.406629 0.307524
Si Si4 0.273582 0.628795 0.561719
Si Si5 0.122730 0.262109 0.884335
O O1 0.025853 0.250000 0.250000
O O2 0.022031 0.212944 0.497927
O O3 0.076301 0.138431 0.309964
O O4 0.779991 0.196286 0.348711
O O5 0.750000 0.500000 0.341779
O O6 0.500000 0.500000 0.500000
O O7 0.448809 0.523533 0.273983
O O8 0.586623 0.408613 0.359736
O O9 0.905177 0.385024 0.379522
O O10 0.211951 0.395560 0.416181
O O11 0.307400 0.698556 0.566796
O O12 0.030956 0.250000 0.750000
#
# Coordination Sequence:
#
# PCOD9407933 Si02
#       5
#     8   8   8   8   8
#     4  11  21  36  53  75 108 139 171 215 261 316
#     4   8  16  26  48  76  99 132 166 212 260 299
#     4  10  18  33  51  77 108 135 170 215 263 310
#     4  10  16  31  52  77 106 133 169 217 257 307
#     4  11  21  35  52  77 107 138 174 210 260 316
#
# _framework density 21.142952000000001
#
# number of rings (size 3 to 8) (size 9 to 14) (size 15 to 20)
#    0.000    2.000    6.000    0.000    0.000    0.800 
#    3.600    0.000    0.000    1.200    0.000    0.000 
#    0.000    0.000    0.000    0.000    0.000    0.000 
#
# Total GULP energy -222899.708362 kJ/mol
# GULP energy per Si atom -5572.492709 kJ/mol
# Density = 2.109483 g / cm^3
# Si number density = 21.142952 Si / 1000 Ang^3
#
#
#
# Elastic Constant Matrix: (Units=GPa)
#
#
# Indices 1 2 3 4 5 6 
#
# 1 45.4244 -0.0746 15.0768 0.0000 0.0000 0.0000
# 2 -0.0746 43.0484 -3.8155 0.0000 0.0000 0.0000
# 3 15.0768 -3.8155 109.4816 0.0000 0.0000 0.0000
# 4 0.0000 0.0000 0.0000 28.4229 0.0000 0.0000
# 5 0.0000 0.0000 0.0000 0.0000 26.3758 0.0000
# 6 0.0000 0.0000 0.0000 0.0000 0.0000 11.5423
#
#
#
# Elastic Compliance Matrix: (Units=1/GPa)
#
#
# Indices 1 2 3 4 5 6 
#
# 1 0.023072 -0.000242 -0.003186 0.000000 0.000000 0.000000
# 2 -0.000242 0.023304 0.000846 0.000000 0.000000 0.000000
# 3 -0.003186 0.000846 0.009602 0.000000 0.000000 0.000000
# 4 0.000000 0.000000 0.000000 0.035183 0.000000 0.000000
# 5 0.000000 0.000000 0.000000 0.000000 0.037914 0.000000
# 6 0.000000 0.000000 0.000000 0.000000 0.000000 0.086638
#
#
# Mechanical properties :
#
#
# Convention : Reuss Voigt Hill
#
# Bulk Modulus (GPa) = 19.68004 24.48088 22.08046
# Shear Modulus (GPa) = 21.02477 25.71937 23.37207
#
# Velocity S-wave (km/s) = 3.15685 3.49155 3.32841
# Velocity P-wave (km/s) = 4.75562 5.27811 5.02366
#
# Compressibility (1/GPa) = 0.05081291
#
# Stress axis : x y z
#
# Youngs Moduli (GPa) = 43.34342 42.91072 104.14365
#
# Poissons Ratio (x) = 0.01040 0.33177
# Poissons Ratio (y) = 0.01050 -0.08806
# Poissons Ratio (z) = 0.13808 -0.03628
#
# Static dielectric constant tensor:
#      x y z
#    x 1.825040 0.000000 0.000000 
#    y 0.000000 1.891350 0.000000 
#    z 0.000000 0.000000 1.794640 
# 
# From -- ./inp_files/7400.got.cif
#   From: 2010.05.17/outbox.cif.g08.bks.cpg/sg52_4_cif.got.tgz:7400.got - 2010.06.03 12:15:38.
