data_PCOD9407344
_publ_section_title
;
Structure prediction by ZEFSAII (Michael W. Deem and Ramdas Pophale) SiO2 
 PCOD9407344
Probable space group: P M M A
;
_chemical_formula_sum "Si O2"
_cell_formula_units_Z 36
_cell_length_a 7.411614
_cell_length_b 16.493719
_cell_length_c 14.598434
_cell_angle_alpha 90.000000
_cell_angle_beta 90.000000
_cell_angle_gamma 90.000000
_cell_volume 1784.586713
_symmetry_space_group_name_H-M "P M M A"
_symmetry_group_IT_number 51
_symmetry_cell_setting 'orthorhombic'
loop_
_space_group_symop_operation_xyz
x,y,z
1/2-x,-y,z
1/2+x,-y,-z
-x,y,-z
-x,-y,-z
1/2+x,y,-z
1/2-x,y,z
x,-y,z
loop_
_atom_site_type_symbol
_atom_site_label
_atom_site_fract_x
_atom_site_fract_y
_atom_site_fract_z
Si Si1 0.465683 0.323069 0.607169
Si Si2 0.465818 0.090128 0.892476
Si Si3 0.970994 0.751691 0.212538
Si Si4 0.535093 0.500000 0.390872
Si Si5 0.965593 0.410472 0.108744
O O1 0.500000 0.308359 0.500000
O O2 0.250000 0.327892 0.614599
O O3 0.526252 0.258231 0.681658
O O4 0.535801 0.412208 0.637656
O O5 0.250000 0.087835 0.880018
O O6 0.535029 0.166085 0.834800
O O7 0.535600 0.000000 0.869197
O O8 0.500000 0.103970 0.000000
O O9 0.750000 0.752686 0.208264
O O10 0.030965 0.670243 0.159398
O O11 0.750000 0.500000 0.372379
O O12 0.500000 0.500000 0.500000
O O13 0.750000 0.412228 0.123028
O O14 0.033792 0.500000 0.138340
O O15 0.000000 0.403398 0.000000
#
# Coordination Sequence:
#
# PCOD9407344 Si02
#       5
#     8   8   8   4   8
#     4   9  17  29  44  62  85 112 145 182 218 254
#     4   9  17  30  48  69  91 114 142 178 218 258
#     4   9  17  28  45  66  86 113 147 178 211 259
#     4   8  14  24  40  58  77 104 138 176 213 246
#     4   9  17  28  42  60  85 115 144 173 207 251
#
# _framework density 20.172737999999999
#
# number of rings (size 3 to 8) (size 9 to 14) (size 15 to 20)
#    0.000    3.111    0.000    0.667    1.556    0.000 
#    0.000    2.222    0.000    0.667    0.000    0.000 
#    0.000    0.000    0.000    0.000    0.000    0.000 
#
# Total GULP energy -200715.462527 kJ/mol
# GULP energy per Si atom -5575.429515 kJ/mol
# Density = 2.012682 g / cm^3
# Si number density = 20.172738 Si / 1000 Ang^3
#
#
#
# Elastic Constant Matrix: (Units=GPa)
#
#
# Indices 1 2 3 4 5 6 
#
# 1 68.5051 11.3514 -2.0960 0.0000 0.0000 0.0000
# 2 11.3514 200.7603 119.9489 0.0000 0.0000 0.0000
# 3 -2.0960 119.9489 116.8138 0.0000 0.0000 0.0000
# 4 0.0000 0.0000 0.0000 62.9720 0.0000 0.0000
# 5 0.0000 0.0000 0.0000 0.0000 12.5724 0.0000
# 6 0.0000 0.0000 0.0000 0.0000 0.0000 -2.5077
#
#
#
# Elastic Compliance Matrix: (Units=1/GPa)
#
#
# Indices 1 2 3 4 5 6 
#
# 1 0.015125 -0.002632 0.002974 0.000000 0.000000 0.000000
# 2 -0.002632 0.013346 -0.013751 0.000000 0.000000 0.000000
# 3 0.002974 -0.013751 0.022734 0.000000 0.000000 0.000000
# 4 0.000000 0.000000 0.000000 0.015880 0.000000 0.000000
# 5 0.000000 0.000000 0.000000 0.000000 0.079539 0.000000
# 6 0.000000 0.000000 0.000000 0.000000 0.000000 -0.398767
#
#
# Mechanical properties :
#
#
# Convention : Reuss Voigt Hill
#
# Bulk Modulus (GPa) = 41.00659 71.60974 56.30816
# Shear Modulus (GPa) = -23.02085 31.73232 4.35574
#
# Velocity S-wave (km/s) = -3.38181 3.97045 1.47102
# Velocity P-wave (km/s) = 2.26341 7.52294 5.55507
#
# Compressibility (1/GPa) = 0.02438633
#
# Stress axis : x y z
#
# Youngs Moduli (GPa) = 66.11739 74.92890 43.98609
#
# Poissons Ratio (x) = 0.19723 -0.13082
# Poissons Ratio (y) = 0.17403 0.60487
# Poissons Ratio (z) = -0.19665 1.03038
#
# Static dielectric constant tensor:
#      x y z
#    x 1.792570 0.000000 0.000000 
#    y 0.000000 1.729640 0.000000 
#    z 0.000000 0.000000 1.707420 
# 
# From -- ./inp_files/15291.got.cif
#   From: 2010.05.17/outbox.cif.g08.bks.cpg/sg51_8_cif.got.tgz:15291.got - 2010.06.03 11:52:47.
