data_PCOD9407287
_publ_section_title
;
Structure prediction by ZEFSAII (Michael W. Deem and Ramdas Pophale) SiO2 
 PCOD9407287
Probable space group: P M M A
;
_chemical_formula_sum "Si O2"
_cell_formula_units_Z 64
_cell_length_a 24.312382
_cell_length_b 7.379053
_cell_length_c 17.329759
_cell_angle_alpha 90.000000
_cell_angle_beta 90.000000
_cell_angle_gamma 90.000000
_cell_volume 3108.999582
_symmetry_space_group_name_H-M "P M M A"
_symmetry_group_IT_number 51
_symmetry_cell_setting 'orthorhombic'
loop_
_space_group_symop_operation_xyz
x,y,z
1/2-x,-y,z
1/2+x,-y,-z
-x,y,-z
-x,-y,-z
1/2+x,y,-z
1/2-x,y,z
x,-y,z
loop_
_atom_site_type_symbol
_atom_site_label
_atom_site_fract_x
_atom_site_fract_y
_atom_site_fract_z
Si Si1 0.591996 0.284490 0.792182
Si Si2 0.991703 0.215078 0.914178
Si Si3 0.309401 0.779865 0.747219
Si Si4 0.396133 0.211344 0.447084
Si Si5 0.687748 0.718879 0.691594
Si Si6 0.810773 0.779182 0.432771
Si Si7 0.490891 0.794593 0.344681
Si Si8 0.571604 0.222667 0.221547
O O1 0.587707 0.500000 0.781004
O O2 0.568168 0.242236 0.876047
O O3 0.653392 0.229777 0.768232
O O4 0.551251 0.199314 0.728384
O O5 0.034536 0.284930 0.850014
O O6 0.001189 0.000000 0.918156
O O7 0.000000 0.288329 0.000000
O O8 0.250000 0.718247 0.777151
O O9 0.313078 0.730533 0.656891
O O10 0.365525 0.720518 0.786471
O O11 0.309107 0.000000 0.749723
O O12 0.350261 0.220923 0.379482
O O13 0.363416 0.288028 0.519997
O O14 0.453230 0.288306 0.412498
O O15 0.407640 0.000000 0.462534
O O16 0.750000 0.786049 0.688266
O O17 0.689632 0.500000 0.688378
O O18 0.750000 0.723253 0.463230
O O19 0.811692 0.000000 0.437093
O O20 0.544651 0.715985 0.303050
O O21 0.504927 0.000000 0.368404
O O22 0.569578 0.000000 0.223782
#
# Coordination Sequence:
#
# PCOD9407287 Si02
#       8
#     8   8   8   8   8   8   8   8
#     4   9  16  26  41  60  81 104 132 164 190 222
#     4   9  17  29  45  63  83 104 122 150 199 248
#     4   8  13  21  34  53  77 103 129 159 195 232
#     4   9  15  23  36  54  76 103 135 167 197 230
#     4   9  17  27  38  55  80 109 138 166 197 229
#     4   8  13  20  30  48  75 102 128 163 203 232
#     4   8  14  24  37  54  78 105 130 159 196 234
#     4   8  13  23  38  54  74 101 129 153 185 235
#
# _framework density 20.5854
#
# number of rings (size 3 to 8) (size 9 to 14) (size 15 to 20)
#    0.000    3.500    0.000    2.250    0.000    1.500 
#    0.000    0.625    0.000    4.500    0.000    5.250 
#    0.000   25.000    0.000    0.000    0.000    0.000 
#
# Total GULP energy -356494.560493 kJ/mol
# GULP energy per Si atom -5570.227508 kJ/mol
# Density = 2.053855 g / cm^3
# Si number density = 20.585400 Si / 1000 Ang^3
#
#
#
# Elastic Constant Matrix: (Units=GPa)
#
#
# Indices 1 2 3 4 5 6 
#
# 1 103.1576 2.0840 18.1966 0.0000 0.0000 0.0000
# 2 2.0840 73.1950 1.8572 0.0000 0.0000 0.0000
# 3 18.1966 1.8572 44.4173 0.0000 0.0000 0.0000
# 4 0.0000 0.0000 0.0000 -2.0130 0.0000 0.0000
# 5 0.0000 0.0000 0.0000 0.0000 22.7987 0.0000
# 6 0.0000 0.0000 0.0000 0.0000 0.0000 -35.6560
#
#
#
# Elastic Compliance Matrix: (Units=1/GPa)
#
#
# Indices 1 2 3 4 5 6 
#
# 1 0.010452 -0.000189 -0.004274 0.000000 0.000000 0.000000
# 2 -0.000189 0.013680 -0.000495 0.000000 0.000000 0.000000
# 3 -0.004274 -0.000495 0.024285 0.000000 0.000000 0.000000
# 4 0.000000 0.000000 0.000000 -0.496762 0.000000 0.000000
# 5 0.000000 0.000000 0.000000 0.000000 0.043862 0.000000
# 6 0.000000 0.000000 0.000000 0.000000 0.000000 -0.028046
#
#
# Mechanical properties :
#
#
# Convention : Reuss Voigt Hill
#
# Bulk Modulus (GPa) = 25.97268 29.44951 27.71110
# Shear Modulus (GPa) = -12.20168 10.26806 -0.96681
#
# Velocity S-wave (km/s) = -2.43726 2.23581 -0.68606
# Velocity P-wave (km/s) = 2.17351 4.58282 3.58653
#
# Compressibility (1/GPa) = 0.03850199
#
# Stress axis : x y z
#
# Youngs Moduli (GPa) = 95.67899 73.09902 41.17716
#
# Poissons Ratio (x) = 0.01383 0.17598
# Poissons Ratio (y) = 0.01810 0.02036
# Poissons Ratio (z) = 0.40892 0.03615
#
# Static dielectric constant tensor:
#      x y z
#    x 1.777910 0.000000 0.000000 
#    y 0.000000 1.814870 0.000000 
#    z 0.000000 0.000000 1.725210 
# 
# From -- ./inp_files/30963.got.cif
#   From: 2010.05.17/outbox.cif.g08.bks.cpg/sg51_16_cif.got.tgz:30963.got - 2010.06.03 11:52:47.
