data_PCOD9407472
_publ_section_title
;
Structure prediction by ZEFSAII (Michael W. Deem and Ramdas Pophale) SiO2 
 PCOD9407472
Probable space group: P M M A
;
_chemical_formula_sum "Si O2"
_cell_formula_units_Z 64
_cell_length_a 9.000000
_cell_length_b 24.000000
_cell_length_c 18.000000
_cell_angle_alpha 90.000000
_cell_angle_beta 90.000000
_cell_angle_gamma 90.000000
_cell_volume 3888.000000
_symmetry_space_group_name_H-M "P M M A"
_symmetry_group_IT_number 51
_symmetry_cell_setting 'orthorhombic'
loop_
_space_group_symop_operation_xyz
x,y,z
1/2-x,-y,z
1/2+x,-y,-z
-x,y,-z
-x,-y,-z
1/2+x,y,-z
1/2-x,y,z
x,-y,z
loop_
_atom_site_type_symbol
_atom_site_label
_atom_site_fract_x
_atom_site_fract_y
_atom_site_fract_z
Si Si1 0.922643 0.910499 0.079467
Si Si2 0.078021 0.221912 0.922109
Si Si3 0.575089 0.062291 0.768887
Si Si4 0.922509 0.238281 0.576252
Si Si5 0.425577 0.564037 0.575771
Si Si6 0.579297 0.649480 0.674611
Si Si7 0.925444 0.264745 0.786328
Si Si8 0.426577 0.833440 0.692124
O O1 0.750000 0.927501 0.076783
O O2 0.926626 0.844133 0.096096
O O3 0.009065 0.936879 0.148031
O O4 0.000000 0.920649 0.000000
O O5 0.250000 0.238553 0.920614
O O6 0.976784 0.258125 0.869062
O O7 0.000000 0.226026 0.000000
O O8 0.750000 0.075358 0.772464
O O9 0.493017 0.108992 0.721172
O O10 0.556042 0.000000 0.738262
O O11 0.750000 0.224604 0.567812
O O12 0.931933 0.294212 0.625486
O O13 0.000000 0.251735 0.500000
O O14 0.007055 0.187015 0.614283
O O15 0.500000 0.585276 0.500000
O O16 0.250000 0.565217 0.566324
O O17 0.473841 0.500000 0.586417
O O18 0.475204 0.602545 0.642745
O O19 0.750000 0.630364 0.671513
O O20 0.541871 0.674285 0.754638
O O21 0.750000 0.254207 0.774496
O O22 0.017344 0.216209 0.745607
O O23 0.250000 0.835547 0.691523
#
# Coordination Sequence:
#
# PCOD9407472 Si02
#       8
#     8   8   8   8   8   8   8   8
#     4  10  20  33  50  71  95 125 159 195 235 283
#     4  10  19  30  47  71  97 129 162 195 238 289
#     4  11  23  37  53  71  93 123 157 196 240 286
#     4  10  20  34  52  76 102 127 157 196 240 288
#     4  10  20  32  47  68  97 136 176 211 245 282
#     4   9  19  32  48  72 100 132 166 202 243 281
#     4  10  19  32  50  71  98 128 160 201 244 289
#     4  11  21  34  52  73  96 124 156 192 238 290
#
# _framework density 16.460905
#
# number of rings (size 3 to 8) (size 9 to 14) (size 15 to 20)
#    0.000    1.875    1.250    4.500    0.000    7.000 
#    0.000    0.000    0.000    0.375    0.000    0.000 
#    0.000    0.500    0.000    1.625    0.000    2.375 
#
# Total GULP energy -356820.696410 kJ/mol
# GULP energy per Si atom -5575.323381 kJ/mol
# Density = 1.642344 g / cm^3
# Si number density = 16.460905 Si / 1000 Ang^3
#
#
#
# Elastic Constant Matrix: (Units=GPa)
#
#
# Indices 1 2 3 4 5 6 
#
# 1 83.6300 36.2571 15.3538 0.0000 0.0000 0.0000
# 2 36.2571 39.8951 19.5852 0.0000 0.0000 0.0000
# 3 15.3538 19.5852 22.4974 0.0000 0.0000 0.0000
# 4 0.0000 0.0000 0.0000 12.4720 0.0000 0.0000
# 5 0.0000 0.0000 0.0000 0.0000 23.8995 0.0000
# 6 0.0000 0.0000 0.0000 0.0000 0.0000 27.5494
#
#
#
# Elastic Compliance Matrix: (Units=1/GPa)
#
#
# Indices 1 2 3 4 5 6 
#
# 1 0.019914 -0.019954 0.003780 0.000000 0.000000 0.000000
# 2 -0.019954 0.063767 -0.041895 0.000000 0.000000 0.000000
# 3 0.003780 -0.041895 0.078341 0.000000 0.000000 0.000000
# 4 0.000000 0.000000 0.000000 0.080179 0.000000 0.000000
# 5 0.000000 0.000000 0.000000 0.000000 0.041842 0.000000
# 6 0.000000 0.000000 0.000000 0.000000 0.000000 0.036298
#
#
# Mechanical properties :
#
#
# Convention : Reuss Voigt Hill
#
# Bulk Modulus (GPa) = 21.79333 32.04608 26.91971
# Shear Modulus (GPa) = 11.06744 17.77261 14.42002
#
# Velocity S-wave (km/s) = 2.59578 3.28942 2.96297
# Velocity P-wave (km/s) = 4.71723 5.82557 5.30045
#
# Compressibility (1/GPa) = 0.04588559
#
# Stress axis : x y z
#
# Youngs Moduli (GPa) = 50.21492 15.68200 12.76465
#
# Poissons Ratio (x) = 0.31292 -0.04825
# Poissons Ratio (y) = 1.00200 0.53477
# Poissons Ratio (z) = -0.18983 0.65699
#
# Static dielectric constant tensor:
#      x y z
#    x 1.545890 0.000000 0.000000 
#    y 0.000000 1.577360 0.000000 
#    z 0.000000 0.000000 1.567840 
# 
# From -- ./inp_files/28334.got.cif
#   From: 2010.05.17/outbox.ucp.g08.bks.cvg/sg51_15_cif.got.tgz:28334.got - 2010.06.11 16:27:58.
