data_PCOD9407227
_publ_section_title
;
Structure prediction by ZEFSAII (Michael W. Deem and Ramdas Pophale) SiO2 
 PCOD9407227
Probable space group: P M M A
;
_chemical_formula_sum "Si O2"
_cell_formula_units_Z 28
_cell_length_a 8.888161
_cell_length_b 7.295808
_cell_length_c 21.331229
_cell_angle_alpha 90.000000
_cell_angle_beta 90.000000
_cell_angle_gamma 90.000000
_cell_volume 1383.251619
_symmetry_space_group_name_H-M "P M M A"
_symmetry_group_IT_number 51
_symmetry_cell_setting 'orthorhombic'
loop_
_space_group_symop_operation_xyz
x,y,z
1/2-x,-y,z
1/2+x,-y,-z
-x,y,-z
-x,-y,-z
1/2+x,y,-z
1/2-x,y,z
x,-y,z
loop_
_atom_site_type_symbol
_atom_site_label
_atom_site_fract_x
_atom_site_fract_y
_atom_site_fract_z
Si Si1 0.073975 0.722838 0.435896
Si Si2 0.569585 0.718474 0.837057
Si Si3 0.072169 0.278209 0.300644
Si Si4 0.071105 0.000000 0.931246
O O1 0.250000 0.769254 0.437387
O O2 0.063930 0.500000 0.436109
O O3 0.009688 0.782973 0.368106
O O4 0.000000 0.788127 0.500000
O O5 0.750000 0.752535 0.840174
O O6 0.548165 0.500000 0.842354
O O7 0.514673 0.779698 0.767499
O O8 0.487167 0.826658 0.891419
O O9 0.250000 0.232503 0.301432
O O10 0.063566 0.500000 0.300119
O O11 0.250000 0.000000 0.935702
O O12 0.000000 0.000000 0.000000
#
# Coordination Sequence:
#
# PCOD9407227 Si02
#       4
#     8   8   8   4
#     4   8  12  18  30  53  88 128 168 209 253 301
#     4   9  18  36  62  87 111 143 184 228 272 320
#     4   7  11  22  42  67  95 130 172 215 259 310
#     4  12  26  42  60  84 115 146 177 216 265 326
#
# _framework density 20.242159000000001
#
# number of rings (size 3 to 8) (size 9 to 14) (size 15 to 20)
#    0.000    3.429    0.000    4.714    0.000    1.143 
#    0.000    1.429    0.000    5.143    0.000    1.000 
#    0.000    0.000    0.000    0.000    0.000    0.000 
#
# Total GULP energy -156013.050724 kJ/mol
# GULP energy per Si atom -5571.894669 kJ/mol
# Density = 2.019609 g / cm^3
# Si number density = 20.242159 Si / 1000 Ang^3
#
#
#
# Elastic Constant Matrix: (Units=GPa)
#
#
# Indices 1 2 3 4 5 6 
#
# 1 55.0462 29.0197 78.6779 0.0000 0.0000 0.0000
# 2 29.0197 87.9918 52.6548 0.0000 0.0000 0.0000
# 3 78.6779 52.6548 274.8529 0.0000 0.0000 0.0000
# 4 0.0000 0.0000 0.0000 65.1146 0.0000 0.0000
# 5 0.0000 0.0000 0.0000 0.0000 32.4767 0.0000
# 6 0.0000 0.0000 0.0000 0.0000 0.0000 32.5143
#
#
#
# Elastic Compliance Matrix: (Units=1/GPa)
#
#
# Indices 1 2 3 4 5 6 
#
# 1 0.033303 -0.005962 -0.008391 0.000000 0.000000 0.000000
# 2 -0.005962 0.013904 -0.000957 0.000000 0.000000 0.000000
# 3 -0.008391 -0.000957 0.006224 0.000000 0.000000 0.000000
# 4 0.000000 0.000000 0.000000 0.015358 0.000000 0.000000
# 5 0.000000 0.000000 0.000000 0.000000 0.030791 0.000000
# 6 0.000000 0.000000 0.000000 0.000000 0.000000 0.030756
#
#
# Mechanical properties :
#
#
# Convention : Reuss Voigt Hill
#
# Bulk Modulus (GPa) = 43.83997 82.06620 62.95309
# Shear Modulus (GPa) = 29.66340 43.19036 36.42688
#
# Velocity S-wave (km/s) = 3.83224 4.62419 4.24672
# Velocity P-wave (km/s) = 6.42543 8.31511 7.43059
#
# Compressibility (1/GPa) = 0.02281023
#
# Stress axis : x y z
#
# Youngs Moduli (GPa) = 30.02740 71.92381 160.67953
#
# Poissons Ratio (x) = 0.42882 1.34825
# Poissons Ratio (y) = 0.17903 0.15375
# Poissons Ratio (z) = 0.25196 0.06882
#
# Static dielectric constant tensor:
#      x y z
#    x 1.675550 0.000000 0.000000 
#    y 0.000000 1.813320 0.000000 
#    z 0.000000 0.000000 1.752920 
# 
# From -- ./inp_files/31058.got.cif
#   From: 2010.05.17/outbox.cif.g08.bks.cpg/sg51_16_cif.got.tgz:31058.got - 2010.06.03 11:52:47.
