data_PCOD9407123
_publ_section_title
;
Structure prediction by ZEFSAII (Michael W. Deem and Ramdas Pophale) SiO2 
 PCOD9407123
Probable space group: P M M A
;
_chemical_formula_sum "Si O2"
_cell_formula_units_Z 48
_cell_length_a 8.653934
_cell_length_b 9.959371
_cell_length_c 30.446098
_cell_angle_alpha 90.000000
_cell_angle_beta 90.000000
_cell_angle_gamma 90.000000
_cell_volume 2624.080358
_symmetry_space_group_name_H-M "P M M A"
_symmetry_group_IT_number 51
_symmetry_cell_setting 'orthorhombic'
loop_
_space_group_symop_operation_xyz
x,y,z
1/2-x,-y,z
1/2+x,-y,-z
-x,y,-z
-x,-y,-z
1/2+x,y,-z
1/2-x,y,z
x,-y,z
loop_
_atom_site_type_symbol
_atom_site_label
_atom_site_fract_x
_atom_site_fract_y
_atom_site_fract_z
Si Si1 0.064112 0.751272 0.602395
Si Si2 0.064907 0.000000 0.451178
Si Si3 0.561829 0.156312 0.300459
Si Si4 0.564156 0.154985 0.139275
Si Si5 0.566026 0.500000 0.549697
Si Si6 0.061103 0.343773 0.780822
Si Si7 0.426944 0.163175 0.045690
O O1 0.250000 0.742920 0.601158
O O2 0.017729 0.778995 0.652850
O O3 0.992637 0.624657 0.578188
O O4 0.003057 0.874483 0.574373
O O5 0.000000 0.000000 0.500000
O O6 0.250000 0.000000 0.451347
O O7 0.750000 0.151972 0.299419
O O8 0.512465 0.253912 0.260980
O O9 0.510498 0.000000 0.296734
O O10 0.750000 0.150962 0.140991
O O11 0.511474 0.260625 0.176004
O O12 0.514172 0.197960 0.090504
O O13 0.510269 0.000000 0.147208
O O14 0.750000 0.500000 0.546266
O O15 0.500000 0.500000 0.500000
O O16 0.250000 0.345964 0.780699
O O17 0.011157 0.500000 0.779642
O O18 0.250000 0.206136 0.048501
O O19 0.430040 0.000000 0.043983
O O20 0.500000 0.211362 0.000000
#
# Coordination Sequence:
#
# PCOD9407123 Si02
#       7
#     8   4   8   8   4   8   8
#     4  11  22  39  62  90 119 152 192 237 284 336
#     4  12  24  40  62  88 120 154 190 234 283 338
#     4   9  17  31  53  83 114 142 177 225 274 322
#     4   9  16  27  45  71 103 137 173 217 264 310
#     4  12  26  44  62  86 118 156 194 234 283 340
#     4   9  17  28  47  77 109 139 176 222 268 313
#     4   9  16  26  43  69 100 133 170 214 263 315
#
# _framework density 18.292121999999999
#
# number of rings (size 3 to 8) (size 9 to 14) (size 15 to 20)
#    0.000    2.167    0.833    3.500    1.167    4.000 
#    0.000    0.000    0.000    3.000    0.000    0.000 
#    0.000    0.000    0.000    0.000    0.000    0.000 
#
# Total GULP energy -267698.995602 kJ/mol
# GULP energy per Si atom -5577.062408 kJ/mol
# Density = 1.825049 g / cm^3
# Si number density = 18.292122 Si / 1000 Ang^3
#
#
#
# Elastic Constant Matrix: (Units=GPa)
#
#
# Indices 1 2 3 4 5 6 
#
# 1 44.3268 30.0095 36.4175 0.0000 0.0000 0.0000
# 2 30.0095 160.3566 106.9135 0.0000 0.0000 0.0000
# 3 36.4175 106.9135 204.7453 0.0000 0.0000 0.0000
# 4 0.0000 0.0000 0.0000 21.0516 0.0000 0.0000
# 5 0.0000 0.0000 0.0000 0.0000 22.2204 0.0000
# 6 0.0000 0.0000 0.0000 0.0000 0.0000 18.8583
#
#
#
# Elastic Compliance Matrix: (Units=1/GPa)
#
#
# Indices 1 2 3 4 5 6 
#
# 1 0.027253 -0.002866 -0.003351 0.000000 0.000000 0.000000
# 2 -0.002866 0.009868 -0.004643 0.000000 0.000000 0.000000
# 3 -0.003351 -0.004643 0.007905 0.000000 0.000000 0.000000
# 4 0.000000 0.000000 0.000000 0.047502 0.000000 0.000000
# 5 0.000000 0.000000 0.000000 0.000000 0.045004 0.000000
# 6 0.000000 0.000000 0.000000 0.000000 0.000000 0.053027
#
#
# Mechanical properties :
#
#
# Convention : Reuss Voigt Hill
#
# Bulk Modulus (GPa) = 42.90793 84.01218 63.46006
# Shear Modulus (GPa) = 22.72236 28.16528 25.44382
#
# Velocity S-wave (km/s) = 3.52830 3.92822 3.73362
# Velocity P-wave (km/s) = 6.33297 8.16103 7.30441
#
# Compressibility (1/GPa) = 0.02330571
#
# Stress axis : x y z
#
# Youngs Moduli (GPa) = 36.69314 101.33589 126.50758
#
# Poissons Ratio (x) = 0.29044 0.42390
# Poissons Ratio (y) = 0.10517 0.58739
# Poissons Ratio (z) = 0.12295 0.47052
#
# Static dielectric constant tensor:
#      x y z
#    x 1.628510 0.000000 0.000000 
#    y 0.000000 1.826830 0.000000 
#    z 0.000000 0.000000 1.620700 
# 
# From -- ./inp_files/37218.got.cif
#   From: 2010.05.17/outbox.cif.g08.bks.cpg/sg51_19_cif.got.tgz:37218.got - 2010.06.03 11:52:47.
