data_PCOD9407913
_publ_section_title
;
Structure prediction by ZEFSAII (Michael W. Deem and Ramdas Pophale) SiO2 
 PCOD9407913
Probable space group: P N N A
;
_chemical_formula_sum "Si O2"
_cell_formula_units_Z 48
_cell_length_a 25.470877
_cell_length_b 5.237342
_cell_length_c 24.070180
_cell_angle_alpha 90.000000
_cell_angle_beta 90.000000
_cell_angle_gamma 90.000000
_cell_volume 3210.954644
_symmetry_space_group_name_H-M "P N N A"
_symmetry_group_IT_number 52
_symmetry_cell_setting 'orthorhombic'
loop_
_space_group_symop_operation_xyz
x,y,z
1/2-x,-y,z
x,1/2-y,1/2-z
1/2-x,1/2+y,1/2-z
-x,-y,-z
1/2+x,y,-z
-x,1/2+y,1/2+z
1/2+x,1/2-y,1/2+z
loop_
_atom_site_type_symbol
_atom_site_label
_atom_site_fract_x
_atom_site_fract_y
_atom_site_fract_z
Si Si1 0.105696 0.250000 0.750000
Si Si2 0.250000 0.000000 0.834226
Si Si3 0.442712 0.018376 0.469743
Si Si4 0.168263 0.750000 0.750000
Si Si5 0.750000 0.500000 0.094020
Si Si6 0.367850 0.443270 0.925743
Si Si7 0.477508 0.512400 0.436560
Si Si8 0.083746 0.451408 0.630354
O O1 0.136878 0.502059 0.772284
O O2 0.079304 0.376320 0.695321
O O3 0.204424 0.889322 0.795291
O O4 0.264160 0.752290 0.870126
O O5 0.399985 0.071545 0.516729
O O6 0.445918 0.254103 0.428575
O O7 0.500000 0.000000 0.500000
O O8 0.440021 0.755262 0.436833
O O9 0.694710 0.557448 0.064413
O O10 0.389534 0.705888 0.898812
O O11 0.382496 0.201686 0.886494
O O12 0.500000 0.500000 0.500000
O O13 0.527067 0.512507 0.396112
#
# Coordination Sequence:
#
# PCOD9407913 Si02
#       8
#     4   4   8   4   4   8   8   8
#     4  12  25  34  44  70  88 118 150 186 253 272
#     4  12  23  38  50  56  78 118 170 206 221 256
#     4  10  16  30  49  72  82 103 141 189 232 262
#     4  12  23  38  50  56  78 118 170 206 221 260
#     4  12  25  34  44  70  88 118 150 186 253 270
#     4  12  21  33  50  64  92 115 147 196 228 275
#     4  10  16  30  49  72  82 103 141 189 232 262
#     4  12  21  33  50  64  92 115 147 196 228 274
#
# _framework density 14.948824
#
# number of rings (size 3 to 8) (size 9 to 14) (size 15 to 20)
#    0.000    0.667    6.667    7.000    0.000    0.000 
#    0.000    0.000    0.000    0.000    0.000    0.000 
#    0.000    0.000    0.000    0.000    0.000    3.333 
#
# Total GULP energy -267348.962151 kJ/mol
# GULP energy per Si atom -5569.770045 kJ/mol
# Density = 1.491480 g / cm^3
# Si number density = 14.948824 Si / 1000 Ang^3
#
#
#
# Elastic Constant Matrix: (Units=GPa)
#
#
# Indices 1 2 3 4 5 6 
#
# 1 81.5388 22.5796 51.9894 0.0000 0.0000 0.0000
# 2 22.5796 134.5454 19.2187 0.0000 0.0000 0.0000
# 3 51.9894 19.2187 53.4068 0.0000 0.0000 0.0000
# 4 0.0000 0.0000 0.0000 20.9884 0.0000 0.0000
# 5 0.0000 0.0000 0.0000 0.0000 29.5969 0.0000
# 6 0.0000 0.0000 0.0000 0.0000 0.0000 18.9509
#
#
#
# Elastic Compliance Matrix: (Units=1/GPa)
#
#
# Indices 1 2 3 4 5 6 
#
# 1 0.032455 -0.000984 -0.031239 0.000000 0.000000 0.000000
# 2 -0.000984 0.007865 -0.001872 0.000000 0.000000 0.000000
# 3 -0.031239 -0.001872 0.049808 0.000000 0.000000 0.000000
# 4 0.000000 0.000000 0.000000 0.047645 0.000000 0.000000
# 5 0.000000 0.000000 0.000000 0.000000 0.033787 0.000000
# 6 0.000000 0.000000 0.000000 0.000000 0.000000 0.052768
#
#
# Mechanical properties :
#
#
# Convention : Reuss Voigt Hill
#
# Bulk Modulus (GPa) = 45.58592 50.78515 48.18554
# Shear Modulus (GPa) = 16.67595 25.62079 21.14837
#
# Velocity S-wave (km/s) = 3.34359 4.14442 3.76535
# Velocity P-wave (km/s) = 6.74292 7.54639 7.15594
#
# Compressibility (1/GPa) = 0.02193660
#
# Stress axis : x y z
#
# Youngs Moduli (GPa) = 30.81185 127.14500 20.07701
#
# Poissons Ratio (x) = 0.12516 0.62719
# Poissons Ratio (y) = 0.03033 0.03759
# Poissons Ratio (z) = 0.96255 0.23802
#
# Static dielectric constant tensor:
#      x y z
#    x 1.457960 0.000000 0.000000 
#    y 0.000000 1.374680 0.000000 
#    z 0.000000 0.000000 1.513530 
# 
# From -- ./inp_files/40977.got.cif
#   From: 2010.05.17/outbox.cif.g08.bks.cpg/sg52_21_cif.got.tgz:40977.got - 2010.06.03 12:15:38.
