data_PCOD9407369
_publ_section_title
;
Structure prediction by ZEFSAII (Michael W. Deem and Ramdas Pophale) SiO2 
 PCOD9407369
Probable space group: P M M A
;
_chemical_formula_sum "Si O2"
_cell_formula_units_Z 48
_cell_length_a 18.719441
_cell_length_b 7.463296
_cell_length_c 17.131070
_cell_angle_alpha 90.000000
_cell_angle_beta 90.000000
_cell_angle_gamma 90.000000
_cell_volume 2393.360018
_symmetry_space_group_name_H-M "P M M A"
_symmetry_group_IT_number 51
_symmetry_cell_setting 'orthorhombic'
loop_
_space_group_symop_operation_xyz
x,y,z
1/2-x,-y,z
1/2+x,-y,-z
-x,y,-z
-x,-y,-z
1/2+x,y,-z
1/2-x,y,z
x,-y,z
loop_
_atom_site_type_symbol
_atom_site_label
_atom_site_fract_x
_atom_site_fract_y
_atom_site_fract_z
Si Si1 0.668347 0.219237 0.146825
Si Si2 0.972799 0.287328 0.582348
Si Si3 0.899186 0.216086 0.820308
Si Si4 0.953970 0.784559 0.259479
Si Si5 0.671877 0.711852 0.660729
Si Si6 0.417015 0.781315 0.006995
O O1 0.750000 0.278509 0.151416
O O2 0.618554 0.277264 0.218856
O O3 0.668885 0.000000 0.146542
O O4 0.629584 0.275979 0.066789
O O5 0.962467 0.500000 0.572160
O O6 0.897190 0.213784 0.614900
O O7 0.000000 0.213718 0.500000
O O8 0.030201 0.264296 0.651458
O O9 0.844463 0.269065 0.752849
O O10 0.887324 0.276389 0.908772
O O11 0.977381 0.277551 0.790696
O O12 0.900326 0.000000 0.821598
O O13 0.954218 0.000000 0.255350
O O14 0.750000 0.787124 0.641870
O O15 0.674063 0.500000 0.644430
O O16 0.417017 0.000000 0.005895
O O17 0.500000 0.727135 0.000000
#
# Coordination Sequence:
#
# PCOD9407369 Si02
#       6
#     8   8   8   8   8   8
#     4   9  16  25  39  62  92 125 158 190 225 264
#     4   9  18  33  52  71  89 113 149 186 220 271
#     4   9  16  26  45  69  91 118 153 190 224 260
#     4   9  16  28  46  67  91 119 149 184 225 269
#     4   9  18  32  48  66  92 122 147 179 228 277
#     4   9  14  23  40  63  93 125 156 190 225 261
#
# _framework density 20.055485000000001
#
# number of rings (size 3 to 8) (size 9 to 14) (size 15 to 20)
#    0.000    3.000    1.667    0.000    0.000    1.333 
#    0.000    2.500    0.000    3.000    0.000    0.000 
#    0.000    0.000    0.000    0.000    0.000    0.000 
#
# Total GULP energy -267710.651410 kJ/mol
# GULP energy per Si atom -5577.305238 kJ/mol
# Density = 2.000984 g / cm^3
# Si number density = 20.055485 Si / 1000 Ang^3
#
#
#
# Elastic Constant Matrix: (Units=GPa)
#
#
# Indices 1 2 3 4 5 6 
#
# 1 161.3023 6.1499 98.1036 0.0000 0.0000 0.0000
# 2 6.1499 57.2526 1.2382 0.0000 0.0000 0.0000
# 3 98.1036 1.2382 178.8474 0.0000 0.0000 0.0000
# 4 0.0000 0.0000 0.0000 8.4982 0.0000 0.0000
# 5 0.0000 0.0000 0.0000 0.0000 16.5025 0.0000
# 6 0.0000 0.0000 0.0000 0.0000 0.0000 6.1668
#
#
#
# Elastic Compliance Matrix: (Units=1/GPa)
#
#
# Indices 1 2 3 4 5 6 
#
# 1 0.009349 -0.000893 -0.005122 0.000000 0.000000 0.000000
# 2 -0.000893 0.017554 0.000369 0.000000 0.000000 0.000000
# 3 -0.005122 0.000369 0.008398 0.000000 0.000000 0.000000
# 4 0.000000 0.000000 0.000000 0.117672 0.000000 0.000000
# 5 0.000000 0.000000 0.000000 0.000000 0.060597 0.000000
# 6 0.000000 0.000000 0.000000 0.000000 0.000000 0.162158
#
#
# Mechanical properties :
#
#
# Convention : Reuss Voigt Hill
#
# Bulk Modulus (GPa) = 41.65289 67.59840 54.62565
# Shear Modulus (GPa) = 12.65743 25.69421 19.17582
#
# Velocity S-wave (km/s) = 2.51494 3.58321 3.09550
# Velocity P-wave (km/s) = 5.40806 7.13429 6.33029
#
# Compressibility (1/GPa) = 0.02400794
#
# Stress axis : x y z
#
# Youngs Moduli (GPa) = 106.96643 56.96561 119.07125
#
# Poissons Ratio (x) = 0.05090 0.60987
# Poissons Ratio (y) = 0.09557 -0.04388
# Poissons Ratio (z) = 0.54787 -0.02099
#
# Static dielectric constant tensor:
#      x y z
#    x 1.701970 0.000000 0.000000 
#    y 0.000000 1.772710 0.000000 
#    z 0.000000 0.000000 1.689750 
# 
# From -- ./inp_files/25045.got.cif
#   From: 2010.05.17/outbox.cif.g08.bks.cpg/sg51_13_cif.got.tgz:25045.got - 2010.06.03 11:52:47.
