data_PCOD9407101
_publ_section_title
;
Structure prediction by ZEFSAII (Michael W. Deem and Ramdas Pophale) SiO2 
 PCOD9407101
Probable space group: P M M A
;
_chemical_formula_sum "Si O2"
_cell_formula_units_Z 52
_cell_length_a 8.477132
_cell_length_b 15.447959
_cell_length_c 20.808108
_cell_angle_alpha 90.000000
_cell_angle_beta 90.000000
_cell_angle_gamma 90.000000
_cell_volume 2724.913040
_symmetry_space_group_name_H-M "P M M A"
_symmetry_group_IT_number 51
_symmetry_cell_setting 'orthorhombic'
loop_
_space_group_symop_operation_xyz
x,y,z
1/2-x,-y,z
1/2+x,-y,-z
-x,y,-z
-x,-y,-z
1/2+x,y,-z
1/2-x,y,z
x,-y,z
loop_
_atom_site_type_symbol
_atom_site_label
_atom_site_fract_x
_atom_site_fract_y
_atom_site_fract_z
Si Si1 0.561348 0.095201 0.294890
Si Si2 0.437068 0.600599 0.779395
Si Si3 0.440528 0.099223 0.070691
Si Si4 0.439846 0.500000 0.571098
Si Si5 0.561018 0.157972 0.572851
Si Si6 0.563260 0.664339 0.643776
Si Si7 0.438622 0.777565 0.185839
O O1 0.750000 0.102074 0.293588
O O2 0.505486 0.100022 0.369013
O O3 0.493180 0.172382 0.250917
O O4 0.514136 0.000000 0.269041
O O5 0.250000 0.596970 0.788038
O O6 0.495900 0.500000 0.784235
O O7 0.475822 0.641154 0.709696
O O8 0.506095 0.678263 0.822444
O O9 0.250000 0.100090 0.070456
O O10 0.495110 0.163411 0.126542
O O11 0.492139 0.000000 0.083079
O O12 0.500000 0.123859 0.000000
O O13 0.250000 0.500000 0.578165
O O14 0.500000 0.500000 0.500000
O O15 0.518502 0.582857 0.602017
O O16 0.500000 0.144460 0.500000
O O17 0.750000 0.150341 0.571119
O O18 0.517334 0.252669 0.601344
O O19 0.750000 0.671298 0.657482
O O20 0.250000 0.777187 0.187704
#
# Coordination Sequence:
#
# PCOD9407101 Si02
#       7
#     8   8   8   4   8   8   8
#     4  11  24  40  60  86 115 151 197 246 296 354
#     4  11  23  38  59  86 117 154 196 245 297 350
#     4   9  19  36  60  93 131 167 201 238 285 343
#     4  12  24  36  52  76 106 142 183 236 299 362
#     4  11  24  40  59  80 106 145 190 242 301 359
#     4  11  22  37  57  80 106 141 187 239 300 362
#     4  11  22  38  62  91 124 161 198 243 295 349
#
# _framework density 19.083179000000001
#
# number of rings (size 3 to 8) (size 9 to 14) (size 15 to 20)
#    0.000    1.231    2.308    3.923    0.000    7.385 
#    0.000    1.538    0.000    0.462    0.000    0.000 
#    0.000    0.000    0.000    0.000    0.000    0.000 
#
# Total GULP energy -290120.988490 kJ/mol
# GULP energy per Si atom -5579.249779 kJ/mol
# Density = 1.903974 g / cm^3
# Si number density = 19.083179 Si / 1000 Ang^3
#
#
#
# Elastic Constant Matrix: (Units=GPa)
#
#
# Indices 1 2 3 4 5 6 
#
# 1 34.5709 30.7537 13.4987 0.0000 0.0000 0.0000
# 2 30.7537 143.5635 53.3675 0.0000 0.0000 0.0000
# 3 13.4987 53.3675 105.9583 0.0000 0.0000 0.0000
# 4 0.0000 0.0000 0.0000 33.4018 0.0000 0.0000
# 5 0.0000 0.0000 0.0000 0.0000 28.9711 0.0000
# 6 0.0000 0.0000 0.0000 0.0000 0.0000 28.4648
#
#
#
# Elastic Compliance Matrix: (Units=1/GPa)
#
#
# Indices 1 2 3 4 5 6 
#
# 1 0.035799 -0.007350 -0.000859 0.000000 0.000000 0.000000
# 2 -0.007350 0.010079 -0.004140 0.000000 0.000000 0.000000
# 3 -0.000859 -0.004140 0.011632 0.000000 0.000000 0.000000
# 4 0.000000 0.000000 0.000000 0.029938 0.000000 0.000000
# 5 0.000000 0.000000 0.000000 0.000000 0.034517 0.000000
# 6 0.000000 0.000000 0.000000 0.000000 0.000000 0.035131
#
#
# Mechanical properties :
#
#
# Convention : Reuss Voigt Hill
#
# Bulk Modulus (GPa) = 30.47530 53.25918 41.86724
# Shear Modulus (GPa) = 25.94266 30.59906 28.27086
#
# Velocity S-wave (km/s) = 3.69107 4.00866 3.85314
# Velocity P-wave (km/s) = 5.84549 7.02819 6.46394
#
# Compressibility (1/GPa) = 0.03281346
#
# Stress axis : x y z
#
# Youngs Moduli (GPa) = 27.93337 99.21638 85.96711
#
# Poissons Ratio (x) = 0.72919 0.07385
# Poissons Ratio (y) = 0.20530 0.35592
# Poissons Ratio (z) = 0.02400 0.41077
#
# Static dielectric constant tensor:
#      x y z
#    x 1.652530 0.000000 0.000000 
#    y 0.000000 1.693280 0.000000 
#    z 0.000000 0.000000 1.656620 
# 
# From -- ./inp_files/31773.got.cif
#   From: 2010.05.17/outbox.cif.g08.bks.cpg/sg51_16_cif.got.tgz:31773.got - 2010.06.03 11:52:47.
