data_PCOD9407624
_publ_section_title
;
Structure prediction by ZEFSAII (Michael W. Deem and Ramdas Pophale) SiO2 
 PCOD9407624
Probable space group: P M M A
;
_chemical_formula_sum "Si O2"
_cell_formula_units_Z 64
_cell_length_a 15.000000
_cell_length_b 9.000000
_cell_length_c 24.000000
_cell_angle_alpha 90.000000
_cell_angle_beta 90.000000
_cell_angle_gamma 90.000000
_cell_volume 3240.000000
_symmetry_space_group_name_H-M "P M M A"
_symmetry_group_IT_number 51
_symmetry_cell_setting 'orthorhombic'
loop_
_space_group_symop_operation_xyz
x,y,z
1/2-x,-y,z
1/2+x,-y,-z
-x,y,-z
-x,-y,-z
1/2+x,y,-z
1/2-x,y,z
x,-y,z
loop_
_atom_site_type_symbol
_atom_site_label
_atom_site_fract_x
_atom_site_fract_y
_atom_site_fract_z
Si Si1 0.032141 0.680061 0.078928
Si Si2 0.146596 0.675433 0.718067
Si Si3 0.964992 0.824630 0.724486
Si Si4 0.142771 0.832627 0.604497
Si Si5 0.858188 0.831299 0.518928
Si Si6 0.352588 0.681089 0.970756
Si Si7 0.353022 0.322822 0.184029
Si Si8 0.144242 0.325175 0.369695
O O1 0.029907 0.500000 0.076383
O O2 0.081591 0.722434 0.134596
O O3 0.929110 0.728342 0.073255
O O4 0.097573 0.724417 0.028201
O O5 0.250000 0.723565 0.731268
O O6 0.142298 0.500000 0.728256
O O7 0.130098 0.714986 0.653126
O O8 0.059778 0.754351 0.744090
O O9 0.885659 0.769040 0.763924
O O10 0.928027 0.764503 0.665818
O O11 0.973456 0.000000 0.724460
O O12 0.250000 0.842534 0.599563
O O13 0.107748 0.796218 0.543087
O O14 0.112024 0.000000 0.620487
O O15 0.750000 0.835745 0.516142
O O16 0.877365 0.713760 0.566467
O O17 0.886946 0.000000 0.533504
O O18 0.250000 0.733324 0.965385
O O19 0.348020 0.500000 0.969838
O O20 0.250000 0.298056 0.169610
O O21 0.363244 0.500000 0.194620
O O22 0.250000 0.284356 0.359603
O O23 0.136582 0.500000 0.357842
#
# Coordination Sequence:
#
# PCOD9407624 Si02
#       8
#     8   8   8   8   8   8   8   8
#     4   8  14  24  41  69 105 144 183 223 271 325
#     4  10  21  38  60  82 103 129 165 213 266 319
#     4  12  25  39  56  76 101 135 176 222 268 320
#     4   8  14  27  49  76 105 136 168 203 249 310
#     4   8  14  26  46  73 105 139 171 203 247 310
#     4   8  12  20  38  68 107 146 182 221 267 320
#     4  10  20  35  55  78 107 142 180 225 274 320
#     4  10  20  34  53  77 106 138 172 216 269 320
#
# _framework density 19.753086
#
# number of rings (size 3 to 8) (size 9 to 14) (size 15 to 20)
#    0.000    2.750    0.000    4.125    0.000    5.250 
#    0.000    3.750    0.000    6.000    0.000    1.750 
#    0.000    1.000    0.000    0.000    0.000    0.000 
#
# Total GULP energy -356447.181654 kJ/mol
# GULP energy per Si atom -5569.487213 kJ/mol
# Density = 1.970813 g / cm^3
# Si number density = 19.753086 Si / 1000 Ang^3
#
#
#
# Elastic Constant Matrix: (Units=GPa)
#
#
# Indices 1 2 3 4 5 6 
#
# 1 112.6509 15.1214 10.8689 0.0000 0.0000 0.0000
# 2 15.1214 26.3687 -1.2232 0.0000 0.0000 0.0000
# 3 10.8689 -1.2232 30.9655 0.0000 0.0000 0.0000
# 4 0.0000 0.0000 0.0000 18.0084 0.0000 0.0000
# 5 0.0000 0.0000 0.0000 0.0000 24.9982 0.0000
# 6 0.0000 0.0000 0.0000 0.0000 0.0000 10.9042
#
#
#
# Elastic Compliance Matrix: (Units=1/GPa)
#
#
# Indices 1 2 3 4 5 6 
#
# 1 0.010035 -0.005929 -0.003757 0.000000 0.000000 0.000000
# 2 -0.005929 0.041496 0.003720 0.000000 0.000000 0.000000
# 3 -0.003757 0.003720 0.033760 0.000000 0.000000 0.000000
# 4 0.000000 0.000000 0.000000 0.055530 0.000000 0.000000
# 5 0.000000 0.000000 0.000000 0.000000 0.040003 0.000000
# 6 0.000000 0.000000 0.000000 0.000000 0.000000 0.091708
#
#
# Mechanical properties :
#
#
# Convention : Reuss Voigt Hill
#
# Bulk Modulus (GPa) = 13.63133 24.39104 19.01119
# Shear Modulus (GPa) = 16.18563 20.46336 18.32449
#
# Velocity S-wave (km/s) = 2.86562 3.22212 3.04908
# Velocity P-wave (km/s) = 4.22668 5.12031 4.69480
#
# Compressibility (1/GPa) = 0.07336041
#
# Stress axis : x y z
#
# Youngs Moduli (GPa) = 99.64807 24.09847 29.62127
#
# Poissons Ratio (x) = 0.14288 0.11128
# Poissons Ratio (y) = 0.59083 -0.11020
# Poissons Ratio (z) = 0.37434 -0.08965
#
# Static dielectric constant tensor:
#      x y z
#    x 1.739240 0.000000 0.000000 
#    y 0.000000 1.663230 0.000000 
#    z 0.000000 0.000000 1.806480 
# 
# From -- ./inp_files/35614.got.cif
#   From: 2010.05.17/outbox.ucp.g08.bks.cvg/sg51_18_cif.got.tgz:35614.got - 2010.06.11 16:27:58.
