data_PCOD9407751
_publ_section_title
;
Structure prediction by ZEFSAII (Michael W. Deem and Ramdas Pophale) SiO2 
 PCOD9407751
Probable space group: P M M A
;
_chemical_formula_sum "Si O2"
_cell_formula_units_Z 48
_cell_length_a 9.000000
_cell_length_b 9.000000
_cell_length_c 30.000000
_cell_angle_alpha 90.000000
_cell_angle_beta 90.000000
_cell_angle_gamma 90.000000
_cell_volume 2430.000000
_symmetry_space_group_name_H-M "P M M A"
_symmetry_group_IT_number 51
_symmetry_cell_setting 'orthorhombic'
loop_
_space_group_symop_operation_xyz
x,y,z
1/2-x,-y,z
1/2+x,-y,-z
-x,y,-z
-x,-y,-z
1/2+x,y,-z
1/2-x,y,z
x,-y,z
loop_
_atom_site_type_symbol
_atom_site_label
_atom_site_fract_x
_atom_site_fract_y
_atom_site_fract_z
Si Si1 0.922364 0.678001 0.044284
Si Si2 0.079595 0.172638 0.869122
Si Si3 0.419689 0.678712 0.544665
Si Si4 0.919969 0.172885 0.625658
Si Si5 0.925800 0.662580 0.795429
Si Si6 0.422891 0.333917 0.700811
O O1 0.750000 0.722176 0.043060
O O2 0.930221 0.500000 0.045019
O O3 0.989307 0.740770 0.089415
O O4 0.000000 0.733563 0.000000
O O5 0.250000 0.223379 0.862717
O O6 0.992542 0.208946 0.824907
O O7 0.080478 0.000000 0.879399
O O8 0.500000 0.731016 0.500000
O O9 0.250000 0.732192 0.547912
O O10 0.415752 0.500000 0.543994
O O11 0.516566 0.732666 0.585457
O O12 0.750000 0.213317 0.635813
O O13 0.021190 0.210457 0.667533
O O14 0.926175 0.000000 0.614343
O O15 0.750000 0.667640 0.795881
O O16 0.974652 0.500000 0.813447
O O17 0.984476 0.672599 0.745668
O O18 0.250000 0.317835 0.711216
O O19 0.443696 0.500000 0.680697
#
# Coordination Sequence:
#
# PCOD9407751 Si02
#       6
#     8   8   8   8   8   8
#     4   9  18  33  53  76 103 137 178 223 268 316
#     4  10  21  36  54  78 109 145 182 220 267 323
#     4  10  21  38  61  87 113 145 187 232 278 328
#     4  11  24  39  56  82 116 152 187 225 273 327
#     4  10  21  37  58  83 109 140 180 225 272 322
#     4  10  21  38  61  86 110 141 183 228 274 325
#
# _framework density 19.753086
#
# number of rings (size 3 to 8) (size 9 to 14) (size 15 to 20)
#    0.000    2.000    0.000    3.000    0.000    9.333 
#    0.000    1.667    0.000    0.000    0.000    0.000 
#    0.000    0.000    0.000    0.000    0.000    0.000 
#
# Total GULP energy -267729.307534 kJ/mol
# GULP energy per Si atom -5577.693907 kJ/mol
# Density = 1.970813 g / cm^3
# Si number density = 19.753086 Si / 1000 Ang^3
#
#
#
# Elastic Constant Matrix: (Units=GPa)
#
#
# Indices 1 2 3 4 5 6 
#
# 1 -34.1134 11.2539 -19.1134 0.0000 0.0000 0.0000
# 2 11.2539 -7.8184 10.8035 0.0000 0.0000 0.0000
# 3 -19.1134 10.8035 42.2998 0.0000 0.0000 0.0000
# 4 0.0000 0.0000 0.0000 72.5751 0.0000 0.0000
# 5 0.0000 0.0000 0.0000 0.0000 28.4585 0.0000
# 6 0.0000 0.0000 0.0000 0.0000 0.0000 26.0350
#
#
#
# Elastic Compliance Matrix: (Units=1/GPa)
#
#
# Indices 1 2 3 4 5 6 
#
# 1 -0.055138 -0.084110 -0.003433 0.000000 0.000000 0.000000
# 2 -0.084110 -0.222843 0.018909 0.000000 0.000000 0.000000
# 3 -0.003433 0.018909 0.017260 0.000000 0.000000 0.000000
# 4 0.000000 0.000000 0.000000 0.013779 0.000000 0.000000
# 5 0.000000 0.000000 0.000000 0.000000 0.035139 0.000000
# 6 0.000000 0.000000 0.000000 0.000000 0.000000 0.038410
#
#
# Mechanical properties :
#
#
# Convention : Reuss Voigt Hill
#
# Bulk Modulus (GPa) = -2.51265 0.69509 -0.90878
# Shear Modulus (GPa) = -29.62280 25.24199 -2.19041
#
# Velocity S-wave (km/s) = -3.87674 3.57862 -1.05418
# Velocity P-wave (km/s) = 4.61666 4.17468 1.39384
#
# Compressibility (1/GPa) = -0.39798646
#
# Stress axis : x y z
#
# Youngs Moduli (GPa) = -18.13629 -4.48747 57.93665
#
# Poissons Ratio (x) = -0.37744 0.19888
# Poissons Ratio (y) = -1.52543 -1.09553
# Poissons Ratio (z) = -0.06226 0.08485
#
# Static dielectric constant tensor:
#      x y z
#    x 1.682260 0.000000 0.000000 
#    y 0.000000 1.702320 0.000000 
#    z 0.000000 0.000000 1.667130 
# 
# From -- ./inp_files/36896.got.cif
#   From: 2010.05.17/outbox.ucp.g08.bks.cvg/sg51_19_cif.got.tgz:36896.got - 2010.06.11 16:27:58.
