data_PCOD9407146
_publ_section_title
;
Structure prediction by ZEFSAII (Michael W. Deem and Ramdas Pophale) SiO2 
 PCOD9407146
Probable space group: P M M A
;
_chemical_formula_sum "Si O2"
_cell_formula_units_Z 56
_cell_length_a 22.766967
_cell_length_b 13.992839
_cell_length_c 10.168748
_cell_angle_alpha 90.000000
_cell_angle_beta 90.000000
_cell_angle_gamma 90.000000
_cell_volume 3239.503848
_symmetry_space_group_name_H-M "P M M A"
_symmetry_group_IT_number 51
_symmetry_cell_setting 'orthorhombic'
loop_
_space_group_symop_operation_xyz
x,y,z
1/2-x,-y,z
1/2+x,-y,-z
-x,y,-z
-x,-y,-z
1/2+x,y,-z
1/2-x,y,z
x,-y,z
loop_
_atom_site_type_symbol
_atom_site_label
_atom_site_fract_x
_atom_site_fract_y
_atom_site_fract_z
Si Si1 0.139465 0.885459 0.256092
Si Si2 0.686865 0.115640 0.465065
Si Si3 0.485855 0.805717 0.347656
Si Si4 0.900837 0.610152 0.021591
Si Si5 0.679840 0.209848 0.014235
Si Si6 0.508206 0.389648 0.780773
Si Si7 0.897946 0.885440 0.239326
O O1 0.177931 0.859791 0.383708
O O2 0.074223 0.852732 0.297108
O O3 0.140782 0.000000 0.237447
O O4 0.163675 0.833808 0.127664
O O5 0.750000 0.149321 0.415724
O O6 0.634939 0.148478 0.371940
O O7 0.686207 0.000000 0.458535
O O8 0.500000 0.830611 0.500000
O O9 0.483577 0.691566 0.327501
O O10 0.537184 0.843534 0.251535
O O11 0.881408 0.500000 0.023626
O O12 0.941190 0.623774 0.891532
O O13 0.847813 0.684276 0.022891
O O14 0.946172 0.624025 0.142955
O O15 0.750000 0.206436 0.035790
O O16 0.642453 0.149382 0.120210
O O17 0.510903 0.500000 0.735875
O O18 0.901598 0.000000 0.237097
#
# Coordination Sequence:
#
# PCOD9407146 Si02
#       7
#     8   8   8   8   8   8   8
#     4  11  23  37  55  82 116 153 192 235 279 331
#     4   9  18  35  55  73 103 153 200 230 265 319
#     4  12  22  36  60  87 113 146 190 238 289 341
#     4   9  18  36  61  84 107 141 185 232 287 347
#     4  12  24  38  58  85 115 151 194 237 281 334
#     4   9  18  36  61  84 109 141 181 233 291 347
#     4  11  23  37  55  82 116 153 192 235 279 331
#
# _framework density 17.286598000000001
#
# number of rings (size 3 to 8) (size 9 to 14) (size 15 to 20)
#    0.000    1.571    4.286    2.571    0.000    4.000 
#    0.000    1.429    0.000    0.000    0.000    0.000 
#    0.000    9.143    0.000    0.000    0.000    0.000 
#
# Total GULP energy -312397.718356 kJ/mol
# GULP energy per Si atom -5578.530685 kJ/mol
# Density = 1.724725 g / cm^3
# Si number density = 17.286598 Si / 1000 Ang^3
#
#
#
# Elastic Constant Matrix: (Units=GPa)
#
#
# Indices 1 2 3 4 5 6 
#
# 1 82.6541 10.0039 -9.8982 0.0000 0.0000 0.0000
# 2 10.0039 67.8747 1.6690 0.0000 0.0000 0.0000
# 3 -9.8982 1.6690 35.9966 0.0000 0.0000 0.0000
# 4 0.0000 0.0000 0.0000 18.7505 0.0000 0.0000
# 5 0.0000 0.0000 0.0000 0.0000 21.5410 0.0000
# 6 0.0000 0.0000 0.0000 0.0000 0.0000 14.1289
#
#
#
# Elastic Compliance Matrix: (Units=1/GPa)
#
#
# Indices 1 2 3 4 5 6 
#
# 1 0.012769 -0.001970 0.003602 0.000000 0.000000 0.000000
# 2 -0.001970 0.015054 -0.001240 0.000000 0.000000 0.000000
# 3 0.003602 -0.001240 0.028828 0.000000 0.000000 0.000000
# 4 0.000000 0.000000 0.000000 0.053332 0.000000 0.000000
# 5 0.000000 0.000000 0.000000 0.000000 0.046423 0.000000
# 6 0.000000 0.000000 0.000000 0.000000 0.000000 0.070777
#
#
# Mechanical properties :
#
#
# Convention : Reuss Voigt Hill
#
# Bulk Modulus (GPa) = 17.41097 21.11942 19.26520
# Shear Modulus (GPa) = 20.36295 23.20078 21.78187
#
# Velocity S-wave (km/s) = 3.43587 3.66748 3.55356
# Velocity P-wave (km/s) = 5.08272 5.49341 5.29205
#
# Compressibility (1/GPa) = 0.05743504
#
# Stress axis : x y z
#
# Youngs Moduli (GPa) = 78.31767 66.42776 34.68793
#
# Poissons Ratio (x) = 0.13090 -0.12496
# Poissons Ratio (y) = 0.15432 0.04301
# Poissons Ratio (z) = -0.28213 0.08236
#
# Static dielectric constant tensor:
#      x y z
#    x 1.590430 0.000000 0.000000 
#    y 0.000000 1.574850 0.000000 
#    z 0.000000 0.000000 1.589990 
# 
# From -- ./inp_files/11019.got.cif
#   From: 2010.05.17/outbox.cif.g08.bks.cpg/sg51_6_cif.got.tgz:11019.got - 2010.06.03 11:52:47.
