data_PCOD9407121
_publ_section_title
;
Structure prediction by ZEFSAII (Michael W. Deem and Ramdas Pophale) SiO2 
 PCOD9407121
Probable space group: P M M A
;
_chemical_formula_sum "Si O2"
_cell_formula_units_Z 48
_cell_length_a 8.793028
_cell_length_b 19.096613
_cell_length_c 15.000603
_cell_angle_alpha 90.000000
_cell_angle_beta 90.000000
_cell_angle_gamma 90.000000
_cell_volume 2518.857046
_symmetry_space_group_name_H-M "P M M A"
_symmetry_group_IT_number 51
_symmetry_cell_setting 'orthorhombic'
loop_
_space_group_symop_operation_xyz
x,y,z
1/2-x,-y,z
1/2+x,-y,-z
-x,y,-z
-x,-y,-z
1/2+x,y,-z
1/2-x,y,z
x,-y,z
loop_
_atom_site_type_symbol
_atom_site_label
_atom_site_fract_x
_atom_site_fract_y
_atom_site_fract_z
Si Si1 0.069048 0.226123 0.904273
Si Si2 0.575022 0.211791 0.409625
Si Si3 0.427730 0.921440 0.153185
Si Si4 0.569163 0.697833 0.738065
Si Si5 0.079378 0.920013 0.368627
Si Si6 0.067133 0.581465 0.403035
O O1 0.250000 0.227638 0.905897
O O2 0.015575 0.146611 0.881138
O O3 0.009052 0.280875 0.830269
O O4 0.000000 0.243946 0.000000
O O5 0.500000 0.238489 0.500000
O O6 0.750000 0.231936 0.401463
O O7 0.475832 0.239653 0.328255
O O8 0.551523 0.128642 0.406599
O O9 0.250000 0.915002 0.126711
O O10 0.431461 0.919800 0.260936
O O11 0.481056 0.000000 0.125793
O O12 0.750000 0.694188 0.751284
O O13 0.518699 0.629994 0.680157
O O14 0.250000 0.893542 0.392237
O O15 0.067441 0.000000 0.397374
O O16 0.250000 0.587530 0.409317
O O17 0.027834 0.500000 0.387285
O O18 0.000000 0.600809 0.500000
#
# Coordination Sequence:
#
# PCOD9407121 Si02
#       6
#     8   8   8   8   8   8
#     4  12  25  40  60  86 115 151 196 244 294 352
#     4  12  24  36  53  79 110 148 192 235 281 340
#     4   9  18  35  59  83 110 145 187 240 301 357
#     4  11  22  39  61  85 119 154 187 235 287 339
#     4   9  18  34  55  76 103 141 184 233 288 343
#     4   9  19  36  61  94 128 161 194 229 274 330
#
# _framework density 19.056263000000001
#
# number of rings (size 3 to 8) (size 9 to 14) (size 15 to 20)
#    0.000    1.667    1.667    5.000    0.000    4.000 
#    0.000    1.667    0.000    0.500    0.000    0.000 
#    0.000    0.000    0.000    0.000    0.000    0.000 
#
# Total GULP energy -268045.308416 kJ/mol
# GULP energy per Si atom -5584.277259 kJ/mol
# Density = 1.901289 g / cm^3
# Si number density = 19.056263 Si / 1000 Ang^3
#
#
#
# Elastic Constant Matrix: (Units=GPa)
#
#
# Indices 1 2 3 4 5 6 
#
# 1 78.9799 43.1238 46.4778 0.0000 0.0000 0.0000
# 2 43.1238 115.1377 54.9983 0.0000 0.0000 0.0000
# 3 46.4778 54.9983 133.2018 0.0000 0.0000 0.0000
# 4 0.0000 0.0000 0.0000 39.4576 0.0000 0.0000
# 5 0.0000 0.0000 0.0000 0.0000 29.2495 0.0000
# 6 0.0000 0.0000 0.0000 0.0000 0.0000 15.3412
#
#
#
# Elastic Compliance Matrix: (Units=1/GPa)
#
#
# Indices 1 2 3 4 5 6 
#
# 1 0.017679 -0.004578 -0.004278 0.000000 0.000000 0.000000
# 2 -0.004578 0.012004 -0.003359 0.000000 0.000000 0.000000
# 3 -0.004278 -0.003359 0.010387 0.000000 0.000000 0.000000
# 4 0.000000 0.000000 0.000000 0.025344 0.000000 0.000000
# 5 0.000000 0.000000 0.000000 0.000000 0.034189 0.000000
# 6 0.000000 0.000000 0.000000 0.000000 0.000000 0.065184
#
#
# Mechanical properties :
#
#
# Convention : Reuss Voigt Hill
#
# Bulk Modulus (GPa) = 63.94050 68.50214 66.22132
# Shear Modulus (GPa) = 25.71609 28.99097 27.35353
#
# Velocity S-wave (km/s) = 3.67752 3.90466 3.79279
# Velocity P-wave (km/s) = 7.18739 7.50692 7.34889
#
# Compressibility (1/GPa) = 0.01563954
#
# Stress axis : x y z
#
# Youngs Moduli (GPa) = 56.56529 83.30257 96.27130
#
# Poissons Ratio (x) = 0.38133 0.41189
# Poissons Ratio (y) = 0.25894 0.32340
# Poissons Ratio (z) = 0.24201 0.27984
#
# Static dielectric constant tensor:
#      x y z
#    x 1.646650 0.000000 0.000000 
#    y 0.000000 1.707450 0.000000 
#    z 0.000000 0.000000 1.606570 
# 
# From -- ./inp_files/21125.got.cif
#   From: 2010.05.17/outbox.cif.g08.bks.cpg/sg51_11_cif.got.tgz:21125.got - 2010.06.03 11:52:47.
