data_PCOD9407819
_publ_section_title
;
Structure prediction by ZEFSAII (Michael W. Deem and Ramdas Pophale) SiO2 
 PCOD9407819
Probable space group: P M M A
;
_chemical_formula_sum "Si O2"
_cell_formula_units_Z 64
_cell_length_a 9.000000
_cell_length_b 24.000000
_cell_length_c 15.000000
_cell_angle_alpha 90.000000
_cell_angle_beta 90.000000
_cell_angle_gamma 90.000000
_cell_volume 3240.000000
_symmetry_space_group_name_H-M "P M M A"
_symmetry_group_IT_number 51
_symmetry_cell_setting 'orthorhombic'
loop_
_space_group_symop_operation_xyz
x,y,z
1/2-x,-y,z
1/2+x,-y,-z
-x,y,-z
-x,-y,-z
1/2+x,y,-z
1/2-x,y,z
x,-y,z
loop_
_atom_site_type_symbol
_atom_site_label
_atom_site_fract_x
_atom_site_fract_y
_atom_site_fract_z
Si Si1 0.071719 0.279249 0.597443
Si Si2 0.073202 0.656762 0.098524
Si Si3 0.573254 0.766327 0.098186
Si Si4 0.431277 0.939595 0.722957
Si Si5 0.927877 0.402920 0.403668
Si Si6 0.929956 0.840241 0.401802
Si Si7 0.426421 0.891922 0.903931
Si Si8 0.574804 0.437823 0.212478
O O1 0.250000 0.280015 0.590921
O O2 0.028572 0.340391 0.629056
O O3 0.032121 0.220260 0.640676
O O4 0.000000 0.276167 0.500000
O O5 0.250000 0.660847 0.090022
O O6 0.006270 0.713497 0.141320
O O7 0.022653 0.605249 0.157961
O O8 0.000000 0.651031 0.000000
O O9 0.750000 0.756159 0.093400
O O10 0.550976 0.828778 0.132599
O O11 0.500000 0.768742 0.000000
O O12 0.250000 0.936972 0.724729
O O13 0.482630 0.890112 0.660059
O O14 0.479732 0.931418 0.825002
O O15 0.475460 0.000000 0.688848
O O16 0.750000 0.405520 0.416995
O O17 0.965241 0.438790 0.317367
O O18 0.000000 0.414696 0.500000
O O19 0.750000 0.842902 0.409686
O O20 0.000000 0.844194 0.500000
O O21 0.250000 0.898822 0.916475
O O22 0.500000 0.899001 0.000000
O O23 0.750000 0.421471 0.207458
O O24 0.560119 0.500000 0.175791
#
# Coordination Sequence:
#
# PCOD9407819 Si02
#       8
#     8   8   8   8   8   8   8   8
#     4   8  14  26  46  72  99 126 161 203 251 305
#     4  11  22  37  58  82 108 138 172 214 265 316
#     4   9  16  29  51  78 106 133 165 206 255 312
#     4   9  18  32  49  71  99 133 175 215 252 302
#     4   9  18  33  54  78 105 137 171 213 262 310
#     4   9  17  30  49  71  96 128 164 206 254 302
#     4   9  18  32  52  76 102 134 169 208 255 306
#     4  10  22  39  56  77 107 143 183 221 257 303
#
# _framework density 19.753086
#
# number of rings (size 3 to 8) (size 9 to 14) (size 15 to 20)
#    0.000    2.750    0.000    2.250    0.000    3.250 
#    0.000    4.375    0.000    5.250    0.000    0.000 
#    0.000    0.000    0.000    0.000    0.000    0.000 
#
# Total GULP energy -356467.229015 kJ/mol
# GULP energy per Si atom -5569.800453 kJ/mol
# Density = 1.970813 g / cm^3
# Si number density = 19.753086 Si / 1000 Ang^3
#
#
#
# Elastic Constant Matrix: (Units=GPa)
#
#
# Indices 1 2 3 4 5 6 
#
# 1 43.6127 26.2055 10.4016 0.0000 0.0000 0.0000
# 2 26.2055 100.3156 26.7538 0.0000 0.0000 0.0000
# 3 10.4016 26.7538 50.2325 0.0000 0.0000 0.0000
# 4 0.0000 0.0000 0.0000 8.7484 0.0000 0.0000
# 5 0.0000 0.0000 0.0000 0.0000 20.6002 0.0000
# 6 0.0000 0.0000 0.0000 0.0000 0.0000 1.5723
#
#
#
# Elastic Compliance Matrix: (Units=1/GPa)
#
#
# Indices 1 2 3 4 5 6 
#
# 1 0.027400 -0.006579 -0.002170 0.000000 0.000000 0.000000
# 2 -0.006579 0.013199 -0.005667 0.000000 0.000000 0.000000
# 3 -0.002170 -0.005667 0.023375 0.000000 0.000000 0.000000
# 4 0.000000 0.000000 0.000000 0.114306 0.000000 0.000000
# 5 0.000000 0.000000 0.000000 0.000000 0.048543 0.000000
# 6 0.000000 0.000000 0.000000 0.000000 0.000000 0.635996
#
#
# Mechanical properties :
#
#
# Convention : Reuss Voigt Hill
#
# Bulk Modulus (GPa) = 28.45635 35.65360 32.05498
# Shear Modulus (GPa) = 5.53486 14.90418 10.21952
#
# Velocity S-wave (km/s) = 1.67574 2.74984 2.27703
# Velocity P-wave (km/s) = 4.26397 5.30763 4.81417
#
# Compressibility (1/GPa) = 0.03514155
#
# Stress axis : x y z
#
# Youngs Moduli (GPa) = 36.49673 75.76552 42.78060
#
# Poissons Ratio (x) = 0.49846 0.09282
# Poissons Ratio (y) = 0.24011 0.24245
# Poissons Ratio (z) = 0.07919 0.42938
#
# Static dielectric constant tensor:
#      x y z
#    x 1.661020 0.000000 0.000000 
#    y 0.000000 1.775400 0.000000 
#    z 0.000000 0.000000 1.686240 
# 
# From -- ./inp_files/22216.got.cif
#   From: 2010.05.17/outbox.ucp.g08.bks.cvg/sg51_12_cif.got.tgz:22216.got - 2010.06.11 16:27:58.
