data_PCOD9407651
_publ_section_title
;
Structure prediction by ZEFSAII (Michael W. Deem and Ramdas Pophale) SiO2 
 PCOD9407651
Probable space group: P M M A
;
_chemical_formula_sum "Si O2"
_cell_formula_units_Z 56
_cell_length_a 15.000000
_cell_length_b 9.000000
_cell_length_c 21.000000
_cell_angle_alpha 90.000000
_cell_angle_beta 90.000000
_cell_angle_gamma 90.000000
_cell_volume 2835.000000
_symmetry_space_group_name_H-M "P M M A"
_symmetry_group_IT_number 51
_symmetry_cell_setting 'orthorhombic'
loop_
_space_group_symop_operation_xyz
x,y,z
1/2-x,-y,z
1/2+x,-y,-z
-x,y,-z
-x,-y,-z
1/2+x,y,-z
1/2-x,y,z
x,-y,z
loop_
_atom_site_type_symbol
_atom_site_label
_atom_site_fract_x
_atom_site_fract_y
_atom_site_fract_z
Si Si1 0.097757 0.323959 0.291839
Si Si2 0.147487 0.330850 0.157760
Si Si3 0.357470 0.330467 0.430209
Si Si4 0.917324 0.821937 0.300942
Si Si5 0.750000 0.174777 0.209141
Si Si6 0.250000 0.320231 0.928911
Si Si7 0.597595 0.321256 0.974767
Si Si8 0.144785 0.176339 0.557939
O O1 0.119224 0.500000 0.296673
O O2 0.143906 0.263794 0.228211
O O3 0.119965 0.260749 0.361620
O O4 0.995897 0.285033 0.279864
O O5 0.250000 0.342832 0.139168
O O6 0.110443 0.500000 0.165004
O O7 0.103981 0.256686 0.096478
O O8 0.250000 0.332974 0.432994
O O9 0.390538 0.500000 0.431694
O O10 0.390368 0.249819 0.493536
O O11 0.834498 0.796678 0.254468
O O12 0.897165 0.783032 0.374525
O O13 0.938575 0.000000 0.298565
O O14 0.750000 0.260906 0.142759
O O15 0.750000 0.000000 0.193819
O O16 0.250000 0.500000 0.925413
O O17 0.333566 0.269957 0.971793
O O18 0.613993 0.500000 0.967880
O O19 0.500000 0.299079 0.000000
O O20 0.250000 0.211790 0.563092
O O21 0.136540 0.000000 0.550993
#
# Coordination Sequence:
#
# PCOD9407651 Si02
#       8
#     8   8   8   8   4   4   8   8
#     4  10  21  33  51  80 109 135 172 220 263 306
#     4   9  16  30  51  74 105 146 180 206 250 310
#     4   9  18  33  51  75 108 142 172 210 264 318
#     4  10  21  38  56  74 101 137 177 217 264 319
#     4  10  22  40  58  74 103 144 174 210 269 326
#     4  10  20  34  56  86 111 136 176 224 265 310
#     4   9  17  29  48  79 115 140 167 216 267 306
#     4   9  17  33  56  75  94 131 182 223 254 304
#
# _framework density 19.753086
#
# number of rings (size 3 to 8) (size 9 to 14) (size 15 to 20)
#    0.000    2.571    1.429    0.429    2.000    4.000 
#    0.000    2.857    0.000    2.571    0.000    0.000 
#    0.000    0.000    0.000    0.000    0.000    0.000 
#
# Total GULP energy -311738.874481 kJ/mol
# GULP energy per Si atom -5566.765616 kJ/mol
# Density = 1.970813 g / cm^3
# Si number density = 19.753086 Si / 1000 Ang^3
#
#
#
# Elastic Constant Matrix: (Units=GPa)
#
#
# Indices 1 2 3 4 5 6 
#
# 1 35.4850 6.5478 51.5496 0.0000 0.0000 0.0000
# 2 6.5478 -23.1626 3.3706 0.0000 0.0000 0.0000
# 3 51.5496 3.3706 141.7435 0.0000 0.0000 0.0000
# 4 0.0000 0.0000 0.0000 88.6053 0.0000 0.0000
# 5 0.0000 0.0000 0.0000 0.0000 -17.0992 0.0000
# 6 0.0000 0.0000 0.0000 0.0000 0.0000 10.3379
#
#
#
# Elastic Compliance Matrix: (Units=1/GPa)
#
#
# Indices 1 2 3 4 5 6 
#
# 1 0.055692 0.012752 -0.020557 0.000000 0.000000 0.000000
# 2 0.012752 -0.040104 -0.003684 0.000000 0.000000 0.000000
# 3 -0.020557 -0.003684 0.014619 0.000000 0.000000 0.000000
# 4 0.000000 0.000000 0.000000 0.011286 0.000000 0.000000
# 5 0.000000 0.000000 0.000000 0.000000 -0.058482 0.000000
# 6 0.000000 0.000000 0.000000 0.000000 0.000000 0.096731
#
#
# Mechanical properties :
#
#
# Convention : Reuss Voigt Hill
#
# Bulk Modulus (GPa) = 138.35414 30.77800 84.56607
# Shear Modulus (GPa) = 47.56021 22.54199 35.05110
#
# Velocity S-wave (km/s) = 4.91219 3.38181 4.21701
# Velocity P-wave (km/s) = 10.11764 5.55554 8.16182
#
# Compressibility (1/GPa) = 0.00722783
#
# Stress axis : x y z
#
# Youngs Moduli (GPa) = 17.95588 -24.93498 68.40423
#
# Poissons Ratio (x) = 0.31797 1.40622
# Poissons Ratio (y) = -0.22897 0.25200
# Poissons Ratio (z) = 0.36913 -0.09186
#
# Static dielectric constant tensor:
#      x y z
#    x 1.734830 0.000000 0.000000 
#    y 0.000000 1.694890 0.000000 
#    z 0.000000 0.000000 1.730780 
# 
# From -- ./inp_files/33535.got.cif
#   From: 2010.05.17/outbox.ucp.g08.bks.cvg/sg51_17_cif.got.tgz:33535.got - 2010.06.11 16:27:58.
