data_PCOD9407846
_publ_section_title
;
Structure prediction by ZEFSAII (Michael W. Deem and Ramdas Pophale) SiO2 
 PCOD9407846
Probable space group: P M M A
;
_chemical_formula_sum "Si O2"
_cell_formula_units_Z 40
_cell_length_a 9.000000
_cell_length_b 9.000000
_cell_length_c 27.000000
_cell_angle_alpha 90.000000
_cell_angle_beta 90.000000
_cell_angle_gamma 90.000000
_cell_volume 2187.000000
_symmetry_space_group_name_H-M "P M M A"
_symmetry_group_IT_number 51
_symmetry_cell_setting 'orthorhombic'
loop_
_space_group_symop_operation_xyz
x,y,z
1/2-x,-y,z
1/2+x,-y,-z
-x,y,-z
-x,-y,-z
1/2+x,y,-z
1/2-x,y,z
x,-y,z
loop_
_atom_site_type_symbol
_atom_site_label
_atom_site_fract_x
_atom_site_fract_y
_atom_site_fract_z
Si Si1 0.079657 0.181454 0.350577
Si Si2 0.568823 0.328698 0.150368
Si Si3 0.927672 0.175494 0.050221
Si Si4 0.574543 0.822437 0.250476
Si Si5 0.080043 0.181561 0.549823
O O1 0.250000 0.225094 0.352290
O O2 0.004595 0.231951 0.299929
O O3 0.997490 0.231905 0.399960
O O4 0.072855 0.000000 0.350356
O O5 0.750000 0.317281 0.150315
O O6 0.528783 0.500000 0.151263
O O7 0.517274 0.253397 0.099855
O O8 0.516797 0.248863 0.200064
O O9 0.750000 0.193160 0.047002
O O10 0.959462 0.000000 0.054051
O O11 0.000000 0.233730 0.000000
O O12 0.750000 0.791460 0.254966
O O13 0.557285 0.000000 0.246977
O O14 0.250000 0.226797 0.549291
O O15 0.000000 0.231359 0.500000
O O16 0.075450 0.000000 0.549893
#
# Coordination Sequence:
#
# PCOD9407846 Si02
#       5
#     8   8   8   8   8
#     4   9  16  25  37  55  80 110 144 181 221 265
#     4   9  17  29  46  67  89 114 146 183 221 262
#     4   9  17  30  48  69  92 118 148 181 217 259
#     4   9  16  27  44  63  82 108 144 183 220 260
#     4   9  15  22  33  51  78 112 147 182 222 268
#
# _framework density 18.289895000000001
#
# number of rings (size 3 to 8) (size 9 to 14) (size 15 to 20)
#    0.000    3.000    0.000    1.800    0.000    7.600 
#    0.000    1.000    0.000    6.600    0.000    0.000 
#    0.000    0.800    0.000    2.200    0.000    4.000 
#
# Total GULP energy -222848.711724 kJ/mol
# GULP energy per Si atom -5571.217793 kJ/mol
# Density = 1.824827 g / cm^3
# Si number density = 18.289895 Si / 1000 Ang^3
#
#
#
# Elastic Constant Matrix: (Units=GPa)
#
#
# Indices 1 2 3 4 5 6 
#
# 1 52.3707 44.2607 99.0605 0.0000 0.0000 0.0000
# 2 44.2607 -9.8016 44.9844 0.0000 0.0000 0.0000
# 3 99.0605 44.9844 246.3699 0.0000 0.0000 0.0000
# 4 0.0000 0.0000 0.0000 -18.6527 0.0000 0.0000
# 5 0.0000 0.0000 0.0000 0.0000 30.6166 0.0000
# 6 0.0000 0.0000 0.0000 0.0000 0.0000 3.1923
#
#
#
# Elastic Compliance Matrix: (Units=1/GPa)
#
#
# Indices 1 2 3 4 5 6 
#
# 1 0.019776 0.028732 -0.013198 0.000000 0.000000 0.000000
# 2 0.028732 -0.013766 -0.009039 0.000000 0.000000 0.000000
# 3 -0.013198 -0.009039 0.011016 0.000000 0.000000 0.000000
# 4 0.000000 0.000000 0.000000 -0.053612 0.000000 0.000000
# 5 0.000000 0.000000 0.000000 0.000000 0.032662 0.000000
# 6 0.000000 0.000000 0.000000 0.000000 0.000000 0.313256
#
#
# Mechanical properties :
#
#
# Convention : Reuss Voigt Hill
#
# Bulk Modulus (GPa) = 33.31561 73.95004 53.63283
# Shear Modulus (GPa) = 16.32133 9.74012 13.03073
#
# Velocity S-wave (km/s) = 2.99049 2.31019 2.67208
# Velocity P-wave (km/s) = 5.49354 6.90188 6.23758
#
# Compressibility (1/GPa) = 0.03001596
#
# Stress axis : x y z
#
# Youngs Moduli (GPa) = 50.56631 -72.64264 90.77834
#
# Poissons Ratio (x) = 2.08714 1.19806
# Poissons Ratio (y) = -1.45285 0.82053
# Poissons Ratio (z) = 0.66735 -0.65661
#
# Static dielectric constant tensor:
#      x y z
#    x 1.618490 0.000000 0.000000 
#    y 0.000000 1.599690 0.000000 
#    z 0.000000 0.000000 1.644180 
# 
# From -- ./inp_files/34327.got.cif
#   From: 2010.05.17/outbox.ucp.g08.bks.cvg/sg51_18_cif.got.tgz:34327.got - 2010.06.11 16:27:58.
