data_PCOD9407790
_publ_section_title
;
Structure prediction by ZEFSAII (Michael W. Deem and Ramdas Pophale) SiO2 
 PCOD9407790
Probable space group: P M M A
;
_chemical_formula_sum "Si O2"
_cell_formula_units_Z 64
_cell_length_a 9.000000
_cell_length_b 24.000000
_cell_length_c 15.000000
_cell_angle_alpha 90.000000
_cell_angle_beta 90.000000
_cell_angle_gamma 90.000000
_cell_volume 3240.000000
_symmetry_space_group_name_H-M "P M M A"
_symmetry_group_IT_number 51
_symmetry_cell_setting 'orthorhombic'
loop_
_space_group_symop_operation_xyz
x,y,z
1/2-x,-y,z
1/2+x,-y,-z
-x,y,-z
-x,-y,-z
1/2+x,y,-z
1/2-x,y,z
x,-y,z
loop_
_atom_site_type_symbol
_atom_site_label
_atom_site_fract_x
_atom_site_fract_y
_atom_site_fract_z
Si Si1 0.574094 0.251819 0.647581
Si Si2 0.927773 0.622503 0.592866
Si Si3 0.077361 0.765894 0.832306
Si Si4 0.429020 0.562869 0.229595
Si Si5 0.576275 0.354816 0.091457
Si Si6 0.926256 0.110086 0.094358
Si Si7 0.925959 0.140975 0.411720
Si Si8 0.425342 0.935813 0.265903
O O1 0.750000 0.244824 0.631898
O O2 0.529328 0.314316 0.620551
O O3 0.534017 0.242049 0.750618
O O4 0.482750 0.204151 0.597984
O O5 0.750000 0.622475 0.585144
O O6 0.969360 0.579465 0.669860
O O7 0.000000 0.608155 0.500000
O O8 0.250000 0.766246 0.799498
O O9 0.059510 0.711361 0.892718
O O10 0.052419 0.824522 0.880470
O O11 0.250000 0.565866 0.221881
O O12 0.475640 0.500000 0.207181
O O13 0.500020 0.609814 0.168455
O O14 0.750000 0.367213 0.089577
O O15 0.500000 0.370784 0.000000
O O16 0.750000 0.099284 0.094170
O O17 0.008956 0.073896 0.168307
O O18 0.000000 0.099419 0.000000
O O19 0.750000 0.139361 0.416249
O O20 0.000000 0.116542 0.500000
O O21 0.986190 0.106158 0.328825
O O22 0.250000 0.922807 0.268132
O O23 0.445431 0.000000 0.293229
#
# Coordination Sequence:
#
# PCOD9407790 Si02
#       8
#     8   8   8   8   8   8   8   8
#     4  11  21  36  62  92 125 163 201 246 304 365
#     4  10  22  38  59  90 121 158 199 244 302 360
#     4  10  21  37  60  92 125 161 198 246 304 364
#     4  10  22  42  63  84 116 158 206 257 307 360
#     4  11  23  39  62  91 124 159 201 248 303 365
#     4  11  23  40  64  94 127 164 205 250 305 366
#     4  12  25  42  65  94 128 164 206 251 306 369
#     4  11  25  45  67  92 123 162 210 260 310 363
#
# _framework density 19.753086
#
# number of rings (size 3 to 8) (size 9 to 14) (size 15 to 20)
#    0.000    1.250    2.500    3.375    0.000    5.750 
#    0.000    0.000    0.000    0.000    0.000    0.000 
#    0.000    0.000    0.000    0.000    0.000    0.000 
#
# Total GULP energy -357715.201600 kJ/mol
# GULP energy per Si atom -5589.300025 kJ/mol
# Density = 1.970813 g / cm^3
# Si number density = 19.753086 Si / 1000 Ang^3
#
#
#
# Elastic Constant Matrix: (Units=GPa)
#
#
# Indices 1 2 3 4 5 6 
#
# 1 64.6377 24.7041 22.5640 0.0000 0.0000 0.0000
# 2 24.7041 43.1801 -13.6096 0.0000 0.0000 0.0000
# 3 22.5640 -13.6096 73.2241 0.0000 0.0000 0.0000
# 4 0.0000 0.0000 0.0000 -21.3421 0.0000 0.0000
# 5 0.0000 0.0000 0.0000 0.0000 34.1331 0.0000
# 6 0.0000 0.0000 0.0000 0.0000 0.0000 -29.9266
#
#
#
# Elastic Compliance Matrix: (Units=1/GPa)
#
#
# Indices 1 2 3 4 5 6 
#
# 1 0.026924 -0.019140 -0.011854 0.000000 0.000000 0.000000
# 2 -0.019140 0.038206 0.012999 0.000000 0.000000 0.000000
# 3 -0.011854 0.012999 0.019726 0.000000 0.000000 0.000000
# 4 0.000000 0.000000 0.000000 -0.046856 0.000000 0.000000
# 5 0.000000 0.000000 0.000000 0.000000 0.029297 0.000000
# 6 0.000000 0.000000 0.000000 0.000000 0.000000 -0.033415
#
#
# Mechanical properties :
#
#
# Convention : Reuss Voigt Hill
#
# Bulk Modulus (GPa) = 20.46413 27.59543 24.02978
# Shear Modulus (GPa) = 58.03137 6.39846 32.21491
#
# Velocity S-wave (km/s) = 5.42606 1.80174 4.04280
# Velocity P-wave (km/s) = 7.04547 4.28122 5.82956
#
# Compressibility (1/GPa) = 0.04886600
#
# Stress axis : x y z
#
# Youngs Moduli (GPa) = 37.14152 26.17381 50.69561
#
# Poissons Ratio (x) = 0.50096 0.60095
# Poissons Ratio (y) = 0.71088 -0.65900
# Poissons Ratio (z) = 0.44028 -0.34023
#
# Static dielectric constant tensor:
#      x y z
#    x 1.659980 0.000000 0.000000 
#    y 0.000000 1.673400 0.000000 
#    z 0.000000 0.000000 1.636270 
# 
# From -- ./inp_files/22246.got.cif
#   From: 2010.05.17/outbox.ucp.g08.bks.cvg/sg51_12_cif.got.tgz:22246.got - 2010.06.11 16:27:58.
