data_PCOD9407399
_publ_section_title
;
Structure prediction by ZEFSAII (Michael W. Deem and Ramdas Pophale) SiO2 
 PCOD9407399
Probable space group: P M M A
;
_chemical_formula_sum "Si O2"
_cell_formula_units_Z 40
_cell_length_a 28.359176
_cell_length_b 14.205145
_cell_length_c 5.323865
_cell_angle_alpha 90.000000
_cell_angle_beta 90.000000
_cell_angle_gamma 90.000000
_cell_volume 2144.698823
_symmetry_space_group_name_H-M "P M M A"
_symmetry_group_IT_number 51
_symmetry_cell_setting 'orthorhombic'
loop_
_space_group_symop_operation_xyz
x,y,z
1/2-x,-y,z
1/2+x,-y,-z
-x,y,-z
-x,-y,-z
1/2+x,y,-z
1/2-x,y,z
x,-y,z
loop_
_atom_site_type_symbol
_atom_site_label
_atom_site_fract_x
_atom_site_fract_y
_atom_site_fract_z
Si Si1 0.945850 0.614867 0.454354
Si Si2 0.106377 0.613693 0.049263
Si Si3 0.695475 0.609129 0.264328
Si Si4 0.192452 0.890997 0.927779
Si Si5 0.806883 0.213495 0.576431
O O1 0.944164 0.500000 0.450675
O O2 0.925593 0.645942 0.186221
O O3 0.000000 0.641345 0.500000
O O4 0.913939 0.648614 0.687299
O O5 0.102276 0.500000 0.061730
O O6 0.159806 0.630798 0.960364
O O7 0.750000 0.622793 0.187359
O O8 0.688952 0.500000 0.338528
O O9 0.685107 0.679120 0.492397
O O10 0.250000 0.887429 0.925733
O O11 0.176877 0.848233 0.662246
O O12 0.179261 0.000000 0.956116
O O13 0.175300 0.829160 0.163201
O O14 0.750000 0.204378 0.589083
#
# Coordination Sequence:
#
# PCOD9407399 Si02
#       5
#     8   8   8   8   8
#     4   9  16  27  43  61  79 100 135 186 234 272
#     4   9  17  28  42  60  81 109 146 183 221 261
#     4   9  18  32  46  62  90 128 166 197 216 242
#     4   9  16  27  43  61  79 100 135 186 234 272
#     4   9  17  28  42  60  81 109 146 183 221 261
#
# _framework density 18.650638000000001
#
# number of rings (size 3 to 8) (size 9 to 14) (size 15 to 20)
#    0.000    3.000    0.000    1.200    0.000    6.400 
#    0.000    6.000    0.000   16.800    0.000    0.000 
#    0.000    0.000    0.000    0.000    0.000   70.000 
#
# Total GULP energy -223180.637259 kJ/mol
# GULP energy per Si atom -5579.515931 kJ/mol
# Density = 1.860819 g / cm^3
# Si number density = 18.650638 Si / 1000 Ang^3
#
#
#
# Elastic Constant Matrix: (Units=GPa)
#
#
# Indices 1 2 3 4 5 6 
#
# 1 76.2252 14.2723 28.2693 0.0000 0.0000 0.0000
# 2 14.2723 78.4775 32.8100 0.0000 0.0000 0.0000
# 3 28.2693 32.8100 111.3841 0.0000 0.0000 0.0000
# 4 0.0000 0.0000 0.0000 12.6732 0.0000 0.0000
# 5 0.0000 0.0000 0.0000 0.0000 14.0051 0.0000
# 6 0.0000 0.0000 0.0000 0.0000 0.0000 2.8099
#
#
#
# Elastic Compliance Matrix: (Units=1/GPa)
#
#
# Indices 1 2 3 4 5 6 
#
# 1 0.014591 -0.001261 -0.003332 0.000000 0.000000 0.000000
# 2 -0.001261 0.014641 -0.003993 0.000000 0.000000 0.000000
# 3 -0.003332 -0.003993 0.011000 0.000000 0.000000 0.000000
# 4 0.000000 0.000000 0.000000 0.078907 0.000000 0.000000
# 5 0.000000 0.000000 0.000000 0.000000 0.071403 0.000000
# 6 0.000000 0.000000 0.000000 0.000000 0.000000 0.355889
#
#
# Mechanical properties :
#
#
# Convention : Reuss Voigt Hill
#
# Bulk Modulus (GPa) = 43.36309 46.31000 44.83654
# Shear Modulus (GPa) = 8.75217 18.61331 13.68274
#
# Velocity S-wave (km/s) = 2.16861 3.16254 2.71151
# Velocity P-wave (km/s) = 5.43794 6.18221 5.82198
#
# Compressibility (1/GPa) = 0.02306109
#
# Stress axis : x y z
#
# Youngs Moduli (GPa) = 68.53678 68.30092 90.91150
#
# Poissons Ratio (x) = 0.08610 0.30290
# Poissons Ratio (y) = 0.08640 0.36299
# Poissons Ratio (z) = 0.22835 0.27271
#
# Static dielectric constant tensor:
#      x y z
#    x 1.657950 0.000000 0.000000 
#    y 0.000000 1.654860 0.000000 
#    z 0.000000 0.000000 1.684640 
# 
# From -- ./inp_files/3449.got.cif
#   From: 2010.05.17/outbox.cif.g08.bks.cpg/sg51_2_cif.got.tgz:3449.got - 2010.06.03 11:52:47.
