data_PCOD9407119
_publ_section_title
;
Structure prediction by ZEFSAII (Michael W. Deem and Ramdas Pophale) SiO2 
 PCOD9407119
Probable space group: P M M A
;
_chemical_formula_sum "Si O2"
_cell_formula_units_Z 58
_cell_length_a 14.866396
_cell_length_b 26.240805
_cell_length_c 7.801800
_cell_angle_alpha 90.000000
_cell_angle_beta 90.000000
_cell_angle_gamma 90.000000
_cell_volume 3043.530539
_symmetry_space_group_name_H-M "P M M A"
_symmetry_group_IT_number 51
_symmetry_cell_setting 'orthorhombic'
loop_
_space_group_symop_operation_xyz
x,y,z
1/2-x,-y,z
1/2+x,-y,-z
-x,y,-z
-x,-y,-z
1/2+x,y,-z
1/2-x,y,z
x,-y,z
loop_
_atom_site_type_symbol
_atom_site_label
_atom_site_fract_x
_atom_site_fract_y
_atom_site_fract_z
Si Si1 0.146339 0.330736 0.290954
Si Si2 0.353621 0.943399 0.292971
Si Si3 0.853661 0.669264 0.290954
Si Si4 0.500000 0.585797 0.197288
Si Si5 0.000000 0.747279 0.300238
Si Si6 0.146379 0.056601 0.707029
Si Si7 0.500000 0.500000 0.500000
Si Si8 0.000000 0.861604 0.195983
O O1 0.250000 0.330667 0.234166
O O2 0.147667 0.332957 0.500000
O O3 0.087452 0.378162 0.225417
O O4 0.089781 0.280742 0.233021
O O5 0.250000 0.937212 0.240255
O O6 0.356265 0.943736 0.500000
O O7 0.415246 0.897609 0.233731
O O8 0.384093 0.000000 0.235856
O O9 0.750000 0.669333 0.234166
O O10 0.910219 0.719258 0.233021
O O11 0.912548 0.621838 0.225417
O O12 0.500000 0.544153 0.347053
O O13 0.500000 0.567071 0.000000
O O14 0.000000 0.807812 0.289446
O O15 0.000000 0.734287 0.500000
O O16 0.250000 0.062788 0.759745
O O17 0.084754 0.102391 0.766269
O O18 0.115907 0.000000 0.764144
O O19 0.000000 0.847107 0.000000
#
# Coordination Sequence:
#
# PCOD9407119 Si02
#       8
#     8   8   8   8   8   8   2   8
#     4   9  18  38  65  88 115 152 195 245 296 347
#     4   9  19  37  59  78  98 134 185 233 278 339
#     4   9  18  38  65  88 115 152 195 245 296 347
#     4  11  22  38  63  93 125 165 204 241 297 351
#     4   9  19  35  56  84 113 150 197 238 284 340
#     4   9  19  37  59  78  98 134 185 233 278 339
#     4  12  22  44  62  90 136 166 202 256 288 330
#     4  12  24  34  49  79 117 148 176 226 291 344
#
# _framework density 19.056816000000001
#
# number of rings (size 3 to 8) (size 9 to 14) (size 15 to 20)
#    0.000    2.207    1.379    3.517    0.000    6.621 
#    0.000    5.517    0.000    1.655    0.000    0.000 
#    0.000    0.000    0.000    0.000    0.000    0.000 
#
# Total GULP energy -322915.627266 kJ/mol
# GULP energy per Si atom -5567.510815 kJ/mol
# Density = 1.901344 g / cm^3
# Si number density = 19.056816 Si / 1000 Ang^3
#
#
#
# Elastic Constant Matrix: (Units=GPa)
#
#
# Indices 1 2 3 4 5 6 
#
# 1 149.3743 69.3906 21.9653 0.0000 0.0000 0.0000
# 2 69.3906 129.9227 10.8346 0.0000 0.0000 0.0000
# 3 21.9653 10.8346 59.0129 0.0000 0.0000 0.0000
# 4 0.0000 0.0000 0.0000 -31.1469 0.0000 0.0000
# 5 0.0000 0.0000 0.0000 0.0000 28.5775 0.0000
# 6 0.0000 0.0000 0.0000 0.0000 0.0000 -11.0057
#
#
#
# Elastic Compliance Matrix: (Units=1/GPa)
#
#
# Indices 1 2 3 4 5 6 
#
# 1 0.009276 -0.004739 -0.002583 0.000000 0.000000 0.000000
# 2 -0.004739 0.010237 -0.000116 0.000000 0.000000 0.000000
# 3 -0.002583 -0.000116 0.017928 0.000000 0.000000 0.000000
# 4 0.000000 0.000000 0.000000 -0.032106 0.000000 0.000000
# 5 0.000000 0.000000 0.000000 0.000000 0.034993 0.000000
# 6 0.000000 0.000000 0.000000 0.000000 0.000000 -0.090862
#
#
# Mechanical properties :
#
#
# Convention : Reuss Voigt Hill
#
# Bulk Modulus (GPa) = 44.31223 60.29896 52.30559
# Shear Modulus (GPa) = -177.69334 13.02628 -82.33353
#
# Velocity S-wave (km/s) = -9.66677 2.61731 -6.58012
# Velocity P-wave (km/s) = 10.06439 6.39094 5.49763
#
# Compressibility (1/GPa) = 0.02256714
#
# Stress axis : x y z
#
# Youngs Moduli (GPa) = 107.80898 97.68075 55.77882
#
# Poissons Ratio (x) = 0.46288 0.14405
# Poissons Ratio (y) = 0.51087 0.00646
# Poissons Ratio (z) = 0.27842 0.01131
#
# Static dielectric constant tensor:
#      x y z
#    x 1.667700 0.000000 0.000000 
#    y 0.000000 1.702660 0.000000 
#    z 0.000000 0.000000 1.689850 
# 
# From -- ./inp_files/8636.got.cif
#   From: 2010.05.17/outbox.cif.g08.bks.cpg/sg51_5_cif.got.tgz:8636.got - 2010.06.03 11:52:47.
