data_PCOD9407495
_publ_section_title
;
Structure prediction by ZEFSAII (Michael W. Deem and Ramdas Pophale) SiO2 
 PCOD9407495
Probable space group: P M M A
;
_chemical_formula_sum "Si O2"
_cell_formula_units_Z 56
_cell_length_a 21.000000
_cell_length_b 9.000000
_cell_length_c 15.000000
_cell_angle_alpha 90.000000
_cell_angle_beta 90.000000
_cell_angle_gamma 90.000000
_cell_volume 2835.000000
_symmetry_space_group_name_H-M "P M M A"
_symmetry_group_IT_number 51
_symmetry_cell_setting 'orthorhombic'
loop_
_space_group_symop_operation_xyz
x,y,z
1/2-x,-y,z
1/2+x,-y,-z
-x,y,-z
-x,-y,-z
1/2+x,y,-z
1/2-x,y,z
x,-y,z
loop_
_atom_site_type_symbol
_atom_site_label
_atom_site_fract_x
_atom_site_fract_y
_atom_site_fract_z
Si Si1 0.250000 0.677089 0.136989
Si Si2 0.969228 0.321425 0.703185
Si Si3 0.750000 0.833436 0.048537
Si Si4 0.860303 0.171945 0.194533
Si Si5 0.425808 0.828439 0.467939
Si Si6 0.429826 0.822692 0.965498
Si Si7 0.388664 0.323861 0.640495
Si Si8 0.115047 0.320793 0.139249
O O1 0.250000 0.500000 0.142979
O O2 0.316572 0.727694 0.177486
O O3 0.250000 0.720957 0.032712
O O4 0.967243 0.500000 0.702597
O O5 0.925423 0.260218 0.623859
O O6 0.940681 0.267149 0.796216
O O7 0.041484 0.279656 0.679514
O O8 0.691883 0.821814 0.117019
O O9 0.750000 0.000000 0.009087
O O10 0.919288 0.230358 0.135223
O O11 0.843742 0.265366 0.281176
O O12 0.869862 0.000000 0.221554
O O13 0.500000 0.820370 0.500000
O O14 0.384260 0.754770 0.545632
O O15 0.409740 0.000000 0.455782
O O16 0.418050 0.000000 0.965909
O O17 0.500000 0.795291 0.000000
O O18 0.388650 0.743721 0.040588
O O19 0.385824 0.500000 0.630278
O O20 0.111731 0.500000 0.134023
#
# Coordination Sequence:
#
# PCOD9407495 Si02
#       8
#     4   8   4   8   8   8   8   8
#     4  10  20  34  52  73  96 129 176 217 248 290
#     4   9  18  32  49  73 104 134 164 201 251 306
#     4  10  20  36  54  69  92 133 176 213 256 296
#     4  10  20  33  49  70  98 130 167 209 250 295
#     4   9  17  30  50  75 102 131 163 202 247 298
#     4  10  20  32  48  72 101 132 165 204 250 301
#     4  10  19  31  50  75 102 132 164 201 250 306
#     4  10  20  33  50  72 100 133 168 209 251 294
#
# _framework density 19.753086
#
# number of rings (size 3 to 8) (size 9 to 14) (size 15 to 20)
#    0.000    2.286    1.429    1.714    0.000    4.286 
#    0.000    0.000    0.000    0.857    0.000    3.000 
#    0.000    0.000    0.000    0.000    0.000    0.000 
#
# Total GULP energy -311769.423461 kJ/mol
# GULP energy per Si atom -5567.311133 kJ/mol
# Density = 1.970813 g / cm^3
# Si number density = 19.753086 Si / 1000 Ang^3
#
#
#
# Elastic Constant Matrix: (Units=GPa)
#
#
# Indices 1 2 3 4 5 6 
#
# 1 47.8541 -2.1747 -6.3829 0.0000 0.0000 0.0000
# 2 -2.1747 -39.9124 -19.3484 0.0000 0.0000 0.0000
# 3 -6.3829 -19.3484 51.6979 0.0000 0.0000 0.0000
# 4 0.0000 0.0000 0.0000 28.8546 0.0000 0.0000
# 5 0.0000 0.0000 0.0000 0.0000 1.3653 0.0000
# 6 0.0000 0.0000 0.0000 0.0000 0.0000 0.2671
#
#
#
# Elastic Compliance Matrix: (Units=1/GPa)
#
#
# Indices 1 2 3 4 5 6 
#
# 1 0.021049 -0.002037 0.001836 0.000000 0.000000 0.000000
# 2 -0.002037 -0.021010 -0.008115 0.000000 0.000000 0.000000
# 3 0.001836 -0.008115 0.016533 0.000000 0.000000 0.000000
# 4 0.000000 0.000000 0.000000 0.034657 0.000000 0.000000
# 5 0.000000 0.000000 0.000000 0.000000 0.732416 0.000000
# 6 0.000000 0.000000 0.000000 0.000000 0.000000 3.743351
#
#
# Mechanical properties :
#
#
# Convention : Reuss Voigt Hill
#
# Bulk Modulus (GPa) = -17012.05799 0.42530 -8505.81635
# Shear Modulus (GPa) = 1.10045 11.93379 6.51712
#
# Velocity S-wave (km/s) = 0.74720 2.46061 1.81837
# Velocity P-wave (km/s) = 92.89944 2.87899 65.65827
#
# Compressibility (1/GPa) = -0.00005878
#
# Stress axis : x y z
#
# Youngs Moduli (GPa) = 47.50763 -47.59615 60.48554
#
# Poissons Ratio (x) = -0.09696 -0.11108
# Poissons Ratio (y) = 0.09678 0.49082
# Poissons Ratio (z) = -0.08725 -0.38623
#
# Static dielectric constant tensor:
#      x y z
#    x 1.882380 0.000000 0.000000 
#    y 0.000000 1.651190 0.000000 
#    z 0.000000 0.000000 1.692390 
# 
# From -- ./inp_files/25902.got.cif
#   From: 2010.05.17/outbox.ucp.g08.bks.cvg/sg51_13_cif.got.tgz:25902.got - 2010.06.11 16:27:58.
