data_PCOD9407077
_publ_section_title
;
Structure prediction by ZEFSAII (Michael W. Deem and Ramdas Pophale) SiO2 
 PCOD9407077
Probable space group: P M M A
;
_chemical_formula_sum "Si O2"
_cell_formula_units_Z 48
_cell_length_a 8.848092
_cell_length_b 14.041186
_cell_length_c 24.829950
_cell_angle_alpha 90.000000
_cell_angle_beta 90.000000
_cell_angle_gamma 90.000000
_cell_volume 3084.816016
_symmetry_space_group_name_H-M "P M M A"
_symmetry_group_IT_number 51
_symmetry_cell_setting 'orthorhombic'
loop_
_space_group_symop_operation_xyz
x,y,z
1/2-x,-y,z
1/2+x,-y,-z
-x,y,-z
-x,-y,-z
1/2+x,y,-z
1/2-x,y,z
x,-y,z
loop_
_atom_site_type_symbol
_atom_site_label
_atom_site_fract_x
_atom_site_fract_y
_atom_site_fract_z
Si Si1 0.074899 0.115763 0.555583
Si Si2 0.932959 0.793656 0.777515
Si Si3 0.932203 0.888361 0.667946
Si Si4 0.930220 0.292485 0.057286
Si Si5 0.567502 0.391611 0.839309
Si Si6 0.932306 0.890479 0.889439
O O1 0.250000 0.141507 0.556344
O O2 0.000000 0.149333 0.500000
O O3 0.995723 0.146436 0.610858
O O4 0.064201 0.000000 0.555207
O O5 0.750000 0.794944 0.774602
O O6 0.988065 0.830871 0.720093
O O7 0.978527 0.687465 0.795289
O O8 0.972343 0.862115 0.827782
O O9 0.750000 0.883647 0.665876
O O10 0.972737 0.000000 0.674753
O O11 0.750000 0.295357 0.055477
O O12 0.992985 0.359690 0.104693
O O13 0.987161 0.186311 0.072859
O O14 0.000000 0.319485 0.000000
O O15 0.750000 0.385004 0.845324
O O16 0.529023 0.500000 0.825498
O O17 0.750000 0.879421 0.894702
O O18 0.970852 0.000000 0.900464
#
# Coordination Sequence:
#
# PCOD9407077 Si02
#       6
#     8   8   8   8   8   8
#     4   9  16  25  36  52  78 113 151 186 216 246
#     4   8  14  26  45  68  90 113 144 178 213 257
#     4   9  15  23  38  60  86 117 149 177 206 245
#     4  11  22  35  50  68  91 116 145 181 219 264
#     4   9  18  34  54  72  90 113 142 179 223 268
#     4   9  17  31  50  69  91 120 151 182 216 255
#
# _framework density 15.560086
#
# number of rings (size 3 to 8) (size 9 to 14) (size 15 to 20)
#    0.000    2.833    0.000    3.500    0.000    5.333 
#    0.000    3.333    0.000    4.000    0.000    0.000 
#    0.000    0.667    0.000    1.167    0.000    1.667 
#
# Total GULP energy -267454.766279 kJ/mol
# GULP energy per Si atom -5571.974297 kJ/mol
# Density = 1.552467 g / cm^3
# Si number density = 15.560086 Si / 1000 Ang^3
#
#
#
# Elastic Constant Matrix: (Units=GPa)
#
#
# Indices 1 2 3 4 5 6 
#
# 1 31.0160 19.8815 30.8440 0.0000 0.0000 0.0000
# 2 19.8815 62.9207 27.9829 0.0000 0.0000 0.0000
# 3 30.8440 27.9829 122.7960 0.0000 0.0000 0.0000
# 4 0.0000 0.0000 0.0000 11.0788 0.0000 0.0000
# 5 0.0000 0.0000 0.0000 0.0000 22.7632 0.0000
# 6 0.0000 0.0000 0.0000 0.0000 0.0000 12.7923
#
#
#
# Elastic Compliance Matrix: (Units=1/GPa)
#
#
# Indices 1 2 3 4 5 6 
#
# 1 0.049147 -0.011171 -0.009799 0.000000 0.000000 0.000000
# 2 -0.011171 0.020225 -0.001803 0.000000 0.000000 0.000000
# 3 -0.009799 -0.001803 0.011016 0.000000 0.000000 0.000000
# 4 0.000000 0.000000 0.000000 0.090263 0.000000 0.000000
# 5 0.000000 0.000000 0.000000 0.000000 0.043931 0.000000
# 6 0.000000 0.000000 0.000000 0.000000 0.000000 0.078172
#
#
# Mechanical properties :
#
#
# Convention : Reuss Voigt Hill
#
# Bulk Modulus (GPa) = 28.70175 41.57216 35.13696
# Shear Modulus (GPa) = 14.28927 18.52848 16.40887
#
# Velocity S-wave (km/s) = 3.03368 3.45450 3.25091
# Velocity P-wave (km/s) = 5.54588 6.53350 6.05984
#
# Compressibility (1/GPa) = 0.03484108
#
# Stress axis : x y z
#
# Youngs Moduli (GPa) = 20.34709 49.44458 90.77922
#
# Poissons Ratio (x) = 0.55236 0.88955
# Poissons Ratio (y) = 0.22730 0.16366
# Poissons Ratio (z) = 0.19938 0.08914
#
# Static dielectric constant tensor:
#      x y z
#    x 1.521830 0.000000 0.000000 
#    y 0.000000 1.510930 0.000000 
#    z 0.000000 0.000000 1.517640 
# 
# From -- ./inp_files/31596.got.cif
#   From: 2010.05.17/outbox.cif.g08.bks.cpg/sg51_16_cif.got.tgz:31596.got - 2010.06.03 11:52:47.
