data_PCOD9407180
_publ_section_title
;
Structure prediction by ZEFSAII (Michael W. Deem and Ramdas Pophale) SiO2 
 PCOD9407180
Probable space group: P M M A
;
_chemical_formula_sum "Si O2"
_cell_formula_units_Z 30
_cell_length_a 7.455505
_cell_length_b 9.805316
_cell_length_c 19.619309
_cell_angle_alpha 90.000000
_cell_angle_beta 90.000000
_cell_angle_gamma 90.000000
_cell_volume 1434.241773
_symmetry_space_group_name_H-M "P M M A"
_symmetry_group_IT_number 51
_symmetry_cell_setting 'orthorhombic'
loop_
_space_group_symop_operation_xyz
x,y,z
1/2-x,-y,z
1/2+x,-y,-z
-x,y,-z
-x,-y,-z
1/2+x,y,-z
1/2-x,y,z
x,-y,z
loop_
_atom_site_type_symbol
_atom_site_label
_atom_site_fract_x
_atom_site_fract_y
_atom_site_fract_z
Si Si1 0.537498 0.500000 0.919984
Si Si2 0.468602 0.656961 0.700801
Si Si3 0.250000 0.000000 0.117601
Si Si4 0.544305 0.777159 0.154428
Si Si5 0.535449 0.844995 0.421940
O O1 0.750000 0.500000 0.907938
O O2 0.459176 0.634880 0.885751
O O3 0.500000 0.500000 0.000000
O O4 0.250000 0.652387 0.699836
O O5 0.529886 0.500000 0.703667
O O6 0.516116 0.740813 0.768475
O O7 0.530835 0.738115 0.633914
O O8 0.407392 0.118337 0.121396
O O9 0.750000 0.827380 0.156542
O O10 0.500000 0.804737 0.500000
O O11 0.750000 0.851228 0.413815
O O12 0.466322 0.000000 0.412083
#
# Coordination Sequence:
#
# PCOD9407180 Si02
#       5
#     4   8   2   8   8
#     4  12  24  46  78 107 138 180 234 277 323 404
#     4   9  18  34  60  87 118 160 211 272 328 391
#     4  12  26  42  66 102 148 178 218 282 332 412
#     4  11  23  44  69 102 137 179 226 279 342 399
#     4   9  18  33  50  76 112 158 209 261 323 398
#
# _framework density 20.916975000000001
#
# number of rings (size 3 to 8) (size 9 to 14) (size 15 to 20)
#    0.000    1.867    2.667    1.600    1.867    0.533 
#    2.400    0.667    0.000    0.000    0.000    0.000 
#    0.000    0.000    0.000    0.000    0.000    0.000 
#
# Total GULP energy -167131.765885 kJ/mol
# GULP energy per Si atom -5571.058863 kJ/mol
# Density = 2.086937 g / cm^3
# Si number density = 20.916975 Si / 1000 Ang^3
#
#
#
# Elastic Constant Matrix: (Units=GPa)
#
#
# Indices 1 2 3 4 5 6 
#
# 1 108.5887 22.5228 -6.2436 0.0000 0.0000 0.0000
# 2 22.5228 97.1143 7.6728 0.0000 0.0000 0.0000
# 3 -6.2436 7.6728 60.4109 0.0000 0.0000 0.0000
# 4 0.0000 0.0000 0.0000 -36.0275 0.0000 0.0000
# 5 0.0000 0.0000 0.0000 0.0000 17.3857 0.0000
# 6 0.0000 0.0000 0.0000 0.0000 0.0000 54.5933
#
#
#
# Elastic Compliance Matrix: (Units=1/GPa)
#
#
# Indices 1 2 3 4 5 6 
#
# 1 0.009776 -0.002371 0.001312 0.000000 0.000000 0.000000
# 2 -0.002371 0.010977 -0.001639 0.000000 0.000000 0.000000
# 3 0.001312 -0.001639 0.016897 0.000000 0.000000 0.000000
# 4 0.000000 0.000000 0.000000 -0.027757 0.000000 0.000000
# 5 0.000000 0.000000 0.000000 0.000000 0.057519 0.000000
# 6 0.000000 0.000000 0.000000 0.000000 0.000000 0.018317
#
#
# Mechanical properties :
#
#
# Convention : Reuss Voigt Hill
#
# Bulk Modulus (GPa) = 31.00521 34.89088 32.94805
# Shear Modulus (GPa) = 49.07869 23.33441 36.20655
#
# Velocity S-wave (km/s) = 4.84918 3.34364 4.16500
# Velocity P-wave (km/s) = 6.79763 5.62347 6.23824
#
# Compressibility (1/GPa) = 0.03225265
#
# Stress axis : x y z
#
# Youngs Moduli (GPa) = 102.28888 91.10350 59.18196
#
# Poissons Ratio (x) = 0.21600 -0.07762
# Poissons Ratio (y) = 0.24252 0.09701
# Poissons Ratio (z) = -0.13416 0.14933
#
# Static dielectric constant tensor:
#      x y z
#    x 1.794850 0.000000 0.000000 
#    y 0.000000 1.710850 0.000000 
#    z 0.000000 0.000000 1.735230 
# 
# From -- ./inp_files/31122.got.cif
#   From: 2010.05.17/outbox.cif.g08.bks.cpg/sg51_16_cif.got.tgz:31122.got - 2010.06.03 11:52:47.
