data_PCOD9407824
_publ_section_title
;
Structure prediction by ZEFSAII (Michael W. Deem and Ramdas Pophale) SiO2 
 PCOD9407824
Probable space group: P M M A
;
_chemical_formula_sum "Si O2"
_cell_formula_units_Z 64
_cell_length_a 30.000000
_cell_length_b 9.000000
_cell_length_c 12.000000
_cell_angle_alpha 90.000000
_cell_angle_beta 90.000000
_cell_angle_gamma 90.000000
_cell_volume 3240.000000
_symmetry_space_group_name_H-M "P M M A"
_symmetry_group_IT_number 51
_symmetry_cell_setting 'orthorhombic'
loop_
_space_group_symop_operation_xyz
x,y,z
1/2-x,-y,z
1/2+x,-y,-z
-x,y,-z
-x,-y,-z
1/2+x,y,-z
1/2-x,y,z
x,-y,z
loop_
_atom_site_type_symbol
_atom_site_label
_atom_site_fract_x
_atom_site_fract_y
_atom_site_fract_z
Si Si1 0.541088 0.822425 0.581650
Si Si2 0.299504 0.675774 0.320161
Si Si3 0.700858 0.321704 0.317168
Si Si4 0.531499 0.322184 0.826222
Si Si5 0.698412 0.163816 0.896266
Si Si6 0.130209 0.319887 0.499770
Si Si7 0.565251 0.322904 0.064352
Si Si8 0.152556 0.830573 0.870588
O O1 0.500000 0.784944 0.500000
O O2 0.538520 0.754172 0.706752
O O3 0.583726 0.757645 0.518171
O O4 0.543487 0.000000 0.592289
O O5 0.250000 0.738317 0.342202
O O6 0.296935 0.500000 0.338471
O O7 0.310856 0.711750 0.193745
O O8 0.338069 0.730131 0.398936
O O9 0.750000 0.273366 0.356949
O O10 0.701373 0.500000 0.315893
O O11 0.659113 0.277576 0.392913
O O12 0.689619 0.257719 0.197407
O O13 0.537782 0.500000 0.812153
O O14 0.481369 0.297362 0.872241
O O15 0.561083 0.274416 0.934060
O O16 0.750000 0.176843 0.931956
O O17 0.693523 0.000000 0.843071
O O18 0.667399 0.171442 0.001658
O O19 0.124814 0.500000 0.498515
O O20 0.572709 0.500000 0.062621
O O21 0.604562 0.244912 0.130951
O O22 0.150840 0.000000 0.831094
#
# Coordination Sequence:
#
# PCOD9407824 Si02
#       8
#     8   8   8   8   8   8   8   8
#     4  11  26  43  60  87 125 161 198 247 297 355
#     4   9  18  34  58  87 116 146 186 239 292 343
#     4  10  22  41  64  89 119 157 204 256 304 356
#     4   9  20  41  66  89 117 153 197 248 301 357
#     4   9  19  35  52  75 113 155 189 224 274 338
#     4  10  22  40  63  89 115 152 199 247 300 356
#     4   9  20  39  63  91 119 151 195 248 299 354
#     4  11  23  36  56  86 122 159 197 241 295 357
#
# _framework density 19.753086
#
# number of rings (size 3 to 8) (size 9 to 14) (size 15 to 20)
#    0.000    2.250    0.000    2.250    3.500    6.250 
#    0.000    2.500    0.000    2.250    0.000    0.000 
#    0.000    0.000    0.000    0.000    0.000    0.000 
#
# Total GULP energy -356863.042712 kJ/mol
# GULP energy per Si atom -5575.985042 kJ/mol
# Density = 1.970813 g / cm^3
# Si number density = 19.753086 Si / 1000 Ang^3
#
#
#
# Elastic Constant Matrix: (Units=GPa)
#
#
# Indices 1 2 3 4 5 6 
#
# 1 67.8831 32.4240 50.6060 0.0000 0.0000 0.0000
# 2 32.4240 3.2743 20.8290 0.0000 0.0000 0.0000
# 3 50.6060 20.8290 55.6797 0.0000 0.0000 0.0000
# 4 0.0000 0.0000 0.0000 80.4993 0.0000 0.0000
# 5 0.0000 0.0000 0.0000 0.0000 26.2924 0.0000
# 6 0.0000 0.0000 0.0000 0.0000 0.0000 -0.3188
#
#
#
# Elastic Compliance Matrix: (Units=1/GPa)
#
#
# Indices 1 2 3 4 5 6 
#
# 1 0.016080 0.048028 -0.032581 0.000000 0.000000 0.000000
# 2 0.048028 -0.077911 -0.014506 0.000000 0.000000 0.000000
# 3 -0.032581 -0.014506 0.052999 0.000000 0.000000 0.000000
# 4 0.000000 0.000000 0.000000 0.012422 0.000000 0.000000
# 5 0.000000 0.000000 0.000000 0.000000 0.038034 0.000000
# 6 0.000000 0.000000 0.000000 0.000000 0.000000 -3.136296
#
#
# Mechanical properties :
#
#
# Convention : Reuss Voigt Hill
#
# Bulk Modulus (GPa) = -143.86108 37.17279 -53.34415
# Shear Modulus (GPa) = -1.61349 22.82644 10.60647
#
# Velocity S-wave (km/s) = -0.90477 3.40308 2.31974
# Velocity P-wave (km/s) = 8.60693 5.85669 4.45973
#
# Compressibility (1/GPa) = -0.00695115
#
# Stress axis : x y z
#
# Youngs Moduli (GPa) = 62.18844 -12.83514 18.86837
#
# Poissons Ratio (x) = 0.61644 0.61476
# Poissons Ratio (y) = -2.98676 0.27370
# Poissons Ratio (z) = 2.02619 -0.18618
#
# Static dielectric constant tensor:
#      x y z
#    x 1.720970 0.000000 0.000000 
#    y 0.000000 3.229470 0.000000 
#    z 0.000000 0.000000 1.734010 
# 
# From -- ./inp_files/19571.got.cif
#   From: 2010.05.17/outbox.ucp.g08.bks.cvg/sg51_10_cif.got.tgz:19571.got - 2010.06.11 16:27:58.
