data_PCOD9407263
_publ_section_title
;
Structure prediction by ZEFSAII (Michael W. Deem and Ramdas Pophale) SiO2 
 PCOD9407263
Probable space group: P M M A
;
_chemical_formula_sum "Si O2"
_cell_formula_units_Z 64
_cell_length_a 14.320581
_cell_length_b 7.508118
_cell_length_c 32.036648
_cell_angle_alpha 90.000000
_cell_angle_beta 90.000000
_cell_angle_gamma 90.000000
_cell_volume 3444.599999
_symmetry_space_group_name_H-M "P M M A"
_symmetry_group_IT_number 51
_symmetry_cell_setting 'orthorhombic'
loop_
_space_group_symop_operation_xyz
x,y,z
1/2-x,-y,z
1/2+x,-y,-z
-x,y,-z
-x,-y,-z
1/2+x,y,-z
1/2-x,y,z
x,-y,z
loop_
_atom_site_type_symbol
_atom_site_label
_atom_site_fract_x
_atom_site_fract_y
_atom_site_fract_z
Si Si1 0.356036 0.215934 0.104215
Si Si2 0.856051 0.285782 0.645767
Si Si3 0.535523 0.282743 0.565555
Si Si4 0.856699 0.787357 0.741713
Si Si5 0.855872 0.712604 0.121873
Si Si6 0.020184 0.295352 0.954817
Si Si7 0.977949 0.213580 0.817282
Si Si8 0.144678 0.717240 0.517652
O O1 0.250000 0.272857 0.100987
O O2 0.421682 0.292277 0.068706
O O3 0.401923 0.267746 0.148060
O O4 0.359474 0.000000 0.101720
O O5 0.750000 0.220705 0.638488
O O6 0.853486 0.500000 0.642498
O O7 0.925570 0.220667 0.609887
O O8 0.881108 0.243246 0.693394
O O9 0.534338 0.500000 0.566159
O O10 0.432215 0.225511 0.551540
O O11 0.605102 0.231707 0.527870
O O12 0.750000 0.718503 0.748822
O O13 0.936188 0.719427 0.773425
O O14 0.851112 0.000000 0.748019
O O15 0.750000 0.780133 0.126323
O O16 0.851138 0.500000 0.116652
O O17 0.908232 0.782522 0.079883
O O18 0.922306 0.739520 0.162201
O O19 0.050775 0.500000 0.962335
O O20 0.000000 0.211817 0.000000
O O21 0.979440 0.000000 0.815071
O O22 0.250000 0.778762 0.524422
O O23 0.145793 0.500000 0.518111
#
# Coordination Sequence:
#
# PCOD9407263 Si02
#       8
#     8   8   8   8   8   8   8   8
#     4   9  17  29  45  65  88 112 137 169 211 252
#     4   9  16  25  38  58  84 111 137 167 205 248
#     4   8  13  20  31  50  77 106 133 166 208 247
#     4   9  17  29  45  65  88 113 139 168 208 258
#     4   9  18  32  48  66  89 116 145 179 217 250
#     4   9  18  31  46  65  89 117 147 175 204 244
#     4   9  17  30  48  67  86 109 140 177 212 250
#     4   8  12  18  30  49  73 102 136 171 206 244
#
# _framework density 18.579806000000001
#
# number of rings (size 3 to 8) (size 9 to 14) (size 15 to 20)
#    0.000    3.250    0.000    1.500    0.000    4.750 
#    0.000    1.250    0.000    3.000    0.000    3.500 
#    0.000    1.000    0.000    0.000    0.000    0.000 
#
# Total GULP energy -356495.526925 kJ/mol
# GULP energy per Si atom -5570.242608 kJ/mol
# Density = 1.853752 g / cm^3
# Si number density = 18.579806 Si / 1000 Ang^3
#
#
#
# Elastic Constant Matrix: (Units=GPa)
#
#
# Indices 1 2 3 4 5 6 
#
# 1 169.1682 6.1655 103.4496 0.0000 0.0000 0.0000
# 2 6.1655 47.0179 5.7823 0.0000 0.0000 0.0000
# 3 103.4496 5.7823 154.0939 0.0000 0.0000 0.0000
# 4 0.0000 0.0000 0.0000 -47.0961 0.0000 0.0000
# 5 0.0000 0.0000 0.0000 0.0000 10.2613 0.0000
# 6 0.0000 0.0000 0.0000 0.0000 0.0000 3.7169
#
#
#
# Elastic Compliance Matrix: (Units=1/GPa)
#
#
# Indices 1 2 3 4 5 6 
#
# 1 0.010039 -0.000490 -0.006722 0.000000 0.000000 0.000000
# 2 -0.000490 0.021391 -0.000474 0.000000 0.000000 0.000000
# 3 -0.006722 -0.000474 0.011020 0.000000 0.000000 0.000000
# 4 0.000000 0.000000 0.000000 -0.021233 0.000000 0.000000
# 5 0.000000 0.000000 0.000000 0.000000 0.097454 0.000000
# 6 0.000000 0.000000 0.000000 0.000000 0.000000 0.269040
#
#
# Mechanical properties :
#
#
# Convention : Reuss Voigt Hill
#
# Bulk Modulus (GPa) = 36.92789 66.78609 51.85699
# Shear Modulus (GPa) = 12.13275 10.36858 11.25067
#
# Velocity S-wave (km/s) = 2.55817 2.36489 2.46343
# Velocity P-wave (km/s) = 5.35202 6.59397 6.00519
#
# Compressibility (1/GPa) = 0.02707980
#
# Stress axis : x y z
#
# Youngs Moduli (GPa) = 99.60674 46.74866 90.74597
#
# Poissons Ratio (x) = 0.02290 0.60995
# Poissons Ratio (y) = 0.04880 0.04300
# Poissons Ratio (z) = 0.66951 0.02215
#
# Static dielectric constant tensor:
#      x y z
#    x 1.637940 0.000000 0.000000 
#    y 0.000000 1.718060 0.000000 
#    z 0.000000 0.000000 1.640650 
# 
# From -- ./inp_files/37825.got.cif
#   From: 2010.05.17/outbox.cif.g08.bks.cpg/sg51_19_cif.got.tgz:37825.got - 2010.06.03 11:52:47.
