data_PCOD9407525
_publ_section_title
;
Structure prediction by ZEFSAII (Michael W. Deem and Ramdas Pophale) SiO2 
 PCOD9407525
Probable space group: P M M A
;
_chemical_formula_sum "Si O2"
_cell_formula_units_Z 64
_cell_length_a 24.000000
_cell_length_b 9.000000
_cell_length_c 15.000000
_cell_angle_alpha 90.000000
_cell_angle_beta 90.000000
_cell_angle_gamma 90.000000
_cell_volume 3240.000000
_symmetry_space_group_name_H-M "P M M A"
_symmetry_group_IT_number 51
_symmetry_cell_setting 'orthorhombic'
loop_
_space_group_symop_operation_xyz
x,y,z
1/2-x,-y,z
1/2+x,-y,-z
-x,y,-z
-x,-y,-z
1/2+x,y,-z
1/2-x,y,z
x,-y,z
loop_
_atom_site_type_symbol
_atom_site_label
_atom_site_fract_x
_atom_site_fract_y
_atom_site_fract_z
Si Si1 0.362890 0.674469 0.057113
Si Si2 0.984484 0.820035 0.291802
Si Si3 0.686846 0.820968 0.481503
Si Si4 0.132095 0.321762 0.684482
Si Si5 0.186098 0.319135 0.870909
Si Si6 0.103414 0.821614 0.363587
Si Si7 0.189641 0.325467 0.237464
Si Si8 0.476964 0.821549 0.095784
O O1 0.378271 0.500000 0.049430
O O2 0.315051 0.684450 0.130934
O O3 0.414397 0.764176 0.095493
O O4 0.343733 0.730989 0.961172
O O5 0.929003 0.746142 0.328846
O O6 0.039682 0.775184 0.347181
O O7 0.993115 0.774581 0.187621
O O8 0.979767 0.000000 0.295053
O O9 0.750000 0.785018 0.511497
O O10 0.673873 0.743554 0.388306
O O11 0.638132 0.772808 0.549618
O O12 0.683626 0.000000 0.472450
O O13 0.130786 0.500000 0.679634
O O14 0.153246 0.276243 0.782540
O O15 0.250000 0.268793 0.867620
O O16 0.187069 0.500000 0.874102
O O17 0.140448 0.763721 0.282452
O O18 0.103118 0.000000 0.363683
O O19 0.250000 0.270960 0.267470
O O20 0.184170 0.500000 0.260321
O O21 0.478574 0.000000 0.095685
O O22 0.500000 0.768290 0.000000
#
# Coordination Sequence:
#
# PCOD9407525 Si02
#       8
#     8   8   8   8   8   8   8   8
#     4  10  19  32  53  80 110 147 189 231 278 337
#     4  10  21  38  58  82 116 155 192 235 287 342
#     4  10  22  41  64  88 113 145 188 237 290 349
#     4  11  23  38  60  87 115 150 193 243 293 343
#     4   9  18  34  55  80 112 150 192 236 284 341
#     4  10  21  39  62  85 112 151 196 234 277 339
#     4  10  20  33  52  82 117 149 182 228 284 334
#     4  10  20  34  53  78 112 153 194 238 285 332
#
# _framework density 19.753086
#
# number of rings (size 3 to 8) (size 9 to 14) (size 15 to 20)
#    0.000    2.000    1.250    2.250    0.000    5.250 
#    0.000    3.125    0.000    2.625    0.000    0.000 
#    0.000    0.000    0.000    0.000    0.000    0.000 
#
# Total GULP energy -357088.398308 kJ/mol
# GULP energy per Si atom -5579.506224 kJ/mol
# Density = 1.970813 g / cm^3
# Si number density = 19.753086 Si / 1000 Ang^3
#
#
#
# Elastic Constant Matrix: (Units=GPa)
#
#
# Indices 1 2 3 4 5 6 
#
# 1 65.3163 4.3053 14.0174 0.0000 0.0000 0.0000
# 2 4.3053 -15.7433 10.4168 0.0000 0.0000 0.0000
# 3 14.0174 10.4168 79.7636 0.0000 0.0000 0.0000
# 4 0.0000 0.0000 0.0000 23.7902 0.0000 0.0000
# 5 0.0000 0.0000 0.0000 0.0000 20.3833 0.0000
# 6 0.0000 0.0000 0.0000 0.0000 0.0000 48.3887
#
#
#
# Elastic Compliance Matrix: (Units=1/GPa)
#
#
# Indices 1 2 3 4 5 6 
#
# 1 0.015820 0.002289 -0.003079 0.000000 0.000000 0.000000
# 2 0.002289 -0.058136 0.007190 0.000000 0.000000 0.000000
# 3 -0.003079 0.007190 0.012139 0.000000 0.000000 0.000000
# 4 0.000000 0.000000 0.000000 0.042034 0.000000 0.000000
# 5 0.000000 0.000000 0.000000 0.000000 0.049060 0.000000
# 6 0.000000 0.000000 0.000000 0.000000 0.000000 0.020666
#
#
# Mechanical properties :
#
#
# Convention : Reuss Voigt Hill
#
# Bulk Modulus (GPa) = -57.54874 20.75728 -18.39573
# Shear Modulus (GPa) = 79.37585 25.21891 52.29738
#
# Velocity S-wave (km/s) = 6.34596 3.57698 5.15102
# Velocity P-wave (km/s) = 4.94952 5.25270 5.10336
#
# Compressibility (1/GPa) = -0.01737657
#
# Stress axis : x y z
#
# Youngs Moduli (GPa) = 63.21100 -17.20117 82.37799
#
# Poissons Ratio (x) = 0.03937 0.25365
# Poissons Ratio (y) = -0.14469 -0.59230
# Poissons Ratio (z) = 0.19463 0.12368
#
# Static dielectric constant tensor:
#      x y z
#    x 2.361670 0.000000 0.000000 
#    y 0.000000 1.656890 0.000000 
#    z 0.000000 0.000000 1.729330 
# 
# From -- ./inp_files/26306.got.cif
#   From: 2010.05.17/outbox.ucp.g08.bks.cvg/sg51_14_cif.got.tgz:26306.got - 2010.06.11 16:27:58.
