data_PCOD9407114
_publ_section_title
;
Structure prediction by ZEFSAII (Michael W. Deem and Ramdas Pophale) SiO2 
 PCOD9407114
Probable space group: P M M A
;
_chemical_formula_sum "Si O2"
_cell_formula_units_Z 32
_cell_length_a 16.594108
_cell_length_b 8.607059
_cell_length_c 11.467137
_cell_angle_alpha 90.000000
_cell_angle_beta 90.000000
_cell_angle_gamma 90.000000
_cell_volume 1637.810660
_symmetry_space_group_name_H-M "P M M A"
_symmetry_group_IT_number 51
_symmetry_cell_setting 'orthorhombic'
loop_
_space_group_symop_operation_xyz
x,y,z
1/2-x,-y,z
1/2+x,-y,-z
-x,y,-z
-x,-y,-z
1/2+x,y,-z
1/2-x,y,z
x,-y,z
loop_
_atom_site_type_symbol
_atom_site_label
_atom_site_fract_x
_atom_site_fract_y
_atom_site_fract_z
Si Si1 0.250000 0.681331 0.795411
Si Si2 0.564560 0.683991 0.835524
Si Si3 0.420149 0.813353 0.425348
Si Si4 0.750000 0.319599 0.483146
Si Si5 0.397996 0.183598 0.930375
O O1 0.250000 0.500000 0.831282
O O2 0.250000 0.686735 0.656538
O O3 0.174041 0.768905 0.847706
O O4 0.577032 0.500000 0.834897
O O5 0.574313 0.751274 0.706625
O O6 0.475057 0.726122 0.879887
O O7 0.618120 0.762783 0.936778
O O8 0.500000 0.762608 0.500000
O O9 0.334012 0.756528 0.475078
O O10 0.420817 0.000000 0.424741
O O11 0.750000 0.500000 0.520964
O O12 0.413687 0.000000 0.928136
#
# Coordination Sequence:
#
# PCOD9407114 Si02
#       5
#     4   8   8   4   8
#     4  11  23  40  61  88 121 155 197 247 302 359
#     4  11  22  39  62  88 120 157 200 247 301 361
#     4  11  24  42  65  92 125 165 208 256 309 366
#     4  11  25  42  63  92 125 163 207 255 306 369
#     4  11  22  38  61  89 120 155 198 246 300 360
#
# _framework density 19.538277999999998
#
# number of rings (size 3 to 8) (size 9 to 14) (size 15 to 20)
#    0.000    1.000    0.000    9.000    0.000    9.000 
#    0.000    5.000    0.000    0.000    0.000    0.000 
#    0.000    0.000    0.000    0.000    0.000    0.000 
#
# Total GULP energy -178831.363607 kJ/mol
# GULP energy per Si atom -5588.480113 kJ/mol
# Density = 1.949381 g / cm^3
# Si number density = 19.538278 Si / 1000 Ang^3
#
#
#
# Elastic Constant Matrix: (Units=GPa)
#
#
# Indices 1 2 3 4 5 6 
#
# 1 94.7943 16.9315 38.6598 0.0000 0.0000 0.0000
# 2 16.9315 79.4622 21.6004 0.0000 0.0000 0.0000
# 3 38.6598 21.6004 114.6301 0.0000 0.0000 0.0000
# 4 0.0000 0.0000 0.0000 33.4439 0.0000 0.0000
# 5 0.0000 0.0000 0.0000 0.0000 -87.3798 0.0000
# 6 0.0000 0.0000 0.0000 0.0000 0.0000 29.7609
#
#
#
# Elastic Compliance Matrix: (Units=1/GPa)
#
#
# Indices 1 2 3 4 5 6 
#
# 1 0.012419 -0.001589 -0.003889 0.000000 0.000000 0.000000
# 2 -0.001589 0.013467 -0.002002 0.000000 0.000000 0.000000
# 3 -0.003889 -0.002002 0.010413 0.000000 0.000000 0.000000
# 4 0.000000 0.000000 0.000000 0.029901 0.000000 0.000000
# 5 0.000000 0.000000 0.000000 0.000000 -0.011444 0.000000
# 6 0.000000 0.000000 0.000000 0.000000 0.000000 0.033601
#
#
# Mechanical properties :
#
#
# Convention : Reuss Voigt Hill
#
# Bulk Modulus (GPa) = 46.86208 49.25223 48.05716
# Shear Modulus (GPa) = 45.27784 9.27798 27.27791
#
# Velocity S-wave (km/s) = 4.81915 2.18150 3.74053
# Velocity P-wave (km/s) = 7.41636 5.62210 6.58067
#
# Compressibility (1/GPa) = 0.02133921
#
# Stress axis : x y z
#
# Youngs Moduli (GPa) = 80.52170 74.25364 96.03830
#
# Poissons Ratio (x) = 0.11799 0.37349
# Poissons Ratio (y) = 0.12795 0.19225
# Poissons Ratio (z) = 0.31315 0.14864
#
# Static dielectric constant tensor:
#      x y z
#    x 1.682240 0.000000 0.000000 
#    y 0.000000 1.661210 0.000000 
#    z 0.000000 0.000000 1.673130 
# 
# From -- ./inp_files/15978.got.cif
#   From: 2010.05.17/outbox.cif.g08.bks.cpg/sg51_8_cif.got.tgz:15978.got - 2010.06.03 11:52:47.
