data_PCOD9407934
_publ_section_title
;
Structure prediction by ZEFSAII (Michael W. Deem and Ramdas Pophale) SiO2 
 PCOD9407934
Probable space group: P N N A
;
_chemical_formula_sum "Si O2"
_cell_formula_units_Z 52
_cell_length_a 8.080975
_cell_length_b 13.749363
_cell_length_c 20.632551
_cell_angle_alpha 90.000000
_cell_angle_beta 90.000000
_cell_angle_gamma 90.000000
_cell_volume 2292.446814
_symmetry_space_group_name_H-M "P N N A"
_symmetry_group_IT_number 52
_symmetry_cell_setting 'orthorhombic'
loop_
_space_group_symop_operation_xyz
x,y,z
1/2-x,-y,z
x,1/2-y,1/2-z
1/2-x,1/2+y,1/2-z
-x,-y,-z
1/2+x,y,-z
-x,1/2+y,1/2+z
1/2+x,1/2-y,1/2+z
loop_
_atom_site_type_symbol
_atom_site_label
_atom_site_fract_x
_atom_site_fract_y
_atom_site_fract_z
Si Si1 0.518132 0.644966 0.462528
Si Si2 0.821804 0.342580 0.590180
Si Si3 0.669688 0.611547 0.931071
Si Si4 0.859954 0.853565 0.340685
Si Si5 0.452834 0.374715 0.927004
Si Si6 0.750000 0.000000 0.106856
Si Si7 0.949303 0.864635 0.191916
O O1 0.532356 0.630487 0.539751
O O2 0.346997 0.608837 0.432310
O O3 0.535439 0.758123 0.441926
O O4 0.667204 0.584298 0.433970
O O5 0.805184 0.228523 0.574857
O O6 0.863525 0.354131 0.665671
O O7 0.505182 0.603672 0.886370
O O8 0.861673 0.580634 0.915639
O O9 0.623541 0.587721 0.005275
O O10 0.682158 0.885177 0.369538
O O11 0.907783 0.877456 0.266786
O O12 0.867406 0.734984 0.336440
O O13 0.885264 0.957066 0.154787
#
# Coordination Sequence:
#
# PCOD9407934 Si02
#       7
#     8   8   8   8   8   4   8
#     4  10  20  31  53  75 104 139 184 220 254 302
#     4   9  19  34  49  76 105 140 179 219 255 307
#     4   9  17  28  55  81 107 131 175 220 271 310
#     4  10  19  37  52  76 109 142 172 225 268 317
#     4  10  16  31  53  83 106 135 171 225 263 315
#     4  12  22  36  52  76 102 150 186 212 260 316
#     4  10  22  36  51  71 108 143 178 215 266 322
#
# _framework density 22.683188000000001
#
# number of rings (size 3 to 8) (size 9 to 14) (size 15 to 20)
#    0.000    2.154    3.077    0.923    4.308    3.077 
#    2.769    1.538    0.000    0.000    0.000    1.077 
#    0.000    0.000    0.000    0.000    0.000    0.000 
#
# Total GULP energy -290094.278035 kJ/mol
# GULP energy per Si atom -5578.736116 kJ/mol
# Density = 2.263156 g / cm^3
# Si number density = 22.683188 Si / 1000 Ang^3
#
#
#
# Elastic Constant Matrix: (Units=GPa)
#
#
# Indices 1 2 3 4 5 6 
#
# 1 180.7517 3.5828 69.1547 0.0000 0.0000 0.0000
# 2 3.5828 23.0446 -6.9792 0.0000 0.0000 0.0000
# 3 69.1547 -6.9792 145.5224 0.0000 0.0000 0.0000
# 4 0.0000 0.0000 0.0000 17.1067 0.0000 0.0000
# 5 0.0000 0.0000 0.0000 0.0000 18.0444 0.0000
# 6 0.0000 0.0000 0.0000 0.0000 0.0000 22.9737
#
#
#
# Elastic Compliance Matrix: (Units=1/GPa)
#
#
# Indices 1 2 3 4 5 6 
#
# 1 0.006859 -0.002084 -0.003359 0.000000 0.000000 0.000000
# 2 -0.002084 0.044667 0.003132 0.000000 0.000000 0.000000
# 3 -0.003359 0.003132 0.008619 0.000000 0.000000 0.000000
# 4 0.000000 0.000000 0.000000 0.058457 0.000000 0.000000
# 5 0.000000 0.000000 0.000000 0.000000 0.055419 0.000000
# 6 0.000000 0.000000 0.000000 0.000000 0.000000 0.043528
#
#
# Mechanical properties :
#
#
# Convention : Reuss Voigt Hill
#
# Bulk Modulus (GPa) = 18.01066 53.42613 35.71840
# Shear Modulus (GPa) = 20.77470 30.52898 25.65184
#
# Velocity S-wave (km/s) = 3.02961 3.67261 3.36650
# Velocity P-wave (km/s) = 4.49392 6.44891 5.55805
#
# Compressibility (1/GPa) = 0.05552269
#
# Stress axis : x y z
#
# Youngs Moduli (GPa) = 145.79215 22.38800 116.02928
#
# Poissons Ratio (x) = 0.04665 0.38980
# Poissons Ratio (y) = 0.30381 -0.36346
# Poissons Ratio (z) = 0.48979 -0.07013
#
# Static dielectric constant tensor:
#      x y z
#    x 1.905860 0.000000 0.000000 
#    y 0.000000 1.962300 0.000000 
#    z 0.000000 0.000000 1.799820 
# 
# From -- ./inp_files/31437.got.cif
#   From: 2010.05.17/outbox.cif.g08.bks.cpg/sg52_16_cif.got.tgz:31437.got - 2010.06.03 12:15:38.
