data_PCOD9407882
_publ_section_title
;
Structure prediction by ZEFSAII (Michael W. Deem and Ramdas Pophale) SiO2 
 PCOD9407882
Probable space group: P N N A
;
_chemical_formula_sum "Si O2"
_cell_formula_units_Z 56
_cell_length_a 21.667059
_cell_length_b 5.411887
_cell_length_c 28.524595
_cell_angle_alpha 90.000000
_cell_angle_beta 90.000000
_cell_angle_gamma 90.000000
_cell_volume 3344.784737
_symmetry_space_group_name_H-M "P N N A"
_symmetry_group_IT_number 52
_symmetry_cell_setting 'orthorhombic'
loop_
_space_group_symop_operation_xyz
x,y,z
1/2-x,-y,z
x,1/2-y,1/2-z
1/2-x,1/2+y,1/2-z
-x,-y,-z
1/2+x,y,-z
-x,1/2+y,1/2+z
1/2+x,1/2-y,1/2+z
loop_
_atom_site_type_symbol
_atom_site_label
_atom_site_fract_x
_atom_site_fract_y
_atom_site_fract_z
Si Si1 0.167012 0.331245 0.650500
Si Si2 0.920186 0.750190 0.012968
Si Si3 0.027163 0.750732 0.941440
Si Si4 0.710758 0.249305 0.044894
Si Si5 0.474184 0.198679 0.669687
Si Si6 0.170443 0.831199 0.697198
Si Si7 0.034913 0.200558 0.802719
O O1 0.181702 0.264422 0.597352
O O2 0.189738 0.606605 0.663105
O O3 0.093636 0.330472 0.662436
O O4 0.190843 0.106896 0.683286
O O5 0.940175 0.498250 0.039535
O O6 0.846768 0.746887 0.009611
O O7 0.939320 0.998875 0.041185
O O8 0.959560 0.755814 0.965194
O O9 0.026886 0.737663 0.885696
O O10 0.750000 0.500000 0.041555
O O11 0.750000 0.000000 0.038722
O O12 0.404263 0.167921 0.690113
O O13 0.499759 0.441379 0.694427
O O14 0.503639 0.936002 0.681274
O O15 0.184476 0.750000 0.750000
O O16 0.057697 0.250000 0.750000
#
# Coordination Sequence:
#
# PCOD9407882 Si02
#       7
#     8   8   8   8   8   8   8
#     4  10  18  30  45  60  80 108 154 197 225 268
#     4  10  20  35  51  73  98 119 154 197 253 304
#     4  10  19  32  54  76  96 120 148 203 254 292
#     4  12  24  37  52  69  92 126 164 202 244 285
#     4  10  16  25  41  66  90 113 150 182 226 285
#     4  10  17  27  46  65  86 116 149 189 238 288
#     4  10  18  28  45  65  90 122 155 192 236 288
#
# _framework density 16.742483
#
# number of rings (size 3 to 8) (size 9 to 14) (size 15 to 20)
#    0.000    1.714    0.000   10.286    0.000    0.000 
#    0.000    0.000    0.000   14.571    0.000    0.000 
#    0.000    0.000    0.000    0.000    0.000   24.286 
#
# Total GULP energy -312606.751850 kJ/mol
# GULP energy per Si atom -5582.263426 kJ/mol
# Density = 1.670438 g / cm^3
# Si number density = 16.742483 Si / 1000 Ang^3
#
#
#
# Elastic Constant Matrix: (Units=GPa)
#
#
# Indices 1 2 3 4 5 6 
#
# 1 53.7957 25.1571 29.0996 0.0000 0.0000 0.0000
# 2 25.1571 166.0640 26.3572 0.0000 0.0000 0.0000
# 3 29.0996 26.3572 51.0538 0.0000 0.0000 0.0000
# 4 0.0000 0.0000 0.0000 17.8802 0.0000 0.0000
# 5 0.0000 0.0000 0.0000 0.0000 20.0505 0.0000
# 6 0.0000 0.0000 0.0000 0.0000 0.0000 12.0732
#
#
#
# Elastic Compliance Matrix: (Units=1/GPa)
#
#
# Indices 1 2 3 4 5 6 
#
# 1 0.027370 -0.001819 -0.014661 0.000000 0.000000 0.000000
# 2 -0.001819 0.006680 -0.002412 0.000000 0.000000 0.000000
# 3 -0.014661 -0.002412 0.029189 0.000000 0.000000 0.000000
# 4 0.000000 0.000000 0.000000 0.055928 0.000000 0.000000
# 5 0.000000 0.000000 0.000000 0.000000 0.049874 0.000000
# 6 0.000000 0.000000 0.000000 0.000000 0.000000 0.082828
#
#
# Mechanical properties :
#
#
# Convention : Reuss Voigt Hill
#
# Bulk Modulus (GPa) = 39.28548 48.01572 43.65060
# Shear Modulus (GPa) = 16.77071 22.68742 19.72907
#
# Velocity S-wave (km/s) = 3.16838 3.68514 3.43648
# Velocity P-wave (km/s) = 6.07456 6.84457 6.47103
#
# Compressibility (1/GPa) = 0.02545470
#
# Stress axis : x y z
#
# Youngs Moduli (GPa) = 36.53600 149.69672 34.25971
#
# Poissons Ratio (x) = 0.27235 0.50229
# Poissons Ratio (y) = 0.06647 0.08263
# Poissons Ratio (z) = 0.53566 0.36103
#
# Static dielectric constant tensor:
#      x y z
#    x 1.578440 0.000000 0.000000 
#    y 0.000000 1.691780 0.000000 
#    z 0.000000 0.000000 1.553800 
# 
# From -- ./inp_files/43278.got.cif
#   From: 2010.05.17/outbox.cif.g08.bks.cpg/sg52_22_cif.got.tgz:43278.got - 2010.06.03 12:15:38.
