data_PCOD9407497
_publ_section_title
;
Structure prediction by ZEFSAII (Michael W. Deem and Ramdas Pophale) SiO2 
 PCOD9407497
Probable space group: P M M A
;
_chemical_formula_sum "Si O2"
_cell_formula_units_Z 64
_cell_length_a 18.000000
_cell_length_b 9.000000
_cell_length_c 24.000000
_cell_angle_alpha 90.000000
_cell_angle_beta 90.000000
_cell_angle_gamma 90.000000
_cell_volume 3888.000000
_symmetry_space_group_name_H-M "P M M A"
_symmetry_group_IT_number 51
_symmetry_cell_setting 'orthorhombic'
loop_
_space_group_symop_operation_xyz
x,y,z
1/2-x,-y,z
1/2+x,-y,-z
-x,y,-z
-x,-y,-z
1/2+x,y,-z
1/2-x,y,z
x,-y,z
loop_
_atom_site_type_symbol
_atom_site_label
_atom_site_fract_x
_atom_site_fract_y
_atom_site_fract_z
Si Si1 0.529837 0.678411 0.367852
Si Si2 0.094073 0.678492 0.075052
Si Si3 0.050051 0.177660 0.871731
Si Si4 0.430379 0.829794 0.457276
Si Si5 0.667770 0.679220 0.808329
Si Si6 0.163126 0.819871 0.560789
Si Si7 0.337927 0.677668 0.954414
Si Si8 0.509671 0.319883 0.759996
O O1 0.534659 0.500000 0.371838
O O2 0.460124 0.735097 0.405299
O O3 0.604486 0.748831 0.395518
O O4 0.516830 0.717961 0.302666
O O5 0.079917 0.500000 0.075728
O O6 0.149765 0.710249 0.126586
O O7 0.018976 0.763276 0.090961
O O8 0.126382 0.717112 0.014577
O O9 0.122134 0.237134 0.904197
O O10 0.037816 0.247495 0.810139
O O11 0.049533 0.000000 0.868297
O O12 0.500000 0.832728 0.500000
O O13 0.363711 0.777466 0.497850
O O14 0.415849 0.000000 0.439492
O O15 0.750000 0.736488 0.793229
O O16 0.670067 0.500000 0.803227
O O17 0.595632 0.726608 0.772585
O O18 0.250000 0.782088 0.570073
O O19 0.155722 0.000000 0.564037
O O20 0.250000 0.705962 0.956121
O O21 0.349154 0.500000 0.947025
O O22 0.506060 0.500000 0.765616
#
# Coordination Sequence:
#
# PCOD9407497 Si02
#       8
#     8   8   8   8   8   8   8   8
#     4  10  19  31  50  76 102 129 165 207 249 290
#     4   9  17  31  52  75  97 123 158 199 245 302
#     4  11  22  34  50  72  98 130 166 204 248 295
#     4   8  15  29  49  71  96 128 160 190 231 285
#     4   8  13  25  48  73  93 117 155 201 242 284
#     4   9  18  33  52  74 101 134 170 204 240 286
#     4  10  20  34  53  75  98 127 163 202 247 300
#     4   9  19  35  52  70  96 132 171 207 244 291
#
# _framework density 16.460905
#
# number of rings (size 3 to 8) (size 9 to 14) (size 15 to 20)
#    0.000    2.750    0.000    3.750    0.000    7.250 
#    0.000    1.250    0.000   10.500    0.000    0.000 
#    0.000    0.000    0.000    0.000    0.000    0.000 
#
# Total GULP energy -356582.010468 kJ/mol
# GULP energy per Si atom -5571.593914 kJ/mol
# Density = 1.642344 g / cm^3
# Si number density = 16.460905 Si / 1000 Ang^3
#
#
#
# Elastic Constant Matrix: (Units=GPa)
#
#
# Indices 1 2 3 4 5 6 
#
# 1 95.0314 36.0575 71.1985 0.0000 0.0000 0.0000
# 2 36.0575 49.3238 51.6346 0.0000 0.0000 0.0000
# 3 71.1985 51.6346 147.6125 0.0000 0.0000 0.0000
# 4 0.0000 0.0000 0.0000 18.7616 0.0000 0.0000
# 5 0.0000 0.0000 0.0000 0.0000 20.2340 0.0000
# 6 0.0000 0.0000 0.0000 0.0000 0.0000 11.5523
#
#
#
# Elastic Compliance Matrix: (Units=1/GPa)
#
#
# Indices 1 2 3 4 5 6 
#
# 1 0.017633 -0.006290 -0.006305 0.000000 0.000000 0.000000
# 2 -0.006290 0.034232 -0.008940 0.000000 0.000000 0.000000
# 3 -0.006305 -0.008940 0.012943 0.000000 0.000000 0.000000
# 4 0.000000 0.000000 0.000000 0.053300 0.000000 0.000000
# 5 0.000000 0.000000 0.000000 0.000000 0.049422 0.000000
# 6 0.000000 0.000000 0.000000 0.000000 0.000000 0.086563
#
#
# Mechanical properties :
#
#
# Convention : Reuss Voigt Hill
#
# Bulk Modulus (GPa) = 46.00438 67.74990 56.87714
# Shear Modulus (GPa) = 16.42531 18.98140 17.70336
#
# Velocity S-wave (km/s) = 3.16228 3.39945 3.28301
# Velocity P-wave (km/s) = 6.42975 7.52700 6.99991
#
# Compressibility (1/GPa) = 0.02173706
#
# Stress axis : x y z
#
# Youngs Moduli (GPa) = 56.71144 29.21278 77.26379
#
# Poissons Ratio (x) = 0.18376 0.48712
# Poissons Ratio (y) = 0.35674 0.69074
# Poissons Ratio (z) = 0.35755 0.26116
#
# Static dielectric constant tensor:
#      x y z
#    x 1.571800 0.000000 0.000000 
#    y 0.000000 1.554040 0.000000 
#    z 0.000000 0.000000 1.543180 
# 
# From -- ./inp_files/35923.got.cif
#   From: 2010.05.17/outbox.ucp.g08.bks.cvg/sg51_18_cif.got.tgz:35923.got - 2010.06.11 16:27:58.
