data_PCOD9407770
_publ_section_title
;
Structure prediction by ZEFSAII (Michael W. Deem and Ramdas Pophale) SiO2 
 PCOD9407770
Probable space group: P M M A
;
_chemical_formula_sum "Si O2"
_cell_formula_units_Z 56
_cell_length_a 15.000000
_cell_length_b 9.000000
_cell_length_c 21.000000
_cell_angle_alpha 90.000000
_cell_angle_beta 90.000000
_cell_angle_gamma 90.000000
_cell_volume 2835.000000
_symmetry_space_group_name_H-M "P M M A"
_symmetry_group_IT_number 51
_symmetry_cell_setting 'orthorhombic'
loop_
_space_group_symop_operation_xyz
x,y,z
1/2-x,-y,z
1/2+x,-y,-z
-x,y,-z
-x,-y,-z
1/2+x,y,-z
1/2-x,y,z
x,-y,z
loop_
_atom_site_type_symbol
_atom_site_label
_atom_site_fract_x
_atom_site_fract_y
_atom_site_fract_z
Si Si1 0.512599 0.825755 0.349374
Si Si2 0.649818 0.821796 0.565110
Si Si3 0.856678 0.168087 0.857024
Si Si4 0.141633 0.669354 0.017856
Si Si5 0.495132 0.326438 0.219942
Si Si6 0.649377 0.320294 0.121863
Si Si7 0.355844 0.668178 0.565155
O O1 0.424604 0.771850 0.386184
O O2 0.499240 0.785951 0.277411
O O3 0.596267 0.736114 0.374845
O O4 0.524225 0.000000 0.361215
O O5 0.750000 0.765789 0.578371
O O6 0.622522 0.768234 0.495531
O O7 0.652784 0.000000 0.566389
O O8 0.750000 0.173756 0.851212
O O9 0.882205 0.214758 0.928311
O O10 0.902824 0.292349 0.814659
O O11 0.885328 0.000000 0.841574
O O12 0.250000 0.660614 0.016228
O O13 0.109372 0.500000 0.030689
O O14 0.115416 0.721987 0.947965
O O15 0.502450 0.500000 0.237981
O O16 0.576941 0.285809 0.174148
O O17 0.750000 0.264113 0.133528
O O18 0.655309 0.500000 0.119381
O O19 0.250000 0.669912 0.573317
O O20 0.384854 0.500000 0.553380
#
# Coordination Sequence:
#
# PCOD9407770 Si02
#       7
#     8   8   8   8   8   8   8
#     4  11  23  38  56  80 113 151 187 223 269 326
#     4   9  19  37  60  84 110 142 179 220 271 329
#     4  10  21  37  55  76 107 144 180 224 277 329
#     4   8  14  29  55  81 102 130 173 223 274 328
#     4  11  23  37  55  80 109 145 188 228 269 322
#     4   8  16  33  56  80 106 137 175 222 275 329
#     4  10  21  37  59  87 115 143 179 225 273 318
#
# _framework density 19.753086
#
# number of rings (size 3 to 8) (size 9 to 14) (size 15 to 20)
#    0.000    2.429    0.000    3.000    0.000    6.286 
#    0.000    7.143    0.000    3.000    0.000    0.000 
#    0.000    0.000    0.000    0.000    0.000    0.000 
#
# Total GULP energy -312179.224543 kJ/mol
# GULP energy per Si atom -5574.629010 kJ/mol
# Density = 1.970813 g / cm^3
# Si number density = 19.753086 Si / 1000 Ang^3
#
#
#
# Elastic Constant Matrix: (Units=GPa)
#
#
# Indices 1 2 3 4 5 6 
#
# 1 28.8133 17.3668 22.9071 0.0000 0.0000 0.0000
# 2 17.3668 -5.7781 -13.9977 0.0000 0.0000 0.0000
# 3 22.9071 -13.9977 44.9642 0.0000 0.0000 0.0000
# 4 0.0000 0.0000 0.0000 33.5334 0.0000 0.0000
# 5 0.0000 0.0000 0.0000 0.0000 21.7863 0.0000
# 6 0.0000 0.0000 0.0000 0.0000 0.0000 19.1316
#
#
#
# Elastic Compliance Matrix: (Units=1/GPa)
#
#
# Indices 1 2 3 4 5 6 
#
# 1 0.013097 0.031655 0.003182 0.000000 0.000000 0.000000
# 2 0.031655 -0.022152 -0.023023 0.000000 0.000000 0.000000
# 3 0.003182 -0.023023 0.013452 0.000000 0.000000 0.000000
# 4 0.000000 0.000000 0.000000 0.029821 0.000000 0.000000
# 5 0.000000 0.000000 0.000000 0.000000 0.045900 0.000000
# 6 0.000000 0.000000 0.000000 0.000000 0.000000 0.052270
#
#
# Mechanical properties :
#
#
# Convention : Reuss Voigt Hill
#
# Bulk Modulus (GPa) = 35.68144 13.39465 24.53804
# Shear Modulus (GPa) = 42.33674 17.67180 30.00427
#
# Velocity S-wave (km/s) = 4.63460 2.99429 3.90162
# Velocity P-wave (km/s) = 6.83683 4.33014 5.72243
#
# Compressibility (1/GPa) = 0.02802578
#
# Stress axis : x y z
#
# Youngs Moduli (GPa) = 76.35465 -45.14341 74.34045
#
# Poissons Ratio (x) = 1.42901 -0.23657
# Poissons Ratio (y) = -2.41700 1.71151
# Poissons Ratio (z) = -0.24298 -1.03932
#
# Static dielectric constant tensor:
#      x y z
#    x 1.730860 0.000000 0.000000 
#    y 0.000000 1.666660 0.000000 
#    z 0.000000 0.000000 1.744370 
# 
# From -- ./inp_files/33393.got.cif
#   From: 2010.05.17/outbox.ucp.g08.bks.cvg/sg51_17_cif.got.tgz:33393.got - 2010.06.11 16:27:58.
