data_PCOD9407778
_publ_section_title
;
Structure prediction by ZEFSAII (Michael W. Deem and Ramdas Pophale) SiO2 
 PCOD9407778
Probable space group: P M M A
;
_chemical_formula_sum "Si O2"
_cell_formula_units_Z 56
_cell_length_a 9.000000
_cell_length_b 15.000000
_cell_length_c 21.000000
_cell_angle_alpha 90.000000
_cell_angle_beta 90.000000
_cell_angle_gamma 90.000000
_cell_volume 2835.000000
_symmetry_space_group_name_H-M "P M M A"
_symmetry_group_IT_number 51
_symmetry_cell_setting 'orthorhombic'
loop_
_space_group_symop_operation_xyz
x,y,z
1/2-x,-y,z
1/2+x,-y,-z
-x,y,-z
-x,-y,-z
1/2+x,y,-z
1/2-x,y,z
x,-y,z
loop_
_atom_site_type_symbol
_atom_site_label
_atom_site_fract_x
_atom_site_fract_y
_atom_site_fract_z
Si Si1 0.427257 0.776075 0.936914
Si Si2 0.917224 0.392433 0.243130
Si Si3 0.928410 0.103589 0.182290
Si Si4 0.572240 0.217644 0.563998
Si Si5 0.928276 0.397607 0.624965
Si Si6 0.571890 0.895327 0.685768
Si Si7 0.926436 0.604042 0.887968
O O1 0.250000 0.776156 0.941427
O O2 0.473256 0.833739 0.875787
O O3 0.485878 0.675502 0.929140
O O4 0.500000 0.815363 0.000000
O O5 0.750000 0.355935 0.234405
O O6 0.905590 0.500000 0.244165
O O7 0.990682 0.369460 0.310035
O O8 0.023346 0.373207 0.184032
O O9 0.750000 0.105981 0.187007
O O10 0.997583 0.134459 0.248684
O O11 0.972559 0.000000 0.171988
O O12 0.500000 0.183073 0.500000
O O13 0.750000 0.210521 0.559787
O O14 0.534345 0.321774 0.574382
O O15 0.523271 0.162471 0.625675
O O16 0.750000 0.395783 0.635311
O O17 0.968958 0.500000 0.608890
O O18 0.750000 0.887264 0.691717
O O19 0.536555 0.000000 0.676309
O O20 0.750000 0.613769 0.895566
O O21 0.964953 0.500000 0.900290
#
# Coordination Sequence:
#
# PCOD9407778 Si02
#       7
#     8   8   8   8   8   8   8
#     4  11  24  40  59  87 120 156 195 238 287 342
#     4   9  17  30  50  78 108 139 182 235 286 334
#     4   9  20  40  64  90 118 148 187 235 287 344
#     4  10  22  37  53  79 111 147 188 233 282 339
#     4   9  18  33  51  73 106 147 188 231 280 334
#     4   9  19  37  60  85 112 143 183 231 283 340
#     4  10  21  37  57  81 113 155 198 240 287 338
#
# _framework density 19.753086
#
# number of rings (size 3 to 8) (size 9 to 14) (size 15 to 20)
#    0.000    2.429    0.000    1.286    2.000    6.000 
#    0.000    0.000    0.000    0.000    0.000    0.000 
#    0.000    0.000    0.000    0.000    0.000    0.000 
#
# Total GULP energy -312560.379602 kJ/mol
# GULP energy per Si atom -5581.435350 kJ/mol
# Density = 1.970813 g / cm^3
# Si number density = 19.753086 Si / 1000 Ang^3
#
#
#
# Elastic Constant Matrix: (Units=GPa)
#
#
# Indices 1 2 3 4 5 6 
#
# 1 22.0818 32.3427 42.9647 0.0000 0.0000 0.0000
# 2 32.3427 73.8153 74.3904 0.0000 0.0000 0.0000
# 3 42.9647 74.3904 160.7201 0.0000 0.0000 0.0000
# 4 0.0000 0.0000 0.0000 -17.1132 0.0000 0.0000
# 5 0.0000 0.0000 0.0000 0.0000 30.7383 0.0000
# 6 0.0000 0.0000 0.0000 0.0000 0.0000 17.0474
#
#
#
# Elastic Compliance Matrix: (Units=1/GPa)
#
#
# Indices 1 2 3 4 5 6 
#
# 1 0.150227 -0.047514 -0.018168 0.000000 0.000000 0.000000
# 2 -0.047514 0.040419 -0.006007 0.000000 0.000000 0.000000
# 3 -0.018168 -0.006007 0.013859 0.000000 0.000000 0.000000
# 4 0.000000 0.000000 0.000000 -0.058434 0.000000 0.000000
# 5 0.000000 0.000000 0.000000 0.000000 0.032533 0.000000
# 6 0.000000 0.000000 0.000000 0.000000 0.000000 0.058660
#
#
# Mechanical properties :
#
#
# Convention : Reuss Voigt Hill
#
# Bulk Modulus (GPa) = 16.35880 61.77920 39.06900
# Shear Modulus (GPa) = 12.46831 13.26244 12.86538
#
# Velocity S-wave (km/s) = 2.51511 2.59397 2.55485
# Velocity P-wave (km/s) = 4.09072 6.34942 5.34084
#
# Compressibility (1/GPa) = 0.06112919
#
# Stress axis : x y z
#
# Youngs Moduli (GPa) = 6.65658 24.74070 72.15592
#
# Poissons Ratio (x) = 1.17553 1.31090
# Poissons Ratio (y) = 0.31628 0.43341
# Poissons Ratio (z) = 0.12093 0.14861
#
# Static dielectric constant tensor:
#      x y z
#    x 1.664010 0.000000 0.000000 
#    y 0.000000 1.711280 0.000000 
#    z 0.000000 0.000000 1.693230 
# 
# From -- ./inp_files/31880.got.cif
#   From: 2010.05.17/outbox.ucp.g08.bks.cvg/sg51_16_cif.got.tgz:31880.got - 2010.06.11 16:27:58.
