data_PCOD9407863
_publ_section_title
;
Structure prediction by ZEFSAII (Michael W. Deem and Ramdas Pophale) SiO2 
 PCOD9407863
Probable space group: P N N A
;
_chemical_formula_sum "Si O2"
_cell_formula_units_Z 48
_cell_length_a 15.719301
_cell_length_b 18.479965
_cell_length_c 7.543049
_cell_angle_alpha 90.000000
_cell_angle_beta 90.000000
_cell_angle_gamma 90.000000
_cell_volume 2191.196388
_symmetry_space_group_name_H-M "P N N A"
_symmetry_group_IT_number 52
_symmetry_cell_setting 'orthorhombic'
loop_
_space_group_symop_operation_xyz
x,y,z
1/2-x,-y,z
x,1/2-y,1/2-z
1/2-x,1/2+y,1/2-z
-x,-y,-z
1/2+x,y,-z
-x,1/2+y,1/2+z
1/2+x,1/2-y,1/2+z
loop_
_atom_site_type_symbol
_atom_site_label
_atom_site_fract_x
_atom_site_fract_y
_atom_site_fract_z
Si Si1 0.049310 0.917386 0.802541
Si Si2 0.214749 0.275165 0.953427
Si Si3 0.022901 0.549889 0.172512
Si Si4 0.965911 0.819555 0.503093
Si Si5 0.192663 0.570839 0.987082
Si Si6 0.614592 0.716427 0.455405
O O1 0.135973 0.932121 0.691788
O O2 0.079450 0.864804 0.958204
O O3 0.991430 0.864566 0.678937
O O4 0.000426 0.992544 0.821285
O O5 0.202671 0.250000 0.750000
O O6 0.252345 0.356337 0.974134
O O7 0.290338 0.224831 0.027710
O O8 0.120724 0.277126 0.031594
O O9 0.120590 0.571947 0.140839
O O10 0.000000 0.500000 0.000000
O O11 0.963378 0.619988 0.151652
O O12 0.044398 0.767689 0.460472
O O13 0.250000 0.500000 0.005172
O O14 0.619926 0.750000 0.250000
#
# Coordination Sequence:
#
# PCOD9407863 Si02
#       6
#     8   8   8   8   8   8
#     4   9  15  27  41  64  99 119 146 186 235 289
#     4  11  17  27  43  67  95 124 158 198 235 279
#     4   8  14  24  37  63  94 117 136 180 237 281
#     4   9  16  26  42  64  93 123 151 189 239 283
#     4  10  15  23  41  69  95 114 143 188 239 283
#     4   9  15  29  43  62  96 123 154 189 228 291
#
# _framework density 21.905843000000001
#
# number of rings (size 3 to 8) (size 9 to 14) (size 15 to 20)
#    0.000    3.000    6.667    3.000    0.000    0.000 
#    0.000    0.000    0.000    3.000    0.000    4.667 
#    0.000    0.000    0.000    0.000    0.000    0.500 
#
# Total GULP energy -267442.816350 kJ/mol
# GULP energy per Si atom -5571.725341 kJ/mol
# Density = 2.185598 g / cm^3
# Si number density = 21.905843 Si / 1000 Ang^3
#
#
#
# Elastic Constant Matrix: (Units=GPa)
#
#
# Indices 1 2 3 4 5 6 
#
# 1 140.1915 39.9887 12.7761 0.0000 0.0000 0.0000
# 2 39.9887 104.0805 15.8176 0.0000 0.0000 0.0000
# 3 12.7761 15.8176 55.3649 0.0000 0.0000 0.0000
# 4 0.0000 0.0000 0.0000 6.8300 0.0000 0.0000
# 5 0.0000 0.0000 0.0000 0.0000 1.4107 0.0000
# 6 0.0000 0.0000 0.0000 0.0000 0.0000 -201.1493
#
#
#
# Elastic Compliance Matrix: (Units=1/GPa)
#
#
# Indices 1 2 3 4 5 6 
#
# 1 0.008066 -0.002944 -0.001020 0.000000 0.000000 0.000000
# 2 -0.002944 0.011119 -0.002497 0.000000 0.000000 0.000000
# 3 -0.001020 -0.002497 0.019011 0.000000 0.000000 0.000000
# 4 0.000000 0.000000 0.000000 0.146413 0.000000 0.000000
# 5 0.000000 0.000000 0.000000 0.000000 0.708843 0.000000
# 6 0.000000 0.000000 0.000000 0.000000 0.000000 -0.004971
#
#
# Mechanical properties :
#
#
# Convention : Reuss Voigt Hill
#
# Bulk Modulus (GPa) = 39.56863 48.53354 44.05108
# Shear Modulus (GPa) = 5.49555 -23.17808 -8.84127
#
# Velocity S-wave (km/s) = 1.58561 -3.25634 -2.01117
# Velocity P-wave (km/s) = 4.63190 2.83995 3.84186
#
# Compressibility (1/GPa) = 0.02527255
#
# Stress axis : x y z
#
# Youngs Moduli (GPa) = 123.98017 89.93987 52.60158
#
# Poissons Ratio (x) = 0.26478 0.05366
# Poissons Ratio (y) = 0.36499 0.13136
# Poissons Ratio (z) = 0.12649 0.22460
#
# Static dielectric constant tensor:
#      x y z
#    x 1.791660 0.000000 0.000000 
#    y 0.000000 1.788820 0.000000 
#    z 0.000000 0.000000 1.965740 
# 
# From -- ./inp_files/19893.got.cif
#   From: 2010.05.17/outbox.cif.g08.bks.cpg/sg52_10_cif.got.tgz:19893.got - 2010.06.03 12:15:38.
