data_PCOD9407254
_publ_section_title
;
Structure prediction by ZEFSAII (Michael W. Deem and Ramdas Pophale) SiO2 
 PCOD9407254
Probable space group: P M M A
;
_chemical_formula_sum "Si O2"
_cell_formula_units_Z 40
_cell_length_a 7.220578
_cell_length_b 28.805137
_cell_length_c 7.269219
_cell_angle_alpha 90.000000
_cell_angle_beta 90.000000
_cell_angle_gamma 90.000000
_cell_volume 1511.922959
_symmetry_space_group_name_H-M "P M M A"
_symmetry_group_IT_number 51
_symmetry_cell_setting 'orthorhombic'
loop_
_space_group_symop_operation_xyz
x,y,z
1/2-x,-y,z
1/2+x,-y,-z
-x,y,-z
-x,-y,-z
1/2+x,y,-z
1/2-x,y,z
x,-y,z
loop_
_atom_site_type_symbol
_atom_site_label
_atom_site_fract_x
_atom_site_fract_y
_atom_site_fract_z
Si Si1 0.029254 0.149357 0.778224
Si Si2 0.529546 0.950201 0.221543
Si Si3 0.531102 0.751692 0.215749
Si Si4 0.968912 0.648740 0.284198
Si Si5 0.970749 0.549767 0.278229
O O1 0.250000 0.149959 0.749294
O O2 0.956542 0.099574 0.709809
O O3 0.957450 0.199193 0.706936
O O4 0.000000 0.148342 0.000000
O O5 0.750000 0.950079 0.252005
O O6 0.456450 0.000000 0.289554
O O7 0.500000 0.950348 0.000000
O O8 0.750000 0.749740 0.261195
O O9 0.454188 0.700207 0.249784
O O10 0.500000 0.757077 0.000000
O O11 0.750000 0.650626 0.238823
O O12 0.042470 0.599609 0.206928
O O13 0.000000 0.643472 0.500000
O O14 0.750000 0.550209 0.249282
O O15 0.043226 0.500000 0.209083
O O16 0.000000 0.548949 0.500000
#
# Coordination Sequence:
#
# PCOD9407254 Si02
#       5
#     8   8   8   8   8
#     4   8  13  21  32  46  66  92 120 149 180 216
#     4   8  12  17  26  41  61  85 112 142 177 215
#     4   9  17  28  41  57  78 105 134 160 188 226
#     4   9  17  28  42  61  82 102 127 160 195 229
#     4   8  13  22  37  56  76  97 121 151 188 227
#
# _framework density 26.456375000000001
#
# number of rings (size 3 to 8) (size 9 to 14) (size 15 to 20)
#    0.000    3.600    0.000    0.000    0.000    0.800 
#    0.000    0.000    0.000    0.600    0.000    0.000 
#    0.000    0.800    0.000    0.600    0.000   12.000 
#
# Total GULP energy -222839.737502 kJ/mol
# GULP energy per Si atom -5570.993438 kJ/mol
# Density = 2.639616 g / cm^3
# Si number density = 26.456375 Si / 1000 Ang^3
#
#
#
# Elastic Constant Matrix: (Units=GPa)
#
#
# Indices 1 2 3 4 5 6 
#
# 1 151.3892 30.4708 -19.5936 0.0000 0.0000 0.0000
# 2 30.4708 443.7189 15.6056 0.0000 0.0000 0.0000
# 3 -19.5936 15.6056 78.5610 0.0000 0.0000 0.0000
# 4 0.0000 0.0000 0.0000 17.9399 0.0000 0.0000
# 5 0.0000 0.0000 0.0000 0.0000 0.0268 0.0000
# 6 0.0000 0.0000 0.0000 0.0000 0.0000 -2.3951
#
#
#
# Elastic Compliance Matrix: (Units=1/GPa)
#
#
# Indices 1 2 3 4 5 6 
#
# 1 0.006953 -0.000542 0.001842 0.000000 0.000000 0.000000
# 2 -0.000542 0.002312 -0.000594 0.000000 0.000000 0.000000
# 3 0.001842 -0.000594 0.013306 0.000000 0.000000 0.000000
# 4 0.000000 0.000000 0.000000 0.055742 0.000000 0.000000
# 5 0.000000 0.000000 0.000000 0.000000 37.254047 0.000000
# 6 0.000000 0.000000 0.000000 0.000000 0.000000 -0.417511
#
#
# Mechanical properties :
#
#
# Convention : Reuss Voigt Hill
#
# Bulk Modulus (GPa) = 41.69883 80.73719 61.21801
# Shear Modulus (GPa) = 0.13542 46.26007 23.19775
#
# Velocity S-wave (km/s) = 0.22649 4.18609 2.96434
# Velocity P-wave (km/s) = 3.98296 7.34492 5.90812
#
# Compressibility (1/GPa) = 0.02398149
#
# Stress axis : x y z
#
# Youngs Moduli (GPa) = 143.82253 432.55895 75.15174
#
# Poissons Ratio (x) = 0.23456 -0.13842
# Poissons Ratio (y) = 0.07799 0.04468
# Poissons Ratio (z) = -0.26490 0.25714
#
# Static dielectric constant tensor:
#      x y z
#    x 1.952100 0.000000 0.000000 
#    y 0.000000 2.240440 0.000000 
#    z 0.000000 0.000000 2.074610 
# 
# From -- ./inp_files/909.got.cif
#   From: 2010.05.17/outbox.cif.g08.bks.cpg/sg51_1_cif.got.tgz:909.got - 2010.06.03 11:52:47.
