data_PCOD9407636
_publ_section_title
;
Structure prediction by ZEFSAII (Michael W. Deem and Ramdas Pophale) SiO2 
 PCOD9407636
Probable space group: P M M A
;
_chemical_formula_sum "Si O2"
_cell_formula_units_Z 56
_cell_length_a 15.000000
_cell_length_b 15.000000
_cell_length_c 12.000000
_cell_angle_alpha 90.000000
_cell_angle_beta 90.000000
_cell_angle_gamma 90.000000
_cell_volume 2700.000000
_symmetry_space_group_name_H-M "P M M A"
_symmetry_group_IT_number 51
_symmetry_cell_setting 'orthorhombic'
loop_
_space_group_symop_operation_xyz
x,y,z
1/2-x,-y,z
1/2+x,-y,-z
-x,y,-z
-x,-y,-z
1/2+x,y,-z
1/2-x,y,z
x,-y,z
loop_
_atom_site_type_symbol
_atom_site_label
_atom_site_fract_x
_atom_site_fract_y
_atom_site_fract_z
Si Si1 0.536515 0.399440 0.236584
Si Si2 0.849477 0.207216 0.554016
Si Si3 0.151735 0.105147 0.679459
Si Si4 0.347705 0.404556 0.983889
Si Si5 0.435547 0.743822 0.108504
Si Si6 0.955582 0.105974 0.741654
Si Si7 0.895125 0.600110 0.472340
O O1 0.498146 0.500000 0.257185
O O2 0.474198 0.314393 0.213498
O O3 0.604358 0.384163 0.338665
O O4 0.584436 0.403486 0.117449
O O5 0.750000 0.189252 0.598463
O O6 0.855546 0.163844 0.431451
O O7 0.919639 0.155823 0.631406
O O8 0.859472 0.313803 0.537166
O O9 0.250000 0.122754 0.730519
O O10 0.062846 0.120339 0.750727
O O11 0.149634 0.000000 0.648479
O O12 0.250000 0.403312 0.934171
O O13 0.360404 0.500000 0.043991
O O14 0.359863 0.321251 0.063023
O O15 0.413062 0.840328 0.155714
O O16 0.500000 0.752679 0.000000
O O17 0.938352 0.000000 0.737657
O O18 0.859148 0.500000 0.495418
O O19 0.000000 0.597964 0.500000
#
# Coordination Sequence:
#
# PCOD9407636 Si02
#       7
#     8   8   8   8   8   8   8
#     4   9  17  31  54  81 109 143 179 218 270 333
#     4  11  22  35  54  80 113 152 191 227 267 325
#     4   9  18  34  58  86 109 132 172 229 289 344
#     4   9  18  33  54  81 111 144 186 233 277 325
#     4  10  20  35  55  79 107 141 182 227 281 336
#     4  11  23  39  59  80 107 145 189 238 289 340
#     4  10  20  34  54  81 115 153 189 226 273 333
#
# _framework density 20.740741
#
# number of rings (size 3 to 8) (size 9 to 14) (size 15 to 20)
#    0.000    2.143    0.000    3.857    0.000    5.429 
#    0.000    6.429    0.000    0.000    0.000    2.000 
#    0.000    0.000    0.000    0.000    0.000    0.000 
#
# Total GULP energy -311993.219540 kJ/mol
# GULP energy per Si atom -5571.307492 kJ/mol
# Density = 2.069353 g / cm^3
# Si number density = 20.740741 Si / 1000 Ang^3
#
#
#
# Elastic Constant Matrix: (Units=GPa)
#
#
# Indices 1 2 3 4 5 6 
#
# 1 47.9307 20.2765 -1.2613 0.0000 0.0000 0.0000
# 2 20.2765 120.0765 34.6050 0.0000 0.0000 0.0000
# 3 -1.2613 34.6050 46.3763 0.0000 0.0000 0.0000
# 4 0.0000 0.0000 0.0000 31.4084 0.0000 0.0000
# 5 0.0000 0.0000 0.0000 0.0000 -0.4658 0.0000
# 6 0.0000 0.0000 0.0000 0.0000 0.0000 14.7222
#
#
#
# Elastic Compliance Matrix: (Units=1/GPa)
#
#
# Indices 1 2 3 4 5 6 
#
# 1 0.023191 -0.005221 0.004526 0.000000 0.000000 0.000000
# 2 -0.005221 0.011785 -0.008935 0.000000 0.000000 0.000000
# 3 0.004526 -0.008935 0.028353 0.000000 0.000000 0.000000
# 4 0.000000 0.000000 0.000000 0.031839 0.000000 0.000000
# 5 0.000000 0.000000 0.000000 0.000000 -2.146901 0.000000
# 6 0.000000 0.000000 0.000000 0.000000 0.000000 0.067925
#
#
# Mechanical properties :
#
#
# Convention : Reuss Voigt Hill
#
# Bulk Modulus (GPa) = 22.69149 35.73599 29.21374
# Shear Modulus (GPa) = -2.56429 19.85052 8.64311
#
# Velocity S-wave (km/s) = -1.11312 3.09702 2.04359
# Velocity P-wave (km/s) = 3.05160 5.48234 4.43668
#
# Compressibility (1/GPa) = 0.04406938
#
# Stress axis : x y z
#
# Youngs Moduli (GPa) = 43.12015 84.85580 35.26925
#
# Poissons Ratio (x) = 0.44299 -0.15963
# Poissons Ratio (y) = 0.22511 0.31515
# Poissons Ratio (z) = -0.19517 0.75823
#
# Static dielectric constant tensor:
#      x y z
#    x 1.818390 0.000000 0.000000 
#    y 0.000000 1.772940 0.000000 
#    z 0.000000 0.000000 1.741480 
# 
# From -- ./inp_files/16595.got.cif
#   From: 2010.05.17/outbox.ucp.g08.bks.cvg/sg51_9_cif.got.tgz:16595.got - 2010.06.11 16:27:58.
