data_PCOD9407904
_publ_section_title
;
Structure prediction by ZEFSAII (Michael W. Deem and Ramdas Pophale) SiO2 
 PCOD9407904
Probable space group: P N N A
;
_chemical_formula_sum "Si O2"
_cell_formula_units_Z 40
_cell_length_a 5.192754
_cell_length_b 13.760384
_cell_length_c 35.140274
_cell_angle_alpha 90.000000
_cell_angle_beta 90.000000
_cell_angle_gamma 90.000000
_cell_volume 2510.923296
_symmetry_space_group_name_H-M "P N N A"
_symmetry_group_IT_number 52
_symmetry_cell_setting 'orthorhombic'
loop_
_space_group_symop_operation_xyz
x,y,z
1/2-x,-y,z
x,1/2-y,1/2-z
1/2-x,1/2+y,1/2-z
-x,-y,-z
1/2+x,y,-z
-x,1/2+y,1/2+z
1/2+x,1/2-y,1/2+z
loop_
_atom_site_type_symbol
_atom_site_label
_atom_site_fract_x
_atom_site_fract_y
_atom_site_fract_z
Si Si1 0.250000 0.500000 0.280287
Si Si2 0.028061 0.610011 0.516834
Si Si3 0.353772 0.690876 0.326542
Si Si4 0.750000 0.500000 0.228044
Si Si5 0.507008 0.934243 0.103985
Si Si6 0.368908 0.785721 0.706572
O O1 0.243890 0.594292 0.306421
O O2 0.500134 0.510350 0.254442
O O3 0.759853 0.657839 0.505877
O O4 0.073617 0.601601 0.561537
O O5 0.000000 0.500000 0.500000
O O6 0.438377 0.654442 0.368189
O O7 0.613994 0.727919 0.306384
O O8 0.118002 0.764972 0.319726
O O9 0.703440 0.399407 0.206189
O O10 0.250000 0.000000 0.101051
O O11 0.750000 0.000000 0.117832
O O12 0.430570 0.750000 0.750000
#
# Coordination Sequence:
#
# PCOD9407904 Si02
#       6
#     4   8   8   4   8   8
#     4  12  20  34  54  78  94 133 168 217 272 312
#     4  10  16  29  46  69  98 138 187 192 224 300
#     4  12  24  35  51  78 109 132 173 225 266 308
#     4  12  24  36  60  70  92 131 178 223 272 316
#     4  12  21  31  49  74 106 144 176 205 251 303
#     4  12  23  40  54  75  97 133 177 229 271 318
#
# _framework density 15.930395000000001
#
# number of rings (size 3 to 8) (size 9 to 14) (size 15 to 20)
#    0.000    0.400    9.000    3.000    1.400    0.000 
#    0.000    0.000    0.000    0.000    0.000    0.000 
#    0.000    0.000    0.000   18.000    0.000    0.000 
#
# Total GULP energy -223169.159255 kJ/mol
# GULP energy per Si atom -5579.228981 kJ/mol
# Density = 1.589414 g / cm^3
# Si number density = 15.930395 Si / 1000 Ang^3
#
#
#
# Elastic Constant Matrix: (Units=GPa)
#
#
# Indices 1 2 3 4 5 6 
#
# 1 112.0423 9.6593 21.4453 0.0000 0.0000 0.0000
# 2 9.6593 60.0139 37.1356 0.0000 0.0000 0.0000
# 3 21.4453 37.1356 82.2553 0.0000 0.0000 0.0000
# 4 0.0000 0.0000 0.0000 8.6713 0.0000 0.0000
# 5 0.0000 0.0000 0.0000 0.0000 18.6503 0.0000
# 6 0.0000 0.0000 0.0000 0.0000 0.0000 25.9150
#
#
#
# Elastic Compliance Matrix: (Units=1/GPa)
#
#
# Indices 1 2 3 4 5 6 
#
# 1 0.009394 0.000005 -0.002451 0.000000 0.000000 0.000000
# 2 0.000005 0.023122 -0.010440 0.000000 0.000000 0.000000
# 3 -0.002451 -0.010440 0.017510 0.000000 0.000000 0.000000
# 4 0.000000 0.000000 0.000000 0.115322 0.000000 0.000000
# 5 0.000000 0.000000 0.000000 0.000000 0.053618 0.000000
# 6 0.000000 0.000000 0.000000 0.000000 0.000000 0.038588
#
#
# Mechanical properties :
#
#
# Convention : Reuss Voigt Hill
#
# Bulk Modulus (GPa) = 41.23262 43.42131 42.32697
# Shear Modulus (GPa) = 17.15784 23.05210 20.10497
#
# Velocity S-wave (km/s) = 3.28540 3.80814 3.55639
# Velocity P-wave (km/s) = 6.35067 6.83022 6.59481
#
# Compressibility (1/GPa) = 0.02425265
#
# Stress axis : x y z
#
# Youngs Moduli (GPa) = 106.45114 43.24840 57.11091
#
# Poissons Ratio (x) = -0.00021 0.14000
# Poissons Ratio (y) = -0.00052 0.59625
# Poissons Ratio (z) = 0.26095 0.45152
#
# Static dielectric constant tensor:
#      x y z
#    x 1.609050 0.000000 0.000000 
#    y 0.000000 1.506900 0.000000 
#    z 0.000000 0.000000 1.543840 
# 
# From -- ./inp_files/43687.got.cif
#   From: 2010.05.17/outbox.cif.g08.bks.cpg/sg52_22_cif.got.tgz:43687.got - 2010.06.03 12:15:38.
