data_PCOD9407813
_publ_section_title
;
Structure prediction by ZEFSAII (Michael W. Deem and Ramdas Pophale) SiO2 
 PCOD9407813
Probable space group: P M M A
;
_chemical_formula_sum "Si O2"
_cell_formula_units_Z 48
_cell_length_a 18.000000
_cell_length_b 9.000000
_cell_length_c 15.000000
_cell_angle_alpha 90.000000
_cell_angle_beta 90.000000
_cell_angle_gamma 90.000000
_cell_volume 2430.000000
_symmetry_space_group_name_H-M "P M M A"
_symmetry_group_IT_number 51
_symmetry_cell_setting 'orthorhombic'
loop_
_space_group_symop_operation_xyz
x,y,z
1/2-x,-y,z
1/2+x,-y,-z
-x,y,-z
-x,-y,-z
1/2+x,y,-z
1/2-x,y,z
x,-y,z
loop_
_atom_site_type_symbol
_atom_site_label
_atom_site_fract_x
_atom_site_fract_y
_atom_site_fract_z
Si Si1 0.750000 0.828758 0.960428
Si Si2 0.250000 0.670290 0.216248
Si Si3 0.917742 0.827162 0.046911
Si Si4 0.101519 0.167770 0.271332
Si Si5 0.549205 0.324377 0.224140
Si Si6 0.418137 0.170146 0.482261
Si Si7 0.667208 0.321263 0.370452
O O1 0.750000 0.699279 0.888506
O O2 0.750000 0.000000 0.925217
O O3 0.834074 0.815247 0.003638
O O4 0.250000 0.500000 0.241073
O O5 0.323361 0.748824 0.250850
O O6 0.916158 0.717749 0.130228
O O7 0.923301 0.000000 0.074861
O O8 0.000000 0.798145 0.000000
O O9 0.092850 0.165915 0.377466
O O10 0.030303 0.247762 0.231263
O O11 0.104788 0.000000 0.236601
O O12 0.540157 0.500000 0.234043
O O13 0.604336 0.269250 0.301728
O O14 0.500000 0.234501 0.500000
O O15 0.356238 0.261875 0.533404
O O16 0.417269 0.000000 0.516654
O O17 0.750000 0.271286 0.345920
O O18 0.666669 0.500000 0.370290
#
# Coordination Sequence:
#
# PCOD9407813 Si02
#       7
#     4   4   8   8   8   8   8
#     4  10  22  42  66  93 124 163 208 253 312 377
#     4  12  26  42  64  95 128 159 204 253 306 371
#     4  10  22  40  63  90 122 161 205 255 313 375
#     4  11  23  41  64  89 125 165 206 256 310 361
#     4  11  23  39  63  92 124 162 208 253 306 371
#     4  10  21  39  61  87 115 154 207 256 303 357
#     4  10  23  40  58  86 125 165 202 248 307 365
#
# _framework density 19.753086
#
# number of rings (size 3 to 8) (size 9 to 14) (size 15 to 20)
#    0.000    1.500    1.667    2.750    2.333    5.000 
#    0.000    0.000    0.000    0.000    0.000    0.000 
#    0.000    0.000    0.000    0.000    0.000    0.000 
#
# Total GULP energy -267580.835538 kJ/mol
# GULP energy per Si atom -5574.600740 kJ/mol
# Density = 1.970813 g / cm^3
# Si number density = 19.753086 Si / 1000 Ang^3
#
#
#
# Elastic Constant Matrix: (Units=GPa)
#
#
# Indices 1 2 3 4 5 6 
#
# 1 158.1525 48.7311 19.3241 0.0000 0.0000 0.0000
# 2 48.7311 55.9222 20.1541 0.0000 0.0000 0.0000
# 3 19.3241 20.1541 26.0310 0.0000 0.0000 0.0000
# 4 0.0000 0.0000 0.0000 33.6286 0.0000 0.0000
# 5 0.0000 0.0000 0.0000 0.0000 20.4089 0.0000
# 6 0.0000 0.0000 0.0000 0.0000 0.0000 61.1117
#
#
#
# Elastic Compliance Matrix: (Units=1/GPa)
#
#
# Indices 1 2 3 4 5 6 
#
# 1 0.008656 -0.007250 -0.000813 0.000000 0.000000 0.000000
# 2 -0.007250 0.030875 -0.018523 0.000000 0.000000 0.000000
# 3 -0.000813 -0.018523 0.053360 0.000000 0.000000 0.000000
# 4 0.000000 0.000000 0.000000 0.029737 0.000000 0.000000
# 5 0.000000 0.000000 0.000000 0.000000 0.048998 0.000000
# 6 0.000000 0.000000 0.000000 0.000000 0.000000 0.016363
#
#
# Mechanical properties :
#
#
# Convention : Reuss Voigt Hill
#
# Bulk Modulus (GPa) = 25.17587 46.28047 35.72817
# Shear Modulus (GPa) = 19.65403 33.15628 26.40516
#
# Velocity S-wave (km/s) = 3.15776 4.10144 3.66014
# Velocity P-wave (km/s) = 5.10570 6.77565 5.99907
#
# Compressibility (1/GPa) = 0.03972058
#
# Stress axis : x y z
#
# Youngs Moduli (GPa) = 115.52246 32.38817 18.74075
#
# Poissons Ratio (x) = 0.23483 0.01523
# Poissons Ratio (y) = 0.83758 0.34713
# Poissons Ratio (z) = 0.09386 0.59991
#
# Static dielectric constant tensor:
#      x y z
#    x 1.697780 0.000000 0.000000 
#    y 0.000000 1.679380 0.000000 
#    z 0.000000 0.000000 1.716110 
# 
# From -- ./inp_files/24915.got.cif
#   From: 2010.05.17/outbox.ucp.g08.bks.cvg/sg51_13_cif.got.tgz:24915.got - 2010.06.11 16:27:58.
