data_PCOD9407712
_publ_section_title
;
Structure prediction by ZEFSAII (Michael W. Deem and Ramdas Pophale) SiO2 
 PCOD9407712
Probable space group: P M M A
;
_chemical_formula_sum "Si O2"
_cell_formula_units_Z 64
_cell_length_a 30.000000
_cell_length_b 9.000000
_cell_length_c 12.000000
_cell_angle_alpha 90.000000
_cell_angle_beta 90.000000
_cell_angle_gamma 90.000000
_cell_volume 3240.000000
_symmetry_space_group_name_H-M "P M M A"
_symmetry_group_IT_number 51
_symmetry_cell_setting 'orthorhombic'
loop_
_space_group_symop_operation_xyz
x,y,z
1/2-x,-y,z
1/2+x,-y,-z
-x,y,-z
-x,-y,-z
1/2+x,y,-z
1/2-x,y,z
x,-y,z
loop_
_atom_site_type_symbol
_atom_site_label
_atom_site_fract_x
_atom_site_fract_y
_atom_site_fract_z
Si Si1 0.542855 0.672365 0.318494
Si Si2 0.798521 0.166807 0.324711
Si Si3 0.961476 0.170170 0.768916
Si Si4 0.620052 0.819493 0.922126
Si Si5 0.616665 0.174296 0.176443
Si Si6 0.328764 0.326187 0.462777
Si Si7 0.577740 0.168924 0.520793
Si Si8 0.299990 0.179126 0.233480
O O1 0.542245 0.500000 0.345672
O O2 0.502314 0.719969 0.240561
O O3 0.586164 0.723286 0.252093
O O4 0.543234 0.768681 0.431173
O O5 0.750000 0.178995 0.273724
O O6 0.835054 0.181657 0.230774
O O7 0.803780 0.280086 0.425182
O O8 0.803320 0.000000 0.373883
O O9 0.924448 0.219940 0.855856
O O10 0.939712 0.167785 0.646280
O O11 0.975559 0.000000 0.794645
O O12 0.662820 0.766872 0.853132
O O13 0.622164 0.000000 0.921827
O O14 0.617824 0.774169 0.049592
O O15 0.601794 0.000000 0.181072
O O16 0.326680 0.500000 0.443152
O O17 0.379165 0.272045 0.482263
O O18 0.310039 0.241992 0.355411
O O19 0.589741 0.000000 0.489455
O O20 0.250000 0.219107 0.199177
O O21 0.302969 0.000000 0.239783
#
# Coordination Sequence:
#
# PCOD9407712 Si02
#       8
#     8   8   8   8   8   8   8   8
#     4  12  25  39  58  88 124 154 193 239 292 354
#     4  10  21  37  59  87 118 155 198 242 290 346
#     4  10  21  39  63  87 117 153 194 240 292 349
#     4   9  19  38  62  89 114 150 203 252 290 336
#     4  10  21  39  63  85 115 156 201 248 293 341
#     4  12  23  35  57  88 123 158 193 237 294 354
#     4  11  21  38  64  89 117 152 193 239 294 354
#     4  10  20  37  62  90 121 156 196 243 293 346
#
# _framework density 19.753086
#
# number of rings (size 3 to 8) (size 9 to 14) (size 15 to 20)
#    0.000    1.500    2.500    3.375    0.000    5.500 
#    0.000    6.250    0.000    0.000    0.000    1.750 
#    0.000    0.000    0.000    0.000    0.000    0.000 
#
# Total GULP energy -357374.689819 kJ/mol
# GULP energy per Si atom -5583.979528 kJ/mol
# Density = 1.970813 g / cm^3
# Si number density = 19.753086 Si / 1000 Ang^3
#
#
#
# Elastic Constant Matrix: (Units=GPa)
#
#
# Indices 1 2 3 4 5 6 
#
# 1 75.0943 8.4985 10.2854 0.0000 0.0000 0.0000
# 2 8.4985 3.1647 1.3147 0.0000 0.0000 0.0000
# 3 10.2854 1.3147 54.5374 0.0000 0.0000 0.0000
# 4 0.0000 0.0000 0.0000 -45.8149 0.0000 0.0000
# 5 0.0000 0.0000 0.0000 0.0000 53.4925 0.0000
# 6 0.0000 0.0000 0.0000 0.0000 0.0000 81.2098
#
#
#
# Elastic Compliance Matrix: (Units=1/GPa)
#
#
# Indices 1 2 3 4 5 6 
#
# 1 0.019445 -0.051208 -0.002433 0.000000 0.000000 0.000000
# 2 -0.051208 0.454042 -0.001288 0.000000 0.000000 0.000000
# 3 -0.002433 -0.001288 0.018826 0.000000 0.000000 0.000000
# 4 0.000000 0.000000 0.000000 -0.021827 0.000000 0.000000
# 5 0.000000 0.000000 0.000000 0.000000 0.018694 0.000000
# 6 0.000000 0.000000 0.000000 0.000000 0.000000 0.012314
#
#
# Mechanical properties :
#
#
# Convention : Reuss Voigt Hill
#
# Bulk Modulus (GPa) = 2.61468 19.22151 10.91809
# Shear Modulus (GPa) = 6.76740 25.29067 16.02904
#
# Velocity S-wave (km/s) = 1.85295 3.58207 2.85172
# Velocity P-wave (km/s) = 2.42991 5.18269 4.04751
#
# Compressibility (1/GPa) = 0.38245610
#
# Stress axis : x y z
#
# Youngs Moduli (GPa) = 51.42692 2.20244 53.11838
#
# Poissons Ratio (x) = 0.11278 0.12923
# Poissons Ratio (y) = 2.63347 0.06839
# Poissons Ratio (z) = 0.12511 0.00284
#
# Static dielectric constant tensor:
#      x y z
#    x 1.705490 0.000000 0.000000 
#    y 0.000000 1.699780 0.000000 
#    z 0.000000 0.000000 1.669030 
# 
# From -- ./inp_files/19583.got.cif
#   From: 2010.05.17/outbox.ucp.g08.bks.cvg/sg51_10_cif.got.tgz:19583.got - 2010.06.11 16:27:58.
