data_PCOD9407343
_publ_section_title
;
Structure prediction by ZEFSAII (Michael W. Deem and Ramdas Pophale) SiO2 
 PCOD9407343
Probable space group: P M M A
;
_chemical_formula_sum "Si O2"
_cell_formula_units_Z 40
_cell_length_a 7.402784
_cell_length_b 19.460880
_cell_length_c 14.483727
_cell_angle_alpha 90.000000
_cell_angle_beta 90.000000
_cell_angle_gamma 90.000000
_cell_volume 2086.593656
_symmetry_space_group_name_H-M "P M M A"
_symmetry_group_IT_number 51
_symmetry_cell_setting 'orthorhombic'
loop_
_space_group_symop_operation_xyz
x,y,z
1/2-x,-y,z
1/2+x,-y,-z
-x,y,-z
-x,-y,-z
1/2+x,y,-z
1/2-x,y,z
x,-y,z
loop_
_atom_site_type_symbol
_atom_site_label
_atom_site_fract_x
_atom_site_fract_y
_atom_site_fract_z
Si Si1 0.534232 0.424413 0.109640
Si Si2 0.965185 0.500000 0.389923
Si Si3 0.465861 0.650086 0.608036
Si Si4 0.966365 0.850512 0.109450
Si Si5 0.465692 0.000000 0.889979
Si Si6 0.471160 0.285789 0.789159
O O1 0.750000 0.425716 0.124480
O O2 0.465945 0.500000 0.140636
O O3 0.468499 0.355201 0.158432
O O4 0.500000 0.419506 0.000000
O O5 0.750000 0.500000 0.371287
O O6 0.036032 0.425487 0.361247
O O7 0.000000 0.500000 0.500000
O O8 0.500000 0.662369 0.500000
O O9 0.250000 0.645928 0.615873
O O10 0.526289 0.705601 0.682479
O O11 0.750000 0.851932 0.121161
O O12 0.035459 0.925531 0.141850
O O13 0.035289 0.783761 0.162744
O O14 0.000000 0.843261 0.000000
O O15 0.250000 0.000000 0.874956
O O16 0.500000 0.000000 0.000000
O O17 0.250000 0.284783 0.793715
#
# Coordination Sequence:
#
# PCOD9407343 Si02
#       6
#     8   4   8   8   4   8
#     4   9  17  28  41  56  77 106 137 165 193 228
#     4   8  14  24  40  56  71  92 122 160 201 238
#     4   9  17  29  43  59  78 101 131 168 207 244
#     4   9  16  27  42  62  86 110 135 163 196 235
#     4   8  14  24  40  60  83 108 132 160 195 234
#     4   9  17  27  42  61  80 105 136 166 198 238
#
# _framework density 19.170000000000002
#
# number of rings (size 3 to 8) (size 9 to 14) (size 15 to 20)
#    0.000    3.200    0.000    0.600    1.400    0.000 
#    0.000    2.000    0.000    0.000    0.000    0.700 
#    0.000    0.000    0.000    0.000    0.000    0.000 
#
# Total GULP energy -222871.316600 kJ/mol
# GULP energy per Si atom -5571.782915 kJ/mol
# Density = 1.912637 g / cm^3
# Si number density = 19.170000 Si / 1000 Ang^3
#
#
#
# Elastic Constant Matrix: (Units=GPa)
#
#
# Indices 1 2 3 4 5 6 
#
# 1 67.0179 11.3427 -2.7268 0.0000 0.0000 0.0000
# 2 11.3427 212.5162 94.2893 0.0000 0.0000 0.0000
# 3 -2.7268 94.2893 88.7586 0.0000 0.0000 0.0000
# 4 0.0000 0.0000 0.0000 14.8618 0.0000 0.0000
# 5 0.0000 0.0000 0.0000 0.0000 10.1257 0.0000
# 6 0.0000 0.0000 0.0000 0.0000 0.0000 -3.6177
#
#
#
# Elastic Compliance Matrix: (Units=1/GPa)
#
#
# Indices 1 2 3 4 5 6 
#
# 1 0.015354 -0.001946 0.002539 0.000000 0.000000 0.000000
# 2 -0.001946 0.009147 -0.009777 0.000000 0.000000 0.000000
# 3 0.002539 -0.009777 0.021731 0.000000 0.000000 0.000000
# 4 0.000000 0.000000 0.000000 0.067286 0.000000 0.000000
# 5 0.000000 0.000000 0.000000 0.000000 0.098759 0.000000
# 6 0.000000 0.000000 0.000000 0.000000 0.000000 -0.276422
#
#
# Mechanical properties :
#
#
# Convention : Reuss Voigt Hill
#
# Bulk Modulus (GPa) = 35.88872 63.78926 49.83899
# Shear Modulus (GPa) = -137.02837 21.96648 -57.53094
#
# Velocity S-wave (km/s) = -8.46379 3.38875 -5.48417
# Velocity P-wave (km/s) = 8.76085 6.97562 3.74787
#
# Compressibility (1/GPa) = 0.02786391
#
# Stress axis : x y z
#
# Youngs Moduli (GPa) = 65.12947 109.32234 46.01773
#
# Poissons Ratio (x) = 0.21274 -0.11684
# Poissons Ratio (y) = 0.12674 0.44992
# Poissons Ratio (z) = -0.16536 1.06885
#
# Static dielectric constant tensor:
#      x y z
#    x 1.751150 0.000000 0.000000 
#    y 0.000000 1.710170 0.000000 
#    z 0.000000 0.000000 1.657440 
# 
# From -- ./inp_files/6982.got.cif
#   From: 2010.05.17/outbox.cif.g08.bks.cpg/sg51_4_cif.got.tgz:6982.got - 2010.06.03 11:52:47.
