data_PCOD9407356
_publ_section_title
;
Structure prediction by ZEFSAII (Michael W. Deem and Ramdas Pophale) SiO2 
 PCOD9407356
Probable space group: P M M A
;
_chemical_formula_sum "Si O2"
_cell_formula_units_Z 64
_cell_length_a 7.546605
_cell_length_b 9.838069
_cell_length_c 42.977270
_cell_angle_alpha 90.000000
_cell_angle_beta 90.000000
_cell_angle_gamma 90.000000
_cell_volume 3190.805324
_symmetry_space_group_name_H-M "P M M A"
_symmetry_group_IT_number 51
_symmetry_cell_setting 'orthorhombic'
loop_
_space_group_symop_operation_xyz
x,y,z
1/2-x,-y,z
1/2+x,-y,-z
-x,y,-z
-x,-y,-z
1/2+x,y,-z
1/2-x,y,z
x,-y,z
loop_
_atom_site_type_symbol
_atom_site_label
_atom_site_fract_x
_atom_site_fract_y
_atom_site_fract_z
Si Si1 0.962800 0.154376 0.781531
Si Si2 0.533403 0.341782 0.408980
Si Si3 0.537751 0.154237 0.035617
Si Si4 0.537502 0.154974 0.465127
Si Si5 0.039403 0.345478 0.273139
Si Si6 0.037870 0.844952 0.851951
Si Si7 0.032714 0.343693 0.908338
Si Si8 0.037186 0.657335 0.659015
O O1 0.750000 0.148564 0.778369
O O2 0.031996 0.252989 0.754643
O O3 0.000500 0.200347 0.816710
O O4 0.030991 0.000000 0.778426
O O5 0.750000 0.340850 0.409430
O O6 0.481075 0.500000 0.411984
O O7 0.470509 0.250921 0.437604
O O8 0.478420 0.288748 0.374675
O O9 0.750000 0.147879 0.039018
O O10 0.469586 0.000000 0.040664
O O11 0.500000 0.192818 0.000000
O O12 0.473918 0.261301 0.061065
O O13 0.500000 0.205700 0.500000
O O14 0.750000 0.149047 0.461999
O O15 0.469370 0.000000 0.462835
O O16 0.250000 0.356195 0.268550
O O17 0.966555 0.500000 0.272749
O O18 0.014393 0.283434 0.307644
O O19 0.250000 0.852193 0.855406
O O20 0.973833 0.741313 0.878129
O O21 0.969402 0.000000 0.855754
O O22 0.250000 0.345124 0.908297
O O23 0.975118 0.500000 0.908042
O O24 0.250000 0.656590 0.658433
O O25 0.975521 0.500000 0.659773
#
# Coordination Sequence:
#
# PCOD9407356 Si02
#       8
#     8   8   8   8   8   8   8   8
#     4   9  18  32  47  63  87 118 146 173 212 259
#     4   8  14  26  44  63  83 109 140 173 209 249
#     4   9  17  30  48  68  90 118 151 183 215 255
#     4   9  17  29  44  61  83 111 140 170 207 251
#     4   9  17  29  45  64  86 113 143 173 207 250
#     4   9  17  30  48  67  86 111 145 182 216 252
#     4   9  17  29  46  68  92 117 145 179 220 262
#     4   8  14  26  44  64  85 110 140 173 210 251
#
# _framework density 20.057631000000001
#
# number of rings (size 3 to 8) (size 9 to 14) (size 15 to 20)
#    0.000    3.250    0.000    1.125    0.000    3.000 
#    0.000    1.875    0.000    5.250    0.000    0.000 
#    0.000    0.000    0.000    0.000    0.000    0.000 
#
# Total GULP energy -356704.575144 kJ/mol
# GULP energy per Si atom -5573.508987 kJ/mol
# Density = 2.001198 g / cm^3
# Si number density = 20.057631 Si / 1000 Ang^3
#
#
#
# Elastic Constant Matrix: (Units=GPa)
#
#
# Indices 1 2 3 4 5 6 
#
# 1 46.5625 5.2998 0.3383 0.0000 0.0000 0.0000
# 2 5.2998 97.3852 125.2155 0.0000 0.0000 0.0000
# 3 0.3383 125.2155 232.5633 0.0000 0.0000 0.0000
# 4 0.0000 0.0000 0.0000 42.1726 0.0000 0.0000
# 5 0.0000 0.0000 0.0000 0.0000 19.9099 0.0000
# 6 0.0000 0.0000 0.0000 0.0000 0.0000 -4.0520
#
#
#
# Elastic Compliance Matrix: (Units=1/GPa)
#
#
# Indices 1 2 3 4 5 6 
#
# 1 0.021888 -0.003738 0.001981 0.000000 0.000000 0.000000
# 2 -0.003738 0.034008 -0.018305 0.000000 0.000000 0.000000
# 3 0.001981 -0.018305 0.014153 0.000000 0.000000 0.000000
# 4 0.000000 0.000000 0.000000 0.023712 0.000000 0.000000
# 5 0.000000 0.000000 0.000000 0.000000 0.050226 0.000000
# 6 0.000000 0.000000 0.000000 0.000000 0.000000 -0.246791
#
#
# Mechanical properties :
#
#
# Convention : Reuss Voigt Hill
#
# Bulk Modulus (GPa) = 33.41805 70.91313 52.16559
# Shear Modulus (GPa) = -94.86682 27.98326 -33.44178
#
# Velocity S-wave (km/s) = -6.88475 3.73921 -4.08767
# Velocity P-wave (km/s) = 6.81928 7.35348 1.94566
#
# Compressibility (1/GPa) = 0.02992394
#
# Stress axis : x y z
#
# Youngs Moduli (GPa) = 45.68803 29.40490 70.65808
#
# Poissons Ratio (x) = 0.10991 -0.13995
# Poissons Ratio (y) = 0.17078 1.29339
# Poissons Ratio (z) = -0.09049 0.53825
#
# Static dielectric constant tensor:
#      x y z
#    x 1.758940 0.000000 0.000000 
#    y 0.000000 1.696510 0.000000 
#    z 0.000000 0.000000 1.710060 
# 
# From -- ./inp_files/37771.got.cif
#   From: 2010.05.17/outbox.cif.g08.bks.cpg/sg51_19_cif.got.tgz:37771.got - 2010.06.03 11:52:47.
