data_PCOD9407024
_publ_section_title
;
Structure prediction by ZEFSAII (Michael W. Deem and Ramdas Pophale) SiO2 
 PCOD9407024
Probable space group: P M M A
;
_chemical_formula_sum "Si O2"
_cell_formula_units_Z 48
_cell_length_a 8.671883
_cell_length_b 31.929955
_cell_length_c 9.265659
_cell_angle_alpha 90.000000
_cell_angle_beta 90.000000
_cell_angle_gamma 90.000000
_cell_volume 2565.594579
_symmetry_space_group_name_H-M "P M M A"
_symmetry_group_IT_number 51
_symmetry_cell_setting 'orthorhombic'
loop_
_space_group_symop_operation_xyz
x,y,z
1/2-x,-y,z
1/2+x,-y,-z
-x,y,-z
-x,-y,-z
1/2+x,y,-z
1/2-x,y,z
x,-y,z
loop_
_atom_site_type_symbol
_atom_site_label
_atom_site_fract_x
_atom_site_fract_y
_atom_site_fract_z
Si Si1 0.434831 0.294476 0.839108
Si Si2 0.935284 0.627700 0.660329
Si Si3 0.936002 0.452677 0.840235
Si Si4 0.435031 0.789302 0.661089
Si Si5 0.565952 0.867535 0.836902
Si Si6 0.935015 0.045765 0.163522
O O1 0.250000 0.298062 0.844200
O O2 0.503706 0.334746 0.759251
O O3 0.474748 0.252733 0.749395
O O4 0.500000 0.291396 0.000000
O O5 0.750000 0.629006 0.656704
O O6 0.984937 0.583450 0.730520
O O7 0.000000 0.632152 0.500000
O O8 0.750000 0.452055 0.847312
O O9 0.984308 0.500000 0.799323
O O10 0.000000 0.444006 0.000000
O O11 0.500000 0.786498 0.500000
O O12 0.250000 0.793069 0.657140
O O13 0.505033 0.829204 0.742713
O O14 0.750000 0.867523 0.844083
O O15 0.507530 0.912048 0.773581
O O16 0.500000 0.863613 0.000000
O O17 0.750000 0.049833 0.158628
O O18 0.972612 0.000000 0.228902
O O19 0.000000 0.044587 0.000000
#
# Coordination Sequence:
#
# PCOD9407024 Si02
#       6
#     8   8   8   8   8   8
#     4  11  24  41  63  88 115 147 185 230 278 332
#     4  11  23  38  58  84 117 153 190 234 283 337
#     4   9  19  36  57  82 112 148 191 237 284 334
#     4  11  24  41  60  83 112 146 184 227 277 333
#     4  11  21  34  55  82 113 148 187 232 279 330
#     4   9  16  27  46  74 108 144 183 229 278 327
#
# _framework density 18.709112000000001
#
# number of rings (size 3 to 8) (size 9 to 14) (size 15 to 20)
#    0.000    1.667    0.000    6.000    0.000    9.333 
#    0.000    0.000    0.000    0.500    0.000    0.000 
#    0.000    0.000    0.000    0.000    0.000    0.000 
#
# Total GULP energy -268145.167249 kJ/mol
# GULP energy per Si atom -5586.357651 kJ/mol
# Density = 1.866653 g / cm^3
# Si number density = 18.709112 Si / 1000 Ang^3
#
#
#
# Elastic Constant Matrix: (Units=GPa)
#
#
# Indices 1 2 3 4 5 6 
#
# 1 80.1766 71.1261 49.7649 0.0000 0.0000 0.0000
# 2 71.1261 181.1582 99.2327 0.0000 0.0000 0.0000
# 3 49.7649 99.2327 130.2385 0.0000 0.0000 0.0000
# 4 0.0000 0.0000 0.0000 83.5267 0.0000 0.0000
# 5 0.0000 0.0000 0.0000 0.0000 31.2523 0.0000
# 6 0.0000 0.0000 0.0000 0.0000 0.0000 57.3687
#
#
#
# Elastic Compliance Matrix: (Units=1/GPa)
#
#
# Indices 1 2 3 4 5 6 
#
# 1 0.019719 -0.006204 -0.002808 0.000000 0.000000 0.000000
# 2 -0.006204 0.011426 -0.006335 0.000000 0.000000 0.000000
# 3 -0.002808 -0.006335 0.013578 0.000000 0.000000 0.000000
# 4 0.000000 0.000000 0.000000 0.011972 0.000000 0.000000
# 5 0.000000 0.000000 0.000000 0.000000 0.031998 0.000000
# 6 0.000000 0.000000 0.000000 0.000000 0.000000 0.017431
#
#
# Mechanical properties :
#
#
# Convention : Reuss Voigt Hill
#
# Bulk Modulus (GPa) = 71.28043 92.42452 81.85247
# Shear Modulus (GPa) = 35.33705 45.85952 40.59828
#
# Velocity S-wave (km/s) = 4.35070 4.95632 4.66335
# Velocity P-wave (km/s) = 7.96368 9.06981 8.53468
#
# Compressibility (1/GPa) = 0.01402910
#
# Stress axis : x y z
#
# Youngs Moduli (GPa) = 50.71284 87.51846 73.64791
#
# Poissons Ratio (x) = 0.54297 0.20678
# Poissons Ratio (y) = 0.31463 0.46658
# Poissons Ratio (z) = 0.14238 0.55446
#
# Static dielectric constant tensor:
#      x y z
#    x 1.628950 0.000000 0.000000 
#    y 0.000000 1.669220 0.000000 
#    z 0.000000 0.000000 1.600040 
# 
# From -- ./inp_files/5961.got.cif
#   From: 2010.05.17/outbox.cif.g08.bks.cpg/sg51_3_cif.got.tgz:5961.got - 2010.06.03 11:52:47.
