data_PCOD9407253
_publ_section_title
;
Structure prediction by ZEFSAII (Michael W. Deem and Ramdas Pophale) SiO2 
 PCOD9407253
Probable space group: P M M A
;
_chemical_formula_sum "Si O2"
_cell_formula_units_Z 48
_cell_length_a 34.304718
_cell_length_b 7.445251
_cell_length_c 7.240078
_cell_angle_alpha 90.000000
_cell_angle_beta 90.000000
_cell_angle_gamma 90.000000
_cell_volume 1849.168310
_symmetry_space_group_name_H-M "P M M A"
_symmetry_group_IT_number 51
_symmetry_cell_setting 'orthorhombic'
loop_
_space_group_symop_operation_xyz
x,y,z
1/2-x,-y,z
1/2+x,-y,-z
-x,y,-z
-x,-y,-z
1/2+x,y,-z
1/2-x,y,z
x,-y,z
loop_
_atom_site_type_symbol
_atom_site_label
_atom_site_fract_x
_atom_site_fract_y
_atom_site_fract_z
Si Si1 0.042429 0.707976 0.531707
Si Si2 0.957855 0.296874 0.028614
Si Si3 0.208037 0.281578 0.567782
Si Si4 0.125758 0.294004 0.514603
Si Si5 0.626849 0.788250 0.054885
Si Si6 0.708223 0.209364 0.992505
O O1 0.040479 0.500000 0.465697
O O2 0.045747 0.701957 0.751517
O O3 0.000000 0.791656 0.500000
O O4 0.083627 0.787767 0.464233
O O5 0.961339 0.500000 0.956726
O O6 0.915579 0.231769 0.963788
O O7 0.000000 0.206921 0.000000
O O8 0.250000 0.225106 0.489583
O O9 0.206560 0.500000 0.565693
O O10 0.168328 0.214193 0.473043
O O11 0.208150 0.223300 0.782627
O O12 0.124864 0.500000 0.450231
O O13 0.126217 0.296873 0.740458
O O14 0.665017 0.717647 0.947348
O O15 0.632540 0.000000 0.084910
O O16 0.750000 0.290993 0.933872
O O17 0.709099 0.000000 0.940577
#
# Coordination Sequence:
#
# PCOD9407253 Si02
#       6
#     8   8   8   8   8   8
#     4   8  13  22  37  54  69  87 115 147 173 201
#     4   9  17  28  40  53  71  95 121 149 180 213
#     4   8  12  17  26  41  61  85 111 136 163 198
#     4   8  13  21  32  46  66  91 115 140 171 206
#     4   9  15  22  34  51  70  93 119 146 176 210
#     4   8  13  20  29  43  65  91 115 138 167 205
#
# _framework density 25.957616000000002
#
# number of rings (size 3 to 8) (size 9 to 14) (size 15 to 20)
#    0.000    3.667    0.000    1.500    0.000    1.000 
#    0.000    0.000    0.000    8.000    0.000    0.000 
#    0.000    1.333    0.000    9.333    0.000  103.667 
#
# Total GULP energy -267347.562014 kJ/mol
# GULP energy per Si atom -5569.740875 kJ/mol
# Density = 2.589854 g / cm^3
# Si number density = 25.957616 Si / 1000 Ang^3
#
#
#
# Elastic Constant Matrix: (Units=GPa)
#
#
# Indices 1 2 3 4 5 6 
#
# 1 375.6997 21.8614 4.1698 0.0000 0.0000 0.0000
# 2 21.8614 97.4653 -8.5785 0.0000 0.0000 0.0000
# 3 4.1698 -8.5785 95.9258 0.0000 0.0000 0.0000
# 4 0.0000 0.0000 0.0000 20.2657 0.0000 0.0000
# 5 0.0000 0.0000 0.0000 0.0000 1.5865 0.0000
# 6 0.0000 0.0000 0.0000 0.0000 0.0000 6.2280
#
#
#
# Elastic Compliance Matrix: (Units=1/GPa)
#
#
# Indices 1 2 3 4 5 6 
#
# 1 0.002700 -0.000621 -0.000173 0.000000 0.000000 0.000000
# 2 -0.000621 0.010484 0.000965 0.000000 0.000000 0.000000
# 3 -0.000173 0.000965 0.010518 0.000000 0.000000 0.000000
# 4 0.000000 0.000000 0.000000 0.049344 0.000000 0.000000
# 5 0.000000 0.000000 0.000000 0.000000 0.630333 0.000000
# 6 0.000000 0.000000 0.000000 0.000000 0.000000 0.160564
#
#
# Mechanical properties :
#
#
# Convention : Reuss Voigt Hill
#
# Bulk Modulus (GPa) = 41.58988 67.11068 54.35028
# Shear Modulus (GPa) = 5.73646 42.39193 24.06420
#
# Velocity S-wave (km/s) = 1.48820 4.04557 3.04806
# Velocity P-wave (km/s) = 4.36004 6.90886 5.77678
#
# Compressibility (1/GPa) = 0.02404431
#
# Stress axis : x y z
#
# Youngs Moduli (GPa) = 370.40604 95.38163 95.07060
#
# Poissons Ratio (x) = 0.05921 0.01643
# Poissons Ratio (y) = 0.22994 -0.09170
# Poissons Ratio (z) = 0.06403 -0.09200
#
# Static dielectric constant tensor:
#      x y z
#    x 2.212480 0.000000 0.000000 
#    y 0.000000 1.926630 0.000000 
#    z 0.000000 0.000000 2.236380 
# 
# From -- ./inp_files/19282.got.cif
#   From: 2010.05.17/outbox.cif.g08.bks.cpg/sg51_10_cif.got.tgz:19282.got - 2010.06.03 11:52:47.
