data_PCOD9407939
_publ_section_title
;
Structure prediction by ZEFSAII (Michael W. Deem and Ramdas Pophale) SiO2 
 PCOD9407939
Probable space group: P N N A
;
_chemical_formula_sum "Si O2"
_cell_formula_units_Z 40
_cell_length_a 11.223289
_cell_length_b 5.240422
_cell_length_c 34.419513
_cell_angle_alpha 90.000000
_cell_angle_beta 90.000000
_cell_angle_gamma 90.000000
_cell_volume 2024.375761
_symmetry_space_group_name_H-M "P N N A"
_symmetry_group_IT_number 52
_symmetry_cell_setting 'orthorhombic'
loop_
_space_group_symop_operation_xyz
x,y,z
1/2-x,-y,z
x,1/2-y,1/2-z
1/2-x,1/2+y,1/2-z
-x,-y,-z
1/2+x,y,-z
-x,1/2+y,1/2+z
1/2+x,1/2-y,1/2+z
loop_
_atom_site_type_symbol
_atom_site_label
_atom_site_fract_x
_atom_site_fract_y
_atom_site_fract_z
Si Si1 0.924954 0.845340 0.124839
Si Si2 0.370264 0.114305 0.417566
Si Si3 0.583069 0.749367 0.499296
Si Si4 0.615437 0.848221 0.415949
Si Si5 0.832720 0.750005 0.207063
O O1 0.853119 0.631331 0.099539
O O2 0.915539 0.769712 0.169536
O O3 0.059145 0.816284 0.108898
O O4 0.875492 0.123146 0.115121
O O5 0.346325 0.231830 0.460256
O O6 0.250000 0.000000 0.401244
O O7 0.471143 0.893838 0.420980
O O8 0.500000 0.500000 0.500000
O O9 0.655374 0.765153 0.458990
O O10 0.500000 0.000000 0.500000
O O11 0.750000 0.500000 0.203634
O O12 0.890401 0.750000 0.250000
O O13 0.750000 0.000000 0.205802
#
# Coordination Sequence:
#
# PCOD9407939 Si02
#       5
#     8   8   8   8   8
#     4  10  19  34  55  77 108 136 172 225 271 321
#     4   9  20  32  53  77 106 147 186 218 260 317
#     4  10  16  32  48  67 102 141 184 227 263 292
#     4   9  18  32  53  72 107 144 176 225 262 308
#     4  10  21  38  61  86 108 135 174 219 278 346
#
# _framework density 19.759177000000001
#
# number of rings (size 3 to 8) (size 9 to 14) (size 15 to 20)
#    1.200    1.200    2.000    1.200    0.000    0.800 
#    0.000    3.000    0.000    0.000    5.200    0.000 
#    0.000    0.000    0.000    0.000    0.000    0.000 
#
# Total GULP energy -222978.285170 kJ/mol
# GULP energy per Si atom -5574.457129 kJ/mol
# Density = 1.971420 g / cm^3
# Si number density = 19.759177 Si / 1000 Ang^3
#
#
#
# Elastic Constant Matrix: (Units=GPa)
#
#
# Indices 1 2 3 4 5 6 
#
# 1 38.3127 13.0530 7.6709 0.0000 0.0000 0.0000
# 2 13.0530 134.4798 24.7118 0.0000 0.0000 0.0000
# 3 7.6709 24.7118 162.6383 0.0000 0.0000 0.0000
# 4 0.0000 0.0000 0.0000 28.1777 0.0000 0.0000
# 5 0.0000 0.0000 0.0000 0.0000 -3.0574 0.0000
# 6 0.0000 0.0000 0.0000 0.0000 0.0000 29.4767
#
#
#
# Elastic Compliance Matrix: (Units=1/GPa)
#
#
# Indices 1 2 3 4 5 6 
#
# 1 0.027122 -0.002466 -0.000904 0.000000 0.000000 0.000000
# 2 -0.002466 0.007874 -0.001080 0.000000 0.000000 0.000000
# 3 -0.000904 -0.001080 0.006355 0.000000 0.000000 0.000000
# 4 0.000000 0.000000 0.000000 0.035489 0.000000 0.000000
# 5 0.000000 0.000000 0.000000 0.000000 -0.327078 0.000000
# 6 0.000000 0.000000 0.000000 0.000000 0.000000 0.033925
#
#
# Mechanical properties :
#
#
# Convention : Reuss Voigt Hill
#
# Bulk Modulus (GPa) = 30.81678 47.36690 39.09184
# Shear Modulus (GPa) = -25.43317 30.25240 2.40962
#
# Velocity S-wave (km/s) = -3.59159 3.91712 1.10550
# Velocity P-wave (km/s) = 1.25272 6.66952 4.63213
#
# Compressibility (1/GPa) = 0.03244985
#
# Stress axis : x y z
#
# Youngs Moduli (GPa) = 36.86991 127.00152 157.34696
#
# Poissons Ratio (x) = 0.31323 0.14232
# Poissons Ratio (y) = 0.09093 0.16994
# Poissons Ratio (z) = 0.03335 0.13717
#
# Static dielectric constant tensor:
#      x y z
#    x 1.800380 0.000000 0.000000 
#    y 0.000000 1.716710 0.000000 
#    z 0.000000 0.000000 1.731180 
# 
# From -- ./inp_files/44884.got.cif
#   From: 2010.05.17/outbox.cif.g08.bks.cpg/sg52_23_cif.got.tgz:44884.got - 2010.06.03 12:15:38.
