data_PCOD9407773
_publ_section_title
;
Structure prediction by ZEFSAII (Michael W. Deem and Ramdas Pophale) SiO2 
 PCOD9407773
Probable space group: P M M A
;
_chemical_formula_sum "Si O2"
_cell_formula_units_Z 48
_cell_length_a 9.000000
_cell_length_b 9.000000
_cell_length_c 30.000000
_cell_angle_alpha 90.000000
_cell_angle_beta 90.000000
_cell_angle_gamma 90.000000
_cell_volume 2430.000000
_symmetry_space_group_name_H-M "P M M A"
_symmetry_group_IT_number 51
_symmetry_cell_setting 'orthorhombic'
loop_
_space_group_symop_operation_xyz
x,y,z
1/2-x,-y,z
1/2+x,-y,-z
-x,y,-z
-x,-y,-z
1/2+x,y,-z
1/2-x,y,z
x,-y,z
loop_
_atom_site_type_symbol
_atom_site_label
_atom_site_fract_x
_atom_site_fract_y
_atom_site_fract_z
Si Si1 0.416689 0.318926 0.370177
Si Si2 0.076238 0.830533 0.956433
Si Si3 0.417744 0.327707 0.715352
Si Si4 0.912689 0.675608 0.880891
Si Si5 0.917975 0.681514 0.456336
Si Si6 0.584659 0.175233 0.191504
O O1 0.250000 0.275035 0.378845
O O2 0.424386 0.500000 0.369495
O O3 0.472397 0.272964 0.322186
O O4 0.515720 0.264609 0.410327
O O5 0.250000 0.835514 0.963350
O O6 0.033987 0.736134 0.914304
O O7 0.021428 0.000000 0.949900
O O8 0.000000 0.766328 0.000000
O O9 0.250000 0.328411 0.696619
O O10 0.450032 0.500000 0.728139
O O11 0.421135 0.223378 0.757651
O O12 0.750000 0.726055 0.896091
O O13 0.915021 0.500000 0.879004
O O14 0.954495 0.742348 0.833707
O O15 0.750000 0.723908 0.459824
O O16 0.927569 0.500000 0.455827
O O17 0.000000 0.734183 0.500000
O O18 0.750000 0.220871 0.174860
O O19 0.572349 0.000000 0.185347
#
# Coordination Sequence:
#
# PCOD9407773 Si02
#       6
#     8   8   8   8   8   8
#     4   9  16  25  38  58  85 118 157 200 245 294
#     4  10  21  38  61  87 114 146 183 221 263 311
#     4   9  17  30  48  69  95 128 164 203 250 303
#     4  11  24  39  56  81 112 145 181 220 263 311
#     4   9  15  22  33  51  79 116 156 196 240 292
#     4  10  21  37  57  80 105 135 173 216 263 315
#
# _framework density 19.753086
#
# number of rings (size 3 to 8) (size 9 to 14) (size 15 to 20)
#    0.000    2.333    0.000    3.000    0.000   10.333 
#    0.000    1.667    0.000    0.000    0.000    0.000 
#    0.000    0.667    0.000    1.833    0.000    3.333 
#
# Total GULP energy -267416.047257 kJ/mol
# GULP energy per Si atom -5571.167651 kJ/mol
# Density = 1.970813 g / cm^3
# Si number density = 19.753086 Si / 1000 Ang^3
#
#
#
# Elastic Constant Matrix: (Units=GPa)
#
#
# Indices 1 2 3 4 5 6 
#
# 1 36.2423 10.3761 51.1005 0.0000 0.0000 0.0000
# 2 10.3761 -8.6392 6.5773 0.0000 0.0000 0.0000
# 3 51.1005 6.5773 61.9916 0.0000 0.0000 0.0000
# 4 0.0000 0.0000 0.0000 -9.6125 0.0000 0.0000
# 5 0.0000 0.0000 0.0000 0.0000 22.3508 0.0000
# 6 0.0000 0.0000 0.0000 0.0000 0.0000 12.5704
#
#
#
# Elastic Compliance Matrix: (Units=1/GPa)
#
#
# Indices 1 2 3 4 5 6 
#
# 1 -0.307530 -0.163179 0.270815 0.000000 0.000000 0.000000
# 2 -0.163179 -0.193685 0.155061 0.000000 0.000000 0.000000
# 3 0.270815 0.155061 -0.223557 0.000000 0.000000 0.000000
# 4 0.000000 0.000000 0.000000 -0.104031 0.000000 0.000000
# 5 0.000000 0.000000 0.000000 0.000000 0.044741 0.000000
# 6 0.000000 0.000000 0.000000 0.000000 0.000000 0.079552
#
#
# Mechanical properties :
#
#
# Convention : Reuss Voigt Hill
#
# Bulk Modulus (GPa) = -5.01554 25.07805 10.03125
# Shear Modulus (GPa) = -3.85694 6.49782 1.32044
#
# Velocity S-wave (km/s) = -1.39886 1.81567 0.81849
# Velocity P-wave (km/s) = 2.27018 4.13750 2.44593
#
# Compressibility (1/GPa) = -0.19938036
#
# Stress axis : x y z
#
# Youngs Moduli (GPa) = -3.25171 -5.16301 -4.47314
#
# Poissons Ratio (x) = -0.84250 1.21139
# Poissons Ratio (y) = -0.53061 0.69361
# Poissons Ratio (z) = 0.88061 0.80058
#
# Static dielectric constant tensor:
#      x y z
#    x 1.688490 0.000000 0.000000 
#    y 0.000000 1.667140 0.000000 
#    z 0.000000 0.000000 1.715360 
# 
# From -- ./inp_files/37040.got.cif
#   From: 2010.05.17/outbox.ucp.g08.bks.cvg/sg51_19_cif.got.tgz:37040.got - 2010.06.11 16:27:58.
