data_PCOD9407365
_publ_section_title
;
Structure prediction by ZEFSAII (Michael W. Deem and Ramdas Pophale) SiO2 
 PCOD9407365
Probable space group: P M M A
;
_chemical_formula_sum "Si O2"
_cell_formula_units_Z 40
_cell_length_a 10.221571
_cell_length_b 7.331920
_cell_length_c 25.022598
_cell_angle_alpha 90.000000
_cell_angle_beta 90.000000
_cell_angle_gamma 90.000000
_cell_volume 1875.287100
_symmetry_space_group_name_H-M "P M M A"
_symmetry_group_IT_number 51
_symmetry_cell_setting 'orthorhombic'
loop_
_space_group_symop_operation_xyz
x,y,z
1/2-x,-y,z
1/2+x,-y,-z
-x,y,-z
-x,-y,-z
1/2+x,y,-z
1/2-x,y,z
x,-y,z
loop_
_atom_site_type_symbol
_atom_site_label
_atom_site_fract_x
_atom_site_fract_y
_atom_site_fract_z
Si Si1 0.097463 0.777860 0.548422
Si Si2 0.600792 0.213210 0.637839
Si Si3 0.899891 0.719649 0.760548
Si Si4 0.001059 0.277487 0.871438
Si Si5 0.750000 0.277072 0.061640
Si Si6 0.250000 0.722306 0.061091
O O1 0.250000 0.717212 0.544632
O O2 0.000000 0.726221 0.500000
O O3 0.016698 0.716196 0.600956
O O4 0.104154 0.000000 0.548348
O O5 0.750000 0.288674 0.630731
O O6 0.566088 0.226323 0.700377
O O7 0.611428 0.000000 0.624023
O O8 0.750000 0.778911 0.770448
O O9 0.899907 0.500000 0.761197
O O10 0.987682 0.782194 0.810029
O O11 0.002674 0.500000 0.870364
O O12 0.125421 0.218300 0.904672
O O13 0.875593 0.221584 0.905442
O O14 0.750000 0.500000 0.060016
O O15 0.750000 0.217080 0.000223
O O16 0.250000 0.500000 0.059973
#
# Coordination Sequence:
#
# PCOD9407365 Si02
#       6
#     8   8   8   8   4   4
#     4   9  16  27  45  69  95 120 145 177 220 262
#     4   9  17  29  46  68  91 114 146 185 217 250
#     4   9  16  28  45  62  85 119 152 178 212 262
#     4   9  15  24  36  53  78 109 141 173 214 261
#     4   9  16  22  32  54  81 105 134 177 222 258
#     4   9  14  22  36  52  75 107 140 173 214 264
#
# _framework density 21.330065999999999
#
# number of rings (size 3 to 8) (size 9 to 14) (size 15 to 20)
#    0.000    3.000    1.000    1.200    0.000    4.800 
#    1.800    0.000    0.000    0.600    0.000    0.000 
#    0.000    4.800    0.000    0.000    0.000    0.000 
#
# Total GULP energy -223138.474164 kJ/mol
# GULP energy per Si atom -5578.461854 kJ/mol
# Density = 2.128152 g / cm^3
# Si number density = 21.330066 Si / 1000 Ang^3
#
#
#
# Elastic Constant Matrix: (Units=GPa)
#
#
# Indices 1 2 3 4 5 6 
#
# 1 195.9901 4.8606 118.4693 0.0000 0.0000 0.0000
# 2 4.8606 79.8364 -2.8804 0.0000 0.0000 0.0000
# 3 118.4693 -2.8804 174.1345 0.0000 0.0000 0.0000
# 4 0.0000 0.0000 0.0000 12.6354 0.0000 0.0000
# 5 0.0000 0.0000 0.0000 0.0000 25.0288 0.0000
# 6 0.0000 0.0000 0.0000 0.0000 0.0000 -12.1069
#
#
#
# Elastic Compliance Matrix: (Units=1/GPa)
#
#
# Indices 1 2 3 4 5 6 
#
# 1 0.008710 -0.000745 -0.005938 0.000000 0.000000 0.000000
# 2 -0.000745 0.012597 0.000715 0.000000 0.000000 0.000000
# 3 -0.005938 0.000715 0.009794 0.000000 0.000000 0.000000
# 4 0.000000 0.000000 0.000000 0.079143 0.000000 0.000000
# 5 0.000000 0.000000 0.000000 0.000000 0.039954 0.000000
# 6 0.000000 0.000000 0.000000 0.000000 0.000000 -0.082598
#
#
# Mechanical properties :
#
#
# Convention : Reuss Voigt Hill
#
# Bulk Modulus (GPa) = 52.17628 76.76221 64.46924
# Shear Modulus (GPa) = 58.19065 27.07890 42.63478
#
# Velocity S-wave (km/s) = 5.22879 3.56689 4.47566
# Velocity P-wave (km/s) = 7.80821 7.28214 7.54976
#
# Compressibility (1/GPa) = 0.01916580
#
# Stress axis : x y z
#
# Youngs Moduli (GPa) = 114.80871 79.38560 102.09920
#
# Poissons Ratio (x) = 0.05911 0.60628
# Poissons Ratio (y) = 0.08548 -0.07299
# Poissons Ratio (z) = 0.68175 -0.05675
#
# Static dielectric constant tensor:
#      x y z
#    x 1.639750 0.000000 0.000000 
#    y 0.000000 1.862300 0.000000 
#    z 0.000000 0.000000 1.743470 
# 
# From -- ./inp_files/35991.got.cif
#   From: 2010.05.17/outbox.cif.g08.bks.cpg/sg51_18_cif.got.tgz:35991.got - 2010.06.03 11:52:47.
