data_PCOD9407796
_publ_section_title
;
Structure prediction by ZEFSAII (Michael W. Deem and Ramdas Pophale) SiO2 
 PCOD9407796
Probable space group: P M M A
;
_chemical_formula_sum "Si O2"
_cell_formula_units_Z 48
_cell_length_a 15.000000
_cell_length_b 9.000000
_cell_length_c 18.000000
_cell_angle_alpha 90.000000
_cell_angle_beta 90.000000
_cell_angle_gamma 90.000000
_cell_volume 2430.000000
_symmetry_space_group_name_H-M "P M M A"
_symmetry_group_IT_number 51
_symmetry_cell_setting 'orthorhombic'
loop_
_space_group_symop_operation_xyz
x,y,z
1/2-x,-y,z
1/2+x,-y,-z
-x,y,-z
-x,-y,-z
1/2+x,y,-z
1/2-x,y,z
x,-y,z
loop_
_atom_site_type_symbol
_atom_site_label
_atom_site_fract_x
_atom_site_fract_y
_atom_site_fract_z
Si Si1 0.650157 0.677303 0.799858
Si Si2 0.649233 0.173141 0.181365
Si Si3 0.402657 0.832847 0.351231
Si Si4 0.144890 0.666980 0.500462
Si Si5 0.499669 0.320842 0.914610
Si Si6 0.613121 0.168710 0.345255
O O1 0.750000 0.706358 0.826214
O O2 0.638159 0.500000 0.791542
O O3 0.638474 0.746734 0.718306
O O4 0.580632 0.731375 0.861723
O O5 0.750000 0.176343 0.154390
O O6 0.587313 0.266504 0.128158
O O7 0.647839 0.228414 0.266761
O O8 0.619345 0.000000 0.184218
O O9 0.393427 0.758310 0.431651
O O10 0.507420 0.837819 0.335681
O O11 0.366617 0.000000 0.354654
O O12 0.250000 0.660757 0.486385
O O13 0.108647 0.500000 0.500614
O O14 0.132383 0.739757 0.580882
O O15 0.502924 0.500000 0.916397
O O16 0.500000 0.268283 0.000000
O O17 0.646709 0.000000 0.355625
#
# Coordination Sequence:
#
# PCOD9407796 Si02
#       6
#     8   8   8   8   8   8
#     4  10  21  38  60  86 119 158 198 242 294 351
#     4  10  21  39  63  90 122 160 199 244 299 354
#     4  11  22  37  59  85 113 151 198 245 294 348
#     4  11  24  38  53  80 117 155 197 243 291 345
#     4  10  22  40  63  91 122 157 196 243 298 356
#     4  10  21  38  59  83 114 153 198 245 293 346
#
# _framework density 19.753086
#
# number of rings (size 3 to 8) (size 9 to 14) (size 15 to 20)
#    0.000    1.667    1.667    2.500    0.000    9.667 
#    0.000    1.667    0.000    0.000    0.000    0.000 
#    0.000    0.000    0.000    0.000    0.000    0.000 
#
# Total GULP energy -267882.864761 kJ/mol
# GULP energy per Si atom -5580.893016 kJ/mol
# Density = 1.970813 g / cm^3
# Si number density = 19.753086 Si / 1000 Ang^3
#
#
#
# Elastic Constant Matrix: (Units=GPa)
#
#
# Indices 1 2 3 4 5 6 
#
# 1 74.4757 26.7549 31.9319 0.0000 0.0000 0.0000
# 2 26.7549 30.7934 36.4936 0.0000 0.0000 0.0000
# 3 31.9319 36.4936 140.3101 0.0000 0.0000 0.0000
# 4 0.0000 0.0000 0.0000 23.8718 0.0000 0.0000
# 5 0.0000 0.0000 0.0000 0.0000 1673.3721 0.0000
# 6 0.0000 0.0000 0.0000 0.0000 0.0000 23.3912
#
#
#
# Elastic Compliance Matrix: (Units=1/GPa)
#
#
# Indices 1 2 3 4 5 6 
#
# 1 0.019520 -0.016907 -0.000045 0.000000 0.000000 0.000000
# 2 -0.016907 0.061588 -0.012171 0.000000 0.000000 0.000000
# 3 -0.000045 -0.012171 0.010303 0.000000 0.000000 0.000000
# 4 0.000000 0.000000 0.000000 0.041890 0.000000 0.000000
# 5 0.000000 0.000000 0.000000 0.000000 0.000598 0.000000
# 6 0.000000 0.000000 0.000000 0.000000 0.000000 0.042751
#
#
# Mechanical properties :
#
#
# Convention : Reuss Voigt Hill
#
# Bulk Modulus (GPa) = 30.15185 48.43775 39.29480
# Shear Modulus (GPa) = 20.32934 354.15361 187.24147
#
# Velocity S-wave (km/s) = 3.21155 13.40446 9.74663
# Velocity P-wave (km/s) = 5.38977 16.25262 12.10779
#
# Compressibility (1/GPa) = 0.03316546
#
# Stress axis : x y z
#
# Youngs Moduli (GPa) = 51.22921 16.23705 97.06018
#
# Poissons Ratio (x) = 0.27451 0.00438
# Poissons Ratio (y) = 0.86611 1.18130
# Poissons Ratio (z) = 0.00231 0.19762
#
# Static dielectric constant tensor:
#      x y z
#    x 1.723220 0.000000 0.000000 
#    y 0.000000 1.708510 0.000000 
#    z 0.000000 0.000000 1.667480 
# 
# From -- ./inp_files/29419.got.cif
#   From: 2010.05.17/outbox.ucp.g08.bks.cvg/sg51_15_cif.got.tgz:29419.got - 2010.06.11 16:27:58.
