data_PCOD9407278
_publ_section_title
;
Structure prediction by ZEFSAII (Michael W. Deem and Ramdas Pophale) SiO2 
 PCOD9407278
Probable space group: P M M A
;
_chemical_formula_sum "Si O2"
_cell_formula_units_Z 64
_cell_length_a 14.197936
_cell_length_b 9.824100
_cell_length_c 21.528879
_cell_angle_alpha 90.000000
_cell_angle_beta 90.000000
_cell_angle_gamma 90.000000
_cell_volume 3002.889875
_symmetry_space_group_name_H-M "P M M A"
_symmetry_group_IT_number 51
_symmetry_cell_setting 'orthorhombic'
loop_
_space_group_symop_operation_xyz
x,y,z
1/2-x,-y,z
1/2+x,-y,-z
-x,y,-z
-x,-y,-z
1/2+x,y,-z
1/2-x,y,z
x,-y,z
loop_
_atom_site_type_symbol
_atom_site_label
_atom_site_fract_x
_atom_site_fract_y
_atom_site_fract_z
Si Si1 0.135056 0.656157 0.967585
Si Si2 0.606322 0.654459 0.522571
Si Si3 0.636300 0.342351 0.661595
Si Si4 0.365180 0.156980 0.222631
Si Si5 0.634984 0.843013 0.145071
Si Si6 0.865420 0.156377 0.283994
Si Si7 0.357524 0.653445 0.608996
Si Si8 0.865047 0.342889 0.892028
O O1 0.250000 0.659594 0.967330
O O2 0.107067 0.500000 0.957009
O O3 0.102287 0.750281 0.911507
O O4 0.106171 0.694240 0.037631
O O5 0.500000 0.647452 0.500000
O O6 0.644922 0.500000 0.527805
O O7 0.613383 0.710055 0.591871
O O8 0.648239 0.717234 0.459936
O O9 0.750000 0.347335 0.664716
O O10 0.603256 0.500000 0.668870
O O11 0.605631 0.243009 0.716827
O O12 0.250000 0.155234 0.222388
O O13 0.395247 0.237763 0.160770
O O14 0.396322 0.000000 0.223643
O O15 0.750000 0.840691 0.144215
O O16 0.607353 0.798320 0.214566
O O17 0.606849 0.000000 0.136800
O O18 0.750000 0.155034 0.285317
O O19 0.901969 0.252222 0.338900
O O20 0.894387 0.000000 0.293009
O O21 0.250000 0.636370 0.628819
O O22 0.398833 0.500000 0.605340
O O23 0.750000 0.342832 0.891501
O O24 0.893017 0.500000 0.879197
#
# Coordination Sequence:
#
# PCOD9407278 Si02
#       8
#     8   8   8   8   8   8   8   8
#     4   8  13  19  27  41  63  93 128 163 197 233
#     4   9  17  29  45  64  84 105 130 162 200 241
#     4   9  16  27  44  62  79 103 134 165 198 238
#     4   9  16  24  35  53  75  98 128 167 204 235
#     4   8  13  20  29  42  63  93 128 162 194 231
#     4   8  14  24  36  51  73 101 132 165 201 239
#     4   9  16  26  42  63  82 101 131 169 202 234
#     4   8  13  21  31  44  66  97 131 164 198 237
#
# _framework density 21.312802000000001
#
# number of rings (size 3 to 8) (size 9 to 14) (size 15 to 20)
#    0.000    3.500    0.000    2.250    0.000    4.000 
#    0.000    5.625    0.000    4.500    0.000    0.000 
#    0.000    0.000    0.000    1.125    0.000   24.750 
#
# Total GULP energy -356852.096896 kJ/mol
# GULP energy per Si atom -5575.814014 kJ/mol
# Density = 2.126429 g / cm^3
# Si number density = 21.312802 Si / 1000 Ang^3
#
#
#
# Elastic Constant Matrix: (Units=GPa)
#
#
# Indices 1 2 3 4 5 6 
#
# 1 55.2626 8.9596 12.4603 0.0000 0.0000 0.0000
# 2 8.9596 110.1193 136.4877 0.0000 0.0000 0.0000
# 3 12.4603 136.4877 254.6841 0.0000 0.0000 0.0000
# 4 0.0000 0.0000 0.0000 -4.9547 0.0000 0.0000
# 5 0.0000 0.0000 0.0000 0.0000 18.4064 0.0000
# 6 0.0000 0.0000 0.0000 0.0000 0.0000 -2.1236
#
#
#
# Elastic Compliance Matrix: (Units=1/GPa)
#
#
# Indices 1 2 3 4 5 6 
#
# 1 0.018345 -0.001132 -0.000291 0.000000 0.000000 0.000000
# 2 -0.001132 0.027116 -0.014476 0.000000 0.000000 0.000000
# 3 -0.000291 -0.014476 0.011699 0.000000 0.000000 0.000000
# 4 0.000000 0.000000 0.000000 -0.201828 0.000000 0.000000
# 5 0.000000 0.000000 0.000000 0.000000 0.054329 0.000000
# 6 0.000000 0.000000 0.000000 0.000000 0.000000 -0.470900
#
#
# Mechanical properties :
#
#
# Convention : Reuss Voigt Hill
#
# Bulk Modulus (GPa) = 39.43121 81.76457 60.59789
# Shear Modulus (GPa) = -9.59715 19.74284 5.07285
#
# Velocity S-wave (km/s) = -2.12433 3.04688 1.54446
# Velocity P-wave (km/s) = 3.53897 7.12919 5.62804
#
# Compressibility (1/GPa) = 0.02536062
#
# Stress axis : x y z
#
# Youngs Moduli (GPa) = 54.51210 36.87892 85.48028
#
# Poissons Ratio (x) = 0.04175 0.02485
# Poissons Ratio (y) = 0.06172 1.23743
# Poissons Ratio (z) = 0.01585 0.53387
#
# Static dielectric constant tensor:
#      x y z
#    x 2.004440 0.000000 0.000000 
#    y 0.000000 1.737840 0.000000 
#    z 0.000000 0.000000 1.774660 
# 
# From -- ./inp_files/34158.got.cif
#   From: 2010.05.17/outbox.cif.g08.bks.cpg/sg51_18_cif.got.tgz:34158.got - 2010.06.03 11:52:47.
