data_PCOD9407552
_publ_section_title
;
Structure prediction by ZEFSAII (Michael W. Deem and Ramdas Pophale) SiO2 
 PCOD9407552
Probable space group: P M M A
;
_chemical_formula_sum "Si O2"
_cell_formula_units_Z 56
_cell_length_a 21.000000
_cell_length_b 9.000000
_cell_length_c 15.000000
_cell_angle_alpha 90.000000
_cell_angle_beta 90.000000
_cell_angle_gamma 90.000000
_cell_volume 2835.000000
_symmetry_space_group_name_H-M "P M M A"
_symmetry_group_IT_number 51
_symmetry_cell_setting 'orthorhombic'
loop_
_space_group_symop_operation_xyz
x,y,z
1/2-x,-y,z
1/2+x,-y,-z
-x,y,-z
-x,-y,-z
1/2+x,y,-z
1/2-x,y,z
x,-y,z
loop_
_atom_site_type_symbol
_atom_site_label
_atom_site_fract_x
_atom_site_fract_y
_atom_site_fract_z
Si Si1 0.012297 0.835237 0.396969
Si Si2 0.750000 0.821981 0.651960
Si Si3 0.750000 0.180802 0.441830
Si Si4 0.549026 0.327241 0.872482
Si Si5 0.823847 0.324200 0.968746
Si Si6 0.097666 0.324762 0.852788
Si Si7 0.379813 0.670794 0.312957
Si Si8 0.124186 0.179837 0.668937
O O1 0.946368 0.767812 0.360988
O O2 0.000000 0.853552 0.500000
O O3 0.076833 0.743962 0.387993
O O4 0.022163 0.000000 0.355301
O O5 0.750000 0.776869 0.546539
O O6 0.686143 0.758065 0.696856
O O7 0.750000 0.000000 0.656223
O O8 0.814833 0.228614 0.390194
O O9 0.750000 0.000000 0.440431
O O10 0.546040 0.500000 0.903931
O O11 0.613087 0.259668 0.918233
O O12 0.475225 0.272949 0.879804
O O13 0.571509 0.322948 0.770287
O O14 0.750000 0.268809 0.957829
O O15 0.820754 0.500000 0.942930
O O16 0.850001 0.315133 0.069275
O O17 0.090058 0.500000 0.829998
O O18 0.125886 0.235181 0.769995
O O19 0.364104 0.500000 0.329742
O O20 0.123133 0.000000 0.663792
#
# Coordination Sequence:
#
# PCOD9407552 Si02
#       8
#     8   4   4   8   8   8   8   8
#     4  10  20  36  58  82 110 150 197 237 275 333
#     4  11  23  41  61  80 111 154 198 239 279 339
#     4   9  20  39  59  78 105 150 198 231 273 335
#     4   9  18  33  53  79 115 149 178 222 279 335
#     4   9  18  31  53  83 110 143 186 226 265 326
#     4  10  19  34  55  83 113 143 181 225 277 332
#     4  11  22  36  57  87 117 147 186 236 294 341
#     4  10  20  35  57  82 109 145 188 231 279 334
#
# _framework density 19.753086
#
# number of rings (size 3 to 8) (size 9 to 14) (size 15 to 20)
#    0.000    2.143    1.429    1.929    2.000    4.286 
#    0.000    2.857    0.000    3.429    0.000    0.000 
#    0.000    0.000    0.000    0.000    0.000    0.000 
#
# Total GULP energy -311774.693764 kJ/mol
# GULP energy per Si atom -5567.405246 kJ/mol
# Density = 1.970813 g / cm^3
# Si number density = 19.753086 Si / 1000 Ang^3
#
#
#
# Elastic Constant Matrix: (Units=GPa)
#
#
# Indices 1 2 3 4 5 6 
#
# 1 116.4117 17.7768 -11.3663 0.0000 0.0000 0.0000
# 2 17.7768 25.4207 -3.8991 0.0000 0.0000 0.0000
# 3 -11.3663 -3.8991 11.8693 0.0000 0.0000 0.0000
# 4 0.0000 0.0000 0.0000 18.5456 0.0000 0.0000
# 5 0.0000 0.0000 0.0000 0.0000 35.3071 0.0000
# 6 0.0000 0.0000 0.0000 0.0000 0.0000 -15.1148
#
#
#
# Elastic Compliance Matrix: (Units=1/GPa)
#
#
# Indices 1 2 3 4 5 6 
#
# 1 0.010271 -0.005975 0.007873 0.000000 0.000000 0.000000
# 2 -0.005975 0.044901 0.009028 0.000000 0.000000 0.000000
# 3 0.007873 0.009028 0.094756 0.000000 0.000000 0.000000
# 4 0.000000 0.000000 0.000000 0.053921 0.000000 0.000000
# 5 0.000000 0.000000 0.000000 0.000000 0.028323 0.000000
# 6 0.000000 0.000000 0.000000 0.000000 0.000000 -0.066160
#
#
# Mechanical properties :
#
#
# Convention : Reuss Voigt Hill
#
# Bulk Modulus (GPa) = 5.82137 17.63606 11.72872
# Shear Modulus (GPa) = 24.82369 17.82695 21.32532
#
# Velocity S-wave (km/s) = 3.54884 3.00740 3.28928
# Velocity P-wave (km/s) = 4.44363 4.58333 4.51402
#
# Compressibility (1/GPa) = 0.17178078
#
# Stress axis : x y z
#
# Youngs Moduli (GPa) = 97.35783 22.27113 10.55341
#
# Poissons Ratio (x) = 0.13307 -0.08309
# Poissons Ratio (y) = 0.58173 -0.09528
# Poissons Ratio (z) = -0.76652 -0.20106
#
# Static dielectric constant tensor:
#      x y z
#    x 1.707550 0.000000 0.000000 
#    y 0.000000 1.708680 0.000000 
#    z 0.000000 0.000000 1.805510 
# 
# From -- ./inp_files/25866.got.cif
#   From: 2010.05.17/outbox.ucp.g08.bks.cvg/sg51_13_cif.got.tgz:25866.got - 2010.06.11 16:27:58.
