data_PCOD9407654
_publ_section_title
;
Structure prediction by ZEFSAII (Michael W. Deem and Ramdas Pophale) SiO2 
 PCOD9407654
Probable space group: P M M A
;
_chemical_formula_sum "Si O2"
_cell_formula_units_Z 64
_cell_length_a 15.000000
_cell_length_b 9.000000
_cell_length_c 24.000000
_cell_angle_alpha 90.000000
_cell_angle_beta 90.000000
_cell_angle_gamma 90.000000
_cell_volume 3240.000000
_symmetry_space_group_name_H-M "P M M A"
_symmetry_group_IT_number 51
_symmetry_cell_setting 'orthorhombic'
loop_
_space_group_symop_operation_xyz
x,y,z
1/2-x,-y,z
1/2+x,-y,-z
-x,y,-z
-x,-y,-z
1/2+x,y,-z
1/2-x,y,z
x,-y,z
loop_
_atom_site_type_symbol
_atom_site_label
_atom_site_fract_x
_atom_site_fract_y
_atom_site_fract_z
Si Si1 0.656288 0.328679 0.889215
Si Si2 0.145820 0.174301 0.527598
Si Si3 0.525850 0.178867 0.368617
Si Si4 0.351341 0.323071 0.409286
Si Si5 0.023346 0.325990 0.935481
Si Si6 0.035064 0.822450 0.750357
Si Si7 0.347918 0.330219 0.244168
Si Si8 0.648120 0.820944 0.144494
O O1 0.750000 0.260658 0.908451
O O2 0.654067 0.500000 0.910467
O O3 0.564107 0.257396 0.906303
O O4 0.658149 0.337633 0.822871
O O5 0.250000 0.184713 0.543188
O O6 0.083817 0.223042 0.578159
O O7 0.131595 0.268926 0.472322
O O8 0.127126 0.000000 0.515015
O O9 0.428469 0.250157 0.373105
O O10 0.572556 0.219920 0.310334
O O11 0.517005 0.000000 0.369982
O O12 0.250000 0.276258 0.395449
O O13 0.355894 0.500000 0.405875
O O14 0.033688 0.500000 0.920024
O O15 0.108406 0.241239 0.912695
O O16 0.000000 0.318302 0.000000
O O17 0.087477 0.764025 0.804032
O O18 0.933294 0.770144 0.747290
O O19 0.037515 0.000000 0.754465
O O20 0.250000 0.279695 0.264195
O O21 0.361646 0.500000 0.264553
O O22 0.750000 0.776257 0.152733
O O23 0.644368 0.000000 0.143706
#
# Coordination Sequence:
#
# PCOD9407654 Si02
#       8
#     8   8   8   8   8   8   8   8
#     4   8  14  27  48  73 102 133 164 204 257 313
#     4   9  18  34  56  79 104 137 178 224 272 321
#     4  10  21  35  53  79 108 139 179 226 272 318
#     4  10  21  36  54  78 109 144 179 217 267 327
#     4  10  20  34  57  87 113 139 177 226 272 317
#     4  10  21  36  54  78 108 142 182 227 269 313
#     4   9  17  31  53  76  99 133 173 213 263 322
#     4  10  22  40  59  79 110 152 189 222 268 323
#
# _framework density 19.753086
#
# number of rings (size 3 to 8) (size 9 to 14) (size 15 to 20)
#    0.000    2.500    1.250    1.500    0.000    5.500 
#    0.000    6.250    0.000    0.375    0.000    3.500 
#    0.000    0.000    0.000    0.000    0.000    0.000 
#
# Total GULP energy -356593.338682 kJ/mol
# GULP energy per Si atom -5571.770917 kJ/mol
# Density = 1.970813 g / cm^3
# Si number density = 19.753086 Si / 1000 Ang^3
#
#
#
# Elastic Constant Matrix: (Units=GPa)
#
#
# Indices 1 2 3 4 5 6 
#
# 1 87.1845 17.5943 48.0745 0.0000 0.0000 0.0000
# 2 17.5943 3.4204 21.2642 0.0000 0.0000 0.0000
# 3 48.0745 21.2642 73.3260 0.0000 0.0000 0.0000
# 4 0.0000 0.0000 0.0000 -39.0224 0.0000 0.0000
# 5 0.0000 0.0000 0.0000 0.0000 -21.4399 0.0000
# 6 0.0000 0.0000 0.0000 0.0000 0.0000 22.3759
#
#
#
# Elastic Compliance Matrix: (Units=1/GPa)
#
#
# Indices 1 2 3 4 5 6 
#
# 1 0.016522 0.021978 -0.017206 0.000000 0.000000 0.000000
# 2 0.021978 -0.334919 0.082715 0.000000 0.000000 0.000000
# 3 -0.017206 0.082715 0.000931 0.000000 0.000000 0.000000
# 4 0.000000 0.000000 0.000000 -0.025626 0.000000 0.000000
# 5 0.000000 0.000000 0.000000 0.000000 -0.046642 0.000000
# 6 0.000000 0.000000 0.000000 0.000000 0.000000 0.044691
#
#
# Mechanical properties :
#
#
# Convention : Reuss Voigt Hill
#
# Bulk Modulus (GPa) = -7.01805 37.53301 15.25748
# Shear Modulus (GPa) = -8.81034 -2.48408 -5.64721
#
# Velocity S-wave (km/s) = -2.11422 -1.12263 -1.69266
# Velocity P-wave (km/s) = 3.08553 4.16677 1.98008
#
# Compressibility (1/GPa) = -0.14248981
#
# Stress axis : x y z
#
# Youngs Moduli (GPa) = 60.52481 -2.98580 1073.67636
#
# Poissons Ratio (x) = 0.06562 18.47370
# Poissons Ratio (y) = -1.33024 -88.80948
# Poissons Ratio (z) = 1.04139 0.24697
#
# Static dielectric constant tensor:
#      x y z
#    x 1.728450 0.000000 0.000000 
#    y 0.000000 1.662740 0.000000 
#    z 0.000000 0.000000 1.740240 
# 
# From -- ./inp_files/35664.got.cif
#   From: 2010.05.17/outbox.ucp.g08.bks.cvg/sg51_18_cif.got.tgz:35664.got - 2010.06.11 16:27:58.
