data_PCOD9407364
_publ_section_title
;
Structure prediction by ZEFSAII (Michael W. Deem and Ramdas Pophale) SiO2 
 PCOD9407364
Probable space group: P M M A
;
_chemical_formula_sum "Si O2"
_cell_formula_units_Z 32
_cell_length_a 7.874330
_cell_length_b 7.469788
_cell_length_c 25.275135
_cell_angle_alpha 90.000000
_cell_angle_beta 90.000000
_cell_angle_gamma 90.000000
_cell_volume 1486.672718
_symmetry_space_group_name_H-M "P M M A"
_symmetry_group_IT_number 51
_symmetry_cell_setting 'orthorhombic'
loop_
_space_group_symop_operation_xyz
x,y,z
1/2-x,-y,z
1/2+x,-y,-z
-x,y,-z
-x,-y,-z
1/2+x,y,-z
1/2-x,y,z
x,-y,z
loop_
_atom_site_type_symbol
_atom_site_label
_atom_site_fract_x
_atom_site_fract_y
_atom_site_fract_z
Si Si1 0.058033 0.290676 0.826178
Si Si2 0.750000 0.279735 0.755301
Si Si3 0.057175 0.718444 0.558908
Si Si4 0.953513 0.203926 0.056256
Si Si5 0.750000 0.718588 0.633428
O O1 0.250000 0.213888 0.822891
O O2 0.073277 0.500000 0.813709
O O3 0.994952 0.279725 0.887019
O O4 0.917421 0.217077 0.786574
O O5 0.750000 0.500000 0.756767
O O6 0.750000 0.225578 0.694273
O O7 0.250000 0.776145 0.569565
O O8 0.057249 0.500000 0.559084
O O9 0.000000 0.772736 0.500000
O O10 0.917535 0.776053 0.601457
O O11 0.750000 0.202315 0.057425
O O12 0.019425 0.000000 0.055036
O O13 0.000000 0.289524 0.000000
O O14 0.750000 0.500000 0.632942
#
# Coordination Sequence:
#
# PCOD9407364 Si02
#       5
#     8   4   8   8   4
#     4   9  18  32  47  63  87 118 151 186 222 265
#     4   9  18  30  43  59  81 113 154 191 222 264
#     4   9  14  20  31  47  70  99 133 178 225 261
#     4   9  18  31  47  69  93 114 142 183 228 273
#     4   9  16  24  34  51  73 101 140 183 222 258
#
# _framework density 21.524577000000001
#
# number of rings (size 3 to 8) (size 9 to 14) (size 15 to 20)
#    0.000    3.000    1.250    0.000    1.750    1.500 
#    0.000    5.000    0.000    0.000    0.000    0.000 
#    0.000    0.000    0.000    0.000    0.000    5.000 
#
# Total GULP energy -178493.840496 kJ/mol
# GULP energy per Si atom -5577.932516 kJ/mol
# Density = 2.147559 g / cm^3
# Si number density = 21.524577 Si / 1000 Ang^3
#
#
#
# Elastic Constant Matrix: (Units=GPa)
#
#
# Indices 1 2 3 4 5 6 
#
# 1 173.8484 8.3156 130.3663 0.0000 0.0000 0.0000
# 2 8.3156 57.9835 3.2447 0.0000 0.0000 0.0000
# 3 130.3663 3.2447 224.6801 0.0000 0.0000 0.0000
# 4 0.0000 0.0000 0.0000 64.4471 0.0000 0.0000
# 5 0.0000 0.0000 0.0000 0.0000 41.0249 0.0000
# 6 0.0000 0.0000 0.0000 0.0000 0.0000 -5.5164
#
#
#
# Elastic Compliance Matrix: (Units=1/GPa)
#
#
# Indices 1 2 3 4 5 6 
#
# 1 0.010257 -0.001139 -0.005935 0.000000 0.000000 0.000000
# 2 -0.001139 0.017387 0.000410 0.000000 0.000000 0.000000
# 3 -0.005935 0.000410 0.007889 0.000000 0.000000 0.000000
# 4 0.000000 0.000000 0.000000 0.015517 0.000000 0.000000
# 5 0.000000 0.000000 0.000000 0.000000 0.024375 0.000000
# 6 0.000000 0.000000 0.000000 0.000000 0.000000 -0.181276
#
#
# Mechanical properties :
#
#
# Convention : Reuss Voigt Hill
#
# Bulk Modulus (GPa) = 45.03703 82.26282 63.64993
# Shear Modulus (GPa) = -58.73944 40.96348 -8.88798
#
# Velocity S-wave (km/s) = -5.22960 4.36719 -2.03425
# Velocity P-wave (km/s) = 3.93650 7.98316 4.91095
#
# Compressibility (1/GPa) = 0.02220395
#
# Stress axis : x y z
#
# Youngs Moduli (GPa) = 97.49154 57.51529 126.76496
#
# Poissons Ratio (x) = 0.06551 0.75237
# Poissons Ratio (y) = 0.11103 -0.05194
# Poissons Ratio (z) = 0.57863 -0.02357
#
# Static dielectric constant tensor:
#      x y z
#    x 1.771250 0.000000 0.000000 
#    y 0.000000 1.840100 0.000000 
#    z 0.000000 0.000000 1.744790 
# 
# From -- ./inp_files/26975.got.cif
#   From: 2010.05.17/outbox.cif.g08.bks.cpg/sg51_14_cif.got.tgz:26975.got - 2010.06.03 11:52:47.
