data_PCOD9407686
_publ_section_title
;
Structure prediction by ZEFSAII (Michael W. Deem and Ramdas Pophale) SiO2 
 PCOD9407686
Probable space group: P M M A
;
_chemical_formula_sum "Si O2"
_cell_formula_units_Z 64
_cell_length_a 9.000000
_cell_length_b 15.000000
_cell_length_c 24.000000
_cell_angle_alpha 90.000000
_cell_angle_beta 90.000000
_cell_angle_gamma 90.000000
_cell_volume 3240.000000
_symmetry_space_group_name_H-M "P M M A"
_symmetry_group_IT_number 51
_symmetry_cell_setting 'orthorhombic'
loop_
_space_group_symop_operation_xyz
x,y,z
1/2-x,-y,z
1/2+x,-y,-z
-x,y,-z
-x,-y,-z
1/2+x,y,-z
1/2-x,y,z
x,-y,z
loop_
_atom_site_type_symbol
_atom_site_label
_atom_site_fract_x
_atom_site_fract_y
_atom_site_fract_z
Si Si1 0.919582 0.400619 0.425552
Si Si2 0.077052 0.218568 0.744378
Si Si3 0.926096 0.217613 0.555227
Si Si4 0.078123 0.404941 0.708059
Si Si5 0.428675 0.094751 0.939841
Si Si6 0.922450 0.261423 0.127680
Si Si7 0.425340 0.395733 0.056703
Si Si8 0.428617 0.100833 0.340540
O O1 0.750000 0.383576 0.444930
O O2 0.965107 0.500000 0.442623
O O3 0.914972 0.403346 0.358525
O O4 0.025910 0.320552 0.441253
O O5 0.250000 0.214449 0.725834
O O6 0.006767 0.312615 0.725265
O O7 0.073662 0.225874 0.810123
O O8 0.992553 0.137541 0.716853
O O9 0.750000 0.210072 0.551764
O O10 0.979475 0.166691 0.610328
O O11 0.000000 0.178648 0.500000
O O12 0.250000 0.403405 0.728926
O O13 0.011845 0.500000 0.725776
O O14 0.250000 0.100392 0.943821
O O15 0.483765 0.180933 0.908778
O O16 0.463674 0.000000 0.911524
O O17 0.500000 0.093491 0.000000
O O18 0.750000 0.279729 0.113820
O O19 0.014134 0.347496 0.111275
O O20 0.250000 0.385215 0.051806
O O21 0.462270 0.500000 0.059891
O O22 0.500000 0.359152 0.000000
O O23 0.250000 0.103471 0.339050
O O24 0.475658 0.000000 0.351610
#
# Coordination Sequence:
#
# PCOD9407686 Si02
#       8
#     8   8   8   8   8   8   8   8
#     4   9  17  32  56  83 113 148 182 218 263 318
#     4  10  20  35  58  86 113 144 186 229 274 332
#     4  11  23  38  59  85 114 146 183 231 282 335
#     4   8  14  27  50  78 107 139 174 214 259 309
#     4   9  18  33  51  72 102 137 174 219 270 323
#     4  10  21  34  53  84 116 146 182 229 282 336
#     4  10  21  37  57  81 113 155 200 244 289 337
#     4  10  23  43  62  81 110 147 186 232 288 343
#
# _framework density 19.753086
#
# number of rings (size 3 to 8) (size 9 to 14) (size 15 to 20)
#    0.000    2.375    1.250    1.875    0.000    5.250 
#    0.000    2.500    0.000    1.875    0.000    0.000 
#    0.000    0.000    0.000    0.000    0.000    0.000 
#
# Total GULP energy -356551.285539 kJ/mol
# GULP energy per Si atom -5571.113837 kJ/mol
# Density = 1.970813 g / cm^3
# Si number density = 19.753086 Si / 1000 Ang^3
#
#
#
# Elastic Constant Matrix: (Units=GPa)
#
#
# Indices 1 2 3 4 5 6 
#
# 1 -6.0592 44.5427 14.2958 0.0000 0.0000 0.0000
# 2 44.5427 85.7511 36.0088 0.0000 0.0000 0.0000
# 3 14.2958 36.0088 36.2406 0.0000 0.0000 0.0000
# 4 0.0000 0.0000 0.0000 213.8230 0.0000 0.0000
# 5 0.0000 0.0000 0.0000 0.0000 22.1809 0.0000
# 6 0.0000 0.0000 0.0000 0.0000 0.0000 7.7073
#
#
#
# Elastic Compliance Matrix: (Units=1/GPa)
#
#
# Indices 1 2 3 4 5 6 
#
# 1 -0.033204 0.020158 -0.006931 0.000000 0.000000 0.000000
# 2 0.020158 0.007773 -0.015675 0.000000 0.000000 0.000000
# 3 -0.006931 -0.015675 0.045902 0.000000 0.000000 0.000000
# 4 0.000000 0.000000 0.000000 0.004677 0.000000 0.000000
# 5 0.000000 0.000000 0.000000 0.000000 0.045084 0.000000
# 6 0.000000 0.000000 0.000000 0.000000 0.000000 0.129746
#
#
# Mechanical properties :
#
#
# Convention : Reuss Voigt Hill
#
# Bulk Modulus (GPa) = 64.20537 33.95855 49.08196
# Shear Modulus (GPa) = 23.80203 50.14792 36.97498
#
# Velocity S-wave (km/s) = 3.47504 5.04406 4.33119
# Velocity P-wave (km/s) = 6.97680 7.15207 7.06498
#
# Compressibility (1/GPa) = 0.01557502
#
# Stress axis : x y z
#
# Youngs Moduli (GPa) = -30.11687 128.65079 21.78543
#
# Poissons Ratio (x) = -2.59336 0.15100
# Poissons Ratio (y) = 0.60710 0.34149
# Poissons Ratio (z) = -0.20875 2.01660
#
# Static dielectric constant tensor:
#      x y z
#    x 1.660960 0.000000 0.000000 
#    y 0.000000 1.724810 0.000000 
#    z 0.000000 0.000000 1.664700 
# 
# From -- ./inp_files/34997.got.cif
#   From: 2010.05.17/outbox.ucp.g08.bks.cvg/sg51_18_cif.got.tgz:34997.got - 2010.06.11 16:27:58.
