data_PCOD9407281
_publ_section_title
;
Structure prediction by ZEFSAII (Michael W. Deem and Ramdas Pophale) SiO2 
 PCOD9407281
Probable space group: P M M A
;
_chemical_formula_sum "Si O2"
_cell_formula_units_Z 48
_cell_length_a 7.303750
_cell_length_b 13.365301
_cell_length_c 19.383094
_cell_angle_alpha 90.000000
_cell_angle_beta 90.000000
_cell_angle_gamma 90.000000
_cell_volume 1892.115943
_symmetry_space_group_name_H-M "P M M A"
_symmetry_group_IT_number 51
_symmetry_cell_setting 'orthorhombic'
loop_
_space_group_symop_operation_xyz
x,y,z
1/2-x,-y,z
1/2+x,-y,-z
-x,y,-z
-x,-y,-z
1/2+x,y,-z
1/2-x,y,z
x,-y,z
loop_
_atom_site_type_symbol
_atom_site_label
_atom_site_fract_x
_atom_site_fract_y
_atom_site_fract_z
Si Si1 0.967505 0.893489 0.581045
Si Si2 0.972788 0.671991 0.727017
Si Si3 0.468653 0.666929 0.420385
Si Si4 0.532585 0.179627 0.924832
Si Si5 0.972897 0.109830 0.776923
Si Si6 0.472971 0.607651 0.120676
O O1 0.750000 0.890080 0.597442
O O2 0.037573 0.780979 0.589483
O O3 0.000000 0.903491 0.500000
O O4 0.036241 0.000000 0.610003
O O5 0.750000 0.670582 0.727673
O O6 0.030074 0.623208 0.653879
O O7 0.026801 0.789729 0.736092
O O8 0.027419 0.620825 0.798829
O O9 0.500000 0.632411 0.500000
O O10 0.250000 0.666946 0.417475
O O11 0.750000 0.183558 0.916723
O O12 0.467488 0.124408 0.856322
O O13 0.463517 0.294032 0.919628
O O14 0.500000 0.135670 0.000000
O O15 0.750000 0.109557 0.774334
O O16 0.033051 0.000000 0.754529
O O17 0.250000 0.608332 0.119344
O O18 0.534446 0.500000 0.094330
#
# Coordination Sequence:
#
# PCOD9407281 Si02
#       6
#     8   8   8   8   8   8
#     4   8  13  20  29  43  65  91 117 146 182 225
#     4   8  14  24  39  59  80 105 142 180 208 244
#     4   9  16  25  38  57  79 102 130 166 209 253
#     4   9  17  28  43  66  92 114 139 171 206 246
#     4   8  14  25  41  61  85 113 145 179 209 236
#     4   8  14  26  44  64  85 109 138 174 212 245
#
# _framework density 25.368423
#
# number of rings (size 3 to 8) (size 9 to 14) (size 15 to 20)
#    0.000    3.667    0.000    2.000    0.000    1.333 
#    0.000    3.333    0.000    4.500    0.000    0.000 
#    0.000    0.000    0.000    0.000    0.000    0.000 
#
# Total GULP energy -267353.656686 kJ/mol
# GULP energy per Si atom -5569.867848 kJ/mol
# Density = 2.531068 g / cm^3
# Si number density = 25.368423 Si / 1000 Ang^3
#
#
#
# Elastic Constant Matrix: (Units=GPa)
#
#
# Indices 1 2 3 4 5 6 
#
# 1 101.8282 -3.2024 -7.3253 0.0000 0.0000 0.0000
# 2 -3.2024 82.5420 3.4077 0.0000 0.0000 0.0000
# 3 -7.3253 3.4077 187.6992 0.0000 0.0000 0.0000
# 4 0.0000 0.0000 0.0000 -19.2700 0.0000 0.0000
# 5 0.0000 0.0000 0.0000 0.0000 -6.9874 0.0000
# 6 0.0000 0.0000 0.0000 0.0000 0.0000 -10.4438
#
#
#
# Elastic Compliance Matrix: (Units=1/GPa)
#
#
# Indices 1 2 3 4 5 6 
#
# 1 0.009859 0.000367 0.000378 0.000000 0.000000 0.000000
# 2 0.000367 0.012138 -0.000206 0.000000 0.000000 0.000000
# 3 0.000378 -0.000206 0.005346 0.000000 0.000000 0.000000
# 4 0.000000 0.000000 0.000000 -0.051894 0.000000 0.000000
# 5 0.000000 0.000000 0.000000 0.000000 -0.143114 0.000000
# 6 0.000000 0.000000 0.000000 0.000000 0.000000 -0.095750
#
#
# Mechanical properties :
#
#
# Convention : Reuss Voigt Hill
#
# Bulk Modulus (GPa) = 35.18514 39.75882 37.47198
# Shear Modulus (GPa) = -19.60632 17.93905 -0.83363
#
# Velocity S-wave (km/s) = -2.78306 2.66210 -0.57387
# Velocity P-wave (km/s) = 1.89012 5.01554 3.79000
#
# Compressibility (1/GPa) = 0.02842109
#
# Stress axis : x y z
#
# Youngs Moduli (GPa) = 101.42806 82.38736 187.04980
#
# Poissons Ratio (x) = -0.03023 -0.07073
# Poissons Ratio (y) = -0.03721 0.03854
# Poissons Ratio (z) = -0.03835 0.01698
#
# Static dielectric constant tensor:
#      x y z
#    x 1.999220 0.000000 0.000000 
#    y 0.000000 1.981840 0.000000 
#    z 0.000000 0.000000 2.010370 
# 
# From -- ./inp_files/23229.got.cif
#   From: 2010.05.17/outbox.cif.g08.bks.cpg/sg51_12_cif.got.tgz:23229.got - 2010.06.03 11:52:47.
