data_PCOD9407738
_publ_section_title
;
Structure prediction by ZEFSAII (Michael W. Deem and Ramdas Pophale) SiO2 
 PCOD9407738
Probable space group: P M M A
;
_chemical_formula_sum "Si O2"
_cell_formula_units_Z 40
_cell_length_a 27.000000
_cell_length_b 9.000000
_cell_length_c 9.000000
_cell_angle_alpha 90.000000
_cell_angle_beta 90.000000
_cell_angle_gamma 90.000000
_cell_volume 2187.000000
_symmetry_space_group_name_H-M "P M M A"
_symmetry_group_IT_number 51
_symmetry_cell_setting 'orthorhombic'
loop_
_space_group_symop_operation_xyz
x,y,z
1/2-x,-y,z
1/2+x,-y,-z
-x,y,-z
-x,-y,-z
1/2+x,y,-z
1/2-x,y,z
x,-y,z
loop_
_atom_site_type_symbol
_atom_site_label
_atom_site_fract_x
_atom_site_fract_y
_atom_site_fract_z
Si Si1 0.804427 0.673361 0.821486
Si Si2 0.507911 0.328531 0.674922
Si Si3 0.091220 0.679993 0.847864
Si Si4 0.596476 0.174664 0.829282
Si Si5 0.197112 0.674617 0.817050
O O1 0.750000 0.720807 0.769036
O O2 0.811448 0.500000 0.783768
O O3 0.850669 0.768242 0.770275
O O4 0.803543 0.681217 0.002267
O O5 0.500000 0.325588 0.500000
O O6 0.518988 0.500000 0.719489
O O7 0.457268 0.282953 0.755450
O O8 0.552687 0.226005 0.723477
O O9 0.094116 0.500000 0.859767
O O10 0.143043 0.733433 0.774365
O O11 0.087560 0.746615 0.011963
O O12 0.597474 0.000000 0.850573
O O13 0.250000 0.740958 0.767867
O O14 0.198193 0.500000 0.776476
#
# Coordination Sequence:
#
# PCOD9407738 Si02
#       5
#     8   8   8   8   8
#     4   8  14  27  48  72  98 128 161 197 236 280
#     4  10  21  36  52  68  91 128 173 216 253 292
#     4   9  17  31  51  72  94 124 163 205 246 289
#     4  11  21  31  48  75 104 131 160 198 246 300
#     4   7  10  19  39  67  93 114 141 183 235 283
#
# _framework density 18.289895000000001
#
# number of rings (size 3 to 8) (size 9 to 14) (size 15 to 20)
#    0.000    3.000    0.000    4.800    0.000    4.000 
#    0.000    0.000    0.000    1.200    0.000    5.600 
#    0.000    3.200    0.000    0.000    0.000    0.000 
#
# Total GULP energy -222681.963359 kJ/mol
# GULP energy per Si atom -5567.049084 kJ/mol
# Density = 1.824827 g / cm^3
# Si number density = 18.289895 Si / 1000 Ang^3
#
#
#
# Elastic Constant Matrix: (Units=GPa)
#
#
# Indices 1 2 3 4 5 6 
#
# 1 167.3953 59.6972 33.5926 0.0000 0.0000 0.0000
# 2 59.6972 27.7560 14.6082 0.0000 0.0000 0.0000
# 3 33.5926 14.6082 16.5732 0.0000 0.0000 0.0000
# 4 0.0000 0.0000 0.0000 -6.2944 0.0000 0.0000
# 5 0.0000 0.0000 0.0000 0.0000 -18.3696 0.0000
# 6 0.0000 0.0000 0.0000 0.0000 0.0000 -2.8662
#
#
#
# Elastic Compliance Matrix: (Units=1/GPa)
#
#
# Indices 1 2 3 4 5 6 
#
# 1 0.025996 -0.052564 -0.006360 0.000000 0.000000 0.000000
# 2 -0.052564 0.173491 -0.046377 0.000000 0.000000 0.000000
# 3 -0.006360 -0.046377 0.114108 0.000000 0.000000 0.000000
# 4 0.000000 0.000000 0.000000 -0.158871 0.000000 0.000000
# 5 0.000000 0.000000 0.000000 0.000000 -0.054438 0.000000
# 6 0.000000 0.000000 0.000000 0.000000 0.000000 -0.348897
#
#
# Mechanical properties :
#
#
# Convention : Reuss Voigt Hill
#
# Bulk Modulus (GPa) = 9.70948 47.50226 28.60587
# Shear Modulus (GPa) = -1358.87312 1.41574 -678.72869
#
# Velocity S-wave (km/s) = -27.28693 0.88076 -19.28472
# Velocity P-wave (km/s) = 31.42370 5.20217 21.91331
#
# Compressibility (1/GPa) = 0.10299210
#
# Stress axis : x y z
#
# Youngs Moduli (GPa) = 38.46787 5.76400 8.76365
#
# Poissons Ratio (x) = 0.30298 0.05573
# Poissons Ratio (y) = 2.02202 0.40643
# Poissons Ratio (z) = 0.24464 0.26732
#
# Static dielectric constant tensor:
#      x y z
#    x 1.699900 0.000000 0.000000 
#    y 0.000000 1.604660 0.000000 
#    z 0.000000 0.000000 1.595860 
# 
# From -- ./inp_files/12087.got.cif
#   From: 2010.05.17/outbox.ucp.g08.bks.cvg/sg51_7_cif.got.tgz:12087.got - 2010.06.11 16:27:58.
