data_PCOD9407202
_publ_section_title
;
Structure prediction by ZEFSAII (Michael W. Deem and Ramdas Pophale) SiO2 
 PCOD9407202
Probable space group: P M M A
;
_chemical_formula_sum "Si O2"
_cell_formula_units_Z 30
_cell_length_a 14.527875
_cell_length_b 11.187818
_cell_length_c 8.707799
_cell_angle_alpha 90.000000
_cell_angle_beta 90.000000
_cell_angle_gamma 90.000000
_cell_volume 1415.324039
_symmetry_space_group_name_H-M "P M M A"
_symmetry_group_IT_number 51
_symmetry_cell_setting 'orthorhombic'
loop_
_space_group_symop_operation_xyz
x,y,z
1/2-x,-y,z
1/2+x,-y,-z
-x,y,-z
-x,-y,-z
1/2+x,y,-z
1/2-x,y,z
x,-y,z
loop_
_atom_site_type_symbol
_atom_site_label
_atom_site_fract_x
_atom_site_fract_y
_atom_site_fract_z
Si Si1 0.250000 0.243945 0.299876
Si Si2 0.917624 0.500000 0.377922
Si Si3 0.432943 0.865367 0.356221
Si Si4 0.250000 0.500000 0.386444
Si Si5 0.938293 0.280472 0.142327
Si Si6 0.750000 0.855268 0.040369
O O1 0.157488 0.210867 0.388042
O O2 0.250000 0.384911 0.278220
O O3 0.250000 0.170977 0.141901
O O4 0.833176 0.500000 0.494305
O O5 0.920156 0.384776 0.266184
O O6 0.000000 0.500000 0.500000
O O7 0.500000 0.863404 0.500000
O O8 0.491319 0.814025 0.216848
O O9 0.403159 0.000000 0.324535
O O10 0.842866 0.211886 0.101101
O O11 0.000000 0.329117 0.000000
O O12 0.750000 0.000000 0.070405
#
# Coordination Sequence:
#
# PCOD9407202 Si02
#       6
#     4   4   8   2   8   4
#     4  12  24  43  69 101 137 189 240 288 371 416
#     4  12  27  48  73 101 145 183 237 295 359 411
#     4  11  24  43  69 102 142 185 236 293 351 422
#     4  12  26  44  70  94 136 186 232 300 344 430
#     4  12  25  44  72 105 141 186 237 286 357 426
#     4  12  27  45  72 106 148 186 232 295 358 428
#
# _framework density 21.196559000000001
#
# number of rings (size 3 to 8) (size 9 to 14) (size 15 to 20)
#    0.000    0.267    2.667    7.200    0.000    3.200 
#    0.000    1.333    0.000    0.000    0.000    0.000 
#    0.000    0.000    0.000    0.000    0.000    0.000 
#
# Total GULP energy -167729.499921 kJ/mol
# GULP energy per Si atom -5590.983331 kJ/mol
# Density = 2.114831 g / cm^3
# Si number density = 21.196559 Si / 1000 Ang^3
#
#
#
# Elastic Constant Matrix: (Units=GPa)
#
#
# Indices 1 2 3 4 5 6 
#
# 1 175.9743 47.8323 27.2030 0.0000 0.0000 0.0000
# 2 47.8323 138.7036 19.1860 0.0000 0.0000 0.0000
# 3 27.2030 19.1860 71.8321 0.0000 0.0000 0.0000
# 4 0.0000 0.0000 0.0000 140.5518 0.0000 0.0000
# 5 0.0000 0.0000 0.0000 0.0000 17.1957 0.0000
# 6 0.0000 0.0000 0.0000 0.0000 0.0000 37.1037
#
#
#
# Elastic Compliance Matrix: (Units=1/GPa)
#
#
# Indices 1 2 3 4 5 6 
#
# 1 0.006521 -0.001980 -0.001941 0.000000 0.000000 0.000000
# 2 -0.001980 0.008088 -0.001410 0.000000 0.000000 0.000000
# 3 -0.001941 -0.001410 0.015033 0.000000 0.000000 0.000000
# 4 0.000000 0.000000 0.000000 0.007115 0.000000 0.000000
# 5 0.000000 0.000000 0.000000 0.000000 0.058154 0.000000
# 6 0.000000 0.000000 0.000000 0.000000 0.000000 0.026951
#
#
# Mechanical properties :
#
#
# Convention : Reuss Voigt Hill
#
# Bulk Modulus (GPa) = 52.68913 63.88363 58.28638
# Shear Modulus (GPa) = 36.00999 58.45615 47.23307
#
# Velocity S-wave (km/s) = 4.12619 5.25719 4.72565
# Velocity P-wave (km/s) = 6.90015 8.18870 7.57188
#
# Compressibility (1/GPa) = 0.01897925
#
# Stress axis : x y z
#
# Youngs Moduli (GPa) = 153.35278 123.64596 66.52078
#
# Poissons Ratio (x) = 0.24486 0.12909
# Poissons Ratio (y) = 0.30369 0.09381
# Poissons Ratio (z) = 0.29759 0.17437
#
# Static dielectric constant tensor:
#      x y z
#    x 1.733740 0.000000 0.000000 
#    y 0.000000 1.772220 0.000000 
#    z 0.000000 0.000000 1.792030 
# 
# From -- ./inp_files/7542.got.cif
#   From: 2010.05.17/outbox.cif.g08.bks.cpg/sg51_4_cif.got.tgz:7542.got - 2010.06.03 11:52:47.
