data_PCOD9407090
_publ_section_title
;
Structure prediction by ZEFSAII (Michael W. Deem and Ramdas Pophale) SiO2 
 PCOD9407090
Probable space group: P M M A
;
_chemical_formula_sum "Si O2"
_cell_formula_units_Z 48
_cell_length_a 8.555370
_cell_length_b 25.148136
_cell_length_c 13.956827
_cell_angle_alpha 90.000000
_cell_angle_beta 90.000000
_cell_angle_gamma 90.000000
_cell_volume 3002.833776
_symmetry_space_group_name_H-M "P M M A"
_symmetry_group_IT_number 51
_symmetry_cell_setting 'orthorhombic'
loop_
_space_group_symop_operation_xyz
x,y,z
1/2-x,-y,z
1/2+x,-y,-z
-x,y,-z
-x,-y,-z
1/2+x,y,-z
1/2-x,y,z
x,-y,z
loop_
_atom_site_type_symbol
_atom_site_label
_atom_site_fract_x
_atom_site_fract_y
_atom_site_fract_z
Si Si1 0.060883 0.559831 0.197448
Si Si2 0.560943 0.281149 0.707638
Si Si3 0.061147 0.942818 0.390786
Si Si4 0.439253 0.173284 0.391285
Si Si5 0.564507 0.334791 0.103807
Si Si6 0.562490 0.611666 0.603934
O O1 0.250000 0.563107 0.192376
O O2 0.012924 0.500000 0.172826
O O3 0.015677 0.574142 0.307208
O O4 0.991981 0.605728 0.131057
O O5 0.750000 0.281715 0.711077
O O6 0.507875 0.223911 0.669870
O O7 0.499168 0.297277 0.811619
O O8 0.512716 0.328643 0.635190
O O9 0.250000 0.942894 0.392000
O O10 0.012086 0.885014 0.351681
O O11 0.000000 0.942889 0.500000
O O12 0.010577 0.000000 0.347721
O O13 0.500000 0.178177 0.500000
O O14 0.250000 0.174518 0.394224
O O15 0.750000 0.333385 0.103250
O O16 0.500000 0.320043 0.000000
O O17 0.500000 0.597057 0.500000
O O18 0.750000 0.610989 0.599697
#
# Coordination Sequence:
#
# PCOD9407090 Si02
#       6
#     8   8   8   8   8   8
#     4   9  19  36  53  69  92 119 146 177 212 252
#     4   9  18  32  46  63  89 117 148 184 221 261
#     4   8  13  21  33  52  81 118 157 190 219 252
#     4   9  16  25  40  62  90 124 157 190 223 255
#     4  11  22  36  54  72  89 110 137 173 220 269
#     4   9  17  28  43  63  88 118 147 177 212 248
#
# _framework density 15.984902
#
# number of rings (size 3 to 8) (size 9 to 14) (size 15 to 20)
#    0.000    2.833    0.000    3.000    0.000    4.333 
#    0.000    0.000    0.000    0.000    0.000    0.000 
#    0.000    0.667    0.000    1.167    0.000    2.000 
#
# Total GULP energy -267333.336089 kJ/mol
# GULP energy per Si atom -5569.444502 kJ/mol
# Density = 1.594852 g / cm^3
# Si number density = 15.984902 Si / 1000 Ang^3
#
#
#
# Elastic Constant Matrix: (Units=GPa)
#
#
# Indices 1 2 3 4 5 6 
#
# 1 11.0321 15.3141 7.1833 0.0000 0.0000 0.0000
# 2 15.3141 122.5347 18.7454 0.0000 0.0000 0.0000
# 3 7.1833 18.7454 55.6195 0.0000 0.0000 0.0000
# 4 0.0000 0.0000 0.0000 9.5264 0.0000 0.0000
# 5 0.0000 0.0000 0.0000 0.0000 23.7985 0.0000
# 6 0.0000 0.0000 0.0000 0.0000 0.0000 18.4927
#
#
#
# Elastic Compliance Matrix: (Units=1/GPa)
#
#
# Indices 1 2 3 4 5 6 
#
# 1 0.115287 -0.012790 -0.010579 0.000000 0.000000 0.000000
# 2 -0.012790 0.010024 -0.001726 0.000000 0.000000 0.000000
# 3 -0.010579 -0.001726 0.019927 0.000000 0.000000 0.000000
# 4 0.000000 0.000000 0.000000 0.104972 0.000000 0.000000
# 5 0.000000 0.000000 0.000000 0.000000 0.042020 0.000000
# 6 0.000000 0.000000 0.000000 0.000000 0.000000 0.054076
#
#
# Mechanical properties :
#
#
# Convention : Reuss Voigt Hill
#
# Bulk Modulus (GPa) = 10.52102 30.18576 20.35339
# Shear Modulus (GPa) = 11.67738 20.22639 15.95188
#
# Velocity S-wave (km/s) = 2.70576 3.56103 3.16244
# Velocity P-wave (km/s) = 4.04446 5.98605 5.10835
#
# Compressibility (1/GPa) = 0.09504784
#
# Stress axis : x y z
#
# Youngs Moduli (GPa) = 8.67397 99.76544 50.18208
#
# Poissons Ratio (x) = 1.27599 0.53087
# Poissons Ratio (y) = 0.11094 0.08663
# Poissons Ratio (z) = 0.09176 0.17223
#
# Static dielectric constant tensor:
#      x y z
#    x 1.538510 0.000000 0.000000 
#    y 0.000000 1.584780 0.000000 
#    z 0.000000 0.000000 1.500740 
# 
# From -- ./inp_files/14412.got.cif
#   From: 2010.05.17/outbox.cif.g08.bks.cpg/sg51_8_cif.got.tgz:14412.got - 2010.06.03 11:52:47.
