data_PCOD9407088
_publ_section_title
;
Structure prediction by ZEFSAII (Michael W. Deem and Ramdas Pophale) SiO2 
 PCOD9407088
Probable space group: P M M A
;
_chemical_formula_sum "Si O2"
_cell_formula_units_Z 64
_cell_length_a 28.280936
_cell_length_b 7.801993
_cell_length_c 13.296352
_cell_angle_alpha 90.000000
_cell_angle_beta 90.000000
_cell_angle_gamma 90.000000
_cell_volume 2933.809018
_symmetry_space_group_name_H-M "P M M A"
_symmetry_group_IT_number 51
_symmetry_cell_setting 'orthorhombic'
loop_
_space_group_symop_operation_xyz
x,y,z
1/2-x,-y,z
1/2+x,-y,-z
-x,y,-z
-x,-y,-z
1/2+x,y,-z
1/2-x,y,z
x,-y,z
loop_
_atom_site_type_symbol
_atom_site_label
_atom_site_fract_x
_atom_site_fract_y
_atom_site_fract_z
Si Si1 0.195024 0.210152 0.146569
Si Si2 0.838975 0.799112 0.285453
Si Si3 0.130280 0.800089 0.328016
Si Si4 0.564545 0.291069 0.211269
Si Si5 0.957752 0.297277 0.776178
Si Si6 0.802260 0.699753 0.498816
Si Si7 0.442488 0.697850 0.009884
Si Si8 0.806900 0.798361 0.071849
O O1 0.250000 0.260234 0.159083
O O2 0.163830 0.271971 0.239363
O O3 0.194754 0.000000 0.145118
O O4 0.176968 0.270145 0.036757
O O5 0.895368 0.776053 0.285008
O O6 0.814560 0.718243 0.381739
O O7 0.823299 0.722710 0.177668
O O8 0.826459 0.000000 0.287530
O O9 0.078179 0.725242 0.314687
O O10 0.156982 0.778037 0.432618
O O11 0.124917 0.000000 0.308561
O O12 0.566018 0.500000 0.211418
O O13 0.511246 0.234428 0.237587
O O14 0.574925 0.228424 0.096346
O O15 0.962641 0.500000 0.795620
O O16 0.934928 0.223034 0.879833
O O17 0.750000 0.774406 0.519184
O O18 0.800932 0.500000 0.524181
O O19 0.426576 0.500000 0.010575
O O20 0.500000 0.696931 0.000000
O O21 0.750000 0.789282 0.069205
O O22 0.819904 0.000000 0.073862
#
# Coordination Sequence:
#
# PCOD9407088 Si02
#       8
#     8   8   8   8   8   8   8   8
#     4   8  15  29  49  76 112 149 180 216 273 344
#     4  11  22  35  58  88 117 149 190 239 293 346
#     4  11  22  35  58  88 117 149 190 239 293 346
#     4   9  18  34  55  80 115 159 202 239 280 335
#     4   9  18  34  55  80 115 159 202 239 280 335
#     4  11  25  45  66  85 110 147 193 242 288 343
#     4   7  12  26  49  75 106 151 200 237 271 320
#     4   8  15  29  49  76 112 149 180 216 273 344
#
# _framework density 21.814644000000001
#
# number of rings (size 3 to 8) (size 9 to 14) (size 15 to 20)
#    0.000    2.750    0.000    4.125    1.750    2.500 
#    0.000    0.625    0.000    6.000    0.000    5.250 
#    0.000    0.000    0.000    0.000    0.000    0.000 
#
# Total GULP energy -357140.603664 kJ/mol
# GULP energy per Si atom -5580.321932 kJ/mol
# Density = 2.176499 g / cm^3
# Si number density = 21.814644 Si / 1000 Ang^3
#
#
#
# Elastic Constant Matrix: (Units=GPa)
#
#
# Indices 1 2 3 4 5 6 
#
# 1 39.7191 -2.6579 -3.1348 0.0000 0.0000 0.0000
# 2 -2.6579 32.1277 -6.2845 0.0000 0.0000 0.0000
# 3 -3.1348 -6.2845 45.5668 0.0000 0.0000 0.0000
# 4 0.0000 0.0000 0.0000 5.0998 0.0000 0.0000
# 5 0.0000 0.0000 0.0000 0.0000 36.1950 0.0000
# 6 0.0000 0.0000 0.0000 0.0000 0.0000 14.3452
#
#
#
# Elastic Compliance Matrix: (Units=1/GPa)
#
#
# Indices 1 2 3 4 5 6 
#
# 1 0.025512 0.002522 0.002103 0.000000 0.000000 0.000000
# 2 0.002522 0.032238 0.004620 0.000000 0.000000 0.000000
# 3 0.002103 0.004620 0.022728 0.000000 0.000000 0.000000
# 4 0.000000 0.000000 0.000000 0.196088 0.000000 0.000000
# 5 0.000000 0.000000 0.000000 0.000000 0.027628 0.000000
# 6 0.000000 0.000000 0.000000 0.000000 0.000000 0.069710
#
#
# Mechanical properties :
#
#
# Convention : Reuss Voigt Hill
#
# Bulk Modulus (GPa) = 10.10446 10.36214 10.23330
# Shear Modulus (GPa) = 12.87324 19.76072 16.31698
#
# Velocity S-wave (km/s) = 2.43187 3.01299 2.73789
# Velocity P-wave (km/s) = 3.53940 4.10665 3.83353
#
# Compressibility (1/GPa) = 0.09896618
#
# Stress axis : x y z
#
# Youngs Moduli (GPa) = 39.19796 31.01922 43.99936
#
# Poissons Ratio (x) = -0.07823 -0.09253
# Poissons Ratio (y) = -0.09885 -0.20326
# Poissons Ratio (z) = -0.08243 -0.14330
#
# Static dielectric constant tensor:
#      x y z
#    x 1.829440 0.000000 0.000000 
#    y 0.000000 1.790160 0.000000 
#    z 0.000000 0.000000 1.804240 
# 
# From -- ./inp_files/19557.got.cif
#   From: 2010.05.17/outbox.cif.g08.bks.cpg/sg51_10_cif.got.tgz:19557.got - 2010.06.03 11:52:47.
