data_PCOD9407428
_publ_section_title
;
Structure prediction by ZEFSAII (Michael W. Deem and Ramdas Pophale) SiO2 
 PCOD9407428
Probable space group: P M M A
;
_chemical_formula_sum "Si O2"
_cell_formula_units_Z 64
_cell_length_a 21.000000
_cell_length_b 9.000000
_cell_length_c 18.000000
_cell_angle_alpha 90.000000
_cell_angle_beta 90.000000
_cell_angle_gamma 90.000000
_cell_volume 3402.000000
_symmetry_space_group_name_H-M "P M M A"
_symmetry_group_IT_number 51
_symmetry_cell_setting 'orthorhombic'
loop_
_space_group_symop_operation_xyz
x,y,z
1/2-x,-y,z
1/2+x,-y,-z
-x,y,-z
-x,-y,-z
1/2+x,y,-z
1/2-x,y,z
x,-y,z
loop_
_atom_site_type_symbol
_atom_site_label
_atom_site_fract_x
_atom_site_fract_y
_atom_site_fract_z
Si Si1 0.818179 0.172927 0.353420
Si Si2 0.572917 0.327723 0.029506
Si Si3 0.125198 0.174702 0.105182
Si Si4 0.918374 0.323695 0.630065
Si Si5 0.018657 0.167419 0.843983
Si Si6 0.320558 0.170576 0.468499
Si Si7 0.320246 0.678539 0.244055
Si Si8 0.955634 0.171310 0.329556
O O1 0.750000 0.238200 0.329527
O O2 0.818971 0.169485 0.442647
O O3 0.885544 0.241553 0.332627
O O4 0.818997 0.000000 0.327401
O O5 0.587632 0.500000 0.022753
O O6 0.567077 0.273808 0.113608
O O7 0.500000 0.304809 0.000000
O O8 0.620470 0.235547 0.978097
O O9 0.170588 0.258655 0.161789
O O10 0.054241 0.204041 0.137464
O O11 0.137490 0.000000 0.106506
O O12 0.923613 0.500000 0.634583
O O13 0.875824 0.273658 0.561194
O O14 0.876446 0.269587 0.701147
O O15 0.987937 0.253594 0.628709
O O16 0.026269 0.169686 0.756634
O O17 0.029914 0.000000 0.872636
O O18 0.250000 0.219034 0.443643
O O19 0.330881 0.000000 0.443633
O O20 0.250000 0.721435 0.271598
O O21 0.323520 0.500000 0.241816
O O22 0.952097 0.000000 0.356624
#
# Coordination Sequence:
#
# PCOD9407428 Si02
#       8
#     8   8   8   8   8   8   8   8
#     4   8  16  33  57  81 101 128 170 216 261 313
#     4   9  17  28  46  70  96 130 169 203 244 299
#     4  10  18  30  48  71  99 127 165 214 256 298
#     4  11  22  34  50  74 107 140 174 214 259 312
#     4   9  17  29  46  72 102 130 162 207 259 301
#     4   9  18  34  55  76 100 134 177 219 257 303
#     4  10  21  35  49  67  97 138 177 211 254 309
#     4  10  19  33  54  78 106 136 170 215 266 314
#
# _framework density 18.812463000000001
#
# number of rings (size 3 to 8) (size 9 to 14) (size 15 to 20)
#    0.000    2.500    1.250    2.250    0.000    4.500 
#    0.000    3.125    0.000    1.875    0.000    1.750 
#    0.000    0.000    0.000    0.000    0.000    0.000 
#
# Total GULP energy -356392.625256 kJ/mol
# GULP energy per Si atom -5568.634770 kJ/mol
# Density = 1.876965 g / cm^3
# Si number density = 18.812463 Si / 1000 Ang^3
#
#
#
# Elastic Constant Matrix: (Units=GPa)
#
#
# Indices 1 2 3 4 5 6 
#
# 1 100.4695 43.3398 -2.0270 0.0000 0.0000 0.0000
# 2 43.3398 -14.7791 9.7202 0.0000 0.0000 0.0000
# 3 -2.0270 9.7202 5.5499 0.0000 0.0000 0.0000
# 4 0.0000 0.0000 0.0000 3.9894 0.0000 0.0000
# 5 0.0000 0.0000 0.0000 0.0000 -27.3264 0.0000
# 6 0.0000 0.0000 0.0000 0.0000 0.0000 10.1011
#
#
#
# Elastic Compliance Matrix: (Units=1/GPa)
#
#
# Indices 1 2 3 4 5 6 
#
# 1 0.005922 0.008731 -0.013129 0.000000 0.000000 0.000000
# 2 0.008731 -0.018570 0.035713 0.000000 0.000000 0.000000
# 3 -0.013129 0.035713 0.112840 0.000000 0.000000 0.000000
# 4 0.000000 0.000000 0.000000 0.250664 0.000000 0.000000
# 5 0.000000 0.000000 0.000000 0.000000 -0.036595 0.000000
# 6 0.000000 0.000000 0.000000 0.000000 0.000000 0.098999
#
#
# Mechanical properties :
#
#
# Convention : Reuss Voigt Hill
#
# Bulk Modulus (GPa) = 6.14167 21.47846 13.81006
# Shear Modulus (GPa) = 12.34863 0.03331 6.19097
#
# Velocity S-wave (km/s) = 2.56482 0.13320 1.81605
# Velocity P-wave (km/s) = 3.47028 3.38609 3.42844
#
# Compressibility (1/GPa) = 0.16282229
#
# Stress axis : x y z
#
# Youngs Moduli (GPa) = 168.86247 -53.84958 8.86211
#
# Poissons Ratio (x) = 0.47017 0.11635
# Poissons Ratio (y) = -1.47437 -0.31649
# Poissons Ratio (z) = 2.21701 1.92314
#
# Static dielectric constant tensor:
#      x y z
#    x 1.280520 0.000000 0.000000 
#    y 0.000000 1.650300 0.000000 
#    z 0.000000 0.000000 1.673170 
# 
# From -- ./inp_files/30546.got.cif
#   From: 2010.05.17/outbox.ucp.g08.bks.cvg/sg51_16_cif.got.tgz:30546.got - 2010.06.11 16:27:58.
