data_PCOD9407657
_publ_section_title
;
Structure prediction by ZEFSAII (Michael W. Deem and Ramdas Pophale) SiO2 
 PCOD9407657
Probable space group: P M M A
;
_chemical_formula_sum "Si O2"
_cell_formula_units_Z 44
_cell_length_a 9.000000
_cell_length_b 18.000000
_cell_length_c 15.000000
_cell_angle_alpha 90.000000
_cell_angle_beta 90.000000
_cell_angle_gamma 90.000000
_cell_volume 2430.000000
_symmetry_space_group_name_H-M "P M M A"
_symmetry_group_IT_number 51
_symmetry_cell_setting 'orthorhombic'
loop_
_space_group_symop_operation_xyz
x,y,z
1/2-x,-y,z
1/2+x,-y,-z
-x,y,-z
-x,-y,-z
1/2+x,y,-z
1/2-x,y,z
x,-y,z
loop_
_atom_site_type_symbol
_atom_site_label
_atom_site_fract_x
_atom_site_fract_y
_atom_site_fract_z
Si Si1 0.072362 0.371456 0.271744
Si Si2 0.419873 0.383555 0.910844
Si Si3 0.427571 0.500000 0.405088
Si Si4 0.069099 0.211762 0.721890
Si Si5 0.082153 0.797606 0.913810
Si Si6 0.428285 0.080180 0.596346
O O1 0.250000 0.365191 0.265746
O O2 0.030038 0.428111 0.348649
O O3 0.009876 0.401074 0.177961
O O4 0.000182 0.292108 0.291469
O O5 0.250000 0.408367 0.905736
O O6 0.417373 0.292913 0.915219
O O7 0.500000 0.409964 0.000000
O O8 0.250000 0.500000 0.413286
O O9 0.500000 0.500000 0.500000
O O10 0.250000 0.218574 0.724409
O O11 0.017154 0.183124 0.818407
O O12 0.023469 0.151654 0.650408
O O13 0.250000 0.823560 0.917221
O O14 0.000000 0.824995 0.000000
O O15 0.500000 0.081880 0.500000
O O16 0.250000 0.083520 0.588643
O O17 0.465430 0.000000 0.638499
#
# Coordination Sequence:
#
# PCOD9407657 Si02
#       6
#     8   8   4   8   8   8
#     4  10  20  35  53  75 101 130 168 212 254 298
#     4   9  16  28  48  75 104 134 165 201 247 297
#     4  10  24  42  57  72  95 130 171 214 260 308
#     4   9  18  32  50  74 101 130 165 202 244 297
#     4   8  14  24  40  64  94 125 157 192 229 273
#     4   9  18  33  52  73  99 130 162 200 249 302
#
# _framework density 18.106995999999999
#
# number of rings (size 3 to 8) (size 9 to 14) (size 15 to 20)
#    0.000    2.909    0.000    2.182    0.000    7.273 
#    0.000    4.091    0.000    0.545    0.000    0.000 
#    0.000    0.000    0.000    0.000    0.000    2.000 
#
# Total GULP energy -245047.495749 kJ/mol
# GULP energy per Si atom -5569.261267 kJ/mol
# Density = 1.806578 g / cm^3
# Si number density = 18.106996 Si / 1000 Ang^3
#
#
#
# Elastic Constant Matrix: (Units=GPa)
#
#
# Indices 1 2 3 4 5 6 
#
# 1 29.2074 36.5281 48.0940 0.0000 0.0000 0.0000
# 2 36.5281 83.6875 83.8323 0.0000 0.0000 0.0000
# 3 48.0940 83.8323 145.0209 0.0000 0.0000 0.0000
# 4 0.0000 0.0000 0.0000 31.8281 0.0000 0.0000
# 5 0.0000 0.0000 0.0000 0.0000 28.6522 0.0000
# 6 0.0000 0.0000 0.0000 0.0000 0.0000 10.2282
#
#
#
# Elastic Compliance Matrix: (Units=1/GPa)
#
#
# Indices 1 2 3 4 5 6 
#
# 1 0.090123 -0.022325 -0.016982 0.000000 0.000000 0.000000
# 2 -0.022325 0.033918 -0.012203 0.000000 0.000000 0.000000
# 3 -0.016982 -0.012203 0.019582 0.000000 0.000000 0.000000
# 4 0.000000 0.000000 0.000000 0.031419 0.000000 0.000000
# 5 0.000000 0.000000 0.000000 0.000000 0.034901 0.000000
# 6 0.000000 0.000000 0.000000 0.000000 0.000000 0.097769
#
#
# Mechanical properties :
#
#
# Convention : Reuss Voigt Hill
#
# Bulk Modulus (GPa) = 24.62988 66.09160 45.36074
# Shear Modulus (GPa) = 11.78502 20.10579 15.94541
#
# Velocity S-wave (km/s) = 2.55395 3.33586 2.97075
# Velocity P-wave (km/s) = 4.72534 7.17057 6.07231
#
# Compressibility (1/GPa) = 0.04060109
#
# Stress axis : x y z
#
# Youngs Moduli (GPa) = 11.09598 29.48273 51.06780
#
# Poissons Ratio (x) = 0.65821 0.86725
# Poissons Ratio (y) = 0.24772 0.62319
# Poissons Ratio (z) = 0.18844 0.35978
#
# Static dielectric constant tensor:
#      x y z
#    x 1.609360 0.000000 0.000000 
#    y 0.000000 1.625470 0.000000 
#    z 0.000000 0.000000 1.612400 
# 
# From -- ./inp_files/20940.got.cif
#   From: 2010.05.17/outbox.ucp.g08.bks.cvg/sg51_11_cif.got.tgz:20940.got - 2010.06.11 16:27:58.
