data_PCOD9407445
_publ_section_title
;
Structure prediction by ZEFSAII (Michael W. Deem and Ramdas Pophale) SiO2 
 PCOD9407445
Probable space group: P M M A
;
_chemical_formula_sum "Si O2"
_cell_formula_units_Z 64
_cell_length_a 9.000000
_cell_length_b 15.000000
_cell_length_c 24.000000
_cell_angle_alpha 90.000000
_cell_angle_beta 90.000000
_cell_angle_gamma 90.000000
_cell_volume 3240.000000
_symmetry_space_group_name_H-M "P M M A"
_symmetry_group_IT_number 51
_symmetry_cell_setting 'orthorhombic'
loop_
_space_group_symop_operation_xyz
x,y,z
1/2-x,-y,z
1/2+x,-y,-z
-x,y,-z
-x,-y,-z
1/2+x,y,-z
1/2-x,y,z
x,-y,z
loop_
_atom_site_type_symbol
_atom_site_label
_atom_site_fract_x
_atom_site_fract_y
_atom_site_fract_z
Si Si1 0.083056 0.606928 0.055592
Si Si2 0.429567 0.402781 0.704734
Si Si3 0.583836 0.835419 0.154136
Si Si4 0.430218 0.906056 0.735867
Si Si5 0.427177 0.098771 0.439663
Si Si6 0.081497 0.633575 0.827072
Si Si7 0.570469 0.768279 0.356124
Si Si8 0.076398 0.099723 0.057909
O O1 0.250000 0.643736 0.057583
O O2 0.092896 0.500000 0.048212
O O3 0.002854 0.618385 0.115096
O O4 0.000000 0.641795 0.000000
O O5 0.250000 0.390288 0.710945
O O6 0.458940 0.500000 0.682410
O O7 0.486095 0.398411 0.768593
O O8 0.479066 0.329755 0.660745
O O9 0.750000 0.864482 0.137384
O O10 0.517104 0.897701 0.201243
O O11 0.594185 0.739165 0.181034
O O12 0.480825 0.830396 0.101572
O O13 0.250000 0.903316 0.739715
O O14 0.473794 0.825745 0.697757
O O15 0.475505 0.000000 0.711480
O O16 0.500000 0.100492 0.500000
O O17 0.250000 0.105464 0.442994
O O18 0.494439 0.180501 0.405996
O O19 0.463871 0.000000 0.415724
O O20 0.250000 0.598716 0.833739
O O21 0.750000 0.771364 0.362947
O O22 0.250000 0.101564 0.051275
O O23 0.031567 0.000000 0.077566
O O24 0.000000 0.115053 0.000000
#
# Coordination Sequence:
#
# PCOD9407445 Si02
#       8
#     8   8   8   8   8   8   8   8
#     4  10  21  36  53  73  96 125 165 214 273 340
#     4   9  17  31  54  83 114 149 190 235 281 331
#     4  10  19  32  50  73 100 130 168 214 261 317
#     4   9  16  27  47  75 106 139 174 215 262 313
#     4  10  21  37  58  87 123 161 197 233 277 326
#     4  10  19  33  53  77 104 134 174 223 273 328
#     4  10  18  32  55  85 117 151 193 234 273 321
#     4  10  21  36  52  69  90 122 167 216 267 325
#
# _framework density 19.753086
#
# number of rings (size 3 to 8) (size 9 to 14) (size 15 to 20)
#    0.000    2.250    1.250    2.250    0.000    4.750 
#    0.000    1.250    0.000    3.750    0.000    0.000 
#    0.000    0.000    0.000    0.000    0.000    0.000 
#
# Total GULP energy -356354.254681 kJ/mol
# GULP energy per Si atom -5568.035229 kJ/mol
# Density = 1.970813 g / cm^3
# Si number density = 19.753086 Si / 1000 Ang^3
#
#
#
# Elastic Constant Matrix: (Units=GPa)
#
#
# Indices 1 2 3 4 5 6 
#
# 1 41.8994 31.9140 50.7802 0.0000 0.0000 0.0000
# 2 31.9140 116.4319 57.9159 0.0000 0.0000 0.0000
# 3 50.7802 57.9159 90.8856 0.0000 0.0000 0.0000
# 4 0.0000 0.0000 0.0000 17.3348 0.0000 0.0000
# 5 0.0000 0.0000 0.0000 0.0000 11.3864 0.0000
# 6 0.0000 0.0000 0.0000 0.0000 0.0000 12.8508
#
#
#
# Elastic Compliance Matrix: (Units=1/GPa)
#
#
# Indices 1 2 3 4 5 6 
#
# 1 0.073939 0.000414 -0.041575 0.000000 0.000000 0.000000
# 2 0.000414 0.012577 -0.008246 0.000000 0.000000 0.000000
# 3 -0.041575 -0.008246 0.039487 0.000000 0.000000 0.000000
# 4 0.000000 0.000000 0.000000 0.057687 0.000000 0.000000
# 5 0.000000 0.000000 0.000000 0.000000 0.087824 0.000000
# 6 0.000000 0.000000 0.000000 0.000000 0.000000 0.077816
#
#
# Mechanical properties :
#
#
# Convention : Reuss Voigt Hill
#
# Bulk Modulus (GPa) = 36.78100 58.93744 47.85922
# Shear Modulus (GPa) = 10.93597 15.55486 13.24541
#
# Velocity S-wave (km/s) = 2.35549 2.80922 2.59231
# Velocity P-wave (km/s) = 5.10476 6.35800 5.76553
#
# Compressibility (1/GPa) = 0.02718795
#
# Stress axis : x y z
#
# Youngs Moduli (GPa) = 13.52467 79.51096 25.32502
#
# Poissons Ratio (x) = -0.03291 1.05290
# Poissons Ratio (y) = -0.00560 0.20882
# Poissons Ratio (z) = 0.56229 0.65563
#
# Static dielectric constant tensor:
#      x y z
#    x 1.696790 0.000000 0.000000 
#    y 0.000000 1.722580 0.000000 
#    z 0.000000 0.000000 1.604950 
# 
# From -- ./inp_files/34854.got.cif
#   From: 2010.05.17/outbox.ucp.g08.bks.cvg/sg51_18_cif.got.tgz:34854.got - 2010.06.11 16:27:58.
