data_PCOD9407984
_publ_section_title
;
Structure prediction by ZEFSAII (Michael W. Deem and Ramdas Pophale) SiO2 
 PCOD9407984
Probable space group: P N N A
;
_chemical_formula_sum "Si O2"
_cell_formula_units_Z 56
_cell_length_a 14.605051
_cell_length_b 16.506823
_cell_length_c 10.478350
_cell_angle_alpha 90.000000
_cell_angle_beta 90.000000
_cell_angle_gamma 90.000000
_cell_volume 2526.151967
_symmetry_space_group_name_H-M "P N N A"
_symmetry_group_IT_number 52
_symmetry_cell_setting 'orthorhombic'
loop_
_space_group_symop_operation_xyz
x,y,z
1/2-x,-y,z
x,1/2-y,1/2-z
1/2-x,1/2+y,1/2-z
-x,-y,-z
1/2+x,y,-z
-x,1/2+y,1/2+z
1/2+x,1/2-y,1/2+z
loop_
_atom_site_type_symbol
_atom_site_label
_atom_site_fract_x
_atom_site_fract_y
_atom_site_fract_z
Si Si1 0.250000 0.500000 0.192090
Si Si2 0.549835 0.254057 0.966179
Si Si3 0.916178 0.936958 0.518321
Si Si4 0.303918 0.691936 0.627234
Si Si5 0.898261 0.136870 0.120518
Si Si6 0.099600 0.465236 0.733137
Si Si7 0.398552 0.087817 0.169416
Si Si8 0.963591 0.250000 0.750000
O O1 0.301085 0.441986 0.288806
O O2 0.167201 0.465951 0.106218
O O3 0.548444 0.349234 0.935459
O O4 0.653367 0.225408 0.994787
O O5 0.512451 0.245706 0.112489
O O6 0.487392 0.195884 0.878176
O O7 0.878847 0.932622 0.374059
O O8 0.000000 0.000000 0.500000
O O9 0.325076 0.750000 0.750000
O O10 0.194632 0.687945 0.621877
O O11 0.347781 0.601526 0.646529
O O12 0.882254 0.060642 0.214794
O O13 0.904513 0.096580 0.981250
O O14 0.990521 0.459775 0.708271
O O15 0.407122 0.169382 0.249620
#
# Coordination Sequence:
#
# PCOD9407984 Si02
#       8
#     4   8   8   8   8   8   8   4
#     4  12  28  42  68 110 140 192 242 292 354 452
#     4  11  21  44  68  97 138 185 236 294 362 423
#     4  12  25  46  72  98 144 197 244 297 361 440
#     4  12  23  44  71 106 136 187 238 291 361 447
#     4  11  28  40  76 109 141 183 240 314 357 437
#     4  12  23  47  72 101 141 192 237 296 379 427
#     4  11  23  45  70  97 140 181 239 289 368 431
#     4  10  16  42  70  88 120 192 222 278 360 432
#
# _framework density 22.168102999999999
#
# number of rings (size 3 to 8) (size 9 to 14) (size 15 to 20)
#    0.000    0.571    7.857    0.857    4.000    4.571 
#    0.000    0.000    0.000    0.000    0.000    0.000 
#    0.000    0.000    0.000    0.000    0.000    0.000 
#
# Total GULP energy -312410.355593 kJ/mol
# GULP energy per Si atom -5578.756350 kJ/mol
# Density = 2.211765 g / cm^3
# Si number density = 22.168103 Si / 1000 Ang^3
#
#
#
# Elastic Constant Matrix: (Units=GPa)
#
#
# Indices 1 2 3 4 5 6 
#
# 1 103.4567 36.8829 -10.5869 0.0000 0.0000 0.0000
# 2 36.8829 103.5260 -9.5651 0.0000 0.0000 0.0000
# 3 -10.5869 -9.5651 37.3571 0.0000 0.0000 0.0000
# 4 0.0000 0.0000 0.0000 16.2039 0.0000 0.0000
# 5 0.0000 0.0000 0.0000 0.0000 41.5560 0.0000
# 6 0.0000 0.0000 0.0000 0.0000 0.0000 48.6008
#
#
#
# Elastic Compliance Matrix: (Units=1/GPa)
#
#
# Indices 1 2 3 4 5 6 
#
# 1 0.011248 -0.003803 0.002214 0.000000 0.000000 0.000000
# 2 -0.003803 0.011179 0.001785 0.000000 0.000000 0.000000
# 3 0.002214 0.001785 0.027853 0.000000 0.000000 0.000000
# 4 0.000000 0.000000 0.000000 0.061714 0.000000 0.000000
# 5 0.000000 0.000000 0.000000 0.000000 0.024064 0.000000
# 6 0.000000 0.000000 0.000000 0.000000 0.000000 0.020576
#
#
# Mechanical properties :
#
#
# Convention : Reuss Voigt Hill
#
# Bulk Modulus (GPa) = 19.73473 30.86685 25.30079
# Shear Modulus (GPa) = 28.87959 36.44607 32.66283
#
# Velocity S-wave (km/s) = 3.61328 4.05912 3.84267
# Velocity P-wave (km/s) = 5.13122 5.99357 5.57908
#
# Compressibility (1/GPa) = 0.05067209
#
# Stress axis : x y z
#
# Youngs Moduli (GPa) = 88.90346 89.45258 35.90269
#
# Poissons Ratio (x) = 0.34017 -0.07949
# Poissons Ratio (y) = 0.33808 -0.06407
# Poissons Ratio (z) = -0.19683 -0.15964
#
# Static dielectric constant tensor:
#      x y z
#    x 1.780240 0.000000 0.000000 
#    y 0.000000 1.735590 0.000000 
#    z 0.000000 0.000000 1.836500 
# 
# From -- ./inp_files/19704.got.cif
#   From: 2010.05.17/outbox.cif.g08.bks.cpg/sg52_10_cif.got.tgz:19704.got - 2010.06.03 12:15:38.
