data_PCOD9407209
_publ_section_title
;
Structure prediction by ZEFSAII (Michael W. Deem and Ramdas Pophale) SiO2 
 PCOD9407209
Probable space group: P M M A
;
_chemical_formula_sum "Si O2"
_cell_formula_units_Z 26
_cell_length_a 27.257191
_cell_length_b 7.854745
_cell_length_c 4.765432
_cell_angle_alpha 90.000000
_cell_angle_beta 90.000000
_cell_angle_gamma 90.000000
_cell_volume 1020.270817
_symmetry_space_group_name_H-M "P M M A"
_symmetry_group_IT_number 51
_symmetry_cell_setting 'orthorhombic'
loop_
_space_group_symop_operation_xyz
x,y,z
1/2-x,-y,z
1/2+x,-y,-z
-x,y,-z
-x,-y,-z
1/2+x,y,-z
1/2-x,y,z
x,-y,z
loop_
_atom_site_type_symbol
_atom_site_label
_atom_site_fract_x
_atom_site_fract_y
_atom_site_fract_z
Si Si1 0.047205 0.197849 0.335888
Si Si2 0.802640 0.810658 0.784172
Si Si3 0.608483 0.303495 0.163525
Si Si4 0.250000 0.500000 0.455777
O O1 0.062942 0.287334 0.052176
O O2 0.000000 0.267148 0.500000
O O3 0.038059 0.000000 0.271088
O O4 0.092493 0.213203 0.551678
O O5 0.750000 0.807090 0.946800
O O6 0.807249 0.000000 0.658967
O O7 0.846249 0.777376 0.997974
O O8 0.792619 0.651984 0.577039
O O9 0.617850 0.500000 0.217639
#
# Coordination Sequence:
#
# PCOD9407209 Si02
#       4
#     8   8   8   2
#     4  11  25  43  64  91 126 167 215 266 322 382
#     4   9  17  33  59  89 127 165 207 257 314 376
#     4  12  23  41  65  94 127 167 214 264 317 382
#     4   8  14  32  56  88 126 162 210 258 304 376
#
# _framework density 25.483431
#
# number of rings (size 3 to 8) (size 9 to 14) (size 15 to 20)
#    0.923    0.615    1.538    4.615    0.000    6.154 
#    0.000    1.538    0.000   11.077    0.000    0.000 
#    0.000    0.000    0.000    0.000    0.000    0.000 
#
# Total GULP energy -144984.149876 kJ/mol
# GULP energy per Si atom -5576.313457 kJ/mol
# Density = 2.542543 g / cm^3
# Si number density = 25.483431 Si / 1000 Ang^3
#
#
#
# Elastic Constant Matrix: (Units=GPa)
#
#
# Indices 1 2 3 4 5 6 
#
# 1 98.0405 24.1249 27.6853 0.0000 0.0000 0.0000
# 2 24.1249 171.2483 20.9726 0.0000 0.0000 0.0000
# 3 27.6853 20.9726 104.9847 0.0000 0.0000 0.0000
# 4 0.0000 0.0000 0.0000 14.6484 0.0000 0.0000
# 5 0.0000 0.0000 0.0000 0.0000 27.2474 0.0000
# 6 0.0000 0.0000 0.0000 0.0000 0.0000 25.0505
#
#
#
# Elastic Compliance Matrix: (Units=1/GPa)
#
#
# Indices 1 2 3 4 5 6 
#
# 1 0.011278 -0.001255 -0.002723 0.000000 0.000000 0.000000
# 2 -0.001255 0.006126 -0.000893 0.000000 0.000000 0.000000
# 3 -0.002723 -0.000893 0.010422 0.000000 0.000000 0.000000
# 4 0.000000 0.000000 0.000000 0.068267 0.000000 0.000000
# 5 0.000000 0.000000 0.000000 0.000000 0.036701 0.000000
# 6 0.000000 0.000000 0.000000 0.000000 0.000000 0.039919
#
#
# Mechanical properties :
#
#
# Convention : Reuss Voigt Hill
#
# Bulk Modulus (GPa) = 55.30166 57.75990 56.53078
# Shear Modulus (GPa) = 26.52775 33.48865 30.00820
#
# Velocity S-wave (km/s) = 3.22992 3.62903 3.43528
# Velocity P-wave (km/s) = 5.97143 6.34624 6.16168
#
# Compressibility (1/GPa) = 0.01808264
#
# Stress axis : x y z
#
# Youngs Moduli (GPa) = 88.67009 163.24837 95.95382
#
# Poissons Ratio (x) = 0.20492 0.26131
# Poissons Ratio (y) = 0.11130 0.08566
# Poissons Ratio (z) = 0.24147 0.14573
#
# Static dielectric constant tensor:
#      x y z
#    x 2.118070 0.000000 0.000000 
#    y 0.000000 1.933670 0.000000 
#    z 0.000000 0.000000 1.969470 
# 
# From -- ./inp_files/1189.got.cif
#   From: 2010.05.17/outbox.cif.g08.bks.cpg/sg51_1_cif.got.tgz:1189.got - 2010.06.03 11:52:47.
