data_PCOD9407976
_publ_section_title
;
Structure prediction by ZEFSAII (Michael W. Deem and Ramdas Pophale) SiO2 
 PCOD9407976
Probable space group: P N N A
;
_chemical_formula_sum "Si O2"
_cell_formula_units_Z 52
_cell_length_a 9.741807
_cell_length_b 19.623008
_cell_length_c 16.666117
_cell_angle_alpha 90.000000
_cell_angle_beta 90.000000
_cell_angle_gamma 90.000000
_cell_volume 3185.954202
_symmetry_space_group_name_H-M "P N N A"
_symmetry_group_IT_number 52
_symmetry_cell_setting 'orthorhombic'
loop_
_space_group_symop_operation_xyz
x,y,z
1/2-x,-y,z
x,1/2-y,1/2-z
1/2-x,1/2+y,1/2-z
-x,-y,-z
1/2+x,y,-z
-x,1/2+y,1/2+z
1/2+x,1/2-y,1/2+z
loop_
_atom_site_type_symbol
_atom_site_label
_atom_site_fract_x
_atom_site_fract_y
_atom_site_fract_z
Si Si1 0.257059 0.423352 0.271861
Si Si2 0.265177 0.642057 0.864367
Si Si3 0.160366 0.714861 0.332450
Si Si4 0.461513 0.589522 0.135193
Si Si5 0.952510 0.066195 0.618064
Si Si6 0.890324 0.750000 0.250000
Si Si7 0.254819 0.326243 0.041398
O O1 0.250000 0.500000 0.304989
O O2 0.287464 0.362234 0.332233
O O3 0.120350 0.409873 0.219534
O O4 0.377357 0.421933 0.203987
O O5 0.391198 0.589842 0.875703
O O6 0.302576 0.691620 0.791505
O O7 0.120238 0.605449 0.853504
O O8 0.257451 0.684259 0.947246
O O9 0.217861 0.750000 0.250000
O O10 0.201688 0.760834 0.407222
O O11 0.996952 0.719972 0.316156
O O12 0.440671 0.513609 0.099794
O O13 0.385514 0.643572 0.078310
O O14 0.867918 0.114494 0.558132
#
# Coordination Sequence:
#
# PCOD9407976 Si02
#       7
#     8   8   8   8   8   4   8
#     4   9  17  33  56  77  98 136 186 215 255 318
#     4  12  22  32  48  78 105 140 180 217 262 311
#     4  10  16  35  58  69  99 145 176 216 252 327
#     4  10  21  29  49  76 111 136 170 222 246 309
#     4  10  18  35  47  72 110 149 169 194 267 326
#     4  10  20  36  54  68 106 146 180 208 270 324
#     4  11  21  33  52  75 103 141 188 211 251 313
#
# _framework density 16.321639999999999
#
# number of rings (size 3 to 8) (size 9 to 14) (size 15 to 20)
#    0.462    1.231    6.154    2.769    0.000    4.923 
#    0.000    0.000    0.000    0.000    0.000    3.231 
#    0.000    0.000    0.000    0.000    0.000    0.000 
#
# Total GULP energy -290010.193584 kJ/mol
# GULP energy per Si atom -5577.119107 kJ/mol
# Density = 1.628449 g / cm^3
# Si number density = 16.321640 Si / 1000 Ang^3
#
#
#
# Elastic Constant Matrix: (Units=GPa)
#
#
# Indices 1 2 3 4 5 6 
#
# 1 113.6953 25.5362 16.1820 0.0000 0.0000 0.0000
# 2 25.5362 87.9177 34.9201 0.0000 0.0000 0.0000
# 3 16.1820 34.9201 47.0439 0.0000 0.0000 0.0000
# 4 0.0000 0.0000 0.0000 12.8743 0.0000 0.0000
# 5 0.0000 0.0000 0.0000 0.0000 8.0240 0.0000
# 6 0.0000 0.0000 0.0000 0.0000 0.0000 24.2010
#
#
#
# Elastic Compliance Matrix: (Units=1/GPa)
#
#
# Indices 1 2 3 4 5 6 
#
# 1 0.009508 -0.002074 -0.001731 0.000000 0.000000 0.000000
# 2 -0.002074 0.016582 -0.011595 0.000000 0.000000 0.000000
# 3 -0.001731 -0.011595 0.030459 0.000000 0.000000 0.000000
# 4 0.000000 0.000000 0.000000 0.077674 0.000000 0.000000
# 5 0.000000 0.000000 0.000000 0.000000 0.124627 0.000000
# 6 0.000000 0.000000 0.000000 0.000000 0.000000 0.041321
#
#
# Mechanical properties :
#
#
# Convention : Reuss Voigt Hill
#
# Bulk Modulus (GPa) = 38.83722 44.65931 41.74826
# Shear Modulus (GPa) = 14.72518 20.48774 17.60646
#
# Velocity S-wave (km/s) = 3.00690 3.54679 3.28795
# Velocity P-wave (km/s) = 5.99182 6.64789 6.32836
#
# Compressibility (1/GPa) = 0.02574850
#
# Stress axis : x y z
#
# Youngs Moduli (GPa) = 105.17873 60.30528 32.83079
#
# Poissons Ratio (x) = 0.12508 0.05683
# Poissons Ratio (y) = 0.21815 0.38069
# Poissons Ratio (z) = 0.18205 0.69926
#
# Static dielectric constant tensor:
#      x y z
#    x 1.565410 0.000000 0.000000 
#    y 0.000000 1.553790 0.000000 
#    z 0.000000 0.000000 1.532100 
# 
# From -- ./inp_files/24908.got.cif
#   From: 2010.05.17/outbox.cif.g08.bks.cpg/sg52_13_cif.got.tgz:24908.got - 2010.06.03 12:15:38.
