data_PCOD9407812
_publ_section_title
;
Structure prediction by ZEFSAII (Michael W. Deem and Ramdas Pophale) SiO2 
 PCOD9407812
Probable space group: P M M A
;
_chemical_formula_sum "Si O2"
_cell_formula_units_Z 48
_cell_length_a 15.000000
_cell_length_b 18.000000
_cell_length_c 9.000000
_cell_angle_alpha 90.000000
_cell_angle_beta 90.000000
_cell_angle_gamma 90.000000
_cell_volume 2430.000000
_symmetry_space_group_name_H-M "P M M A"
_symmetry_group_IT_number 51
_symmetry_cell_setting 'orthorhombic'
loop_
_space_group_symop_operation_xyz
x,y,z
1/2-x,-y,z
1/2+x,-y,-z
-x,y,-z
-x,-y,-z
1/2+x,y,-z
1/2-x,y,z
x,-y,z
loop_
_atom_site_type_symbol
_atom_site_label
_atom_site_fract_x
_atom_site_fract_y
_atom_site_fract_z
Si Si1 0.855848 0.202279 0.857558
Si Si2 0.647085 0.582329 0.597596
Si Si3 0.973498 0.353321 0.839453
Si Si4 0.025770 0.085915 0.328280
Si Si5 0.149033 0.694400 0.669631
Si Si6 0.850023 0.145766 0.199333
O O1 0.750000 0.212061 0.821728
O O2 0.912016 0.278861 0.850647
O O3 0.904008 0.142896 0.747633
O O4 0.860188 0.174704 0.029468
O O5 0.750000 0.585062 0.647618
O O6 0.633615 0.500000 0.527008
O O7 0.580400 0.592178 0.733171
O O8 0.635409 0.652359 0.486900
O O9 0.067773 0.332903 0.767601
O O10 0.000000 0.382906 0.000000
O O11 0.000000 0.103305 0.500000
O O12 0.933012 0.094417 0.238533
O O13 0.057052 0.000000 0.322038
O O14 0.250000 0.673771 0.719248
O O15 0.145472 0.783584 0.687517
O O16 0.750000 0.113568 0.212843
#
# Coordination Sequence:
#
# PCOD9407812 Si02
#       6
#     8   8   8   8   8   8
#     4  11  23  41  65  93 125 166 213 260 313 371
#     4  10  24  44  64  92 129 170 214 259 313 380
#     4  12  22  37  64  95 128 165 211 264 315 372
#     4  11  25  42  62  93 130 166 207 257 315 374
#     4  10  21  38  63  92 124 161 207 262 313 371
#     4  10  21  40  64  93 124 162 215 263 312 373
#
# _framework density 19.753086
#
# number of rings (size 3 to 8) (size 9 to 14) (size 15 to 20)
#    0.000    1.333    3.333    1.500    2.333    5.000 
#    0.000    3.333    0.000    2.000    0.000    0.000 
#    0.000    0.000    0.000    0.000    0.000    0.000 
#
# Total GULP energy -267973.183713 kJ/mol
# GULP energy per Si atom -5582.774661 kJ/mol
# Density = 1.970813 g / cm^3
# Si number density = 19.753086 Si / 1000 Ang^3
#
#
#
# Elastic Constant Matrix: (Units=GPa)
#
#
# Indices 1 2 3 4 5 6 
#
# 1 108.6663 4.6100 42.6563 0.0000 0.0000 0.0000
# 2 4.6100 54.0397 24.4296 0.0000 0.0000 0.0000
# 3 42.6563 24.4296 68.8910 0.0000 0.0000 0.0000
# 4 0.0000 0.0000 0.0000 14.4070 0.0000 0.0000
# 5 0.0000 0.0000 0.0000 0.0000 35.1084 0.0000
# 6 0.0000 0.0000 0.0000 0.0000 0.0000 24.9713
#
#
#
# Elastic Compliance Matrix: (Units=1/GPa)
#
#
# Indices 1 2 3 4 5 6 
#
# 1 0.012529 0.002904 -0.008787 0.000000 0.000000 0.000000
# 2 0.002904 0.022711 -0.009851 0.000000 0.000000 0.000000
# 3 -0.008787 -0.009851 0.023450 0.000000 0.000000 0.000000
# 4 0.000000 0.000000 0.000000 0.069411 0.000000 0.000000
# 5 0.000000 0.000000 0.000000 0.000000 0.028483 0.000000
# 6 0.000000 0.000000 0.000000 0.000000 0.000000 0.040046
#
#
# Mechanical properties :
#
#
# Convention : Reuss Voigt Hill
#
# Bulk Modulus (GPa) = 36.73842 41.66541 39.20192
# Shear Modulus (GPa) = 21.08172 25.55742 23.31957
#
# Velocity S-wave (km/s) = 3.27044 3.60091 3.43965
# Velocity P-wave (km/s) = 5.73587 6.19900 5.97193
#
# Compressibility (1/GPa) = 0.02721946
#
# Stress axis : x y z
#
# Youngs Moduli (GPa) = 79.81689 44.03208 42.64385
#
# Poissons Ratio (x) = -0.12785 0.37472
# Poissons Ratio (y) = -0.23176 0.42010
# Poissons Ratio (z) = 0.70137 0.43378
#
# Static dielectric constant tensor:
#      x y z
#    x 1.683970 0.000000 0.000000 
#    y 0.000000 1.713680 0.000000 
#    z 0.000000 0.000000 1.707090 
# 
# From -- ./inp_files/8221.got.cif
#   From: 2010.05.17/outbox.ucp.g08.bks.cvg/sg51_5_cif.got.tgz:8221.got - 2010.06.11 16:27:58.
