data_PCOD9407829
_publ_section_title
;
Structure prediction by ZEFSAII (Michael W. Deem and Ramdas Pophale) SiO2 
 PCOD9407829
Probable space group: P M M A
;
_chemical_formula_sum "Si O2"
_cell_formula_units_Z 64
_cell_length_a 24.000000
_cell_length_b 15.000000
_cell_length_c 9.000000
_cell_angle_alpha 90.000000
_cell_angle_beta 90.000000
_cell_angle_gamma 90.000000
_cell_volume 3240.000000
_symmetry_space_group_name_H-M "P M M A"
_symmetry_group_IT_number 51
_symmetry_cell_setting 'orthorhombic'
loop_
_space_group_symop_operation_xyz
x,y,z
1/2-x,-y,z
1/2+x,-y,-z
-x,y,-z
-x,-y,-z
1/2+x,y,-z
1/2-x,y,z
x,-y,z
loop_
_atom_site_type_symbol
_atom_site_label
_atom_site_fract_x
_atom_site_fract_y
_atom_site_fract_z
Si Si1 0.032053 0.398607 0.845918
Si Si2 0.386356 0.242990 0.813284
Si Si3 0.348093 0.722551 0.492173
Si Si4 0.316735 0.776901 0.086936
Si Si5 0.183624 0.901744 0.344757
Si Si6 0.486820 0.104447 0.824720
Si Si7 0.466384 0.741896 0.351552
Si Si8 0.185646 0.400630 0.252620
O O1 0.045851 0.500000 0.796482
O O2 0.994820 0.341979 0.729933
O O3 0.081954 0.329784 0.875266
O O4 0.000000 0.405624 0.000000
O O5 0.359456 0.279186 0.664023
O O6 0.430522 0.162042 0.792837
O O7 0.339908 0.210886 0.925104
O O8 0.325739 0.821601 0.459079
O O9 0.406357 0.716047 0.407168
O O10 0.314604 0.642146 0.417747
O O11 0.250000 0.776095 0.091925
O O12 0.336305 0.858001 0.190778
O O13 0.336338 0.681067 0.151879
O O14 0.250000 0.910875 0.333241
O O15 0.159941 0.000000 0.376311
O O16 0.532098 0.168601 0.746643
O O17 0.484764 0.000000 0.777995
O O18 0.500000 0.105850 0.000000
O O19 0.500000 0.763964 0.500000
O O20 0.250000 0.409827 0.208311
O O21 0.159863 0.500000 0.244057
#
# Coordination Sequence:
#
# PCOD9407829 Si02
#       8
#     8   8   8   8   8   8   8   8
#     4  10  23  40  59  81 111 152 191 232 279 326
#     4  11  22  39  56  83 120 143 185 235 277 335
#     4  11  22  35  58  86 114 150 185 223 283 334
#     4   9  20  37  61  85 110 146 183 231 285 330
#     4   9  20  39  60  84 112 144 188 232 273 332
#     4  10  23  40  59  81 111 152 191 232 279 326
#     4  11  21  40  56  83 118 148 183 229 274 336
#     4   9  20  39  60  84 112 144 188 232 273 332
#
# _framework density 19.753086
#
# number of rings (size 3 to 8) (size 9 to 14) (size 15 to 20)
#    0.000    2.000    2.500    2.625    7.000    4.500 
#    0.000    0.000    0.000    3.000    0.000    0.000 
#    0.000    0.000    0.000    0.000    0.000    0.000 
#
# Total GULP energy -356324.833302 kJ/mol
# GULP energy per Si atom -5567.575520 kJ/mol
# Density = 1.970813 g / cm^3
# Si number density = 19.753086 Si / 1000 Ang^3
#
#
#
# Elastic Constant Matrix: (Units=GPa)
#
#
# Indices 1 2 3 4 5 6 
#
# 1 27.9084 -2.6176 11.1689 0.0000 0.0000 0.0000
# 2 -2.6176 71.0318 -46.1746 0.0000 0.0000 0.0000
# 3 11.1689 -46.1746 21.7441 0.0000 0.0000 0.0000
# 4 0.0000 0.0000 0.0000 -2.4785 0.0000 0.0000
# 5 0.0000 0.0000 0.0000 0.0000 36.6937 0.0000
# 6 0.0000 0.0000 0.0000 0.0000 0.0000 2.5730
#
#
#
# Elastic Compliance Matrix: (Units=1/GPa)
#
#
# Indices 1 2 3 4 5 6 
#
# 1 0.025875 0.020204 0.029614 0.000000 0.000000 0.000000
# 2 0.020204 -0.021230 -0.055461 0.000000 0.000000 0.000000
# 3 0.029614 -0.055461 -0.086996 0.000000 0.000000 0.000000
# 4 0.000000 0.000000 0.000000 -0.403470 0.000000 0.000000
# 5 0.000000 0.000000 0.000000 0.000000 0.027253 0.000000
# 6 0.000000 0.000000 0.000000 0.000000 0.000000 0.388654
#
#
# Mechanical properties :
#
#
# Convention : Reuss Voigt Hill
#
# Bulk Modulus (GPa) = -10.67956 5.04865 -2.81545
# Shear Modulus (GPa) = -55.65360 17.91148 -18.87106
#
# Velocity S-wave (km/s) = -5.31374 3.01453 -3.09422
# Velocity P-wave (km/s) = 6.56247 3.83118 3.76750
#
# Compressibility (1/GPa) = -0.09363686
#
# Stress axis : x y z
#
# Youngs Moduli (GPa) = 38.64746 -47.10297 -11.49472
#
# Poissons Ratio (x) = 0.95169 0.34041
# Poissons Ratio (y) = -0.78085 -0.63751
# Poissons Ratio (z) = -1.14451 -2.61239
#
# Static dielectric constant tensor:
#      x y z
#    x 1.711510 0.000000 0.000000 
#    y 0.000000 1.696770 0.000000 
#    z 0.000000 0.000000 1.708020 
# 
# From -- ./inp_files/11912.got.cif
#   From: 2010.05.17/outbox.ucp.g08.bks.cvg/sg51_6_cif.got.tgz:11912.got - 2010.06.11 16:27:58.
