data_PCOD9407897
_publ_section_title
;
Structure prediction by ZEFSAII (Michael W. Deem and Ramdas Pophale) SiO2 
 PCOD9407897
Probable space group: P N N A
;
_chemical_formula_sum "Si O2"
_cell_formula_units_Z 44
_cell_length_a 13.249994
_cell_length_b 10.450670
_cell_length_c 19.449028
_cell_angle_alpha 90.000000
_cell_angle_beta 90.000000
_cell_angle_gamma 90.000000
_cell_volume 2693.132479
_symmetry_space_group_name_H-M "P N N A"
_symmetry_group_IT_number 52
_symmetry_cell_setting 'orthorhombic'
loop_
_space_group_symop_operation_xyz
x,y,z
1/2-x,-y,z
x,1/2-y,1/2-z
1/2-x,1/2+y,1/2-z
-x,-y,-z
1/2+x,y,-z
-x,1/2+y,1/2+z
1/2+x,1/2-y,1/2+z
loop_
_atom_site_type_symbol
_atom_site_label
_atom_site_fract_x
_atom_site_fract_y
_atom_site_fract_z
Si Si1 0.767835 0.355742 0.808459
Si Si2 0.133846 0.233971 0.075215
Si Si3 0.060420 0.862175 0.420498
Si Si4 0.854940 0.551219 0.037842
Si Si5 0.557153 0.629657 0.481417
Si Si6 0.750000 0.500000 0.513433
O O1 0.750000 0.500000 0.782296
O O2 0.778289 0.250000 0.750000
O O3 0.678031 0.308325 0.859512
O O4 0.867715 0.363818 0.855452
O O5 0.013685 0.204386 0.073155
O O6 0.157897 0.321921 0.008699
O O7 0.191231 0.100851 0.061636
O O8 0.057363 0.720350 0.451817
O O9 0.947946 0.918482 0.411845
O O10 0.109387 0.946627 0.481665
O O11 0.750000 0.500000 0.067655
O O12 0.500000 0.500000 0.500000
O O13 0.670906 0.582864 0.468559
#
# Coordination Sequence:
#
# PCOD9407897 Si02
#       6
#     8   8   8   8   8   4
#     4  12  24  37  52  75 112 153 192 228 276 349
#     4  10  18  31  46  73 108 137 181 217 278 337
#     4  10  18  31  49  75 107 137 172 221 278 331
#     4  10  16  29  54  77 107 129 167 234 283 327
#     4   9  18  26  47  72 105 138 167 223 277 336
#     4  10  16  28  46  72 108 140 164 216 290 334
#
# _framework density 16.337852999999999
#
# number of rings (size 3 to 8) (size 9 to 14) (size 15 to 20)
#    0.000    1.818    5.455    0.000    1.273    0.000 
#    0.000    0.000    0.000    0.000    0.000    1.273 
#   13.636    0.000    0.000    0.000    0.000    0.000 
#
# Total GULP energy -245003.002809 kJ/mol
# GULP energy per Si atom -5568.250064 kJ/mol
# Density = 1.630067 g / cm^3
# Si number density = 16.337853 Si / 1000 Ang^3
#
#
#
# Elastic Constant Matrix: (Units=GPa)
#
#
# Indices 1 2 3 4 5 6 
#
# 1 133.5289 31.6571 30.7159 0.0000 0.0000 0.0000
# 2 31.6571 115.4034 26.1109 0.0000 0.0000 0.0000
# 3 30.7159 26.1109 48.1344 0.0000 0.0000 0.0000
# 4 0.0000 0.0000 0.0000 20.1421 0.0000 0.0000
# 5 0.0000 0.0000 0.0000 0.0000 11.0527 0.0000
# 6 0.0000 0.0000 0.0000 0.0000 0.0000 40.4388
#
#
#
# Elastic Compliance Matrix: (Units=1/GPa)
#
#
# Indices 1 2 3 4 5 6 
#
# 1 0.008952 -0.001326 -0.004993 0.000000 0.000000 0.000000
# 2 -0.001326 0.010074 -0.004619 0.000000 0.000000 0.000000
# 3 -0.004993 -0.004619 0.026467 0.000000 0.000000 0.000000
# 4 0.000000 0.000000 0.000000 0.049647 0.000000 0.000000
# 5 0.000000 0.000000 0.000000 0.000000 0.090475 0.000000
# 6 0.000000 0.000000 0.000000 0.000000 0.000000 0.024729
#
#
# Mechanical properties :
#
#
# Convention : Reuss Voigt Hill
#
# Bulk Modulus (GPa) = 42.34187 52.67050 47.50619
# Shear Modulus (GPa) = 20.82534 28.23225 24.52880
#
# Velocity S-wave (km/s) = 3.57412 4.16146 3.87893
# Velocity P-wave (km/s) = 6.55783 7.44303 7.01441
#
# Compressibility (1/GPa) = 0.02361729
#
# Stress axis : x y z
#
# Youngs Moduli (GPa) = 111.70728 99.26569 37.78311
#
# Poissons Ratio (x) = 0.13162 0.18866
# Poissons Ratio (y) = 0.14812 0.17451
# Poissons Ratio (z) = 0.55778 0.45847
#
# Static dielectric constant tensor:
#      x y z
#    x 1.630890 0.000000 0.000000 
#    y 0.000000 1.600030 0.000000 
#    z 0.000000 0.000000 1.497510 
# 
# From -- ./inp_files/32949.got.cif
#   From: 2010.05.17/outbox.cif.g08.bks.cpg/sg52_17_cif.got.tgz:32949.got - 2010.06.03 12:15:38.
