data_PCOD9407613
_publ_section_title
;
Structure prediction by ZEFSAII (Michael W. Deem and Ramdas Pophale) SiO2 
 PCOD9407613
Probable space group: P M M A
;
_chemical_formula_sum "Si O2"
_cell_formula_units_Z 64
_cell_length_a 9.000000
_cell_length_b 18.000000
_cell_length_c 21.000000
_cell_angle_alpha 90.000000
_cell_angle_beta 90.000000
_cell_angle_gamma 90.000000
_cell_volume 3402.000000
_symmetry_space_group_name_H-M "P M M A"
_symmetry_group_IT_number 51
_symmetry_cell_setting 'orthorhombic'
loop_
_space_group_symop_operation_xyz
x,y,z
1/2-x,-y,z
1/2+x,-y,-z
-x,y,-z
-x,-y,-z
1/2+x,y,-z
1/2-x,y,z
x,-y,z
loop_
_atom_site_type_symbol
_atom_site_label
_atom_site_fract_x
_atom_site_fract_y
_atom_site_fract_z
Si Si1 0.922637 0.286814 0.437892
Si Si2 0.071057 0.419054 0.903224
Si Si3 0.076675 0.629001 0.223836
Si Si4 0.572148 0.252897 0.063409
Si Si5 0.928152 0.084019 0.709357
Si Si6 0.583684 0.419747 0.340266
Si Si7 0.428439 0.786356 0.793021
Si Si8 0.072067 0.127709 0.433154
O O1 0.250000 0.267174 0.550696
O O2 0.013078 0.211862 0.424115
O O3 0.000000 0.319565 0.500000
O O4 0.928689 0.348812 0.384615
O O5 0.250000 0.418071 0.904442
O O6 0.021795 0.500000 0.928722
O O7 0.021413 0.339693 0.931758
O O8 0.011262 0.412131 0.831891
O O9 0.250000 0.633756 0.208816
O O10 0.042748 0.586327 0.288189
O O11 0.006440 0.711046 0.230888
O O12 0.750000 0.252662 0.057066
O O13 0.537021 0.213442 0.130823
O O14 0.500000 0.220039 0.000000
O O15 0.750000 0.097042 0.713653
O O16 0.966994 0.089421 0.634004
O O17 0.011303 0.144646 0.752374
O O18 0.959522 0.000000 0.730995
O O19 0.750000 0.415979 0.310144
O O20 0.575266 0.500000 0.373433
O O21 0.250000 0.780232 0.786347
O O22 0.250000 0.125138 0.440071
O O23 0.000000 0.100684 0.500000
#
# Coordination Sequence:
#
# PCOD9407613 Si02
#       8
#     8   8   8   8   8   8   8   8
#     4  10  20  34  52  71  93 126 170 217 263 314
#     4   9  18  33  50  70 104 146 181 219 270 323
#     4  11  21  32  50  76 102 132 175 223 268 315
#     4   9  19  34  53  79 108 141 184 230 275 324
#     4  10  22  39  59  87 120 147 174 216 268 315
#     4  10  21  35  49  67  95 132 172 218 274 329
#     4  10  21  38  59  82 109 144 184 222 264 322
#     4  10  20  35  56  81 111 146 181 217 258 310
#
# _framework density 18.812463000000001
#
# number of rings (size 3 to 8) (size 9 to 14) (size 15 to 20)
#    0.000    2.125    0.000    4.875    0.000    9.500 
#    0.000    0.000    0.000    0.375    0.000    0.000 
#    0.000    0.000    0.000    0.000    0.000    0.000 
#
# Total GULP energy -356829.674590 kJ/mol
# GULP energy per Si atom -5575.463665 kJ/mol
# Density = 1.876965 g / cm^3
# Si number density = 18.812463 Si / 1000 Ang^3
#
#
#
# Elastic Constant Matrix: (Units=GPa)
#
#
# Indices 1 2 3 4 5 6 
#
# 1 6.2656 12.8028 20.9074 0.0000 0.0000 0.0000
# 2 12.8028 76.9786 43.3518 0.0000 0.0000 0.0000
# 3 20.9074 43.3518 87.4477 0.0000 0.0000 0.0000
# 4 0.0000 0.0000 0.0000 -63.9580 0.0000 0.0000
# 5 0.0000 0.0000 0.0000 0.0000 28.3645 0.0000
# 6 0.0000 0.0000 0.0000 0.0000 0.0000 7.9912
#
#
#
# Elastic Compliance Matrix: (Units=1/GPa)
#
#
# Indices 1 2 3 4 5 6 
#
# 1 0.862157 -0.037883 -0.187348 0.000000 0.000000 0.000000
# 2 -0.037883 0.019687 -0.000702 0.000000 0.000000 0.000000
# 3 -0.187348 -0.000702 0.056576 0.000000 0.000000 0.000000
# 4 0.000000 0.000000 0.000000 -0.015635 0.000000 0.000000
# 5 0.000000 0.000000 0.000000 0.000000 0.035255 0.000000
# 6 0.000000 0.000000 0.000000 0.000000 0.000000 0.125138
#
#
# Mechanical properties :
#
#
# Convention : Reuss Voigt Hill
#
# Bulk Modulus (GPa) = 2.05528 36.09065 19.07296
# Shear Modulus (GPa) = 2.94598 0.72155 1.83376
#
# Velocity S-wave (km/s) = 1.25275 0.61998 0.98837
# Velocity P-wave (km/s) = 1.78532 4.44281 3.38570
#
# Compressibility (1/GPa) = 0.48655275
#
# Stress axis : x y z
#
# Youngs Moduli (GPa) = 1.15988 50.79569 17.67541
#
# Poissons Ratio (x) = 1.92427 3.31146
# Poissons Ratio (y) = 0.04394 0.01242
# Poissons Ratio (z) = 0.21730 0.03568
#
# Static dielectric constant tensor:
#      x y z
#    x 1.640090 0.000000 0.000000 
#    y 0.000000 1.656190 0.000000 
#    z 0.000000 0.000000 1.690780 
# 
# From -- ./inp_files/32400.got.cif
#   From: 2010.05.17/outbox.ucp.g08.bks.cvg/sg51_17_cif.got.tgz:32400.got - 2010.06.11 16:27:58.
