data_PCOD9407148
_publ_section_title
;
Structure prediction by ZEFSAII (Michael W. Deem and Ramdas Pophale) SiO2 
 PCOD9407148
Probable space group: P M M A
;
_chemical_formula_sum "Si O2"
_cell_formula_units_Z 48
_cell_length_a 15.763672
_cell_length_b 15.775641
_cell_length_c 10.220140
_cell_angle_alpha 90.000000
_cell_angle_beta 90.000000
_cell_angle_gamma 90.000000
_cell_volume 2541.565165
_symmetry_space_group_name_H-M "P M M A"
_symmetry_group_IT_number 51
_symmetry_cell_setting 'orthorhombic'
loop_
_space_group_symop_operation_xyz
x,y,z
1/2-x,-y,z
1/2+x,-y,-z
-x,y,-z
-x,-y,-z
1/2+x,y,-z
1/2-x,y,z
x,-y,z
loop_
_atom_site_type_symbol
_atom_site_label
_atom_site_fract_x
_atom_site_fract_y
_atom_site_fract_z
Si Si1 0.846039 0.794673 0.264533
Si Si2 0.851842 0.500000 0.078224
Si Si3 0.851958 0.500000 0.382002
Si Si4 0.100480 0.678071 0.499234
Si Si5 0.154290 0.224902 0.254098
Si Si6 0.494406 0.900855 0.341775
Si Si7 0.899553 0.311432 0.011298
O O1 0.750000 0.827414 0.253015
O O2 0.855135 0.739000 0.395689
O O3 0.919117 0.864993 0.278020
O O4 0.865891 0.731810 0.144074
O O5 0.750000 0.500000 0.076753
O O6 0.880463 0.500000 0.230425
O O7 0.881750 0.412073 0.014344
O O8 0.750000 0.500000 0.381891
O O9 0.883952 0.583059 0.454932
O O10 0.137107 0.700292 0.358140
O O11 0.000000 0.694971 0.500000
O O12 0.250000 0.192529 0.270358
O O13 0.083886 0.154305 0.287587
O O14 0.142259 0.264103 0.111022
O O15 0.500000 0.891494 0.500000
O O16 0.483465 0.000000 0.313260
O O17 0.000000 0.298538 0.000000
#
# Coordination Sequence:
#
# PCOD9407148 Si02
#       7
#     8   4   4   8   8   8   8
#     4  12  22  42  70  96 128 173 218 259 317 388
#     4  11  23  39  61  95 128 169 229 268 305 376
#     4  11  23  37  61  95 126 171 227 270 311 368
#     4  12  22  41  63  92 130 173 216 267 316 375
#     4  12  24  42  66  97 133 170 212 266 330 384
#     4  11  24  44  70 101 133 165 211 271 327 389
#     4  12  24  43  66  94 132 178 217 265 323 380
#
# _framework density 18.885999999999999
#
# number of rings (size 3 to 8) (size 9 to 14) (size 15 to 20)
#    0.000    0.333    6.667    3.500    0.000    1.333 
#    0.000    5.000    0.000    2.000    0.000    0.000 
#    0.000    0.000    0.000    0.000    0.000    0.000 
#
# Total GULP energy -268453.388715 kJ/mol
# GULP energy per Si atom -5592.778932 kJ/mol
# Density = 1.884301 g / cm^3
# Si number density = 18.886000 Si / 1000 Ang^3
#
#
#
# Elastic Constant Matrix: (Units=GPa)
#
#
# Indices 1 2 3 4 5 6 
#
# 1 158.2788 38.8955 19.2528 0.0000 0.0000 0.0000
# 2 38.8955 119.9646 14.0081 0.0000 0.0000 0.0000
# 3 19.2528 14.0081 66.2017 0.0000 0.0000 0.0000
# 4 0.0000 0.0000 0.0000 19.4476 0.0000 0.0000
# 5 0.0000 0.0000 0.0000 0.0000 20.7239 0.0000
# 6 0.0000 0.0000 0.0000 0.0000 0.0000 3.0976
#
#
#
# Elastic Compliance Matrix: (Units=1/GPa)
#
#
# Indices 1 2 3 4 5 6 
#
# 1 0.007027 -0.002091 -0.001601 0.000000 0.000000 0.000000
# 2 -0.002091 0.009169 -0.001332 0.000000 0.000000 0.000000
# 3 -0.001601 -0.001332 0.015853 0.000000 0.000000 0.000000
# 4 0.000000 0.000000 0.000000 0.051420 0.000000 0.000000
# 5 0.000000 0.000000 0.000000 0.000000 0.048253 0.000000
# 6 0.000000 0.000000 0.000000 0.000000 0.000000 0.322834
#
#
# Mechanical properties :
#
#
# Convention : Reuss Voigt Hill
#
# Bulk Modulus (GPa) = 45.45401 54.30642 49.88022
# Shear Modulus (GPa) = 10.59460 26.80639 18.70050
#
# Velocity S-wave (km/s) = 2.37106 3.77155 3.15012
# Velocity P-wave (km/s) = 5.62279 6.91256 6.30076
#
# Compressibility (1/GPa) = 0.02200026
#
# Stress axis : x y z
#
# Youngs Moduli (GPa) = 142.31613 109.05876 63.08027
#
# Poissons Ratio (x) = 0.22807 0.10099
# Poissons Ratio (y) = 0.29762 0.08402
# Poissons Ratio (z) = 0.22785 0.14527
#
# Static dielectric constant tensor:
#      x y z
#    x 1.654630 0.000000 0.000000 
#    y 0.000000 1.626240 0.000000 
#    z 0.000000 0.000000 1.635460 
# 
# From -- ./inp_files/8315.got.cif
#   From: 2010.05.17/outbox.cif.g08.bks.cpg/sg51_5_cif.got.tgz:8315.got - 2010.06.03 11:52:47.
