data_PCOD9407610
_publ_section_title
;
Structure prediction by ZEFSAII (Michael W. Deem and Ramdas Pophale) SiO2 
 PCOD9407610
Probable space group: P M M A
;
_chemical_formula_sum "Si O2"
_cell_formula_units_Z 40
_cell_length_a 9.000000
_cell_length_b 9.000000
_cell_length_c 27.000000
_cell_angle_alpha 90.000000
_cell_angle_beta 90.000000
_cell_angle_gamma 90.000000
_cell_volume 2187.000000
_symmetry_space_group_name_H-M "P M M A"
_symmetry_group_IT_number 51
_symmetry_cell_setting 'orthorhombic'
loop_
_space_group_symop_operation_xyz
x,y,z
1/2-x,-y,z
1/2+x,-y,-z
-x,y,-z
-x,-y,-z
1/2+x,y,-z
1/2-x,y,z
x,-y,z
loop_
_atom_site_type_symbol
_atom_site_label
_atom_site_fract_x
_atom_site_fract_y
_atom_site_fract_z
Si Si1 0.931043 0.671989 0.753646
Si Si2 0.423002 0.679342 0.355354
Si Si3 0.571879 0.174146 0.854507
Si Si4 0.926205 0.175332 0.449141
Si Si5 0.077350 0.678893 0.949158
O O1 0.750000 0.674512 0.752335
O O2 0.975590 0.500000 0.759397
O O3 0.978065 0.727432 0.699291
O O4 0.979699 0.762542 0.801525
O O5 0.250000 0.723396 0.360747
O O6 0.428032 0.500000 0.355370
O O7 0.513558 0.742941 0.400893
O O8 0.750000 0.196395 0.857015
O O9 0.498710 0.255650 0.900669
O O10 0.541252 0.000000 0.857213
O O11 0.750000 0.191254 0.452947
O O12 0.000000 0.230875 0.500000
O O13 0.962347 0.000000 0.444594
O O14 0.250000 0.719437 0.950380
O O15 0.065582 0.500000 0.947194
O O16 0.000000 0.729356 0.000000
#
# Coordination Sequence:
#
# PCOD9407610 Si02
#       5
#     8   8   8   8   8
#     4   8  15  30  52  76 103 136 173 211 250 297
#     4   9  18  33  54  80 106 133 169 212 257 304
#     4  10  20  33  52  80 110 139 172 210 254 303
#     4  10  21  36  53  74 101 135 174 213 256 307
#     4  10  21  37  57  79 102 133 174 216 259 307
#
# _framework density 18.289895000000001
#
# number of rings (size 3 to 8) (size 9 to 14) (size 15 to 20)
#    0.000    2.600    0.000    3.000    0.000    5.600 
#    0.000    3.000    0.000    1.200    0.000    0.000 
#    0.000    0.000    0.000    0.000    0.000    0.000 
#
# Total GULP energy -223111.181695 kJ/mol
# GULP energy per Si atom -5577.779542 kJ/mol
# Density = 1.824827 g / cm^3
# Si number density = 18.289895 Si / 1000 Ang^3
#
#
#
# Elastic Constant Matrix: (Units=GPa)
#
#
# Indices 1 2 3 4 5 6 
#
# 1 -3.9313 23.7204 22.7182 0.0000 0.0000 0.0000
# 2 23.7204 11.5798 35.1859 0.0000 0.0000 0.0000
# 3 22.7182 35.1859 159.6015 0.0000 0.0000 0.0000
# 4 0.0000 0.0000 0.0000 91.0171 0.0000 0.0000
# 5 0.0000 0.0000 0.0000 0.0000 30.0711 0.0000
# 6 0.0000 0.0000 0.0000 0.0000 0.0000 21.6481
#
#
#
# Elastic Compliance Matrix: (Units=1/GPa)
#
#
# Indices 1 2 3 4 5 6 
#
# 1 -0.010126 0.049565 -0.009486 0.000000 0.000000 0.000000
# 2 0.049565 0.018979 -0.011239 0.000000 0.000000 0.000000
# 3 -0.009486 -0.011239 0.010094 0.000000 0.000000 0.000000
# 4 0.000000 0.000000 0.000000 0.010987 0.000000 0.000000
# 5 0.000000 0.000000 0.000000 0.000000 0.033254 0.000000
# 6 0.000000 0.000000 0.000000 0.000000 0.000000 0.046193
#
#
# Mechanical properties :
#
#
# Convention : Reuss Voigt Hill
#
# Bulk Modulus (GPa) = 13.05036 36.72213 24.88624
# Shear Modulus (GPa) = 64.72911 34.25564 49.49237
#
# Velocity S-wave (km/s) = 5.95546 4.33243 5.20756
# Velocity P-wave (km/s) = 7.37840 6.71922 7.05651
#
# Compressibility (1/GPa) = 0.07662626
#
# Stress axis : x y z
#
# Youngs Moduli (GPa) = -98.75964 52.68968 99.07184
#
# Poissons Ratio (x) = -2.61155 0.93977
# Poissons Ratio (y) = 4.89499 1.11350
# Poissons Ratio (z) = -0.93681 0.59220
#
# Static dielectric constant tensor:
#      x y z
#    x 1.618360 0.000000 0.000000 
#    y 0.000000 1.617910 0.000000 
#    z 0.000000 0.000000 1.617050 
# 
# From -- ./inp_files/31351.got.cif
#   From: 2010.05.17/outbox.ucp.g08.bks.cvg/sg51_16_cif.got.tgz:31351.got - 2010.06.11 16:27:58.
