data_PCOD9407442
_publ_section_title
;
Structure prediction by ZEFSAII (Michael W. Deem and Ramdas Pophale) SiO2 
 PCOD9407442
Probable space group: P M M A
;
_chemical_formula_sum "Si O2"
_cell_formula_units_Z 64
_cell_length_a 9.000000
_cell_length_b 24.000000
_cell_length_c 15.000000
_cell_angle_alpha 90.000000
_cell_angle_beta 90.000000
_cell_angle_gamma 90.000000
_cell_volume 3240.000000
_symmetry_space_group_name_H-M "P M M A"
_symmetry_group_IT_number 51
_symmetry_cell_setting 'orthorhombic'
loop_
_space_group_symop_operation_xyz
x,y,z
1/2-x,-y,z
1/2+x,-y,-z
-x,y,-z
-x,-y,-z
1/2+x,y,-z
1/2-x,y,z
x,-y,z
loop_
_atom_site_type_symbol
_atom_site_label
_atom_site_fract_x
_atom_site_fract_y
_atom_site_fract_z
Si Si1 0.429849 0.120015 0.090800
Si Si2 0.569656 0.062899 0.721285
Si Si3 0.072137 0.243608 0.909322
Si Si4 0.070275 0.163157 0.402700
Si Si5 0.423130 0.263871 0.270407
Si Si6 0.080749 0.431810 0.090338
Si Si7 0.421151 0.634694 0.408366
Si Si8 0.416820 0.433343 0.730308
O O1 0.250000 0.124179 0.083489
O O2 0.467386 0.086444 0.180574
O O3 0.502112 0.181338 0.098815
O O4 0.500000 0.095420 0.000000
O O5 0.750000 0.062194 0.718497
O O6 0.522776 0.105184 0.643487
O O7 0.515374 0.000000 0.709496
O O8 0.250000 0.241577 0.917168
O O9 0.020329 0.271900 0.817670
O O10 0.000000 0.267664 0.000000
O O11 0.250000 0.164396 0.411509
O O12 0.031042 0.210752 0.330367
O O13 0.000000 0.171601 0.500000
O O14 0.250000 0.255556 0.243496
O O15 0.430983 0.315564 0.337235
O O16 0.250000 0.412693 0.091040
O O17 0.081352 0.500000 0.089941
O O18 0.999727 0.413868 0.180379
O O19 0.000000 0.414221 0.000000
O O20 0.500000 0.649711 0.500000
O O21 0.250000 0.622484 0.426319
O O22 0.498770 0.583768 0.358559
O O23 0.250000 0.410875 0.728393
O O24 0.410684 0.500000 0.736064
#
# Coordination Sequence:
#
# PCOD9407442 Si02
#       8
#     8   8   8   8   8   8   8   8
#     4  10  18  32  53  78 111 147 188 231 279 339
#     4   9  18  33  53  76 108 151 190 230 285 342
#     4  11  21  34  58  88 118 151 188 229 279 338
#     4  10  20  36  57  80 108 142 185 234 284 341
#     4  10  21  40  62  86 115 149 186 231 286 339
#     4   9  16  28  50  81 116 153 194 237 282 333
#     4  11  24  41  63  88 118 151 191 241 293 347
#     4  10  21  38  60  86 119 158 199 241 288 343
#
# _framework density 19.753086
#
# number of rings (size 3 to 8) (size 9 to 14) (size 15 to 20)
#    0.000    2.000    1.250    3.750    0.000    4.500 
#    0.000    0.625    0.000    5.625    0.000    0.000 
#    0.000    0.000    0.000    0.000    0.000    0.000 
#
# Total GULP energy -357427.699324 kJ/mol
# GULP energy per Si atom -5584.807802 kJ/mol
# Density = 1.970813 g / cm^3
# Si number density = 19.753086 Si / 1000 Ang^3
#
#
#
# Elastic Constant Matrix: (Units=GPa)
#
#
# Indices 1 2 3 4 5 6 
#
# 1 127.2341 20.0905 67.1833 0.0000 0.0000 0.0000
# 2 20.0905 32.3194 15.6991 0.0000 0.0000 0.0000
# 3 67.1833 15.6991 135.7863 0.0000 0.0000 0.0000
# 4 0.0000 0.0000 0.0000 24.1998 0.0000 0.0000
# 5 0.0000 0.0000 0.0000 0.0000 37.9369 0.0000
# 6 0.0000 0.0000 0.0000 0.0000 0.0000 6.0858
#
#
#
# Elastic Compliance Matrix: (Units=1/GPa)
#
#
# Indices 1 2 3 4 5 6 
#
# 1 0.011234 -0.004538 -0.005034 0.000000 0.000000 0.000000
# 2 -0.004538 0.034616 -0.001757 0.000000 0.000000 0.000000
# 3 -0.005034 -0.001757 0.010058 0.000000 0.000000 0.000000
# 4 0.000000 0.000000 0.000000 0.041323 0.000000 0.000000
# 5 0.000000 0.000000 0.000000 0.000000 0.026360 0.000000
# 6 0.000000 0.000000 0.000000 0.000000 0.000000 0.164316
#
#
# Mechanical properties :
#
#
# Convention : Reuss Voigt Hill
#
# Bulk Modulus (GPa) = 30.07467 55.69840 42.88653
# Shear Modulus (GPa) = 15.54500 26.46895 21.00698
#
# Velocity S-wave (km/s) = 2.80833 3.66456 3.26464
# Velocity P-wave (km/s) = 5.07681 6.79440 5.99741
#
# Compressibility (1/GPa) = 0.03325058
#
# Stress axis : x y z
#
# Youngs Moduli (GPa) = 89.01546 28.88873 99.42240
#
# Poissons Ratio (x) = 0.13110 0.50045
# Poissons Ratio (y) = 0.40397 0.17466
# Poissons Ratio (z) = 0.44807 0.05075
#
# Static dielectric constant tensor:
#      x y z
#    x 1.675440 0.000000 0.000000 
#    y 0.000000 1.733110 0.000000 
#    z 0.000000 0.000000 1.661300 
# 
# From -- ./inp_files/22305.got.cif
#   From: 2010.05.17/outbox.ucp.g08.bks.cvg/sg51_12_cif.got.tgz:22305.got - 2010.06.11 16:27:58.
