data_PCOD9407866
_publ_section_title
;
Structure prediction by ZEFSAII (Michael W. Deem and Ramdas Pophale) SiO2 
 PCOD9407866
Probable space group: P N N A
;
_chemical_formula_sum "Si O2"
_cell_formula_units_Z 56
_cell_length_a 12.646198
_cell_length_b 25.230506
_cell_length_c 7.043436
_cell_angle_alpha 90.000000
_cell_angle_beta 90.000000
_cell_angle_gamma 90.000000
_cell_volume 2247.348945
_symmetry_space_group_name_H-M "P N N A"
_symmetry_group_IT_number 52
_symmetry_cell_setting 'orthorhombic'
loop_
_space_group_symop_operation_xyz
x,y,z
1/2-x,-y,z
x,1/2-y,1/2-z
1/2-x,1/2+y,1/2-z
-x,-y,-z
1/2+x,y,-z
-x,1/2+y,1/2+z
1/2+x,1/2-y,1/2+z
loop_
_atom_site_type_symbol
_atom_site_label
_atom_site_fract_x
_atom_site_fract_y
_atom_site_fract_z
Si Si1 0.378221 0.088086 0.209236
Si Si2 0.227678 0.341910 0.833137
Si Si3 0.967642 0.311572 0.214974
Si Si4 0.161649 0.123757 0.254755
Si Si5 0.191154 0.554142 0.867039
Si Si6 0.005869 0.189820 0.725844
Si Si7 0.023848 0.480181 0.213603
O O1 0.263242 0.106024 0.133345
O O2 0.350918 0.078796 0.435043
O O3 0.449462 0.139796 0.177667
O O4 0.434112 0.031322 0.171738
O O5 0.343469 0.324484 0.764241
O O6 0.224022 0.404425 0.790062
O O7 0.131239 0.311524 0.738973
O O8 0.207176 0.342150 0.063599
O O9 0.982373 0.250000 0.250000
O O10 0.062086 0.342593 0.320116
O O11 0.989363 0.323370 0.995031
O O12 0.107935 0.067060 0.302648
O O13 0.250000 0.500000 0.904614
O O14 0.089938 0.544953 0.734223
O O15 0.964546 0.250000 0.750000
O O16 0.000000 0.500000 0.000000
#
# Coordination Sequence:
#
# PCOD9407866 Si02
#       7
#     8   8   8   8   8   8   8
#     4  10  17  29  45  71 106 134 161 205 261 312
#     4  10  17  33  48  71 104 133 169 210 259 303
#     4  11  21  36  53  73 101 139 177 216 253 299
#     4  10  18  30  46  72 105 134 167 206 260 313
#     4  10  15  24  45  74 106 135 158 202 268 321
#     4  11  22  36  51  73 103 140 176 215 256 303
#     4  10  15  24  43  72 104 135 158 199 266 323
#
# _framework density 24.918248999999999
#
# number of rings (size 3 to 8) (size 9 to 14) (size 15 to 20)
#    0.000    1.714    4.286    7.714    0.000    0.571 
#    0.000    0.000    0.000    0.000    0.000    1.000 
#    0.000    0.000    0.000    0.000    0.000    0.000 
#
# Total GULP energy -312462.411583 kJ/mol
# GULP energy per Si atom -5579.685921 kJ/mol
# Density = 2.486153 g / cm^3
# Si number density = 24.918249 Si / 1000 Ang^3
#
#
#
# Elastic Constant Matrix: (Units=GPa)
#
#
# Indices 1 2 3 4 5 6 
#
# 1 167.5775 56.6947 -0.5136 0.0000 0.0000 0.0000
# 2 56.6947 155.5269 -16.4275 0.0000 0.0000 0.0000
# 3 -0.5136 -16.4275 78.4857 0.0000 0.0000 0.0000
# 4 0.0000 0.0000 0.0000 11.8252 0.0000 0.0000
# 5 0.0000 0.0000 0.0000 0.0000 9.0877 0.0000
# 6 0.0000 0.0000 0.0000 0.0000 0.0000 46.5348
#
#
#
# Elastic Compliance Matrix: (Units=1/GPa)
#
#
# Indices 1 2 3 4 5 6 
#
# 1 0.006825 -0.002539 -0.000487 0.000000 0.000000 0.000000
# 2 -0.002539 0.007520 0.001557 0.000000 0.000000 0.000000
# 3 -0.000487 0.001557 0.013064 0.000000 0.000000 0.000000
# 4 0.000000 0.000000 0.000000 0.084565 0.000000 0.000000
# 5 0.000000 0.000000 0.000000 0.000000 0.110038 0.000000
# 6 0.000000 0.000000 0.000000 0.000000 0.000000 0.021489
#
#
# Mechanical properties :
#
#
# Convention : Reuss Voigt Hill
#
# Bulk Modulus (GPa) = 40.86442 53.45526 47.15984
# Shear Modulus (GPa) = 19.63893 37.61198 28.62546
#
# Velocity S-wave (km/s) = 2.81042 3.88933 3.39303
# Velocity P-wave (km/s) = 5.19291 6.45508 5.85808
#
# Compressibility (1/GPa) = 0.02447117
#
# Stress axis : x y z
#
# Youngs Moduli (GPa) = 146.51988 132.97989 76.54655
#
# Poissons Ratio (x) = 0.33768 0.03727
# Poissons Ratio (y) = 0.37207 -0.11921
# Poissons Ratio (z) = 0.07133 -0.20710
#
# Static dielectric constant tensor:
#      x y z
#    x 2.055210 0.000000 0.000000 
#    y 0.000000 1.973080 0.000000 
#    z 0.000000 0.000000 -9.325730 
# 
# From -- ./inp_files/18349.got.cif
#   From: 2010.05.17/outbox.cif.g08.bks.cpg/sg52_10_cif.got.tgz:18349.got - 2010.06.03 12:15:38.
