data_PCOD9407488
_publ_section_title
;
Structure prediction by ZEFSAII (Michael W. Deem and Ramdas Pophale) SiO2 
 PCOD9407488
Probable space group: P M M A
;
_chemical_formula_sum "Si O2"
_cell_formula_units_Z 44
_cell_length_a 9.000000
_cell_length_b 30.000000
_cell_length_c 9.000000
_cell_angle_alpha 90.000000
_cell_angle_beta 90.000000
_cell_angle_gamma 90.000000
_cell_volume 2430.000000
_symmetry_space_group_name_H-M "P M M A"
_symmetry_group_IT_number 51
_symmetry_cell_setting 'orthorhombic'
loop_
_space_group_symop_operation_xyz
x,y,z
1/2-x,-y,z
1/2+x,-y,-z
-x,y,-z
-x,-y,-z
1/2+x,y,-z
1/2-x,y,z
x,-y,z
loop_
_atom_site_type_symbol
_atom_site_label
_atom_site_fract_x
_atom_site_fract_y
_atom_site_fract_z
Si Si1 0.571189 0.227780 0.163229
Si Si2 0.930071 0.500000 0.836671
Si Si3 0.428707 0.048075 0.335712
Si Si4 0.430025 0.416717 0.662670
Si Si5 0.929208 0.145590 0.663849
Si Si6 0.427375 0.327016 0.838337
O O1 0.750000 0.223023 0.157493
O O2 0.499475 0.187161 0.251665
O O3 0.535495 0.277645 0.223598
O O4 0.500000 0.226820 0.000000
O O5 0.750000 0.500000 0.839004
O O6 0.994029 0.543634 0.754821
O O7 0.000000 0.500000 0.000000
O O8 0.500000 0.047954 0.500000
O O9 0.250000 0.048129 0.350820
O O10 0.466849 0.096456 0.267898
O O11 0.471069 0.000000 0.265283
O O12 0.500000 0.418193 0.500000
O O13 0.250000 0.422048 0.659794
O O14 0.466354 0.368913 0.736446
O O15 0.750000 0.149708 0.657288
O O16 0.000000 0.145686 0.500000
O O17 0.250000 0.327714 0.858543
O O18 0.500000 0.331895 0.000000
#
# Coordination Sequence:
#
# PCOD9407488 Si02
#       6
#     8   4   8   8   8   8
#     4  10  20  36  55  77 105 139 177 218 264 316
#     4  12  25  42  63  88 116 150 188 226 267 316
#     4   8  14  25  42  65  94 127 164 207 255 307
#     4  11  23  40  60  86 117 149 183 223 270 316
#     4  10  19  31  49  75 104 135 171 214 263 314
#     4   9  20  37  58  81 106 138 179 221 264 316
#
# _framework density 18.106995999999999
#
# number of rings (size 3 to 8) (size 9 to 14) (size 15 to 20)
#    0.000    2.182    0.000    3.273    0.000    5.091 
#    0.000    1.818    0.000    0.545    0.000    0.000 
#    0.000    0.000    0.000    0.000    0.000    0.000 
#
# Total GULP energy -245244.740268 kJ/mol
# GULP energy per Si atom -5573.744097 kJ/mol
# Density = 1.806578 g / cm^3
# Si number density = 18.106996 Si / 1000 Ang^3
#
#
#
# Elastic Constant Matrix: (Units=GPa)
#
#
# Indices 1 2 3 4 5 6 
#
# 1 80.8053 74.5005 35.0358 0.0000 0.0000 0.0000
# 2 74.5005 234.2641 88.6512 0.0000 0.0000 0.0000
# 3 35.0358 88.6512 77.9190 0.0000 0.0000 0.0000
# 4 0.0000 0.0000 0.0000 35.7134 0.0000 0.0000
# 5 0.0000 0.0000 0.0000 0.0000 29.0558 0.0000
# 6 0.0000 0.0000 0.0000 0.0000 0.0000 29.5894
#
#
#
# Elastic Compliance Matrix: (Units=1/GPa)
#
#
# Indices 1 2 3 4 5 6 
#
# 1 0.017839 -0.004632 -0.002751 0.000000 0.000000 0.000000
# 2 -0.004632 0.008699 -0.007814 0.000000 0.000000 0.000000
# 3 -0.002751 -0.007814 0.022961 0.000000 0.000000 0.000000
# 4 0.000000 0.000000 0.000000 0.028001 0.000000 0.000000
# 5 0.000000 0.000000 0.000000 0.000000 0.034417 0.000000
# 6 0.000000 0.000000 0.000000 0.000000 0.000000 0.033796
#
#
# Mechanical properties :
#
#
# Convention : Reuss Voigt Hill
#
# Bulk Modulus (GPa) = 52.34405 87.70704 70.02554
# Shear Modulus (GPa) = 27.40099 31.85844 29.62972
#
# Velocity S-wave (km/s) = 3.89431 4.19914 4.04959
# Velocity P-wave (km/s) = 7.01369 8.48844 7.78606
#
# Compressibility (1/GPa) = 0.01910437
#
# Stress axis : x y z
#
# Youngs Moduli (GPa) = 56.05734 114.95776 43.55135
#
# Poissons Ratio (x) = 0.53249 0.11982
# Poissons Ratio (y) = 0.25966 0.34032
# Poissons Ratio (z) = 0.15422 0.89831
#
# Static dielectric constant tensor:
#      x y z
#    x 1.599650 0.000000 0.000000 
#    y 0.000000 1.678520 0.000000 
#    z 0.000000 0.000000 1.609240 
# 
# From -- ./inp_files/5849.got.cif
#   From: 2010.05.17/outbox.ucp.g08.bks.cvg/sg51_3_cif.got.tgz:5849.got - 2010.06.11 16:27:58.
