data_PCOD9407371
_publ_section_title
;
Structure prediction by ZEFSAII (Michael W. Deem and Ramdas Pophale) SiO2 
 PCOD9407371
Probable space group: P M M A
;
_chemical_formula_sum "Si O2"
_cell_formula_units_Z 40
_cell_length_a 29.423605
_cell_length_b 7.420745
_cell_length_c 10.553021
_cell_angle_alpha 90.000000
_cell_angle_beta 90.000000
_cell_angle_gamma 90.000000
_cell_volume 2304.200106
_symmetry_space_group_name_H-M "P M M A"
_symmetry_group_IT_number 51
_symmetry_cell_setting 'orthorhombic'
loop_
_space_group_symop_operation_xyz
x,y,z
1/2-x,-y,z
1/2+x,-y,-z
-x,y,-z
-x,-y,-z
1/2+x,y,-z
1/2-x,y,z
x,-y,z
loop_
_atom_site_type_symbol
_atom_site_label
_atom_site_fract_x
_atom_site_fract_y
_atom_site_fract_z
Si Si1 0.470703 0.280231 0.379160
Si Si2 0.125412 0.287275 0.480023
Si Si3 0.802016 0.000000 0.211810
Si Si4 0.801083 0.000000 0.519053
Si Si5 0.622898 0.713580 0.217590
Si Si6 0.976101 0.719892 0.129323
O O1 0.500000 0.222030 0.500000
O O2 0.471178 0.500000 0.379519
O O3 0.418742 0.227588 0.402006
O O4 0.494372 0.221357 0.250120
O O5 0.132392 0.500000 0.462152
O O6 0.115821 0.259552 0.630577
O O7 0.169483 0.173700 0.444959
O O8 0.833060 0.172462 0.178183
O O9 0.750000 0.000000 0.164215
O O10 0.798975 0.000000 0.365372
O O11 0.750000 0.000000 0.568116
O O12 0.629656 0.500000 0.197856
O O13 0.576449 0.772164 0.148738
O O14 0.975886 0.500000 0.130277
O O15 0.000000 0.778177 0.000000
#
# Coordination Sequence:
#
# PCOD9407371 Si02
#       6
#     8   8   4   4   8   8
#     4   9  14  24  43  66  93 124 155 184 220 272
#     4   9  16  27  45  66  89 122 157 186 225 278
#     4   9  18  30  44  65  91 118 153 197 238 275
#     4   9  18  30  42  64  95 117 147 199 244 275
#     4   9  16  28  45  65  92 123 152 186 231 276
#     4   9  16  26  43  69  98 127 155 187 229 275
#
# _framework density 17.359604000000001
#
# number of rings (size 3 to 8) (size 9 to 14) (size 15 to 20)
#    0.000    3.000    2.000    0.000    0.000    0.800 
#    0.000    6.000    0.000    0.000    0.000    2.800 
#    0.000    8.000    0.000    0.000    0.000    0.000 
#
# Total GULP energy -222982.120201 kJ/mol
# GULP energy per Si atom -5574.553005 kJ/mol
# Density = 1.732009 g / cm^3
# Si number density = 17.359604 Si / 1000 Ang^3
#
#
#
# Elastic Constant Matrix: (Units=GPa)
#
#
# Indices 1 2 3 4 5 6 
#
# 1 205.8974 60.7439 60.8571 0.0000 0.0000 0.0000
# 2 60.7439 70.2987 21.9241 0.0000 0.0000 0.0000
# 3 60.8571 21.9241 75.6839 0.0000 0.0000 0.0000
# 4 0.0000 0.0000 0.0000 0.1387 0.0000 0.0000
# 5 0.0000 0.0000 0.0000 0.0000 15.4539 0.0000
# 6 0.0000 0.0000 0.0000 0.0000 0.0000 29.0041
#
#
#
# Elastic Compliance Matrix: (Units=1/GPa)
#
#
# Indices 1 2 3 4 5 6 
#
# 1 0.007819 -0.005272 -0.004760 0.000000 0.000000 0.000000
# 2 -0.005272 0.019192 -0.001321 0.000000 0.000000 0.000000
# 3 -0.004760 -0.001321 0.017423 0.000000 0.000000 0.000000
# 4 0.000000 0.000000 0.000000 7.210193 0.000000 0.000000
# 5 0.000000 0.000000 0.000000 0.000000 0.064709 0.000000
# 6 0.000000 0.000000 0.000000 0.000000 0.000000 0.034478
#
#
# Mechanical properties :
#
#
# Convention : Reuss Voigt Hill
#
# Bulk Modulus (GPa) = 46.02100 70.99225 58.50663
# Shear Modulus (GPa) = 0.67716 22.80967 11.74341
#
# Velocity S-wave (km/s) = 0.62524 3.62878 2.60374
# Velocity P-wave (km/s) = 5.20473 7.65123 6.54333
#
# Compressibility (1/GPa) = 0.02172921
#
# Stress axis : x y z
#
# Youngs Moduli (GPa) = 127.89354 52.10485 57.39550
#
# Poissons Ratio (x) = 0.27468 0.27321
# Poissons Ratio (y) = 0.67422 0.07579
# Poissons Ratio (z) = 0.60879 0.06881
#
# Static dielectric constant tensor:
#      x y z
#    x 1.577320 0.000000 0.000000 
#    y 0.000000 1.637330 0.000000 
#    z 0.000000 0.000000 1.560610 
# 
# From -- ./inp_files/12181.got.cif
#   From: 2010.05.17/outbox.cif.g08.bks.cpg/sg51_7_cif.got.tgz:12181.got - 2010.06.03 11:52:47.
