data_PCOD9407693
_publ_section_title
;
Structure prediction by ZEFSAII (Michael W. Deem and Ramdas Pophale) SiO2 
 PCOD9407693
Probable space group: P M M A
;
_chemical_formula_sum "Si O2"
_cell_formula_units_Z 48
_cell_length_a 9.000000
_cell_length_b 30.000000
_cell_length_c 9.000000
_cell_angle_alpha 90.000000
_cell_angle_beta 90.000000
_cell_angle_gamma 90.000000
_cell_volume 2430.000000
_symmetry_space_group_name_H-M "P M M A"
_symmetry_group_IT_number 51
_symmetry_cell_setting 'orthorhombic'
loop_
_space_group_symop_operation_xyz
x,y,z
1/2-x,-y,z
1/2+x,-y,-z
-x,y,-z
-x,-y,-z
1/2+x,y,-z
1/2-x,y,z
x,-y,z
loop_
_atom_site_type_symbol
_atom_site_label
_atom_site_fract_x
_atom_site_fract_y
_atom_site_fract_z
Si Si1 0.572602 0.550490 0.150312
Si Si2 0.419000 0.208509 0.845818
Si Si3 0.928788 0.051807 0.153629
Si Si4 0.926916 0.368657 0.343798
Si Si5 0.583929 0.124701 0.361108
Si Si6 0.073443 0.708442 0.161725
O O1 0.750000 0.550134 0.130191
O O2 0.519849 0.500000 0.171603
O O3 0.538724 0.581790 0.287349
O O4 0.500000 0.568511 0.000000
O O5 0.250000 0.224631 0.868973
O O6 0.412481 0.162589 0.760869
O O7 0.513122 0.246451 0.762211
O O8 0.500000 0.199498 0.000000
O O9 0.750000 0.057126 0.144489
O O10 0.986360 0.081005 0.289137
O O11 0.962804 0.000000 0.172835
O O12 0.000000 0.067222 0.000000
O O13 0.750000 0.362508 0.345762
O O14 0.000000 0.360696 0.500000
O O15 0.003575 0.334569 0.233972
O O16 0.500000 0.142948 0.500000
O O17 0.750000 0.113145 0.407857
O O18 0.250000 0.706727 0.158190
O O19 0.000000 0.711070 0.000000
#
# Coordination Sequence:
#
# PCOD9407693 Si02
#       6
#     8   8   8   8   8   8
#     4   9  19  36  58  83 110 142 182 226 270 319
#     4  10  20  36  57  81 107 137 179 225 269 318
#     4   9  18  34  55  79 106 137 176 220 264 312
#     4  11  23  38  56  81 114 149 185 225 273 326
#     4  10  22  36  52  77 109 143 177 217 264 318
#     4  11  22  38  60  84 110 142 182 226 273 323
#
# _framework density 19.753086
#
# number of rings (size 3 to 8) (size 9 to 14) (size 15 to 20)
#    0.000    2.000    0.000    4.500    0.000    6.000 
#    0.000    1.667    0.000    0.000    0.000    0.000 
#    0.000    0.000    0.000    0.000    0.000    0.000 
#
# Total GULP energy -267447.905915 kJ/mol
# GULP energy per Si atom -5571.831373 kJ/mol
# Density = 1.970813 g / cm^3
# Si number density = 19.753086 Si / 1000 Ang^3
#
#
#
# Elastic Constant Matrix: (Units=GPa)
#
#
# Indices 1 2 3 4 5 6 
#
# 1 70.7932 35.0850 30.9567 0.0000 0.0000 0.0000
# 2 35.0850 45.9216 27.3935 0.0000 0.0000 0.0000
# 3 30.9567 27.3935 43.2988 0.0000 0.0000 0.0000
# 4 0.0000 0.0000 0.0000 25.9515 0.0000 0.0000
# 5 0.0000 0.0000 0.0000 0.0000 17.4253 0.0000
# 6 0.0000 0.0000 0.0000 0.0000 0.0000 33.7919
#
#
#
# Elastic Compliance Matrix: (Units=1/GPa)
#
#
# Indices 1 2 3 4 5 6 
#
# 1 0.024840 -0.013467 -0.009240 0.000000 0.000000 0.000000
# 2 -0.013467 0.042277 -0.017119 0.000000 0.000000 0.000000
# 3 -0.009240 -0.017119 0.040532 0.000000 0.000000 0.000000
# 4 0.000000 0.000000 0.000000 0.038533 0.000000 0.000000
# 5 0.000000 0.000000 0.000000 0.000000 0.057388 0.000000
# 6 0.000000 0.000000 0.000000 0.000000 0.000000 0.029593
#
#
# Mechanical properties :
#
#
# Convention : Reuss Voigt Hill
#
# Bulk Modulus (GPa) = 35.71653 38.54268 37.12961
# Shear Modulus (GPa) = 15.52090 19.87230 17.69660
#
# Velocity S-wave (km/s) = 2.80616 3.17525 2.99639
# Velocity P-wave (km/s) = 5.34978 5.74435 5.55057
#
# Compressibility (1/GPa) = 0.02799824
#
# Stress axis : x y z
#
# Youngs Moduli (GPa) = 40.25754 23.65360 24.67190
#
# Poissons Ratio (x) = 0.31853 0.22796
# Poissons Ratio (y) = 0.54213 0.42236
# Poissons Ratio (z) = 0.37197 0.40493
#
# Static dielectric constant tensor:
#      x y z
#    x 1.680560 0.000000 0.000000 
#    y 0.000000 1.726970 0.000000 
#    z 0.000000 0.000000 1.654670 
# 
# From -- ./inp_files/6025.got.cif
#   From: 2010.05.17/outbox.ucp.g08.bks.cvg/sg51_4_cif.got.tgz:6025.got - 2010.06.11 16:27:58.
