data_PCOD9407556
_publ_section_title
;
Structure prediction by ZEFSAII (Michael W. Deem and Ramdas Pophale) SiO2 
 PCOD9407556
Probable space group: P M M A
;
_chemical_formula_sum "Si O2"
_cell_formula_units_Z 64
_cell_length_a 24.000000
_cell_length_b 9.000000
_cell_length_c 15.000000
_cell_angle_alpha 90.000000
_cell_angle_beta 90.000000
_cell_angle_gamma 90.000000
_cell_volume 3240.000000
_symmetry_space_group_name_H-M "P M M A"
_symmetry_group_IT_number 51
_symmetry_cell_setting 'orthorhombic'
loop_
_space_group_symop_operation_xyz
x,y,z
1/2-x,-y,z
1/2+x,-y,-z
-x,y,-z
-x,-y,-z
1/2+x,y,-z
1/2-x,y,z
x,-y,z
loop_
_atom_site_type_symbol
_atom_site_label
_atom_site_fract_x
_atom_site_fract_y
_atom_site_fract_z
Si Si1 0.893920 0.178208 0.100791
Si Si2 0.131525 0.323494 0.074651
Si Si3 0.188372 0.680923 0.252109
Si Si4 0.688723 0.678010 0.450729
Si Si5 0.397965 0.321131 0.401313
Si Si6 0.493259 0.828410 0.652972
Si Si7 0.128160 0.820657 0.698651
Si Si8 0.019330 0.172098 0.135733
O O1 0.873445 0.224559 0.198342
O O2 0.959765 0.217167 0.094629
O O3 0.891380 0.000000 0.096630
O O4 0.860552 0.249234 0.020583
O O5 0.133552 0.500000 0.066824
O O6 0.174581 0.276138 0.151089
O O7 0.070567 0.273050 0.108350
O O8 0.250000 0.731089 0.279628
O O9 0.188574 0.500000 0.256489
O O10 0.137704 0.729064 0.315005
O O11 0.750000 0.713899 0.486499
O O12 0.685307 0.500000 0.442847
O O13 0.640199 0.727810 0.516779
O O14 0.678157 0.752874 0.356344
O O15 0.400671 0.500000 0.400331
O O16 0.459814 0.258320 0.400096
O O17 0.430195 0.770083 0.653547
O O18 0.510403 0.824298 0.757662
O O19 0.492945 0.000000 0.624603
O O20 0.128412 0.000000 0.695757
O O21 0.030823 0.000000 0.110416
#
# Coordination Sequence:
#
# PCOD9407556 Si02
#       8
#     8   8   8   8   8   8   8   8
#     4   9  19  35  53  73 102 142 179 211 262 324
#     4  11  20  29  48  79 106 135 179 224 263 306
#     4   9  18  33  51  72 104 144 180 215 261 320
#     4  10  22  39  59  83 108 138 180 228 275 320
#     4  10  19  34  57  82 108 140 178 218 267 329
#     4   9  18  33  54  81 112 144 177 218 271 325
#     4   9  20  39  59  79 107 145 185 223 270 328
#     4   9  17  31  50  72 104 144 176 208 258 319
#
# _framework density 19.753086
#
# number of rings (size 3 to 8) (size 9 to 14) (size 15 to 20)
#    0.000    2.500    1.250    2.625    0.000    5.750 
#    0.000    5.625    0.000    6.375    0.000    0.000 
#    0.000    0.000    0.000    0.000    0.000    0.000 
#
# Total GULP energy -357038.284478 kJ/mol
# GULP energy per Si atom -5578.723195 kJ/mol
# Density = 1.970813 g / cm^3
# Si number density = 19.753086 Si / 1000 Ang^3
#
#
#
# Elastic Constant Matrix: (Units=GPa)
#
#
# Indices 1 2 3 4 5 6 
#
# 1 37.8877 11.7874 37.0580 0.0000 0.0000 0.0000
# 2 11.7874 -0.3762 15.6028 0.0000 0.0000 0.0000
# 3 37.0580 15.6028 80.4921 0.0000 0.0000 0.0000
# 4 0.0000 0.0000 0.0000 20.9806 0.0000 0.0000
# 5 0.0000 0.0000 0.0000 0.0000 15.5126 0.0000
# 6 0.0000 0.0000 0.0000 0.0000 0.0000 26.1865
#
#
#
# Elastic Compliance Matrix: (Units=1/GPa)
#
#
# Indices 1 2 3 4 5 6 
#
# 1 0.036956 0.050032 -0.026712 0.000000 0.000000 0.000000
# 2 0.050032 -0.226321 0.020837 0.000000 0.000000 0.000000
# 3 -0.026712 0.020837 0.020683 0.000000 0.000000 0.000000
# 4 0.000000 0.000000 0.000000 0.047663 0.000000 0.000000
# 5 0.000000 0.000000 0.000000 0.000000 0.064464 0.000000
# 6 0.000000 0.000000 0.000000 0.000000 0.000000 0.038188
#
#
# Mechanical properties :
#
#
# Convention : Reuss Voigt Hill
#
# Bulk Modulus (GPa) = -12.44226 27.43333 7.49554
# Shear Modulus (GPa) = -37.46167 16.10629 -10.67769
#
# Velocity S-wave (km/s) = -4.35960 2.85859 -2.32751
# Velocity P-wave (km/s) = 5.62620 4.98133 1.84939
#
# Compressibility (1/GPa) = -0.08037128
#
# Stress axis : x y z
#
# Youngs Moduli (GPa) = 27.05941 -4.41850 48.34937
#
# Poissons Ratio (x) = 0.22106 1.29153
# Poissons Ratio (y) = -1.35382 -1.00743
# Poissons Ratio (z) = 0.72282 0.09207
#
# Static dielectric constant tensor:
#      x y z
#    x 1.675820 0.000000 0.000000 
#    y 0.000000 1.659080 0.000000 
#    z 0.000000 0.000000 1.732690 
# 
# From -- ./inp_files/26347.got.cif
#   From: 2010.05.17/outbox.ucp.g08.bks.cvg/sg51_14_cif.got.tgz:26347.got - 2010.06.11 16:27:58.
