data_PCOD9407911
_publ_section_title
;
Structure prediction by ZEFSAII (Michael W. Deem and Ramdas Pophale) SiO2 
 PCOD9407911
Probable space group: P N N A
;
_chemical_formula_sum "Si O2"
_cell_formula_units_Z 32
_cell_length_a 5.325591
_cell_length_b 10.406041
_cell_length_c 23.162645
_cell_angle_alpha 90.000000
_cell_angle_beta 90.000000
_cell_angle_gamma 90.000000
_cell_volume 1283.634833
_symmetry_space_group_name_H-M "P N N A"
_symmetry_group_IT_number 52
_symmetry_cell_setting 'orthorhombic'
loop_
_space_group_symop_operation_xyz
x,y,z
1/2-x,-y,z
x,1/2-y,1/2-z
1/2-x,1/2+y,1/2-z
-x,-y,-z
1/2+x,y,-z
-x,1/2+y,1/2+z
1/2+x,1/2-y,1/2+z
loop_
_atom_site_type_symbol
_atom_site_label
_atom_site_fract_x
_atom_site_fract_y
_atom_site_fract_z
Si Si1 0.301519 0.157105 0.801834
Si Si2 0.303617 0.370218 0.347891
Si Si3 0.462883 0.649691 0.535733
Si Si4 0.998773 0.552826 0.065937
O O1 0.386901 0.250000 0.750000
O O2 0.520341 0.182125 0.850247
O O3 0.024598 0.209306 0.818811
O O4 0.250000 0.000000 0.793894
O O5 0.250000 0.500000 0.311954
O O6 0.445175 0.417862 0.406120
O O7 0.182695 0.629026 0.511827
O O8 0.491744 0.796625 0.556058
O O9 0.750000 0.500000 0.095081
O O10 0.250000 0.500000 0.094272
O O11 0.000000 0.500000 0.000000
#
# Coordination Sequence:
#
# PCOD9407911 Si02
#       4
#     8   8   8   8
#     4  10  21  43  71  90 123 156 196 260 324 375
#     4  10  23  40  59  91 121 157 201 253 310 363
#     4  12  21  33  56  80 117 165 206 237 283 361
#     4  10  16  30  47  67  99 150 204 226 290 323
#
# _framework density 24.929210999999999
#
# number of rings (size 3 to 8) (size 9 to 14) (size 15 to 20)
#    0.000    1.500    5.000    2.250    0.000    1.000 
#    0.000    3.750    0.000    0.000    0.000    0.000 
#    0.000    0.000    0.000    0.000    0.000    0.000 
#
# Total GULP energy -178153.090704 kJ/mol
# GULP energy per Si atom -5567.284084 kJ/mol
# Density = 2.487247 g / cm^3
# Si number density = 24.929211 Si / 1000 Ang^3
#
#
#
# Elastic Constant Matrix: (Units=GPa)
#
#
# Indices 1 2 3 4 5 6 
#
# 1 227.5830 -8.3783 30.4870 0.0000 0.0000 0.0000
# 2 -8.3783 73.5827 -1.5291 0.0000 0.0000 0.0000
# 3 30.4870 -1.5291 76.2527 0.0000 0.0000 0.0000
# 4 0.0000 0.0000 0.0000 28.1028 0.0000 0.0000
# 5 0.0000 0.0000 0.0000 0.0000 71.4664 0.0000
# 6 0.0000 0.0000 0.0000 0.0000 0.0000 24.9132
#
#
#
# Elastic Compliance Matrix: (Units=1/GPa)
#
#
# Indices 1 2 3 4 5 6 
#
# 1 0.004660 0.000492 -0.001853 0.000000 0.000000 0.000000
# 2 0.000492 0.013648 0.000077 0.000000 0.000000 0.000000
# 3 -0.001853 0.000077 0.013857 0.000000 0.000000 0.000000
# 4 0.000000 0.000000 0.000000 0.035584 0.000000 0.000000
# 5 0.000000 0.000000 0.000000 0.000000 0.013993 0.000000
# 6 0.000000 0.000000 0.000000 0.000000 0.000000 0.040139
#
#
# Mechanical properties :
#
#
# Convention : Reuss Voigt Hill
#
# Bulk Modulus (GPa) = 33.78802 46.50862 40.14832
# Shear Modulus (GPa) = 37.22593 48.68571 42.95582
#
# Velocity S-wave (km/s) = 3.86847 4.42402 4.15554
# Velocity P-wave (km/s) = 5.79107 6.69274 6.25816
#
# Compressibility (1/GPa) = 0.02959629
#
# Stress axis : x y z
#
# Youngs Moduli (GPa) = 214.57371 73.27194 72.16642
#
# Poissons Ratio (x) = -0.03606 0.13376
# Poissons Ratio (y) = -0.10560 -0.00555
# Poissons Ratio (z) = 0.39770 -0.00564
#
# Static dielectric constant tensor:
#      x y z
#    x 2.130010 0.000000 0.000000 
#    y 0.000000 2.081420 0.000000 
#    z 0.000000 0.000000 1.864980 
# 
# From -- ./inp_files/34813.got.cif
#   From: 2010.05.17/outbox.cif.g08.bks.cpg/sg52_18_cif.got.tgz:34813.got - 2010.06.03 12:15:38.
