data_PCOD9407326
_publ_section_title
;
Structure prediction by ZEFSAII (Michael W. Deem and Ramdas Pophale) SiO2 
 PCOD9407326
Probable space group: P M M A
;
_chemical_formula_sum "Si O2"
_cell_formula_units_Z 48
_cell_length_a 24.882670
_cell_length_b 7.700967
_cell_length_c 14.282150
_cell_angle_alpha 90.000000
_cell_angle_beta 90.000000
_cell_angle_gamma 90.000000
_cell_volume 2736.754446
_symmetry_space_group_name_H-M "P M M A"
_symmetry_group_IT_number 51
_symmetry_cell_setting 'orthorhombic'
loop_
_space_group_symop_operation_xyz
x,y,z
1/2-x,-y,z
1/2+x,-y,-z
-x,y,-z
-x,-y,-z
1/2+x,y,-z
1/2-x,y,z
x,-y,z
loop_
_atom_site_type_symbol
_atom_site_label
_atom_site_fract_x
_atom_site_fract_y
_atom_site_fract_z
Si Si1 0.689266 0.212185 0.145747
Si Si2 0.690236 0.208216 0.359820
Si Si3 0.915525 0.212586 0.039379
Si Si4 0.976600 0.207340 0.858852
Si Si5 0.522142 0.708755 0.644727
Si Si6 0.582459 0.708140 0.462847
O O1 0.750000 0.265567 0.120473
O O2 0.678824 0.267740 0.253241
O O3 0.641687 0.272194 0.078232
O O4 0.688774 0.000000 0.145172
O O5 0.750000 0.271698 0.386681
O O6 0.641825 0.250722 0.428581
O O7 0.692911 0.000000 0.355405
O O8 0.964350 0.268208 0.107666
O O9 0.914171 0.000000 0.040076
O O10 0.933223 0.269544 0.935409
O O11 0.965894 0.245525 0.751159
O O12 0.977912 0.000000 0.868634
O O13 0.521349 0.500000 0.640505
O O14 0.564331 0.770545 0.565805
O O15 0.463238 0.771284 0.610266
O O16 0.578333 0.500000 0.464540
#
# Coordination Sequence:
#
# PCOD9407326 Si02
#       6
#     8   8   8   8   8   8
#     4   8  13  22  38  60  85 110 132 160 204 250
#     4   9  17  28  44  68  92 110 135 175 214 247
#     4   8  14  24  38  59  85 109 136 168 201 246
#     4   9  16  26  42  62  83 109 139 171 207 247
#     4   9  18  31  44  61  86 112 142 180 214 247
#     4   9  18  31  45  61  84 115 145 173 210 256
#
# _framework density 17.539021999999999
#
# number of rings (size 3 to 8) (size 9 to 14) (size 15 to 20)
#    0.000    3.333    0.000    4.000    0.000    3.000 
#    0.000    3.333    0.000    2.000    0.000    2.333 
#    0.000    0.000    0.000    0.000    0.000    0.000 
#
# Total GULP energy -267360.008643 kJ/mol
# GULP energy per Si atom -5570.000180 kJ/mol
# Density = 1.749910 g / cm^3
# Si number density = 17.539022 Si / 1000 Ang^3
#
#
#
# Elastic Constant Matrix: (Units=GPa)
#
#
# Indices 1 2 3 4 5 6 
#
# 1 167.0261 5.8940 107.5515 0.0000 0.0000 0.0000
# 2 5.8940 23.0783 3.6912 0.0000 0.0000 0.0000
# 3 107.5515 3.6912 151.3638 0.0000 0.0000 0.0000
# 4 0.0000 0.0000 0.0000 24.9543 0.0000 0.0000
# 5 0.0000 0.0000 0.0000 0.0000 25.9237 0.0000
# 6 0.0000 0.0000 0.0000 0.0000 0.0000 13.3559
#
#
#
# Elastic Compliance Matrix: (Units=1/GPa)
#
#
# Indices 1 2 3 4 5 6 
#
# 1 0.011094 -0.001579 -0.007844 0.000000 0.000000 0.000000
# 2 -0.001579 0.043725 0.000055 0.000000 0.000000 0.000000
# 3 -0.007844 0.000055 0.012179 0.000000 0.000000 0.000000
# 4 0.000000 0.000000 0.000000 0.040073 0.000000 0.000000
# 5 0.000000 0.000000 0.000000 0.000000 0.038575 0.000000
# 6 0.000000 0.000000 0.000000 0.000000 0.000000 0.074873
#
#
# Mechanical properties :
#
#
# Convention : Reuss Voigt Hill
#
# Bulk Modulus (GPa) = 20.71981 63.97128 42.34555
# Shear Modulus (GPa) = 19.58160 27.80221 23.69191
#
# Velocity S-wave (km/s) = 3.34497 3.98573 3.67933
# Velocity P-wave (km/s) = 5.17278 7.59831 6.49969
#
# Compressibility (1/GPa) = 0.04826299
#
# Stress axis : x y z
#
# Youngs Moduli (GPa) = 90.13991 22.87017 82.10868
#
# Poissons Ratio (x) = 0.03610 0.64408
# Poissons Ratio (y) = 0.14230 -0.00455
# Poissons Ratio (z) = 0.70708 -0.00127
#
# Static dielectric constant tensor:
#      x y z
#    x 1.603150 0.000000 0.000000 
#    y 0.000000 1.654400 0.000000 
#    z 0.000000 0.000000 1.594520 
# 
# From -- ./inp_files/26013.got.cif
#   From: 2010.05.17/outbox.cif.g08.bks.cpg/sg51_14_cif.got.tgz:26013.got - 2010.06.03 11:52:47.
