data_PCOD9407053
_publ_section_title
;
Structure prediction by ZEFSAII (Michael W. Deem and Ramdas Pophale) SiO2 
 PCOD9407053
Probable space group: P M M A
;
_chemical_formula_sum "Si O2"
_cell_formula_units_Z 40
_cell_length_a 15.228983
_cell_length_b 13.410850
_cell_length_c 10.133548
_cell_angle_alpha 90.000000
_cell_angle_beta 90.000000
_cell_angle_gamma 90.000000
_cell_volume 2069.611056
_symmetry_space_group_name_H-M "P M M A"
_symmetry_group_IT_number 51
_symmetry_cell_setting 'orthorhombic'
loop_
_space_group_symop_operation_xyz
x,y,z
1/2-x,-y,z
1/2+x,-y,-z
-x,y,-z
-x,-y,-z
1/2+x,y,-z
1/2-x,y,z
x,-y,z
loop_
_atom_site_type_symbol
_atom_site_label
_atom_site_fract_x
_atom_site_fract_y
_atom_site_fract_z
Si Si1 0.901134 0.264640 0.465526
Si Si2 0.094749 0.745844 0.043215
Si Si3 0.250000 0.881641 0.458630
Si Si4 0.853750 0.384191 0.721985
Si Si5 0.750000 0.118051 0.859292
Si Si6 0.145074 0.384617 0.791684
O O1 0.834573 0.172392 0.478871
O O2 0.869418 0.343492 0.575969
O O3 0.895924 0.320189 0.326166
O O4 0.000000 0.234437 0.500000
O O5 0.165290 0.830829 0.075081
O O6 0.126916 0.671083 0.928871
O O7 0.090638 0.680189 0.175797
O O8 0.000000 0.785050 0.000000
O O9 0.250000 0.000000 0.479432
O O10 0.250000 0.863086 0.299564
O O11 0.750000 0.372640 0.755683
O O12 0.875670 0.500000 0.730825
O O13 0.750000 0.000000 0.878422
O O14 0.250000 0.385590 0.769708
O O15 0.114865 0.500000 0.793516
#
# Coordination Sequence:
#
# PCOD9407053 Si02
#       6
#     8   8   4   8   4   8
#     4  12  23  40  65  94 127 163 208 256 311 371
#     4  12  23  40  65  94 127 163 208 256 311 371
#     4  11  24  47  70  89 119 161 215 269 316 365
#     4  11  21  39  65  91 127 174 219 250 292 370
#     4  11  24  47  70  89 119 161 215 269 316 365
#     4  11  23  39  61  93 135 172 197 242 310 370
#
# _framework density 19.327303000000001
#
# number of rings (size 3 to 8) (size 9 to 14) (size 15 to 20)
#    0.000    0.600    6.000    2.400    0.000    8.800 
#    0.000    2.000    0.000    0.000    0.000    0.000 
#    0.000    0.000    0.000    0.000    0.000    0.000 
#
# Total GULP energy -223770.569262 kJ/mol
# GULP energy per Si atom -5594.264232 kJ/mol
# Density = 1.928331 g / cm^3
# Si number density = 19.327303 Si / 1000 Ang^3
#
#
#
# Elastic Constant Matrix: (Units=GPa)
#
#
# Indices 1 2 3 4 5 6 
#
# 1 109.0978 50.2497 6.9642 0.0000 0.0000 0.0000
# 2 50.2497 151.3516 39.9909 0.0000 0.0000 0.0000
# 3 6.9642 39.9909 100.1061 0.0000 0.0000 0.0000
# 4 0.0000 0.0000 0.0000 31.2530 0.0000 0.0000
# 5 0.0000 0.0000 0.0000 0.0000 24.7727 0.0000
# 6 0.0000 0.0000 0.0000 0.0000 0.0000 -0.5375
#
#
#
# Elastic Compliance Matrix: (Units=1/GPa)
#
#
# Indices 1 2 3 4 5 6 
#
# 1 0.010873 -0.003813 0.000767 0.000000 0.000000 0.000000
# 2 -0.003813 0.008724 -0.003220 0.000000 0.000000 0.000000
# 3 0.000767 -0.003220 0.011222 0.000000 0.000000 0.000000
# 4 0.000000 0.000000 0.000000 0.031997 0.000000 0.000000
# 5 0.000000 0.000000 0.000000 0.000000 0.040367 0.000000
# 6 0.000000 0.000000 0.000000 0.000000 0.000000 -1.860540
#
#
# Mechanical properties :
#
#
# Convention : Reuss Voigt Hill
#
# Bulk Modulus (GPa) = 54.68113 61.66278 58.17195
# Shear Modulus (GPa) = -2.87566 28.65436 12.88935
#
# Velocity S-wave (km/s) = -1.22111 3.85461 2.58524
# Velocity P-wave (km/s) = 5.13473 7.19614 6.25100
#
# Compressibility (1/GPa) = 0.01828784
#
# Stress axis : x y z
#
# Youngs Moduli (GPa) = 91.96952 114.63093 89.10823
#
# Poissons Ratio (x) = 0.43703 -0.06831
# Poissons Ratio (y) = 0.35064 0.28690
# Poissons Ratio (z) = -0.07051 0.36908
#
# Static dielectric constant tensor:
#      x y z
#    x 1.714390 0.000000 0.000000 
#    y 0.000000 1.634680 0.000000 
#    z 0.000000 0.000000 1.653480 
# 
# From -- ./inp_files/8003.got.cif
#   From: 2010.05.17/outbox.cif.g08.bks.cpg/sg51_5_cif.got.tgz:8003.got - 2010.06.03 11:52:47.
