data_PCOD9407748
_publ_section_title
;
Structure prediction by ZEFSAII (Michael W. Deem and Ramdas Pophale) SiO2 
 PCOD9407748
Probable space group: P M M A
;
_chemical_formula_sum "Si O2"
_cell_formula_units_Z 48
_cell_length_a 9.000000
_cell_length_b 9.000000
_cell_length_c 30.000000
_cell_angle_alpha 90.000000
_cell_angle_beta 90.000000
_cell_angle_gamma 90.000000
_cell_volume 2430.000000
_symmetry_space_group_name_H-M "P M M A"
_symmetry_group_IT_number 51
_symmetry_cell_setting 'orthorhombic'
loop_
_space_group_symop_operation_xyz
x,y,z
1/2-x,-y,z
1/2+x,-y,-z
-x,y,-z
-x,-y,-z
1/2+x,y,-z
1/2-x,y,z
x,-y,z
loop_
_atom_site_type_symbol
_atom_site_label
_atom_site_fract_x
_atom_site_fract_y
_atom_site_fract_z
Si Si1 0.085814 0.321516 0.378754
Si Si2 0.413337 0.822292 0.116552
Si Si3 0.084891 0.178239 0.219399
Si Si4 0.422979 0.668685 0.957543
Si Si5 0.415297 0.321954 0.705727
Si Si6 0.424397 0.829779 0.543903
O O1 0.250000 0.267786 0.390430
O O2 0.086347 0.500000 0.378749
O O3 0.035205 0.270692 0.330217
O O4 0.968998 0.263742 0.413823
O O5 0.250000 0.773523 0.100032
O O6 0.426739 0.779349 0.167905
O O7 0.539273 0.754428 0.086780
O O8 0.417306 0.000000 0.114735
O O9 0.250000 0.224584 0.235216
O O10 0.957405 0.251541 0.247788
O O11 0.077211 0.000000 0.222365
O O12 0.250000 0.663271 0.965705
O O13 0.481070 0.500000 0.952994
O O14 0.500000 0.741416 0.000000
O O15 0.250000 0.280377 0.690991
O O16 0.421766 0.500000 0.708826
O O17 0.500000 0.766173 0.500000
O O18 0.250000 0.832115 0.537463
O O19 0.477528 0.000000 0.549791
#
# Coordination Sequence:
#
# PCOD9407748 Si02
#       6
#     8   8   8   8   8   8
#     4  10  21  37  57  80 106 139 179 220 263 312
#     4   9  19  36  56  78 105 137 174 215 259 309
#     4   9  19  36  56  78 105 138 176 216 258 308
#     4  10  21  36  54  77 105 137 174 215 259 309
#     4  10  21  36  54  78 108 140 175 217 263 311
#     4  10  21  37  57  81 109 141 177 217 262 312
#
# _framework density 19.753086
#
# number of rings (size 3 to 8) (size 9 to 14) (size 15 to 20)
#    0.000    2.333    0.000    3.000    0.000    7.333 
#    0.000    5.000    0.000    0.000    0.000    0.000 
#    0.000    0.000    0.000    0.000    0.000    0.000 
#
# Total GULP energy -267514.459213 kJ/mol
# GULP energy per Si atom -5573.217900 kJ/mol
# Density = 1.970813 g / cm^3
# Si number density = 19.753086 Si / 1000 Ang^3
#
#
#
# Elastic Constant Matrix: (Units=GPa)
#
#
# Indices 1 2 3 4 5 6 
#
# 1 47.3650 18.4315 36.7078 0.0000 0.0000 0.0000
# 2 18.4315 -6.9442 21.4588 0.0000 0.0000 0.0000
# 3 36.7078 21.4588 62.1641 0.0000 0.0000 0.0000
# 4 0.0000 0.0000 0.0000 44.7932 0.0000 0.0000
# 5 0.0000 0.0000 0.0000 0.0000 26.3659 0.0000
# 6 0.0000 0.0000 0.0000 0.0000 0.0000 25.4518
#
#
#
# Elastic Compliance Matrix: (Units=1/GPa)
#
#
# Indices 1 2 3 4 5 6 
#
# 1 0.035713 0.014334 -0.026037 0.000000 0.000000 0.000000
# 2 0.014334 -0.063925 0.013603 0.000000 0.000000 0.000000
# 3 -0.026037 0.013603 0.026765 0.000000 0.000000 0.000000
# 4 0.000000 0.000000 0.000000 0.022325 0.000000 0.000000
# 5 0.000000 0.000000 0.000000 0.000000 0.037928 0.000000
# 6 0.000000 0.000000 0.000000 0.000000 0.000000 0.039290
#
#
# Mechanical properties :
#
#
# Convention : Reuss Voigt Hill
#
# Bulk Modulus (GPa) = 424.99024 28.42013 226.70518
# Shear Modulus (GPa) = 52.58726 21.05464 36.82095
#
# Velocity S-wave (km/s) = 5.16528 3.26834 4.32216
# Velocity P-wave (km/s) = 15.84903 5.35366 11.82906
#
# Compressibility (1/GPa) = 0.00235300
#
# Stress axis : x y z
#
# Youngs Moduli (GPa) = 28.00089 -15.64324 37.36172
#
# Poissons Ratio (x) = 0.22422 0.97277
# Poissons Ratio (y) = -0.40135 -0.50822
# Poissons Ratio (z) = 0.72905 0.21279
#
# Static dielectric constant tensor:
#      x y z
#    x 1.716660 0.000000 0.000000 
#    y 0.000000 1.675360 0.000000 
#    z 0.000000 0.000000 1.710600 
# 
# From -- ./inp_files/36931.got.cif
#   From: 2010.05.17/outbox.ucp.g08.bks.cvg/sg51_19_cif.got.tgz:36931.got - 2010.06.11 16:27:58.
