data_PCOD9407713
_publ_section_title
;
Structure prediction by ZEFSAII (Michael W. Deem and Ramdas Pophale) SiO2 
 PCOD9407713
Probable space group: P M M A
;
_chemical_formula_sum "Si O2"
_cell_formula_units_Z 64
_cell_length_a 15.000000
_cell_length_b 9.000000
_cell_length_c 24.000000
_cell_angle_alpha 90.000000
_cell_angle_beta 90.000000
_cell_angle_gamma 90.000000
_cell_volume 3240.000000
_symmetry_space_group_name_H-M "P M M A"
_symmetry_group_IT_number 51
_symmetry_cell_setting 'orthorhombic'
loop_
_space_group_symop_operation_xyz
x,y,z
1/2-x,-y,z
1/2+x,-y,-z
-x,y,-z
-x,-y,-z
1/2+x,y,-z
1/2-x,y,z
x,-y,z
loop_
_atom_site_type_symbol
_atom_site_label
_atom_site_fract_x
_atom_site_fract_y
_atom_site_fract_z
Si Si1 0.020755 0.177778 0.305228
Si Si2 0.358271 0.830422 0.528817
Si Si3 0.349595 0.823135 0.105882
Si Si4 0.853817 0.177359 0.137950
Si Si5 0.147292 0.180797 0.406581
Si Si6 0.604697 0.826400 0.013738
Si Si7 0.518071 0.676127 0.808634
Si Si8 0.645456 0.675980 0.356327
O O1 0.083506 0.225778 0.356535
O O2 0.052137 0.250099 0.248048
O O3 0.921212 0.234755 0.317218
O O4 0.022409 0.000000 0.301417
O O5 0.250000 0.838075 0.524800
O O6 0.387659 0.776209 0.467947
O O7 0.378157 0.726881 0.580814
O O8 0.390421 0.000000 0.539178
O O9 0.250000 0.809227 0.128835
O O10 0.420627 0.735036 0.141443
O O11 0.373143 0.000000 0.105306
O O12 0.350139 0.767715 0.042060
O O13 0.750000 0.196253 0.150710
O O14 0.872187 0.233206 0.074567
O O15 0.919313 0.263392 0.178595
O O16 0.874648 0.000000 0.140205
O O17 0.250000 0.230403 0.399061
O O18 0.149079 0.000000 0.407742
O O19 0.631148 0.000000 0.017261
O O20 0.500000 0.818220 0.000000
O O21 0.518875 0.500000 0.804943
O O22 0.750000 0.711522 0.347251
O O23 0.633637 0.500000 0.349532
#
# Coordination Sequence:
#
# PCOD9407713 Si02
#       8
#     8   8   8   8   8   8   8   8
#     4  11  23  39  61  84 107 143 195 244 286 334
#     4   8  14  29  55  84 113 144 179 221 272 333
#     4  10  20  37  63  91 117 150 193 237 282 334
#     4  10  20  37  63  91 116 147 191 238 283 336
#     4   8  16  33  58  87 114 140 177 229 283 332
#     4   9  15  29  59  93 123 147 179 233 287 333
#     4  12  26  42  57  78 116 156 193 238 290 345
#     4  10  21  37  56  81 116 153 186 226 280 338
#
# _framework density 19.753086
#
# number of rings (size 3 to 8) (size 9 to 14) (size 15 to 20)
#    0.000    2.250    1.250    3.000    0.000    4.250 
#    0.000    6.250    0.000    4.125    0.000    0.000 
#    0.000    0.000    0.000    0.000    0.000    0.000 
#
# Total GULP energy -357223.177580 kJ/mol
# GULP energy per Si atom -5581.612150 kJ/mol
# Density = 1.970813 g / cm^3
# Si number density = 19.753086 Si / 1000 Ang^3
#
#
#
# Elastic Constant Matrix: (Units=GPa)
#
#
# Indices 1 2 3 4 5 6 
#
# 1 51.2410 22.2574 13.8989 0.0000 0.0000 0.0000
# 2 22.2574 50.6086 13.6021 0.0000 0.0000 0.0000
# 3 13.8989 13.6021 61.4903 0.0000 0.0000 0.0000
# 4 0.0000 0.0000 0.0000 -59.3248 0.0000 0.0000
# 5 0.0000 0.0000 0.0000 0.0000 -6.5035 0.0000
# 6 0.0000 0.0000 0.0000 0.0000 0.0000 7.6757
#
#
#
# Elastic Compliance Matrix: (Units=1/GPa)
#
#
# Indices 1 2 3 4 5 6 
#
# 1 0.024772 -0.009983 -0.003391 0.000000 0.000000 0.000000
# 2 -0.009983 0.025032 -0.003281 0.000000 0.000000 0.000000
# 3 -0.003391 -0.003281 0.017755 0.000000 0.000000 0.000000
# 4 0.000000 0.000000 0.000000 -0.016856 0.000000 0.000000
# 5 0.000000 0.000000 0.000000 0.000000 -0.153763 0.000000
# 6 0.000000 0.000000 0.000000 0.000000 0.000000 0.130282
#
#
# Mechanical properties :
#
#
# Convention : Reuss Voigt Hill
#
# Bulk Modulus (GPa) = 29.19796 29.20631 29.20213
# Shear Modulus (GPa) = 69.49577 -4.05844 32.71866
#
# Velocity S-wave (km/s) = 5.93790 -1.43494 4.07428
# Velocity P-wave (km/s) = 7.86289 3.47454 6.07855
#
# Compressibility (1/GPa) = 0.03424897
#
# Stress axis : x y z
#
# Youngs Moduli (GPa) = 40.36863 39.94924 56.32240
#
# Poissons Ratio (x) = 0.39882 0.19099
# Poissons Ratio (y) = 0.40300 0.18478
# Poissons Ratio (z) = 0.13689 0.13106
#
# Static dielectric constant tensor:
#      x y z
#    x 1.721880 0.000000 0.000000 
#    y 0.000000 1.655810 0.000000 
#    z 0.000000 0.000000 1.721030 
# 
# From -- ./inp_files/35854.got.cif
#   From: 2010.05.17/outbox.ucp.g08.bks.cvg/sg51_18_cif.got.tgz:35854.got - 2010.06.11 16:27:58.
