data_PCOD9407528
_publ_section_title
;
Structure prediction by ZEFSAII (Michael W. Deem and Ramdas Pophale) SiO2 
 PCOD9407528
Probable space group: P M M A
;
_chemical_formula_sum "Si O2"
_cell_formula_units_Z 52
_cell_length_a 9.000000
_cell_length_b 18.000000
_cell_length_c 18.000000
_cell_angle_alpha 90.000000
_cell_angle_beta 90.000000
_cell_angle_gamma 90.000000
_cell_volume 2916.000000
_symmetry_space_group_name_H-M "P M M A"
_symmetry_group_IT_number 51
_symmetry_cell_setting 'orthorhombic'
loop_
_space_group_symop_operation_xyz
x,y,z
1/2-x,-y,z
1/2+x,-y,-z
-x,y,-z
-x,-y,-z
1/2+x,y,-z
1/2-x,y,z
x,-y,z
loop_
_atom_site_type_symbol
_atom_site_label
_atom_site_fract_x
_atom_site_fract_y
_atom_site_fract_z
Si Si1 0.926328 0.415530 0.222725
Si Si2 0.071758 0.000000 0.581814
Si Si3 0.419926 0.213863 0.854762
Si Si4 0.921773 0.087708 0.921699
Si Si5 0.930601 0.160338 0.418627
Si Si6 0.078031 0.717911 0.691087
Si Si7 0.926613 0.646473 0.922844
O O1 0.750000 0.397795 0.209847
O O2 0.937238 0.500000 0.244816
O O3 0.986167 0.361604 0.286980
O O4 0.011383 0.400683 0.146252
O O5 0.030943 0.920508 0.616178
O O6 0.000000 0.000000 0.500000
O O7 0.250000 0.000000 0.573773
O O8 0.750000 0.216237 0.118938
O O9 0.488300 0.133095 0.861358
O O10 0.423081 0.240234 0.770031
O O11 0.517139 0.270416 0.903526
O O12 0.750000 0.109990 0.923907
O O13 0.929792 0.000000 0.909560
O O14 0.000000 0.104222 0.000000
O O15 0.750000 0.163712 0.422720
O O16 0.988920 0.228410 0.369921
O O17 0.000000 0.163493 0.500000
O O18 0.250000 0.705856 0.669074
O O19 0.750000 0.643274 0.927294
O O20 0.000000 0.622519 0.000000
#
# Coordination Sequence:
#
# PCOD9407528 Si02
#       7
#     8   4   8   8   8   8   8
#     4   9  18  34  54  73  95 126 163 203 247 294
#     4   8  14  24  42  66  94 124 153 186 225 270
#     4  10  19  33  50  69  94 125 164 206 248 296
#     4  10  20  33  48  66  91 124 164 208 252 296
#     4   9  16  29  48  72  99 128 161 197 236 283
#     4   8  16  31  50  72  96 123 158 199 239 291
#     4  11  21  33  50  72  98 128 161 201 247 296
#
# _framework density 17.832647000000001
#
# number of rings (size 3 to 8) (size 9 to 14) (size 15 to 20)
#    0.000    2.615    0.000    3.692    0.000    1.538 
#    1.385    3.846    0.000    0.462    0.000    0.000 
#    0.000    0.000    0.000    0.000    0.000    0.000 
#
# Total GULP energy -289531.882080 kJ/mol
# GULP energy per Si atom -5567.920809 kJ/mol
# Density = 1.779206 g / cm^3
# Si number density = 17.832647 Si / 1000 Ang^3
#
#
#
# Elastic Constant Matrix: (Units=GPa)
#
#
# Indices 1 2 3 4 5 6 
#
# 1 62.1886 50.6681 12.4607 0.0000 0.0000 0.0000
# 2 50.6681 75.0070 68.1852 0.0000 0.0000 0.0000
# 3 12.4607 68.1852 42.3756 0.0000 0.0000 0.0000
# 4 0.0000 0.0000 0.0000 3.6852 0.0000 0.0000
# 5 0.0000 0.0000 0.0000 0.0000 12.1176 0.0000
# 6 0.0000 0.0000 0.0000 0.0000 0.0000 28.8716
#
#
#
# Elastic Compliance Matrix: (Units=1/GPa)
#
#
# Indices 1 2 3 4 5 6 
#
# 1 0.011691 0.010314 -0.020033 0.000000 0.000000 0.000000
# 2 0.010314 -0.019714 0.028688 0.000000 0.000000 0.000000
# 3 -0.020033 0.028688 -0.016672 0.000000 0.000000 0.000000
# 4 0.000000 0.000000 0.000000 0.271353 0.000000 0.000000
# 5 0.000000 0.000000 0.000000 0.000000 0.082525 0.000000
# 6 0.000000 0.000000 0.000000 0.000000 0.000000 0.034636
#
#
# Mechanical properties :
#
#
# Convention : Reuss Voigt Hill
#
# Bulk Modulus (GPa) = 75.51290 49.13324 62.32307
# Shear Modulus (GPa) = 15.13793 12.15204 13.64498
#
# Velocity S-wave (km/s) = 2.91673 2.61329 2.76917
# Velocity P-wave (km/s) = 7.33351 6.05953 6.72675
#
# Compressibility (1/GPa) = 0.01324277
#
# Stress axis : x y z
#
# Youngs Moduli (GPa) = 85.53448 -50.72593 -59.98152
#
# Poissons Ratio (x) = 0.52316 -1.20161
# Poissons Ratio (y) = -0.88216 1.72076
# Poissons Ratio (z) = 1.71352 1.45523
#
# Static dielectric constant tensor:
#      x y z
#    x 1.597310 0.000000 0.000000 
#    y 0.000000 1.691640 0.000000 
#    z 0.000000 0.000000 1.852300 
# 
# From -- ./inp_files/27962.got.cif
#   From: 2010.05.17/outbox.ucp.g08.bks.cvg/sg51_14_cif.got.tgz:27962.got - 2010.06.11 16:27:58.
