data_PCOD9407807
_publ_section_title
;
Structure prediction by ZEFSAII (Michael W. Deem and Ramdas Pophale) SiO2 
 PCOD9407807
Probable space group: P M M A
;
_chemical_formula_sum "Si O2"
_cell_formula_units_Z 44
_cell_length_a 9.000000
_cell_length_b 9.000000
_cell_length_c 30.000000
_cell_angle_alpha 90.000000
_cell_angle_beta 90.000000
_cell_angle_gamma 90.000000
_cell_volume 2430.000000
_symmetry_space_group_name_H-M "P M M A"
_symmetry_group_IT_number 51
_symmetry_cell_setting 'orthorhombic'
loop_
_space_group_symop_operation_xyz
x,y,z
1/2-x,-y,z
1/2+x,-y,-z
-x,y,-z
-x,-y,-z
1/2+x,y,-z
1/2-x,y,z
x,-y,z
loop_
_atom_site_type_symbol
_atom_site_label
_atom_site_fract_x
_atom_site_fract_y
_atom_site_fract_z
Si Si1 0.073999 0.321419 0.547313
Si Si2 0.065327 0.500000 0.050441
Si Si3 0.424243 0.175467 0.191722
Si Si4 0.430322 0.182739 0.905793
Si Si5 0.425948 0.677801 0.722208
Si Si6 0.426509 0.822278 0.365333
O O1 0.250000 0.289162 0.546366
O O2 0.055835 0.500000 0.552053
O O3 0.000000 0.278344 0.500000
O O4 0.998389 0.243579 0.589654
O O5 0.250000 0.500000 0.052111
O O6 0.004419 0.663993 0.071005
O O7 0.000000 0.500000 0.000000
O O8 0.250000 0.215910 0.185621
O O9 0.512772 0.195166 0.145278
O O10 0.496084 0.263572 0.232778
O O11 0.429928 0.000000 0.202701
O O12 0.250000 0.195693 0.909589
O O13 0.463939 0.000000 0.918332
O O14 0.250000 0.712596 0.723710
O O15 0.442537 0.500000 0.719335
O O16 0.498488 0.751487 0.678485
O O17 0.250000 0.790769 0.364919
O O18 0.446884 0.000000 0.364392
#
# Coordination Sequence:
#
# PCOD9407807 Si02
#       6
#     8   4   8   8   8   8
#     4  10  21  38  61  87 113 144 184 230 283 344
#     4  12  26  44  68  98 134 176 222 276 329 388
#     4  10  21  38  61  90 123 160 204 252 305 367
#     4  10  22  42  68  97 132 174 219 271 329 389
#     4  11  24  39  57  84 117 155 198 245 297 357
#     4  11  24  40  58  82 113 149 190 238 291 349
#
# _framework density 18.106995999999999
#
# number of rings (size 3 to 8) (size 9 to 14) (size 15 to 20)
#    0.000    1.455    0.000    4.636    1.273   11.273 
#    0.000    0.000    0.000    0.000    0.000    0.000 
#    0.000    0.000    0.000    0.000    0.000    0.000 
#
# Total GULP energy -245380.950584 kJ/mol
# GULP energy per Si atom -5576.839786 kJ/mol
# Density = 1.806578 g / cm^3
# Si number density = 18.106996 Si / 1000 Ang^3
#
#
#
# Elastic Constant Matrix: (Units=GPa)
#
#
# Indices 1 2 3 4 5 6 
#
# 1 152.5146 72.4048 67.9392 0.0000 0.0000 0.0000
# 2 72.4048 111.8371 71.0492 0.0000 0.0000 0.0000
# 3 67.9392 71.0492 143.8073 0.0000 0.0000 0.0000
# 4 0.0000 0.0000 0.0000 46.3067 0.0000 0.0000
# 5 0.0000 0.0000 0.0000 0.0000 40.9234 0.0000
# 6 0.0000 0.0000 0.0000 0.0000 0.0000 39.3089
#
#
#
# Elastic Compliance Matrix: (Units=1/GPa)
#
#
# Indices 1 2 3 4 5 6 
#
# 1 0.009925 -0.005023 -0.002207 0.000000 0.000000 0.000000
# 2 -0.005023 0.015574 -0.005322 0.000000 0.000000 0.000000
# 3 -0.002207 -0.005322 0.010626 0.000000 0.000000 0.000000
# 4 0.000000 0.000000 0.000000 0.021595 0.000000 0.000000
# 5 0.000000 0.000000 0.000000 0.000000 0.024436 0.000000
# 6 0.000000 0.000000 0.000000 0.000000 0.000000 0.025440
#
#
# Mechanical properties :
#
#
# Convention : Reuss Voigt Hill
#
# Bulk Modulus (GPa) = 90.73490 92.32728 91.53109
# Shear Modulus (GPa) = 36.66435 38.42550 37.54493
#
# Velocity S-wave (km/s) = 4.50474 4.61166 4.55851
# Velocity P-wave (km/s) = 8.79068 8.91387 8.85249
#
# Compressibility (1/GPa) = 0.01102112
#
# Stress axis : x y z
#
# Youngs Moduli (GPa) = 100.75982 64.20783 94.11317
#
# Poissons Ratio (x) = 0.32253 0.20770
# Poissons Ratio (y) = 0.50614 0.50083
# Poissons Ratio (z) = 0.22237 0.34168
#
# Static dielectric constant tensor:
#      x y z
#    x 1.623470 0.000000 0.000000 
#    y 0.000000 1.654200 0.000000 
#    z 0.000000 0.000000 1.592340 
# 
# From -- ./inp_files/36777.got.cif
#   From: 2010.05.17/outbox.ucp.g08.bks.cvg/sg51_19_cif.got.tgz:36777.got - 2010.06.11 16:27:58.
