data_PCOD9407843
_publ_section_title
;
Structure prediction by ZEFSAII (Michael W. Deem and Ramdas Pophale) SiO2 
 PCOD9407843
Probable space group: P M M A
;
_chemical_formula_sum "Si O2"
_cell_formula_units_Z 48
_cell_length_a 9.000000
_cell_length_b 9.000000
_cell_length_c 30.000000
_cell_angle_alpha 90.000000
_cell_angle_beta 90.000000
_cell_angle_gamma 90.000000
_cell_volume 2430.000000
_symmetry_space_group_name_H-M "P M M A"
_symmetry_group_IT_number 51
_symmetry_cell_setting 'orthorhombic'
loop_
_space_group_symop_operation_xyz
x,y,z
1/2-x,-y,z
1/2+x,-y,-z
-x,y,-z
-x,-y,-z
1/2+x,y,-z
1/2-x,y,z
x,-y,z
loop_
_atom_site_type_symbol
_atom_site_label
_atom_site_fract_x
_atom_site_fract_y
_atom_site_fract_z
Si Si1 0.573911 0.329272 0.772710
Si Si2 0.250000 0.822508 0.425219
Si Si3 0.929393 0.825636 0.142986
Si Si4 0.750000 0.177196 0.469250
Si Si5 0.413693 0.828990 0.694297
Si Si6 0.077887 0.181054 0.955017
Si Si7 0.455779 0.676014 0.601508
O O1 0.750000 0.322527 0.778708
O O2 0.528774 0.500000 0.765598
O O3 0.496307 0.264858 0.816493
O O4 0.527519 0.236831 0.729334
O O5 0.250000 0.793818 0.478414
O O6 0.383073 0.740687 0.402041
O O7 0.250000 0.000000 0.419249
O O8 0.750000 0.816114 0.143257
O O9 0.981362 0.773953 0.093706
O O10 0.967947 0.000000 0.148302
O O11 0.616972 0.250090 0.442063
O O12 0.750000 0.000000 0.462946
O O13 0.250000 0.825295 0.716060
O O14 0.403150 0.736215 0.648971
O O15 0.447193 0.000000 0.682823
O O16 0.250000 0.223178 0.957297
O O17 0.071374 0.000000 0.954817
O O18 0.000000 0.233689 0.000000
O O19 0.440794 0.500000 0.599205
#
# Coordination Sequence:
#
# PCOD9407843 Si02
#       7
#     8   4   8   4   8   8   8
#     4  11  25  41  58  84 118 151 190 242 298 352
#     4  11  25  43  65  91 127 169 205 249 300 351
#     4   9  18  34  56  83 115 151 195 242 291 351
#     4  11  23  43  67  93 125 165 211 249 292 355
#     4  11  24  43  67  90 116 152 196 240 291 359
#     4   8  14  25  44  74 111 148 187 235 288 342
#     4  12  25  41  65  95 127 161 201 250 303 357
#
# _framework density 19.753086
#
# number of rings (size 3 to 8) (size 9 to 14) (size 15 to 20)
#    0.000    1.667    0.833    5.000    1.167    8.667 
#    0.000    1.667    0.000    0.500    0.000    0.000 
#    0.000    0.000    0.000    0.000    0.000    0.000 
#
# Total GULP energy -267676.820852 kJ/mol
# GULP energy per Si atom -5576.600434 kJ/mol
# Density = 1.970813 g / cm^3
# Si number density = 19.753086 Si / 1000 Ang^3
#
#
#
# Elastic Constant Matrix: (Units=GPa)
#
#
# Indices 1 2 3 4 5 6 
#
# 1 70.4768 25.5447 29.8628 0.0000 0.0000 0.0000
# 2 25.5447 86.7798 51.5161 0.0000 0.0000 0.0000
# 3 29.8628 51.5161 108.5024 0.0000 0.0000 0.0000
# 4 0.0000 0.0000 0.0000 -78.7765 0.0000 0.0000
# 5 0.0000 0.0000 0.0000 0.0000 40.3975 0.0000
# 6 0.0000 0.0000 0.0000 0.0000 0.0000 20.7415
#
#
#
# Elastic Compliance Matrix: (Units=1/GPa)
#
#
# Indices 1 2 3 4 5 6 
#
# 1 0.016615 -0.003030 -0.003134 0.000000 0.000000 0.000000
# 2 -0.003030 0.016599 -0.007047 0.000000 0.000000 0.000000
# 3 -0.003134 -0.007047 0.013425 0.000000 0.000000 0.000000
# 4 0.000000 0.000000 0.000000 -0.012694 0.000000 0.000000
# 5 0.000000 0.000000 0.000000 0.000000 0.024754 0.000000
# 6 0.000000 0.000000 0.000000 0.000000 0.000000 0.048212
#
#
# Mechanical properties :
#
#
# Convention : Reuss Voigt Hill
#
# Bulk Modulus (GPa) = 49.46564 53.28958 51.37761
# Shear Modulus (GPa) = 35.69562 7.06154 21.37858
#
# Velocity S-wave (km/s) = 4.25560 1.89279 3.29339
# Velocity P-wave (km/s) = 7.01735 5.64033 6.36618
#
# Compressibility (1/GPa) = 0.02021605
#
# Stress axis : x y z
#
# Youngs Moduli (GPa) = 60.18481 60.24534 74.48874
#
# Poissons Ratio (x) = 0.18256 0.23347
# Poissons Ratio (y) = 0.18238 0.52492
# Poissons Ratio (z) = 0.18863 0.42455
#
# Static dielectric constant tensor:
#      x y z
#    x 1.689390 0.000000 0.000000 
#    y 0.000000 1.662240 0.000000 
#    z 0.000000 0.000000 1.666890 
# 
# From -- ./inp_files/37159.got.cif
#   From: 2010.05.17/outbox.ucp.g08.bks.cvg/sg51_19_cif.got.tgz:37159.got - 2010.06.11 16:27:58.
