data_PCOD9407791
_publ_section_title
;
Structure prediction by ZEFSAII (Michael W. Deem and Ramdas Pophale) SiO2 
 PCOD9407791
Probable space group: P M M A
;
_chemical_formula_sum "Si O2"
_cell_formula_units_Z 52
_cell_length_a 9.000000
_cell_length_b 21.000000
_cell_length_c 15.000000
_cell_angle_alpha 90.000000
_cell_angle_beta 90.000000
_cell_angle_gamma 90.000000
_cell_volume 2835.000000
_symmetry_space_group_name_H-M "P M M A"
_symmetry_group_IT_number 51
_symmetry_cell_setting 'orthorhombic'
loop_
_space_group_symop_operation_xyz
x,y,z
1/2-x,-y,z
1/2+x,-y,-z
-x,y,-z
-x,-y,-z
1/2+x,y,-z
1/2-x,y,z
x,-y,z
loop_
_atom_site_type_symbol
_atom_site_label
_atom_site_fract_x
_atom_site_fract_y
_atom_site_fract_z
Si Si1 0.576316 0.000000 0.593488
Si Si2 0.929890 0.310770 0.777276
Si Si3 0.929474 0.426406 0.903124
Si Si4 0.425947 0.798826 0.088593
Si Si5 0.083237 0.924302 0.867439
Si Si6 0.570050 0.748083 0.596692
Si Si7 0.081732 0.122450 0.665344
O O1 0.500000 0.000000 0.500000
O O2 0.518182 0.936291 0.637078
O O3 0.750000 0.000000 0.588376
O O4 0.750000 0.311413 0.779444
O O5 0.979208 0.373449 0.831167
O O6 0.976512 0.246242 0.829703
O O7 0.970059 0.303285 0.673507
O O8 0.750000 0.422397 0.910571
O O9 0.966162 0.500000 0.878834
O O10 0.000000 0.413526 0.000000
O O11 0.250000 0.794233 0.083514
O O12 0.470291 0.873228 0.092574
O O13 0.500000 0.771540 0.000000
O O14 0.250000 0.920807 0.907667
O O15 0.096290 0.893515 0.769405
O O16 0.042323 0.000000 0.866021
O O17 0.500000 0.735138 0.500000
O O18 0.750000 0.753267 0.590800
O O19 0.500034 0.813882 0.633956
O O20 0.250000 0.121243 0.627250
#
# Coordination Sequence:
#
# PCOD9407791 Si02
#       7
#     4   8   8   8   8   8   8
#     4  12  24  36  52  74 101 134 175 222 282 344
#     4   9  19  35  56  82 114 147 184 227 271 326
#     4   9  17  32  56  87 121 155 187 222 268 323
#     4  11  22  37  56  80 107 140 181 226 275 327
#     4  10  21  38  57  76 101 134 176 226 276 330
#     4  11  22  38  56  79 108 142 184 229 277 329
#     4  11  21  37  56  77 103 133 175 227 283 337
#
# _framework density 18.342151999999999
#
# number of rings (size 3 to 8) (size 9 to 14) (size 15 to 20)
#    0.000    1.692    2.308    3.000    0.000    1.231 
#    0.000    2.308    0.000    0.462    0.000    0.000 
#    0.000    0.000    0.000    0.000    0.000    0.154 
#
# Total GULP energy -289717.845743 kJ/mol
# GULP energy per Si atom -5571.497034 kJ/mol
# Density = 1.830040 g / cm^3
# Si number density = 18.342152 Si / 1000 Ang^3
#
#
#
# Elastic Constant Matrix: (Units=GPa)
#
#
# Indices 1 2 3 4 5 6 
#
# 1 83.4068 33.6811 42.4931 0.0000 0.0000 0.0000
# 2 33.6811 126.6112 65.1494 0.0000 0.0000 0.0000
# 3 42.4931 65.1494 127.9256 0.0000 0.0000 0.0000
# 4 0.0000 0.0000 0.0000 4.9293 0.0000 0.0000
# 5 0.0000 0.0000 0.0000 0.0000 19.6170 0.0000
# 6 0.0000 0.0000 0.0000 0.0000 0.0000 18.6633
#
#
#
# Elastic Compliance Matrix: (Units=1/GPa)
#
#
# Indices 1 2 3 4 5 6 
#
# 1 0.014762 -0.001902 -0.003935 0.000000 0.000000 0.000000
# 2 -0.001902 0.010948 -0.004944 0.000000 0.000000 0.000000
# 3 -0.003935 -0.004944 0.011642 0.000000 0.000000 0.000000
# 4 0.000000 0.000000 0.000000 0.202868 0.000000 0.000000
# 5 0.000000 0.000000 0.000000 0.000000 0.050976 0.000000
# 6 0.000000 0.000000 0.000000 0.000000 0.000000 0.053581
#
#
# Mechanical properties :
#
#
# Convention : Reuss Voigt Hill
#
# Bulk Modulus (GPa) = 63.32928 68.95453 66.14190
# Shear Modulus (GPa) = 13.45524 21.74991 17.60257
#
# Velocity S-wave (km/s) = 2.71139 3.44726 3.10123
# Velocity P-wave (km/s) = 6.66361 7.31573 6.99727
#
# Compressibility (1/GPa) = 0.01579049
#
# Stress axis : x y z
#
# Youngs Moduli (GPa) = 67.74021 91.33999 85.89768
#
# Poissons Ratio (x) = 0.17376 0.33799
# Poissons Ratio (y) = 0.12887 0.42465
# Poissons Ratio (z) = 0.26654 0.45156
#
# Static dielectric constant tensor:
#      x y z
#    x 1.645210 0.000000 0.000000 
#    y 0.000000 1.599620 0.000000 
#    z 0.000000 0.000000 1.739000 
# 
# From -- ./inp_files/21593.got.cif
#   From: 2010.05.17/outbox.ucp.g08.bks.cvg/sg51_11_cif.got.tgz:21593.got - 2010.06.11 16:27:58.
