data_PCOD9407285
_publ_section_title
;
Structure prediction by ZEFSAII (Michael W. Deem and Ramdas Pophale) SiO2 
 PCOD9407285
Probable space group: P M M A
;
_chemical_formula_sum "Si O2"
_cell_formula_units_Z 48
_cell_length_a 9.544128
_cell_length_b 7.333974
_cell_length_c 32.290030
_cell_angle_alpha 90.000000
_cell_angle_beta 90.000000
_cell_angle_gamma 90.000000
_cell_volume 2260.185423
_symmetry_space_group_name_H-M "P M M A"
_symmetry_group_IT_number 51
_symmetry_cell_setting 'orthorhombic'
loop_
_space_group_symop_operation_xyz
x,y,z
1/2-x,-y,z
1/2+x,-y,-z
-x,y,-z
-x,-y,-z
1/2+x,y,-z
1/2-x,y,z
x,-y,z
loop_
_atom_site_type_symbol
_atom_site_label
_atom_site_fract_x
_atom_site_fract_y
_atom_site_fract_z
Si Si1 0.088503 0.222754 0.120749
Si Si2 0.912568 0.721983 0.539348
Si Si3 0.412256 0.722205 0.369180
Si Si4 0.587841 0.777720 0.040273
Si Si5 0.409165 0.281813 0.708373
Si Si6 0.589807 0.783249 0.198700
O O1 0.250000 0.281246 0.117767
O O2 0.994938 0.278194 0.081510
O O3 0.012279 0.284343 0.162823
O O4 0.090558 0.000000 0.120769
O O5 0.750000 0.774485 0.535655
O O6 0.916343 0.500000 0.538929
O O7 0.963818 0.778132 0.585088
O O8 0.000000 0.785648 0.500000
O O9 0.250000 0.775773 0.365440
O O10 0.414784 0.500000 0.368815
O O11 0.500257 0.786713 0.329981
O O12 0.750000 0.718872 0.039597
O O13 0.590084 0.000000 0.040107
O O14 0.500000 0.720862 0.000000
O O15 0.250000 0.211693 0.706750
O O16 0.403183 0.500000 0.704200
O O17 0.463790 0.246042 0.754628
O O18 0.750000 0.711289 0.195950
O O19 0.599593 0.000000 0.192735
#
# Coordination Sequence:
#
# PCOD9407285 Si02
#       6
#     8   8   8   8   8   8
#     4   9  16  25  37  54  76 102 133 167 201 238
#     4   8  13  20  30  46  69  97 127 156 187 227
#     4   8  14  24  36  51  74 103 131 159 195 237
#     4   9  15  22  33  50  74 104 135 165 199 240
#     4   9  17  28  42  60  80 103 134 169 200 233
#     4   9  17  29  43  58  79 107 135 164 201 241
#
# _framework density 21.237195
#
# number of rings (size 3 to 8) (size 9 to 14) (size 15 to 20)
#    0.000    3.333    0.000    2.000    0.000    5.333 
#    0.000    3.333    0.000    0.000    0.000    0.000 
#    0.000    1.333    0.000    3.333    0.000    6.333 
#
# Total GULP energy -267856.659491 kJ/mol
# GULP energy per Si atom -5580.347073 kJ/mol
# Density = 2.118886 g / cm^3
# Si number density = 21.237195 Si / 1000 Ang^3
#
#
#
# Elastic Constant Matrix: (Units=GPa)
#
#
# Indices 1 2 3 4 5 6 
#
# 1 142.5376 4.8068 141.7175 0.0000 0.0000 0.0000
# 2 4.8068 82.1534 2.2245 0.0000 0.0000 0.0000
# 3 141.7175 2.2245 265.0609 0.0000 0.0000 0.0000
# 4 0.0000 0.0000 0.0000 7.6174 0.0000 0.0000
# 5 0.0000 0.0000 0.0000 0.0000 41.7054 0.0000
# 6 0.0000 0.0000 0.0000 0.0000 0.0000 -14.5097
#
#
#
# Elastic Compliance Matrix: (Units=1/GPa)
#
#
# Indices 1 2 3 4 5 6 
#
# 1 0.015013 -0.000661 -0.008021 0.000000 0.000000 0.000000
# 2 -0.000661 0.012204 0.000251 0.000000 0.000000 0.000000
# 3 -0.008021 0.000251 0.008059 0.000000 0.000000 0.000000
# 4 0.000000 0.000000 0.000000 0.131278 0.000000 0.000000
# 5 0.000000 0.000000 0.000000 0.000000 0.023978 0.000000
# 6 0.000000 0.000000 0.000000 0.000000 0.000000 -0.068919
#
#
# Mechanical properties :
#
#
# Convention : Reuss Voigt Hill
#
# Bulk Modulus (GPa) = 54.30725 87.47215 70.88970
# Shear Modulus (GPa) = 34.57469 29.69616 32.13543
#
# Velocity S-wave (km/s) = 4.03926 3.74345 3.89417
# Velocity P-wave (km/s) = 6.88342 7.74353 7.32610
#
# Compressibility (1/GPa) = 0.01841375
#
# Stress axis : x y z
#
# Youngs Moduli (GPa) = 66.60755 81.93876 124.07914
#
# Poissons Ratio (x) = 0.05418 0.99530
# Poissons Ratio (y) = 0.04404 -0.03116
# Poissons Ratio (z) = 0.53429 -0.02058
#
# Static dielectric constant tensor:
#      x y z
#    x 1.718580 0.000000 0.000000 
#    y 0.000000 1.900370 0.000000 
#    z 0.000000 0.000000 1.741980 
# 
# From -- ./inp_files/37300.got.cif
#   From: 2010.05.17/outbox.cif.g08.bks.cpg/sg51_19_cif.got.tgz:37300.got - 2010.06.03 11:52:47.
