data_PCOD9407222
_publ_section_title
;
Structure prediction by ZEFSAII (Michael W. Deem and Ramdas Pophale) SiO2 
 PCOD9407222
Probable space group: P M M A
;
_chemical_formula_sum "Si O2"
_cell_formula_units_Z 36
_cell_length_a 8.683482
_cell_length_b 16.457716
_cell_length_c 13.875780
_cell_angle_alpha 90.000000
_cell_angle_beta 90.000000
_cell_angle_gamma 90.000000
_cell_volume 1982.991614
_symmetry_space_group_name_H-M "P M M A"
_symmetry_group_IT_number 51
_symmetry_cell_setting 'orthorhombic'
loop_
_space_group_symop_operation_xyz
x,y,z
1/2-x,-y,z
1/2+x,-y,-z
-x,y,-z
-x,-y,-z
1/2+x,y,-z
1/2-x,y,z
x,-y,z
loop_
_atom_site_type_symbol
_atom_site_label
_atom_site_fract_x
_atom_site_fract_y
_atom_site_fract_z
Si Si1 0.937754 0.589870 0.804299
Si Si2 0.935115 0.666639 0.603308
Si Si3 0.432926 0.000000 0.607509
Si Si4 0.064078 0.163321 0.302730
Si Si5 0.064573 0.243269 0.102538
O O1 0.750000 0.590172 0.805980
O O2 0.990801 0.500000 0.832191
O O3 0.982727 0.611453 0.694262
O O4 0.987983 0.664915 0.870750
O O5 0.750000 0.664254 0.599351
O O6 0.980036 0.759199 0.631189
O O7 0.000000 0.642909 0.500000
O O8 0.500000 0.000000 0.500000
O O9 0.490667 0.080716 0.661142
O O10 0.250000 0.000000 0.602540
O O11 0.250000 0.156624 0.306640
O O12 0.020690 0.187338 0.193394
O O13 0.250000 0.243861 0.098819
O O14 0.000000 0.217631 0.000000
#
# Coordination Sequence:
#
# PCOD9407222 Si02
#       5
#     8   8   4   8   8
#     4   8  15  29  47  68  97 132 167 202 244 296
#     4   9  17  29  47  69  94 129 168 202 242 293
#     4  12  24  36  55  82 107 132 163 200 244 292
#     4   9  19  36  53  72 101 134 168 205 246 294
#     4   9  18  33  54  76  99 131 168 207 252 298
#
# _framework density 18.154388999999998
#
# number of rings (size 3 to 8) (size 9 to 14) (size 15 to 20)
#    0.000    2.889    0.000    4.333    0.000    4.444 
#    0.000    3.889    0.000    1.333    0.000    0.000 
#    0.000    0.000    0.000    0.000    0.000    0.000 
#
# Total GULP energy -200742.304812 kJ/mol
# GULP energy per Si atom -5576.175134 kJ/mol
# Density = 1.811307 g / cm^3
# Si number density = 18.154389 Si / 1000 Ang^3
#
#
#
# Elastic Constant Matrix: (Units=GPa)
#
#
# Indices 1 2 3 4 5 6 
#
# 1 15.3189 22.5530 17.5631 0.0000 0.0000 0.0000
# 2 22.5530 98.3498 26.0158 0.0000 0.0000 0.0000
# 3 17.5631 26.0158 102.3001 0.0000 0.0000 0.0000
# 4 0.0000 0.0000 0.0000 7.1061 0.0000 0.0000
# 5 0.0000 0.0000 0.0000 0.0000 31.4839 0.0000
# 6 0.0000 0.0000 0.0000 0.0000 0.0000 14.0860
#
#
#
# Elastic Compliance Matrix: (Units=1/GPa)
#
#
# Indices 1 2 3 4 5 6 
#
# 1 0.114447 -0.022565 -0.013910 0.000000 0.000000 0.000000
# 2 -0.022565 0.015350 -0.000030 0.000000 0.000000 0.000000
# 3 -0.013910 -0.000030 0.012171 0.000000 0.000000 0.000000
# 4 0.000000 0.000000 0.000000 0.140725 0.000000 0.000000
# 5 0.000000 0.000000 0.000000 0.000000 0.031762 0.000000
# 6 0.000000 0.000000 0.000000 0.000000 0.000000 0.070993
#
#
# Mechanical properties :
#
#
# Convention : Reuss Voigt Hill
#
# Bulk Modulus (GPa) = 14.50141 38.69251 26.59696
# Shear Modulus (GPa) = 10.38544 20.52432 15.45488
#
# Velocity S-wave (km/s) = 2.39438 3.36600 2.92087
# Velocity P-wave (km/s) = 3.95591 6.03870 5.10466
#
# Compressibility (1/GPa) = 0.06895881
#
# Stress axis : x y z
#
# Youngs Moduli (GPa) = 8.73767 65.14624 82.16377
#
# Poissons Ratio (x) = 1.47001 1.14290
# Poissons Ratio (y) = 0.19716 0.00244
# Poissons Ratio (z) = 0.12154 0.00193
#
# Static dielectric constant tensor:
#      x y z
#    x 1.614070 0.000000 0.000000 
#    y 0.000000 1.623200 0.000000 
#    z 0.000000 0.000000 1.604020 
# 
# From -- ./inp_files/20365.got.cif
#   From: 2010.05.17/outbox.cif.g08.bks.cpg/sg51_11_cif.got.tgz:20365.got - 2010.06.03 11:52:47.
