data_PCOD9407131
_publ_section_title
;
Structure prediction by ZEFSAII (Michael W. Deem and Ramdas Pophale) SiO2 
 PCOD9407131
Probable space group: P M M A
;
_chemical_formula_sum "Si O2"
_cell_formula_units_Z 64
_cell_length_a 14.528828
_cell_length_b 9.300363
_cell_length_c 26.019433
_cell_angle_alpha 90.000000
_cell_angle_beta 90.000000
_cell_angle_gamma 90.000000
_cell_volume 3515.833586
_symmetry_space_group_name_H-M "P M M A"
_symmetry_group_IT_number 51
_symmetry_cell_setting 'orthorhombic'
loop_
_space_group_symop_operation_xyz
x,y,z
1/2-x,-y,z
1/2+x,-y,-z
-x,y,-z
-x,-y,-z
1/2+x,y,-z
1/2-x,y,z
x,-y,z
loop_
_atom_site_type_symbol
_atom_site_label
_atom_site_fract_x
_atom_site_fract_y
_atom_site_fract_z
Si Si1 0.145057 0.159539 0.982929
Si Si2 0.598611 0.660636 0.920827
Si Si3 0.355153 0.673763 0.471332
Si Si4 0.544831 0.326017 0.420883
Si Si5 0.650231 0.675147 0.810945
Si Si6 0.947786 0.674169 0.226851
Si Si7 0.888819 0.339290 0.115213
Si Si8 0.640270 0.827633 0.324914
O O1 0.250000 0.151566 0.001382
O O2 0.148053 0.232140 0.927254
O O3 0.106152 0.000000 0.978629
O O4 0.097462 0.251611 0.026998
O O5 0.634820 0.500000 0.931793
O O6 0.648143 0.724069 0.870594
O O7 0.495455 0.648596 0.900339
O O8 0.250000 0.726676 0.463278
O O9 0.351498 0.500000 0.468133
O O10 0.393995 0.706286 0.528337
O O11 0.438518 0.716683 0.433101
O O12 0.547135 0.500000 0.413372
O O13 0.588691 0.244177 0.373169
O O14 0.750000 0.715708 0.788182
O O15 0.646931 0.500000 0.813234
O O16 0.555210 0.716921 0.782941
O O17 0.945587 0.500000 0.233786
O O18 0.890653 0.705743 0.174590
O O19 0.903151 0.755807 0.274234
O O20 0.849895 0.500000 0.110706
O O21 0.750000 0.798226 0.327459
O O22 0.627838 0.000000 0.324579
#
# Coordination Sequence:
#
# PCOD9407131 Si02
#       8
#     8   8   8   8   8   8   8   8
#     4  11  23  33  42  64  97 128 158 192 235 294
#     4   9  17  31  52  74  94 119 153 193 239 294
#     4   8  14  27  51  85 120 148 178 220 265 303
#     4   9  17  31  55  84 111 144 185 223 258 301
#     4   8  14  28  53  81 103 123 153 198 252 307
#     4   9  19  36  57  79  99 124 166 215 257 302
#     4   9  19  35  53  72  92 117 155 201 247 297
#     4  11  24  39  54  74 103 139 177 219 266 309
#
# _framework density 18.203364000000001
#
# number of rings (size 3 to 8) (size 9 to 14) (size 15 to 20)
#    0.000    2.750    0.000    4.125    0.000    6.000 
#    0.000    6.250    0.000    6.000    0.000    0.000 
#    0.000    0.000    0.000    0.000    0.000    0.000 
#
# Total GULP energy -356422.698725 kJ/mol
# GULP energy per Si atom -5569.104668 kJ/mol
# Density = 1.816193 g / cm^3
# Si number density = 18.203364 Si / 1000 Ang^3
#
#
#
# Elastic Constant Matrix: (Units=GPa)
#
#
# Indices 1 2 3 4 5 6 
#
# 1 136.5790 34.7962 69.8930 0.0000 0.0000 0.0000
# 2 34.7962 52.5141 64.9855 0.0000 0.0000 0.0000
# 3 69.8930 64.9855 148.5563 0.0000 0.0000 0.0000
# 4 0.0000 0.0000 0.0000 -37.9282 0.0000 0.0000
# 5 0.0000 0.0000 0.0000 0.0000 17.6369 0.0000
# 6 0.0000 0.0000 0.0000 0.0000 0.0000 17.3318
#
#
#
# Elastic Compliance Matrix: (Units=1/GPa)
#
#
# Indices 1 2 3 4 5 6 
#
# 1 0.009713 -0.001702 -0.003825 0.000000 0.000000 0.000000
# 2 -0.001702 0.041816 -0.017491 0.000000 0.000000 0.000000
# 3 -0.003825 -0.017491 0.016183 0.000000 0.000000 0.000000
# 4 0.000000 0.000000 0.000000 -0.026366 0.000000 0.000000
# 5 0.000000 0.000000 0.000000 0.000000 0.056699 0.000000
# 6 0.000000 0.000000 0.000000 0.000000 0.000000 0.057697
#
#
# Mechanical properties :
#
#
# Convention : Reuss Voigt Hill
#
# Bulk Modulus (GPa) = 46.13862 75.22210 60.68036
# Shear Modulus (GPa) = 23.92301 10.60642 17.26472
#
# Velocity S-wave (km/s) = 3.62913 2.41646 3.08301
# Velocity P-wave (km/s) = 6.55454 7.01417 6.78825
#
# Compressibility (1/GPa) = 0.02167381
#
# Stress axis : x y z
#
# Youngs Moduli (GPa) = 102.95557 23.91453 61.79512
#
# Poissons Ratio (x) = 0.04071 0.23637
# Poissons Ratio (y) = 0.17528 1.08087
# Poissons Ratio (z) = 0.39381 0.41829
#
# Static dielectric constant tensor:
#      x y z
#    x 1.690680 0.000000 0.000000 
#    y 0.000000 1.627070 0.000000 
#    z 0.000000 0.000000 1.604090 
# 
# From -- ./inp_files/35774.got.cif
#   From: 2010.05.17/outbox.cif.g08.bks.cpg/sg51_18_cif.got.tgz:35774.got - 2010.06.03 11:52:47.
