data_PCOD9407625
_publ_section_title
;
Structure prediction by ZEFSAII (Michael W. Deem and Ramdas Pophale) SiO2 
 PCOD9407625
Probable space group: P M M A
;
_chemical_formula_sum "Si O2"
_cell_formula_units_Z 48
_cell_length_a 9.000000
_cell_length_b 30.000000
_cell_length_c 9.000000
_cell_angle_alpha 90.000000
_cell_angle_beta 90.000000
_cell_angle_gamma 90.000000
_cell_volume 2430.000000
_symmetry_space_group_name_H-M "P M M A"
_symmetry_group_IT_number 51
_symmetry_cell_setting 'orthorhombic'
loop_
_space_group_symop_operation_xyz
x,y,z
1/2-x,-y,z
1/2+x,-y,-z
-x,y,-z
-x,-y,-z
1/2+x,y,-z
1/2-x,y,z
x,-y,z
loop_
_atom_site_type_symbol
_atom_site_label
_atom_site_fract_x
_atom_site_fract_y
_atom_site_fract_z
Si Si1 0.572886 0.885544 0.846171
Si Si2 0.419720 0.806508 0.352500
Si Si3 0.917957 0.053144 0.351469
Si Si4 0.571637 0.548233 0.338740
Si Si5 0.578786 0.719379 0.843201
Si Si6 0.072069 0.365332 0.837623
O O1 0.750000 0.884215 0.856207
O O2 0.517075 0.850008 0.725811
O O3 0.513625 0.932437 0.789020
O O4 0.500000 0.873504 0.000000
O O5 0.500000 0.793720 0.500000
O O6 0.250000 0.816880 0.388384
O O7 0.425086 0.765323 0.242199
O O8 0.750000 0.070414 0.342462
O O9 0.000000 0.069198 0.500000
O O10 0.910926 0.000000 0.359735
O O11 0.500000 0.550331 0.500000
O O12 0.750000 0.550194 0.353158
O O13 0.533076 0.500000 0.271230
O O14 0.523017 0.590239 0.244680
O O15 0.750000 0.706003 0.864645
O O16 0.491201 0.679447 0.763556
O O17 0.500000 0.726536 0.000000
O O18 0.250000 0.363920 0.845106
O O19 0.000000 0.365986 0.000000
#
# Coordination Sequence:
#
# PCOD9407625 Si02
#       6
#     8   8   8   8   8   8
#     4  11  23  39  59  84 113 147 187 229 276 326
#     4  10  23  39  57  82 110 142 180 222 268 321
#     4  10  21  38  60  86 116 150 187 228 275 326
#     4   9  19  35  53  74 102 136 174 216 262 312
#     4  10  20  36  56  79 107 139 176 216 263 316
#     4  10  20  34  53  78 106 137 174 215 261 313
#
# _framework density 19.753086
#
# number of rings (size 3 to 8) (size 9 to 14) (size 15 to 20)
#    0.000    2.000    0.000    4.000    0.000    7.667 
#    0.000    3.333    0.000    0.000    0.000    0.000 
#    0.000    0.000    0.000    0.000    0.000    0.000 
#
# Total GULP energy -267572.080685 kJ/mol
# GULP energy per Si atom -5574.418348 kJ/mol
# Density = 1.970813 g / cm^3
# Si number density = 19.753086 Si / 1000 Ang^3
#
#
#
# Elastic Constant Matrix: (Units=GPa)
#
#
# Indices 1 2 3 4 5 6 
#
# 1 65.0988 29.5432 21.4494 0.0000 0.0000 0.0000
# 2 29.5432 43.9183 16.1435 0.0000 0.0000 0.0000
# 3 21.4494 16.1435 23.8806 0.0000 0.0000 0.0000
# 4 0.0000 0.0000 0.0000 61.0262 0.0000 0.0000
# 5 0.0000 0.0000 0.0000 0.0000 24.5551 0.0000
# 6 0.0000 0.0000 0.0000 0.0000 0.0000 23.6216
#
#
#
# Elastic Compliance Matrix: (Units=1/GPa)
#
#
# Indices 1 2 3 4 5 6 
#
# 1 0.025656 -0.011694 -0.015139 0.000000 0.000000 0.000000
# 2 -0.011694 0.035628 -0.013582 0.000000 0.000000 0.000000
# 3 -0.015139 -0.013582 0.064654 0.000000 0.000000 0.000000
# 4 0.000000 0.000000 0.000000 0.016386 0.000000 0.000000
# 5 0.000000 0.000000 0.000000 0.000000 0.040725 0.000000
# 6 0.000000 0.000000 0.000000 0.000000 0.000000 0.042334
#
#
# Mechanical properties :
#
#
# Convention : Reuss Voigt Hill
#
# Bulk Modulus (GPa) = 22.16834 29.68555 25.92695
# Shear Modulus (GPa) = 15.56420 26.22469 20.89445
#
# Velocity S-wave (km/s) = 2.81007 3.64761 3.25588
# Velocity P-wave (km/s) = 4.66645 5.72722 5.22383
#
# Compressibility (1/GPa) = 0.04510937
#
# Stress axis : x y z
#
# Youngs Moduli (GPa) = 38.97666 28.06773 15.46684
#
# Poissons Ratio (x) = 0.32822 0.23416
# Poissons Ratio (y) = 0.45578 0.21007
# Poissons Ratio (z) = 0.59008 0.38121
#
# Static dielectric constant tensor:
#      x y z
#    x 1.688630 0.000000 0.000000 
#    y 0.000000 1.748260 0.000000 
#    z 0.000000 0.000000 1.683550 
# 
# From -- ./inp_files/6072.got.cif
#   From: 2010.05.17/outbox.ucp.g08.bks.cvg/sg51_4_cif.got.tgz:6072.got - 2010.06.11 16:27:58.
