data_PCOD9407431
_publ_section_title
;
Structure prediction by ZEFSAII (Michael W. Deem and Ramdas Pophale) SiO2 
 PCOD9407431
Probable space group: P M M A
;
_chemical_formula_sum "Si O2"
_cell_formula_units_Z 64
_cell_length_a 24.000000
_cell_length_b 9.000000
_cell_length_c 15.000000
_cell_angle_alpha 90.000000
_cell_angle_beta 90.000000
_cell_angle_gamma 90.000000
_cell_volume 3240.000000
_symmetry_space_group_name_H-M "P M M A"
_symmetry_group_IT_number 51
_symmetry_cell_setting 'orthorhombic'
loop_
_space_group_symop_operation_xyz
x,y,z
1/2-x,-y,z
1/2+x,-y,-z
-x,y,-z
-x,-y,-z
1/2+x,y,-z
1/2-x,y,z
x,-y,z
loop_
_atom_site_type_symbol
_atom_site_label
_atom_site_fract_x
_atom_site_fract_y
_atom_site_fract_z
Si Si1 0.316207 0.332993 0.849448
Si Si2 0.163926 0.668835 0.517813
Si Si3 0.309184 0.679396 0.328201
Si Si4 0.685410 0.823993 0.965884
Si Si5 0.604831 0.821163 0.803336
Si Si6 0.872836 0.175171 0.307953
Si Si7 0.045371 0.660195 0.424026
Si Si8 0.496253 0.173590 0.728580
O O1 0.250000 0.336492 0.836662
O O2 0.337960 0.500000 0.834164
O O3 0.326166 0.276380 0.948855
O O4 0.341365 0.216361 0.781505
O O5 0.182926 0.500000 0.534828
O O6 0.193532 0.731877 0.430507
O O7 0.160113 0.754864 0.609419
O O8 0.102023 0.665534 0.477601
O O9 0.250000 0.716561 0.284073
O O10 0.314562 0.500000 0.331090
O O11 0.360571 0.746510 0.276175
O O12 0.750000 0.799557 0.938084
O O13 0.680710 0.000000 0.987721
O O14 0.640739 0.788284 0.890431
O O15 0.540125 0.771508 0.802964
O O16 0.605193 0.000000 0.791309
O O17 0.935578 0.238507 0.292946
O O18 0.876596 0.000000 0.323510
O O19 0.042937 0.500000 0.374525
O O20 0.000000 0.659514 0.500000
O O21 0.031918 0.795863 0.360127
O O22 0.487027 0.000000 0.745823
#
# Coordination Sequence:
#
# PCOD9407431 Si02
#       8
#     8   8   8   8   8   8   8   8
#     4  10  22  41  64  86 107 135 175 225 278 331
#     4  10  20  34  51  74 107 147 190 232 274 320
#     4  10  21  35  51  75 109 147 186 230 279 328
#     4   9  18  35  60  86 109 137 177 224 272 323
#     4  10  20  35  56  82 113 148 183 221 269 325
#     4  11  23  37  56  83 113 146 184 228 276 326
#     4  10  18  30  50  73  99 140 191 234 271 312
#     4  10  21  34  51  79 114 148 184 224 269 322
#
# _framework density 19.753086
#
# number of rings (size 3 to 8) (size 9 to 14) (size 15 to 20)
#    0.000    2.000    2.500    1.125    0.000    4.250 
#    0.000    3.125    0.000    3.750    0.000    0.000 
#    0.000    0.000    0.000    0.000    0.000    0.000 
#
# Total GULP energy -356281.836283 kJ/mol
# GULP energy per Si atom -5566.903692 kJ/mol
# Density = 1.970813 g / cm^3
# Si number density = 19.753086 Si / 1000 Ang^3
#
#
#
# Elastic Constant Matrix: (Units=GPa)
#
#
# Indices 1 2 3 4 5 6 
#
# 1 41.1684 8.6733 28.9223 0.0000 0.0000 0.0000
# 2 8.6733 0.7426 5.4873 0.0000 0.0000 0.0000
# 3 28.9223 5.4873 30.3758 0.0000 0.0000 0.0000
# 4 0.0000 0.0000 0.0000 16.5134 0.0000 0.0000
# 5 0.0000 0.0000 0.0000 0.0000 48.0070 0.0000
# 6 0.0000 0.0000 0.0000 0.0000 0.0000 13.6218
#
#
#
# Elastic Compliance Matrix: (Units=1/GPa)
#
#
# Indices 1 2 3 4 5 6 
#
# 1 0.016274 0.225659 -0.056260 0.000000 0.000000 0.000000
# 2 0.225659 -0.891899 -0.053742 0.000000 0.000000 0.000000
# 3 -0.056260 -0.053742 0.096198 0.000000 0.000000 0.000000
# 4 0.000000 0.000000 0.000000 0.060557 0.000000 0.000000
# 5 0.000000 0.000000 0.000000 0.000000 0.020830 0.000000
# 6 0.000000 0.000000 0.000000 0.000000 0.000000 0.073412
#
#
# Mechanical properties :
#
#
# Convention : Reuss Voigt Hill
#
# Bulk Modulus (GPa) = -1.82444 17.60584 7.89070
# Shear Modulus (GPa) = -4.81396 17.57536 6.38070
#
# Velocity S-wave (km/s) = -1.56280 2.98611 1.79923
# Velocity P-wave (km/s) = 2.04502 4.56305 2.88438
#
# Compressibility (1/GPa) = -0.54811352
#
# Stress axis : x y z
#
# Youngs Moduli (GPa) = 61.44667 -1.12120 10.39526
#
# Poissons Ratio (x) = 0.25301 0.58484
# Poissons Ratio (y) = -13.86598 0.55866
# Poissons Ratio (z) = 3.45701 -0.06026
#
# Static dielectric constant tensor:
#      x y z
#    x 1.804430 0.000000 0.000000 
#    y 0.000000 1.680660 0.000000 
#    z 0.000000 0.000000 1.685890 
# 
# From -- ./inp_files/26179.got.cif
#   From: 2010.05.17/outbox.ucp.g08.bks.cvg/sg51_14_cif.got.tgz:26179.got - 2010.06.11 16:27:58.
