data_PCOD9407430
_publ_section_title
;
Structure prediction by ZEFSAII (Michael W. Deem and Ramdas Pophale) SiO2 
 PCOD9407430
Probable space group: P M M A
;
_chemical_formula_sum "Si O2"
_cell_formula_units_Z 64
_cell_length_a 9.000000
_cell_length_b 21.000000
_cell_length_c 21.000000
_cell_angle_alpha 90.000000
_cell_angle_beta 90.000000
_cell_angle_gamma 90.000000
_cell_volume 3969.000000
_symmetry_space_group_name_H-M "P M M A"
_symmetry_group_IT_number 51
_symmetry_cell_setting 'orthorhombic'
loop_
_space_group_symop_operation_xyz
x,y,z
1/2-x,-y,z
1/2+x,-y,-z
-x,y,-z
-x,-y,-z
1/2+x,y,-z
1/2-x,y,z
x,-y,z
loop_
_atom_site_type_symbol
_atom_site_label
_atom_site_fract_x
_atom_site_fract_y
_atom_site_fract_z
Si Si1 0.424722 0.884967 0.753245
Si Si2 0.429445 0.207548 0.431539
Si Si3 0.571249 0.205561 0.932329
Si Si4 0.571261 0.574781 0.430538
Si Si5 0.574220 0.071453 0.103834
Si Si6 0.427794 0.070425 0.374510
Si Si7 0.930204 0.690759 0.333771
Si Si8 0.928896 0.751258 0.788616
O O1 0.250000 0.870710 0.743841
O O2 0.438585 0.923131 0.819401
O O3 0.489432 0.921187 0.692678
O O4 0.515139 0.819565 0.762624
O O5 0.500000 0.223709 0.500000
O O6 0.250000 0.215587 0.432175
O O7 0.463705 0.133290 0.415588
O O8 0.501482 0.252607 0.377484
O O9 0.750000 0.206016 0.937607
O O10 0.513747 0.132623 0.922533
O O11 0.533448 0.244011 0.865608
O O12 0.500000 0.228113 0.000000
O O13 0.500000 0.590885 0.500000
O O14 0.750000 0.577808 0.437643
O O15 0.532196 0.500000 0.416504
O O16 0.533161 0.625292 0.373787
O O17 0.750000 0.078615 0.088181
O O18 0.526367 0.000000 0.083981
O O19 0.250000 0.072450 0.363754
O O20 0.463799 0.000000 0.401431
O O21 0.750000 0.695602 0.330550
O O22 0.996706 0.701057 0.261769
O O23 0.750000 0.745901 0.784138
#
# Coordination Sequence:
#
# PCOD9407430 Si02
#       8
#     8   8   8   8   8   8   8   8
#     4  10  18  30  49  71  93 119 158 206 256 309
#     4  11  23  37  52  70  97 129 167 215 261 310
#     4  10  21  35  51  70  95 128 164 204 256 310
#     4   9  19  35  54  80 115 151 184 214 248 294
#     4   9  18  31  46  66  92 121 156 200 250 308
#     4  10  21  35  49  65  89 123 161 207 265 319
#     4  11  21  34  56  82 106 137 175 213 253 297
#     4  10  20  34  52  75 102 131 165 208 255 303
#
# _framework density 16.124969
#
# number of rings (size 3 to 8) (size 9 to 14) (size 15 to 20)
#    0.000    2.000    1.250    2.625    0.000    6.000 
#    0.000    0.000    0.000    0.000    0.000    0.000 
#    0.000    0.500    0.000    1.125    0.000    1.750 
#
# Total GULP energy -356893.907420 kJ/mol
# GULP energy per Si atom -5576.467303 kJ/mol
# Density = 1.608827 g / cm^3
# Si number density = 16.124969 Si / 1000 Ang^3
#
#
#
# Elastic Constant Matrix: (Units=GPa)
#
#
# Indices 1 2 3 4 5 6 
#
# 1 59.2345 25.3762 37.4830 0.0000 0.0000 0.0000
# 2 25.3762 82.9483 40.4003 0.0000 0.0000 0.0000
# 3 37.4830 40.4003 119.1989 0.0000 0.0000 0.0000
# 4 0.0000 0.0000 0.0000 23.5337 0.0000 0.0000
# 5 0.0000 0.0000 0.0000 0.0000 32.8483 0.0000
# 6 0.0000 0.0000 0.0000 0.0000 0.0000 21.3606
#
#
#
# Elastic Compliance Matrix: (Units=1/GPa)
#
#
# Indices 1 2 3 4 5 6 
#
# 1 0.022159 -0.004055 -0.005594 0.000000 0.000000 0.000000
# 2 -0.004055 0.015181 -0.003870 0.000000 0.000000 0.000000
# 3 -0.005594 -0.003870 0.011460 0.000000 0.000000 0.000000
# 4 0.000000 0.000000 0.000000 0.042492 0.000000 0.000000
# 5 0.000000 0.000000 0.000000 0.000000 0.030443 0.000000
# 6 0.000000 0.000000 0.000000 0.000000 0.000000 0.046815
#
#
# Mechanical properties :
#
#
# Convention : Reuss Voigt Hill
#
# Bulk Modulus (GPa) = 45.95029 51.98897 48.96963
# Shear Modulus (GPa) = 24.64973 26.09001 25.36987
#
# Velocity S-wave (km/s) = 3.91406 4.02679 3.97082
# Velocity P-wave (km/s) = 6.99891 7.34379 7.17342
#
# Compressibility (1/GPa) = 0.02176265
#
# Stress axis : x y z
#
# Youngs Moduli (GPa) = 45.12904 65.87099 87.25894
#
# Poissons Ratio (x) = 0.26707 0.48811
# Poissons Ratio (y) = 0.18298 0.33773
# Poissons Ratio (z) = 0.25244 0.25495
#
# Static dielectric constant tensor:
#      x y z
#    x 1.542210 0.000000 0.000000 
#    y 0.000000 1.546010 0.000000 
#    z 0.000000 0.000000 1.559120 
# 
# From -- ./inp_files/32672.got.cif
#   From: 2010.05.17/outbox.ucp.g08.bks.cvg/sg51_17_cif.got.tgz:32672.got - 2010.06.11 16:27:58.
