data_PCOD9407288
_publ_section_title
;
Structure prediction by ZEFSAII (Michael W. Deem and Ramdas Pophale) SiO2 
 PCOD9407288
Probable space group: P M M A
;
_chemical_formula_sum "Si O2"
_cell_formula_units_Z 40
_cell_length_a 7.396070
_cell_length_b 10.103622
_cell_length_c 27.041546
_cell_angle_alpha 90.000000
_cell_angle_beta 90.000000
_cell_angle_gamma 90.000000
_cell_volume 2020.736192
_symmetry_space_group_name_H-M "P M M A"
_symmetry_group_IT_number 51
_symmetry_cell_setting 'orthorhombic'
loop_
_space_group_symop_operation_xyz
x,y,z
1/2-x,-y,z
1/2+x,-y,-z
-x,y,-z
-x,-y,-z
1/2+x,y,-z
1/2-x,y,z
x,-y,z
loop_
_atom_site_type_symbol
_atom_site_label
_atom_site_fract_x
_atom_site_fract_y
_atom_site_fract_z
Si Si1 0.466141 0.849550 0.555977
Si Si2 0.534446 0.848549 0.053261
Si Si3 0.970520 0.845651 0.161402
Si Si4 0.470575 0.348244 0.640302
Si Si5 0.970383 0.347860 0.247828
O O1 0.500000 0.802777 0.500000
O O2 0.250000 0.856162 0.561913
O O3 0.534612 0.751590 0.598205
O O4 0.536483 0.000000 0.560240
O O5 0.750000 0.856243 0.056861
O O6 0.472436 0.796287 0.106587
O O7 0.463385 0.000000 0.050402
O O8 0.500000 0.783107 0.000000
O O9 0.750000 0.844063 0.162652
O O10 0.033008 0.752921 0.205848
O O11 0.023192 0.000000 0.166676
O O12 0.250000 0.347214 0.639757
O O13 0.525473 0.500000 0.631012
O O14 0.525234 0.311784 0.696230
O O15 0.750000 0.346376 0.247313
O O16 0.024586 0.500000 0.238427
#
# Coordination Sequence:
#
# PCOD9407288 Si02
#       5
#     8   8   8   8   8
#     4   9  17  28  41  58  80 104 128 154 186 223
#     4   8  13  21  33  50  72  96 121 150 183 217
#     4   8  13  20  31  49  71  93 119 151 184 218
#     4   8  14  24  37  54  76 100 126 156 188 222
#     4   8  13  21  33  50  73  98 120 146 185 226
#
# _framework density 19.794767
#
# number of rings (size 3 to 8) (size 9 to 14) (size 15 to 20)
#    0.000    3.800    0.000    2.400    0.000    1.200 
#    0.000    4.000    0.000    0.600    0.000    1.400 
#    0.000    8.000    0.000    0.000    0.000    0.000 
#
# Total GULP energy -222747.074441 kJ/mol
# GULP energy per Si atom -5568.676861 kJ/mol
# Density = 1.974971 g / cm^3
# Si number density = 19.794767 Si / 1000 Ang^3
#
#
#
# Elastic Constant Matrix: (Units=GPa)
#
#
# Indices 1 2 3 4 5 6 
#
# 1 65.9121 3.6302 5.2649 0.0000 0.0000 0.0000
# 2 3.6302 82.4367 123.5824 0.0000 0.0000 0.0000
# 3 5.2649 123.5824 247.6624 0.0000 0.0000 0.0000
# 4 0.0000 0.0000 0.0000 -56.6698 0.0000 0.0000
# 5 0.0000 0.0000 0.0000 0.0000 11.7874 0.0000
# 6 0.0000 0.0000 0.0000 0.0000 0.0000 -6.7224
#
#
#
# Elastic Compliance Matrix: (Units=1/GPa)
#
#
# Indices 1 2 3 4 5 6 
#
# 1 0.015209 -0.000734 0.000043 0.000000 0.000000 0.000000
# 2 -0.000734 0.048183 -0.024027 0.000000 0.000000 0.000000
# 3 0.000043 -0.024027 0.016026 0.000000 0.000000 0.000000
# 4 0.000000 0.000000 0.000000 -0.017646 0.000000 0.000000
# 5 0.000000 0.000000 0.000000 0.000000 0.084836 0.000000
# 6 0.000000 0.000000 0.000000 0.000000 0.000000 -0.148755
#
#
# Mechanical properties :
#
#
# Convention : Reuss Voigt Hill
#
# Bulk Modulus (GPa) = 33.35499 73.44067 53.39783
# Shear Modulus (GPa) = 87.28592 7.24795 47.26694
#
# Velocity S-wave (km/s) = 6.64764 1.91559 4.89186
# Velocity P-wave (km/s) = 8.70681 6.48647 7.67733
#
# Compressibility (1/GPa) = 0.02998052
#
# Stress axis : x y z
#
# Youngs Moduli (GPa) = 65.75170 20.75438 62.39727
#
# Poissons Ratio (x) = 0.01524 -0.00270
# Poissons Ratio (y) = 0.04829 1.49924
# Poissons Ratio (z) = -0.00284 0.49867
#
# Static dielectric constant tensor:
#      x y z
#    x 1.801780 0.000000 0.000000 
#    y 0.000000 1.658560 0.000000 
#    z 0.000000 0.000000 1.716380 
# 
# From -- ./inp_files/23070.got.cif
#   From: 2010.05.17/outbox.cif.g08.bks.cpg/sg51_12_cif.got.tgz:23070.got - 2010.06.03 11:52:47.
