data_PCOD9407256
_publ_section_title
;
Structure prediction by ZEFSAII (Michael W. Deem and Ramdas Pophale) SiO2 
 PCOD9407256
Probable space group: P M M A
;
_chemical_formula_sum "Si O2"
_cell_formula_units_Z 48
_cell_length_a 7.377029
_cell_length_b 14.242437
_cell_length_c 25.211652
_cell_angle_alpha 90.000000
_cell_angle_beta 90.000000
_cell_angle_gamma 90.000000
_cell_volume 2648.909383
_symmetry_space_group_name_H-M "P M M A"
_symmetry_group_IT_number 51
_symmetry_cell_setting 'orthorhombic'
loop_
_space_group_symop_operation_xyz
x,y,z
1/2-x,-y,z
1/2+x,-y,-z
-x,y,-z
-x,-y,-z
1/2+x,y,-z
1/2-x,y,z
x,-y,z
loop_
_atom_site_type_symbol
_atom_site_label
_atom_site_fract_x
_atom_site_fract_y
_atom_site_fract_z
Si Si1 0.534290 0.794537 0.440019
Si Si2 0.029290 0.294414 0.719963
Si Si3 0.028706 0.895105 0.665620
Si Si4 0.466120 0.607494 0.942721
Si Si5 0.970764 0.390010 0.172705
Si Si6 0.529161 0.605105 0.388529
O O1 0.500000 0.823522 0.500000
O O2 0.750000 0.790805 0.433539
O O3 0.469853 0.863330 0.393453
O O4 0.467616 0.688818 0.427297
O O5 0.250000 0.294742 0.720668
O O6 0.972705 0.189060 0.704545
O O7 0.965809 0.332392 0.776437
O O8 0.978006 0.361953 0.670903
O O9 0.250000 0.896141 0.666087
O O10 0.967915 0.000000 0.678424
O O11 0.250000 0.601858 0.938632
O O12 0.537160 0.500000 0.945687
O O13 0.529174 0.645522 0.885719
O O14 0.500000 0.653411 0.000000
O O15 0.750000 0.387474 0.174049
O O16 0.020806 0.500000 0.177299
O O17 0.750000 0.603218 0.389933
O O18 0.466337 0.500000 0.400576
#
# Coordination Sequence:
#
# PCOD9407256 Si02
#       6
#     8   8   8   8   8   8
#     4   9  17  27  38  53  71  90 113 139 166 199
#     4   8  12  18  30  48  68  88 110 138 173 208
#     4   8  14  24  36  50  69  90 109 134 172 212
#     4   8  13  20  29  43  66  94 119 141 164 190
#     4   8  12  17  27  45  67  88 111 141 172 197
#     4   8  13  21  33  49  69  91 113 138 168 201
#
# _framework density 18.120666
#
# number of rings (size 3 to 8) (size 9 to 14) (size 15 to 20)
#    0.000    3.833    0.000    3.500    0.000    2.667 
#    0.000    0.000    0.000    0.000    0.000    4.667 
#    0.000    6.000    0.000    0.500    0.000    1.000 
#
# Total GULP energy -267257.696707 kJ/mol
# GULP energy per Si atom -5567.868681 kJ/mol
# Density = 1.807942 g / cm^3
# Si number density = 18.120666 Si / 1000 Ang^3
#
#
#
# Elastic Constant Matrix: (Units=GPa)
#
#
# Indices 1 2 3 4 5 6 
#
# 1 61.0049 1.2960 -1.3985 0.0000 0.0000 0.0000
# 2 1.2960 75.7315 28.5601 0.0000 0.0000 0.0000
# 3 -1.3985 28.5601 133.7745 0.0000 0.0000 0.0000
# 4 0.0000 0.0000 0.0000 13.1515 0.0000 0.0000
# 5 0.0000 0.0000 0.0000 0.0000 8.3348 0.0000
# 6 0.0000 0.0000 0.0000 0.0000 0.0000 -13.4185
#
#
#
# Elastic Compliance Matrix: (Units=1/GPa)
#
#
# Indices 1 2 3 4 5 6 
#
# 1 0.016406 -0.000376 0.000252 0.000000 0.000000 0.000000
# 2 -0.000376 0.014369 -0.003072 0.000000 0.000000 0.000000
# 3 0.000252 -0.003072 0.008134 0.000000 0.000000 0.000000
# 4 0.000000 0.000000 0.000000 0.076037 0.000000 0.000000
# 5 0.000000 0.000000 0.000000 0.000000 0.119979 0.000000
# 6 0.000000 0.000000 0.000000 0.000000 0.000000 -0.074524
#
#
# Mechanical properties :
#
#
# Convention : Reuss Voigt Hill
#
# Bulk Modulus (GPa) = 30.75258 36.38068 33.56663
# Shear Modulus (GPa) = 28.14815 17.75045 22.94930
#
# Velocity S-wave (km/s) = 3.94556 3.13320 3.56261
# Velocity P-wave (km/s) = 6.14528 5.76279 5.95711
#
# Compressibility (1/GPa) = 0.03251760
#
# Stress axis : x y z
#
# Youngs Moduli (GPa) = 60.95379 69.59240 122.94542
#
# Poissons Ratio (x) = 0.02614 -0.03095
# Poissons Ratio (y) = 0.02290 0.37765
# Poissons Ratio (z) = -0.01534 0.21377
#
# Static dielectric constant tensor:
#      x y z
#    x 1.722540 0.000000 0.000000 
#    y 0.000000 1.597070 0.000000 
#    z 0.000000 0.000000 1.654820 
# 
# From -- ./inp_files/33083.got.cif
#   From: 2010.05.17/outbox.cif.g08.bks.cpg/sg51_17_cif.got.tgz:33083.got - 2010.06.03 11:52:47.
