data_PCOD9407333
_publ_section_title
;
Structure prediction by ZEFSAII (Michael W. Deem and Ramdas Pophale) SiO2 
 PCOD9407333
Probable space group: P M M A
;
_chemical_formula_sum "Si O2"
_cell_formula_units_Z 40
_cell_length_a 31.647291
_cell_length_b 7.392412
_cell_length_c 7.465105
_cell_angle_alpha 90.000000
_cell_angle_beta 90.000000
_cell_angle_gamma 90.000000
_cell_volume 1746.459924
_symmetry_space_group_name_H-M "P M M A"
_symmetry_group_IT_number 51
_symmetry_cell_setting 'orthorhombic'
loop_
_space_group_symop_operation_xyz
x,y,z
1/2-x,-y,z
1/2+x,-y,-z
-x,y,-z
-x,-y,-z
1/2+x,y,-z
1/2-x,y,z
x,-y,z
loop_
_atom_site_type_symbol
_atom_site_label
_atom_site_fract_x
_atom_site_fract_y
_atom_site_fract_z
Si Si1 0.386171 0.278057 0.696349
Si Si2 0.548290 0.721250 0.009769
Si Si3 0.295269 0.216549 0.310535
Si Si4 0.204588 0.709110 0.734605
Si Si5 0.112237 0.712573 0.289376
O O1 0.383977 0.500000 0.695161
O O2 0.426383 0.225824 0.812266
O O3 0.341459 0.214614 0.780401
O O4 0.389301 0.214432 0.491478
O O5 0.547887 0.500000 0.007255
O O6 0.500000 0.781011 0.000000
O O7 0.577297 0.784873 0.845061
O O8 0.250000 0.275946 0.231676
O O9 0.296137 0.286058 0.516080
O O10 0.339364 0.271010 0.222686
O O11 0.295189 0.000000 0.318610
O O12 0.250000 0.791302 0.788035
O O13 0.205214 0.500000 0.791366
O O14 0.103583 0.500000 0.305012
#
# Coordination Sequence:
#
# PCOD9407333 Si02
#       5
#     8   8   8   8   8
#     4   8  14  25  41  63  90 116 144 179 218 261
#     4   9  17  28  43  66  93 117 147 190 232 267
#     4   9  16  26  43  67  93 120 148 179 217 262
#     4   8  13  23  41  64  90 118 145 176 216 261
#     4   9  17  29  46  67  90 118 150 183 222 265
#
# _framework density 22.903476000000001
#
# number of rings (size 3 to 8) (size 9 to 14) (size 15 to 20)
#    0.000    3.400    0.000    1.800    0.000    2.000 
#    0.000    5.000    0.000    9.000    0.000   16.800 
#    0.000    0.000    0.000    0.000    0.000    0.000 
#
# Total GULP energy -223087.138637 kJ/mol
# GULP energy per Si atom -5577.178466 kJ/mol
# Density = 2.285135 g / cm^3
# Si number density = 22.903476 Si / 1000 Ang^3
#
#
#
# Elastic Constant Matrix: (Units=GPa)
#
#
# Indices 1 2 3 4 5 6 
#
# 1 258.6339 -5.1111 82.3807 0.0000 0.0000 0.0000
# 2 -5.1111 82.3497 -0.9402 0.0000 0.0000 0.0000
# 3 82.3807 -0.9402 92.1971 0.0000 0.0000 0.0000
# 4 0.0000 0.0000 0.0000-1332.7437 0.0000 0.0000
# 5 0.0000 0.0000 0.0000 0.0000 3.8351 0.0000
# 6 0.0000 0.0000 0.0000 0.0000 0.0000 38.9823
#
#
#
# Elastic Compliance Matrix: (Units=1/GPa)
#
#
# Indices 1 2 3 4 5 6 
#
# 1 0.005411 0.000281 -0.004832 0.000000 0.000000 0.000000
# 2 0.000281 0.012159 -0.000127 0.000000 0.000000 0.000000
# 3 -0.004832 -0.000127 0.015163 0.000000 0.000000 0.000000
# 4 0.000000 0.000000 0.000000 -0.000750 0.000000 0.000000
# 5 0.000000 0.000000 0.000000 0.000000 0.260746 0.000000
# 6 0.000000 0.000000 0.000000 0.000000 0.000000 0.025653
#
#
# Mechanical properties :
#
#
# Convention : Reuss Voigt Hill
#
# Bulk Modulus (GPa) = 42.77781 65.09329 53.93555
# Shear Modulus (GPa) = 14.90178 -234.19515 -109.64668
#
# Velocity S-wave (km/s) = 2.55352 -10.12300 -6.92657
# Velocity P-wave (km/s) = 5.23564 10.39957 6.35370
#
# Compressibility (1/GPa) = 0.02337661
#
# Stress axis : x y z
#
# Youngs Moduli (GPa) = 184.80288 82.24155 65.95127
#
# Poissons Ratio (x) = -0.02308 0.31869
# Poissons Ratio (y) = -0.05187 0.00836
# Poissons Ratio (z) = 0.89300 0.01043
#
# Static dielectric constant tensor:
#      x y z
#    x 1.864440 0.000000 0.000000 
#    y 0.000000 1.923920 0.000000 
#    z 0.000000 0.000000 1.857090 
# 
# From -- ./inp_files/12111.got.cif
#   From: 2010.05.17/outbox.cif.g08.bks.cpg/sg51_7_cif.got.tgz:12111.got - 2010.06.03 11:52:47.
