data_PCOD9407036
_publ_section_title
;
Structure prediction by ZEFSAII (Michael W. Deem and Ramdas Pophale) SiO2 
 PCOD9407036
Probable space group: P M M A
;
_chemical_formula_sum "Si O2"
_cell_formula_units_Z 56
_cell_length_a 24.715266
_cell_length_b 8.706635
_cell_length_c 15.020813
_cell_angle_alpha 90.000000
_cell_angle_beta 90.000000
_cell_angle_gamma 90.000000
_cell_volume 3232.280683
_symmetry_space_group_name_H-M "P M M A"
_symmetry_group_IT_number 51
_symmetry_cell_setting 'orthorhombic'
loop_
_space_group_symop_operation_xyz
x,y,z
1/2-x,-y,z
1/2+x,-y,-z
-x,y,-z
-x,-y,-z
1/2+x,y,-z
1/2-x,y,z
x,-y,z
loop_
_atom_site_type_symbol
_atom_site_label
_atom_site_fract_x
_atom_site_fract_y
_atom_site_fract_z
Si Si1 0.364811 0.683627 0.465757
Si Si2 0.250000 0.316936 0.704362
Si Si3 0.965336 0.183137 0.876319
Si Si4 0.434260 0.182423 0.628393
Si Si5 0.452803 0.683070 0.317800
Si Si6 0.143722 0.817136 0.795216
Si Si7 0.750000 0.183278 0.495172
Si Si8 0.422178 0.683421 0.950887
O O1 0.360999 0.500000 0.476009
O O2 0.396502 0.751356 0.550841
O O3 0.401471 0.717780 0.379768
O O4 0.305014 0.753493 0.461731
O O5 0.250000 0.500000 0.694760
O O6 0.302852 0.260562 0.756458
O O7 0.250000 0.241087 0.606921
O O8 0.950414 0.234072 0.777260
O O9 0.022239 0.260986 0.903662
O O10 0.971538 0.000000 0.881422
O O11 0.923751 0.242050 0.951269
O O12 0.492541 0.261906 0.633017
O O13 0.403659 0.207717 0.722188
O O14 0.440953 0.000000 0.616048
O O15 0.455793 0.500000 0.304237
O O16 0.125255 0.744517 0.888017
O O17 0.151382 0.000000 0.803683
O O18 0.750000 0.000000 0.496265
O O19 0.421935 0.500000 0.957130
#
# Coordination Sequence:
#
# PCOD9407036 Si02
#       8
#     8   4   8   8   8   8   4   8
#     4  11  24  40  59  82 113 152 193 240 288 341
#     4  12  24  38  60  85 112 151 194 238 286 340
#     4  11  21  35  56  83 115 150 187 230 282 339
#     4  11  22  35  56  84 118 154 190 233 285 343
#     4  11  23  38  57  84 117 153 194 237 287 343
#     4  11  22  37  57  85 118 153 189 235 286 341
#     4  12  24  40  60  83 110 147 194 242 286 338
#     4  11  21  35  57  84 114 149 187 231 281 337
#
# _framework density 17.325229
#
# number of rings (size 3 to 8) (size 9 to 14) (size 15 to 20)
#    0.000    0.857    2.857    6.857    0.000    5.143 
#    0.000    0.000    0.000    0.857    0.000    3.000 
#    0.000    0.000    0.000    0.000    0.000    0.000 
#
# Total GULP energy -313184.769629 kJ/mol
# GULP energy per Si atom -5592.585172 kJ/mol
# Density = 1.728580 g / cm^3
# Si number density = 17.325229 Si / 1000 Ang^3
#
#
#
# Elastic Constant Matrix: (Units=GPa)
#
#
# Indices 1 2 3 4 5 6 
#
# 1 106.6527 39.3156 35.1163 0.0000 0.0000 0.0000
# 2 39.3156 85.2565 32.4120 0.0000 0.0000 0.0000
# 3 35.1163 32.4120 71.2828 0.0000 0.0000 0.0000
# 4 0.0000 0.0000 0.0000 -35.8558 0.0000 0.0000
# 5 0.0000 0.0000 0.0000 0.0000 18.2693 0.0000
# 6 0.0000 0.0000 0.0000 0.0000 0.0000 37.7520
#
#
#
# Elastic Compliance Matrix: (Units=1/GPa)
#
#
# Indices 1 2 3 4 5 6 
#
# 1 0.012251 -0.004056 -0.004191 0.000000 0.000000 0.000000
# 2 -0.004056 0.015524 -0.005060 0.000000 0.000000 0.000000
# 3 -0.004191 -0.005060 0.018394 0.000000 0.000000 0.000000
# 4 0.000000 0.000000 0.000000 -0.027889 0.000000 0.000000
# 5 0.000000 0.000000 0.000000 0.000000 0.054737 0.000000
# 6 0.000000 0.000000 0.000000 0.000000 0.000000 0.026489
#
#
# Mechanical properties :
#
#
# Convention : Reuss Voigt Hill
#
# Bulk Modulus (GPa) = 51.14063 52.98663 52.06363
# Shear Modulus (GPa) = 37.69640 14.45628 26.07634
#
# Velocity S-wave (km/s) = 4.66962 2.89174 3.88378
# Velocity P-wave (km/s) = 7.65871 6.46525 7.08715
#
# Compressibility (1/GPa) = 0.01955392
#
# Stress axis : x y z
#
# Youngs Moduli (GPa) = 81.62278 64.41787 54.36505
#
# Poissons Ratio (x) = 0.26130 0.22785
# Poissons Ratio (y) = 0.33109 0.27510
# Poissons Ratio (z) = 0.34209 0.32597
#
# Static dielectric constant tensor:
#      x y z
#    x 1.576200 0.000000 0.000000 
#    y 0.000000 1.575300 0.000000 
#    z 0.000000 0.000000 1.582440 
# 
# From -- ./inp_files/25933.got.cif
#   From: 2010.05.17/outbox.cif.g08.bks.cpg/sg51_13_cif.got.tgz:25933.got - 2010.06.03 11:52:47.
