data_PCOD9407571
_publ_section_title
;
Structure prediction by ZEFSAII (Michael W. Deem and Ramdas Pophale) SiO2 
 PCOD9407571
Probable space group: P M M A
;
_chemical_formula_sum "Si O2"
_cell_formula_units_Z 56
_cell_length_a 15.000000
_cell_length_b 9.000000
_cell_length_c 21.000000
_cell_angle_alpha 90.000000
_cell_angle_beta 90.000000
_cell_angle_gamma 90.000000
_cell_volume 2835.000000
_symmetry_space_group_name_H-M "P M M A"
_symmetry_group_IT_number 51
_symmetry_cell_setting 'orthorhombic'
loop_
_space_group_symop_operation_xyz
x,y,z
1/2-x,-y,z
1/2+x,-y,-z
-x,y,-z
-x,-y,-z
1/2+x,y,-z
1/2-x,y,z
x,-y,z
loop_
_atom_site_type_symbol
_atom_site_label
_atom_site_fract_x
_atom_site_fract_y
_atom_site_fract_z
Si Si1 0.750000 0.320432 0.373181
Si Si2 0.250000 0.320627 0.478164
Si Si3 0.554022 0.330468 0.565369
Si Si4 0.357949 0.668117 0.993799
Si Si5 0.435047 0.174623 0.663387
Si Si6 0.643920 0.172878 0.134680
Si Si7 0.006238 0.324416 0.213665
Si Si8 0.643198 0.174996 0.877133
O O1 0.750000 0.500000 0.368715
O O2 0.750000 0.275537 0.447817
O O3 0.660837 0.253402 0.342917
O O4 0.250000 0.500000 0.479033
O O5 0.343951 0.279943 0.445885
O O6 0.500000 0.345499 0.500000
O O7 0.554777 0.500000 0.593632
O O8 0.495489 0.212771 0.603101
O O9 0.250000 0.660623 0.996337
O O10 0.390410 0.500000 0.982277
O O11 0.387551 0.734736 0.060618
O O12 0.377942 0.781940 0.937571
O O13 0.490185 0.252252 0.718723
O O14 0.423024 0.000000 0.673597
O O15 0.750000 0.194126 0.144850
O O16 0.583679 0.280368 0.176137
O O17 0.623284 0.000000 0.147116
O O18 0.018393 0.500000 0.215335
O O19 0.089238 0.244825 0.180419
O O20 0.750000 0.191944 0.870316
O O21 0.624569 0.000000 0.884247
#
# Coordination Sequence:
#
# PCOD9407571 Si02
#       8
#     4   4   8   8   8   8   8   8
#     4  11  21  41  69  97 125 165 208 247 298 365
#     4   9  18  35  65  99 127 161 206 255 304 355
#     4  10  19  38  66  95 128 166 210 257 303 359
#     4   9  17  32  57  89 122 156 199 248 301 366
#     4  12  26  43  62  92 130 167 205 254 308 364
#     4  10  21  38  60  88 124 160 198 251 312 367
#     4  12  26  43  63  87 118 162 212 255 300 367
#     4  10  21  40  65  90 119 155 198 255 318 372
#
# _framework density 19.753086
#
# number of rings (size 3 to 8) (size 9 to 14) (size 15 to 20)
#    0.000    1.571    1.429    4.071    1.000    4.286 
#    1.286    3.214    0.000    0.000    0.000    0.000 
#    0.000    0.000    0.000    0.000    0.000    0.000 
#
# Total GULP energy -312704.712536 kJ/mol
# GULP energy per Si atom -5584.012724 kJ/mol
# Density = 1.970813 g / cm^3
# Si number density = 19.753086 Si / 1000 Ang^3
#
#
#
# Elastic Constant Matrix: (Units=GPa)
#
#
# Indices 1 2 3 4 5 6 
#
# 1 12.8196 -4.6348 -19.4721 0.0000 0.0000 0.0000
# 2 -4.6348 68.2294 -7.8981 0.0000 0.0000 0.0000
# 3 -19.4721 -7.8981 35.4907 0.0000 0.0000 0.0000
# 4 0.0000 0.0000 0.0000 65.1297 0.0000 0.0000
# 5 0.0000 0.0000 0.0000 0.0000 -40.8375 0.0000
# 6 0.0000 0.0000 0.0000 0.0000 0.0000 33.2563
#
#
#
# Elastic Compliance Matrix: (Units=1/GPa)
#
#
# Indices 1 2 3 4 5 6 
#
# 1 1.079581 0.145654 0.624729 0.000000 0.000000 0.000000
# 2 0.145654 0.034695 0.087634 0.000000 0.000000 0.000000
# 3 0.624729 0.087634 0.390437 0.000000 0.000000 0.000000
# 4 0.000000 0.000000 0.000000 0.015354 0.000000 0.000000
# 5 0.000000 0.000000 0.000000 0.000000 -0.024487 0.000000
# 6 0.000000 0.000000 0.000000 0.000000 0.000000 0.030070
#
#
# Mechanical properties :
#
#
# Convention : Reuss Voigt Hill
#
# Bulk Modulus (GPa) = 0.31049 5.83664 3.07356
# Shear Modulus (GPa) = 5.66124 21.41270 13.53697
#
# Velocity S-wave (km/s) = 1.69476 3.29601 2.62068
# Velocity P-wave (km/s) = 1.99679 4.17686 3.27363
#
# Compressibility (1/GPa) = 3.22074627
#
# Stress axis : x y z
#
# Youngs Moduli (GPa) = 0.92629 28.82252 2.56123
#
# Poissons Ratio (x) = -4.19810 -1.60007
# Poissons Ratio (y) = -0.13492 -0.22445
# Poissons Ratio (z) = -0.57868 -2.52584
#
# Static dielectric constant tensor:
#      x y z
#    x 1.688730 0.000000 0.000000 
#    y 0.000000 1.661800 0.000000 
#    z 0.000000 0.000000 1.695370 
# 
# From -- ./inp_files/33516.got.cif
#   From: 2010.05.17/outbox.ucp.g08.bks.cvg/sg51_17_cif.got.tgz:33516.got - 2010.06.11 16:27:58.
