data_PCOD9407661
_publ_section_title
;
Structure prediction by ZEFSAII (Michael W. Deem and Ramdas Pophale) SiO2 
 PCOD9407661
Probable space group: P M M A
;
_chemical_formula_sum "Si O2"
_cell_formula_units_Z 64
_cell_length_a 18.000000
_cell_length_b 9.000000
_cell_length_c 21.000000
_cell_angle_alpha 90.000000
_cell_angle_beta 90.000000
_cell_angle_gamma 90.000000
_cell_volume 3402.000000
_symmetry_space_group_name_H-M "P M M A"
_symmetry_group_IT_number 51
_symmetry_cell_setting 'orthorhombic'
loop_
_space_group_symop_operation_xyz
x,y,z
1/2-x,-y,z
1/2+x,-y,-z
-x,y,-z
-x,-y,-z
1/2+x,y,-z
1/2-x,y,z
x,-y,z
loop_
_atom_site_type_symbol
_atom_site_label
_atom_site_fract_x
_atom_site_fract_y
_atom_site_fract_z
Si Si1 0.161158 0.331991 0.574843
Si Si2 0.160692 0.167561 0.078168
Si Si3 0.904316 0.174960 0.307016
Si Si4 0.586705 0.324923 0.807087
Si Si5 0.913061 0.322553 0.179286
Si Si6 0.577411 0.823554 0.678946
Si Si7 0.839248 0.326096 0.049277
Si Si8 0.663801 0.320826 0.564325
O O1 0.250000 0.340744 0.569424
O O2 0.133252 0.500000 0.586785
O O3 0.140143 0.227836 0.632182
O O4 0.134794 0.278463 0.505768
O O5 0.250000 0.165852 0.077134
O O6 0.133910 0.275926 0.132987
O O7 0.134072 0.000000 0.089814
O O8 0.135293 0.229828 0.010334
O O9 0.878872 0.253049 0.242479
O O10 0.990339 0.217102 0.318924
O O11 0.900515 0.000000 0.298574
O O12 0.591381 0.500000 0.795361
O O13 0.500575 0.286670 0.821157
O O14 0.611101 0.237457 0.744422
O O15 0.905455 0.500000 0.182893
O O16 0.874765 0.272337 0.114697
O O17 0.616035 0.749036 0.619433
O O18 0.583927 0.000000 0.675898
O O19 0.750000 0.318533 0.053862
O O20 0.858986 0.500000 0.039440
O O21 0.750000 0.275428 0.571051
O O22 0.661680 0.500000 0.566985
#
# Coordination Sequence:
#
# PCOD9407661 Si02
#       8
#     8   8   8   8   8   8   8   8
#     4   9  19  36  56  77 103 136 174 215 257 304
#     4  10  21  36  53  75 104 135 168 209 256 306
#     4  10  21  35  52  77 108 139 172 212 257 307
#     4  10  20  35  55  76 101 135 174 214 253 299
#     4   9  19  35  54  77 104 135 173 214 254 299
#     4  10  21  36  53  76 107 139 171 210 258 310
#     4   9  18  34  55  77 102 133 169 208 250 299
#     4   9  19  36  56  78 103 133 173 217 258 304
#
# _framework density 18.812463000000001
#
# number of rings (size 3 to 8) (size 9 to 14) (size 15 to 20)
#    0.000    2.500    0.000    2.250    0.000    6.250 
#    0.000    7.500    0.000    0.000    0.000    0.000 
#    0.000    0.000    0.000    0.000    0.000    0.000 
#
# Total GULP energy -356943.926772 kJ/mol
# GULP energy per Si atom -5577.248856 kJ/mol
# Density = 1.876965 g / cm^3
# Si number density = 18.812463 Si / 1000 Ang^3
#
#
#
# Elastic Constant Matrix: (Units=GPa)
#
#
# Indices 1 2 3 4 5 6 
#
# 1 0.7137 12.6274 24.5915 0.0000 0.0000 0.0000
# 2 12.6274 -16.0046 8.9623 0.0000 0.0000 0.0000
# 3 24.5915 8.9623 115.4039 0.0000 0.0000 0.0000
# 4 0.0000 0.0000 0.0000 49.9165 0.0000 0.0000
# 5 0.0000 0.0000 0.0000 0.0000 27.1982 0.0000
# 6 0.0000 0.0000 0.0000 0.0000 0.0000 21.2373
#
#
#
# Elastic Compliance Matrix: (Units=1/GPa)
#
#
# Indices 1 2 3 4 5 6 
#
# 1 0.425247 0.272904 -0.111810 0.000000 0.000000 0.000000
# 2 0.272904 0.115259 -0.067104 0.000000 0.000000 0.000000
# 3 -0.111810 -0.067104 0.037702 0.000000 0.000000 0.000000
# 4 0.000000 0.000000 0.000000 0.020033 0.000000 0.000000
# 5 0.000000 0.000000 0.000000 0.000000 0.036767 0.000000
# 6 0.000000 0.000000 0.000000 0.000000 0.000000 0.047087
#
#
# Mechanical properties :
#
#
# Convention : Reuss Voigt Hill
#
# Bulk Modulus (GPa) = 1.30516 21.38616 11.34566
# Shear Modulus (GPa) = 6.67101 23.26584 14.96842
#
# Velocity S-wave (km/s) = 1.88514 3.52053 2.82381
# Velocity P-wave (km/s) = 2.33101 5.28377 4.08362
#
# Compressibility (1/GPa) = 0.76618731
#
# Stress axis : x y z
#
# Youngs Moduli (GPa) = 2.35157 8.67612 26.52364
#
# Poissons Ratio (x) = -2.36775 2.96561
# Poissons Ratio (y) = -0.64175 1.77985
# Poissons Ratio (z) = 0.26293 0.58220
#
# Static dielectric constant tensor:
#      x y z
#    x 1.647010 0.000000 0.000000 
#    y 0.000000 1.632800 0.000000 
#    z 0.000000 0.000000 1.645090 
# 
# From -- ./inp_files/30556.got.cif
#   From: 2010.05.17/outbox.ucp.g08.bks.cvg/sg51_16_cif.got.tgz:30556.got - 2010.06.11 16:27:58.
