data_PCOD9407247
_publ_section_title
;
Structure prediction by ZEFSAII (Michael W. Deem and Ramdas Pophale) SiO2 
 PCOD9407247
Probable space group: P M M A
;
_chemical_formula_sum "Si O2"
_cell_formula_units_Z 40
_cell_length_a 13.827990
_cell_length_b 7.323358
_cell_length_c 15.770343
_cell_angle_alpha 90.000000
_cell_angle_beta 90.000000
_cell_angle_gamma 90.000000
_cell_volume 1597.020390
_symmetry_space_group_name_H-M "P M M A"
_symmetry_group_IT_number 51
_symmetry_cell_setting 'orthorhombic'
loop_
_space_group_symop_operation_xyz
x,y,z
1/2-x,-y,z
1/2+x,-y,-z
-x,y,-z
-x,-y,-z
1/2+x,y,-z
1/2-x,y,z
x,-y,z
loop_
_atom_site_type_symbol
_atom_site_label
_atom_site_fract_x
_atom_site_fract_y
_atom_site_fract_z
Si Si1 0.568004 0.716805 0.302951
Si Si2 0.614164 0.290621 0.480975
Si Si3 0.856625 0.222599 0.937386
Si Si4 0.564972 0.217618 0.118293
Si Si5 0.351955 0.276592 0.332915
O O1 0.561944 0.500000 0.317903
O O2 0.622720 0.789437 0.386534
O O3 0.609536 0.742290 0.209652
O O4 0.456538 0.786126 0.300285
O O5 0.500000 0.293719 0.500000
O O6 0.647886 0.500000 0.477674
O O7 0.652388 0.214291 0.568906
O O8 0.750000 0.285355 0.910577
O O9 0.953360 0.285217 0.888474
O O10 0.855650 0.000000 0.933584
O O11 0.876758 0.277466 0.035295
O O12 0.559829 0.000000 0.110959
O O13 0.250000 0.220538 0.291369
O O14 0.354165 0.500000 0.331670
#
# Coordination Sequence:
#
# PCOD9407247 Si02
#       5
#     8   8   8   8   8
#     4   9  16  26  41  62  88 112 134 170 218 254
#     4   7  11  21  36  52  73 105 138 162 190 233
#     4   8  15  30  49  64  81 109 144 177 205 244
#     4   9  17  29  47  68  84 106 143 176 207 253
#     4   8  13  22  38  59  81 109 147 181 204 237
#
# _framework density 25.046644000000001
#
# number of rings (size 3 to 8) (size 9 to 14) (size 15 to 20)
#    0.000    3.800    0.000    3.600    0.000    0.800 
#    0.000    3.000    0.000    8.400    0.000    0.000 
#    0.000    0.000    0.000    0.000    0.000    0.000 
#
# Total GULP energy -222948.862901 kJ/mol
# GULP energy per Si atom -5573.721573 kJ/mol
# Density = 2.498964 g / cm^3
# Si number density = 25.046644 Si / 1000 Ang^3
#
#
#
# Elastic Constant Matrix: (Units=GPa)
#
#
# Indices 1 2 3 4 5 6 
#
# 1 78.2178 -1.6070 -12.9483 0.0000 0.0000 0.0000
# 2 -1.6070 97.1554 -11.7260 0.0000 0.0000 0.0000
# 3 -12.9483 -11.7260 158.5875 0.0000 0.0000 0.0000
# 4 0.0000 0.0000 0.0000 16.7982 0.0000 0.0000
# 5 0.0000 0.0000 0.0000 0.0000 -7.2661 0.0000
# 6 0.0000 0.0000 0.0000 0.0000 0.0000 -16.0214
#
#
#
# Elastic Compliance Matrix: (Units=1/GPa)
#
#
# Indices 1 2 3 4 5 6 
#
# 1 0.012971 0.000345 0.001085 0.000000 0.000000 0.000000
# 2 0.000345 0.010395 0.000797 0.000000 0.000000 0.000000
# 3 0.001085 0.000797 0.006453 0.000000 0.000000 0.000000
# 4 0.000000 0.000000 0.000000 0.059530 0.000000 0.000000
# 5 0.000000 0.000000 0.000000 0.000000 -0.137626 0.000000
# 6 0.000000 0.000000 0.000000 0.000000 0.000000 -0.062416
#
#
# Mechanical properties :
#
#
# Convention : Reuss Voigt Hill
#
# Bulk Modulus (GPa) = 29.17743 31.26644 30.22194
# Shear Modulus (GPa) = -48.20556 22.71828 -12.74364
#
# Velocity S-wave (km/s) = -4.39182 3.01498 -2.25810
# Velocity P-wave (km/s) = 3.74739 4.96291 2.30082
#
# Compressibility (1/GPa) = 0.03427306
#
# Stress axis : x y z
#
# Youngs Moduli (GPa) = 77.09231 96.20312 154.96333
#
# Poissons Ratio (x) = -0.03323 -0.16808
# Poissons Ratio (y) = -0.02663 -0.12347
# Poissons Ratio (z) = -0.08362 -0.07665
#
# Static dielectric constant tensor:
#      x y z
#    x 1.875600 0.000000 0.000000 
#    y 0.000000 1.988710 0.000000 
#    z 0.000000 0.000000 1.997770 
# 
# From -- ./inp_files/16185.got.cif
#   From: 2010.05.17/outbox.cif.g08.bks.cpg/sg51_9_cif.got.tgz:16185.got - 2010.06.03 11:52:47.
