data_PCOD9407593
_publ_section_title
;
Structure prediction by ZEFSAII (Michael W. Deem and Ramdas Pophale) SiO2 
 PCOD9407593
Probable space group: P M M A
;
_chemical_formula_sum "Si O2"
_cell_formula_units_Z 56
_cell_length_a 18.000000
_cell_length_b 9.000000
_cell_length_c 21.000000
_cell_angle_alpha 90.000000
_cell_angle_beta 90.000000
_cell_angle_gamma 90.000000
_cell_volume 3402.000000
_symmetry_space_group_name_H-M "P M M A"
_symmetry_group_IT_number 51
_symmetry_cell_setting 'orthorhombic'
loop_
_space_group_symop_operation_xyz
x,y,z
1/2-x,-y,z
1/2+x,-y,-z
-x,y,-z
-x,-y,-z
1/2+x,y,-z
1/2-x,y,z
x,-y,z
loop_
_atom_site_type_symbol
_atom_site_label
_atom_site_fract_x
_atom_site_fract_y
_atom_site_fract_z
Si Si1 0.538212 0.678253 0.069573
Si Si2 0.837731 0.327196 0.864543
Si Si3 0.163319 0.820643 0.433484
Si Si4 0.426898 0.671324 0.544782
Si Si5 0.338202 0.828053 0.999360
Si Si6 0.479284 0.179395 0.346357
Si Si7 0.466540 0.822101 0.197668
O O1 0.536963 0.500000 0.074682
O O2 0.506570 0.747424 0.135554
O O3 0.500000 0.716005 0.000000
O O4 0.619569 0.744895 0.056960
O O5 0.750000 0.321170 0.853526
O O6 0.861275 0.500000 0.864132
O O7 0.852128 0.257729 0.934237
O O8 0.882241 0.231584 0.813643
O O9 0.250000 0.778481 0.420422
O O10 0.134581 0.752468 0.500729
O O11 0.101048 0.779206 0.379270
O O12 0.161009 0.000000 0.438123
O O13 0.500000 0.671351 0.500000
O O14 0.405830 0.500000 0.557156
O O15 0.455949 0.750678 0.609276
O O16 0.250000 0.826773 0.989470
O O17 0.362780 0.000000 0.004839
O O18 0.486310 0.220015 0.271067
O O19 0.484031 0.000000 0.349993
O O20 0.473700 0.000000 0.192142
#
# Coordination Sequence:
#
# PCOD9407593 Si02
#       7
#     8   8   8   8   8   8   8
#     4  11  22  35  53  76 102 136 176 220 267 318
#     4  10  20  33  48  69 100 135 169 206 254 313
#     4   9  17  31  53  79 107 139 172 207 247 295
#     4   9  17  30  50  75 102 134 170 208 247 291
#     4  10  20  34  54  77  98 124 163 214 267 314
#     4   9  19  34  51  74 104 139 176 211 254 307
#     4  11  22  34  52  76 103 137 176 221 265 307
#
# _framework density 16.460905
#
# number of rings (size 3 to 8) (size 9 to 14) (size 15 to 20)
#    0.000    2.143    1.429    2.143    0.000    6.000 
#    0.000    1.429    0.000    0.857    0.000    6.000 
#    0.000    0.000    0.000    0.000    0.000    0.000 
#
# Total GULP energy -311927.016221 kJ/mol
# GULP energy per Si atom -5570.125290 kJ/mol
# Density = 1.642344 g / cm^3
# Si number density = 16.460905 Si / 1000 Ang^3
#
#
#
# Elastic Constant Matrix: (Units=GPa)
#
#
# Indices 1 2 3 4 5 6 
#
# 1 41.8044 17.1266 34.5269 0.0000 0.0000 0.0000
# 2 17.1266 62.1572 46.0515 0.0000 0.0000 0.0000
# 3 34.5269 46.0515 136.0828 0.0000 0.0000 0.0000
# 4 0.0000 0.0000 0.0000 23.3431 0.0000 0.0000
# 5 0.0000 0.0000 0.0000 0.0000 24.0013 0.0000
# 6 0.0000 0.0000 0.0000 0.0000 0.0000 24.2078
#
#
#
# Elastic Compliance Matrix: (Units=1/GPa)
#
#
# Indices 1 2 3 4 5 6 
#
# 1 0.030856 -0.003606 -0.006609 0.000000 0.000000 0.000000
# 2 -0.003606 0.021893 -0.006494 0.000000 0.000000 0.000000
# 3 -0.006609 -0.006494 0.011223 0.000000 0.000000 0.000000
# 4 0.000000 0.000000 0.000000 0.042839 0.000000 0.000000
# 5 0.000000 0.000000 0.000000 0.000000 0.041664 0.000000
# 6 0.000000 0.000000 0.000000 0.000000 0.000000 0.041309
#
#
# Mechanical properties :
#
#
# Convention : Reuss Voigt Hill
#
# Bulk Modulus (GPa) = 32.72738 48.38385 40.55562
# Shear Modulus (GPa) = 21.42368 23.79973 22.61170
#
# Velocity S-wave (km/s) = 3.61153 3.80654 3.71031
# Velocity P-wave (km/s) = 6.10867 6.98403 6.56097
#
# Compressibility (1/GPa) = 0.03055545
#
# Stress axis : x y z
#
# Youngs Moduli (GPa) = 32.40828 45.67664 89.10433
#
# Poissons Ratio (x) = 0.16470 0.58886
# Poissons Ratio (y) = 0.11686 0.57864
# Poissons Ratio (z) = 0.21417 0.29662
#
# Static dielectric constant tensor:
#      x y z
#    x 1.598390 0.000000 0.000000 
#    y 0.000000 1.560300 0.000000 
#    z 0.000000 0.000000 1.539720 
# 
# From -- ./inp_files/33708.got.cif
#   From: 2010.05.17/outbox.ucp.g08.bks.cvg/sg51_17_cif.got.tgz:33708.got - 2010.06.11 16:27:58.
