data_PCOD9407947
_publ_section_title
;
Structure prediction by ZEFSAII (Michael W. Deem and Ramdas Pophale) SiO2 
 PCOD9407947
Probable space group: P N N A
;
_chemical_formula_sum "Si O2"
_cell_formula_units_Z 40
_cell_length_a 8.131216
_cell_length_b 19.775851
_cell_length_c 11.603730
_cell_angle_alpha 90.000000
_cell_angle_beta 90.000000
_cell_angle_gamma 90.000000
_cell_volume 1865.899697
_symmetry_space_group_name_H-M "P N N A"
_symmetry_group_IT_number 52
_symmetry_cell_setting 'orthorhombic'
loop_
_space_group_symop_operation_xyz
x,y,z
1/2-x,-y,z
x,1/2-y,1/2-z
1/2-x,1/2+y,1/2-z
-x,-y,-z
1/2+x,y,-z
-x,1/2+y,1/2+z
1/2+x,1/2-y,1/2+z
loop_
_atom_site_type_symbol
_atom_site_label
_atom_site_fract_x
_atom_site_fract_y
_atom_site_fract_z
Si Si1 0.523720 0.230292 0.115062
Si Si2 0.195617 0.315770 0.329498
Si Si3 0.320306 0.073220 0.348631
Si Si4 0.833895 0.325784 0.303016
Si Si5 0.164408 0.375635 0.914558
O O1 0.502285 0.250000 0.250000
O O2 0.341405 0.206111 0.083540
O O3 0.667195 0.174421 0.121105
O O4 0.586289 0.300523 0.060316
O O5 0.168811 0.250000 0.250000
O O6 0.269623 0.374847 0.250895
O O7 0.009721 0.336566 0.363329
O O8 0.240330 0.097221 0.468754
O O9 0.515257 0.078420 0.369215
O O10 0.250000 0.000000 0.321249
O O11 0.836184 0.250000 0.250000
O O12 0.798059 0.369716 0.188250
#
# Coordination Sequence:
#
# PCOD9407947 Si02
#       5
#     8   8   8   8   8
#     4   8  14  31  50  64  87 129 177 219 245 274
#     4  10  16  32  53  64  87 138 175 217 245 290
#     4  12  22  31  46  73 112 148 172 201 258 314
#     4   8  15  27  50  70  83 127 183 216 246 276
#     4  10  19  33  43  71 110 142 170 210 249 308
#
# _framework density 21.437380000000001
#
# number of rings (size 3 to 8) (size 9 to 14) (size 15 to 20)
#    0.000    2.800    6.000    1.800    0.000    0.000 
#    0.000    0.000    0.000    0.000    0.000    0.000 
#    0.000    1.600    0.000    0.000    0.000    0.200 
#
# Total GULP energy -223099.434591 kJ/mol
# GULP energy per Si atom -5577.485865 kJ/mol
# Density = 2.138859 g / cm^3
# Si number density = 21.437380 Si / 1000 Ang^3
#
#
#
# Elastic Constant Matrix: (Units=GPa)
#
#
# Indices 1 2 3 4 5 6 
#
# 1 154.8764 -15.1873 20.4962 0.0000 0.0000 0.0000
# 2 -15.1873 53.1727 15.7578 0.0000 0.0000 0.0000
# 3 20.4962 15.7578 44.5044 0.0000 0.0000 0.0000
# 4 0.0000 0.0000 0.0000 23.0218 0.0000 0.0000
# 5 0.0000 0.0000 0.0000 0.0000 -304.2838 0.0000
# 6 0.0000 0.0000 0.0000 0.0000 0.0000 -81.5546
#
#
#
# Elastic Compliance Matrix: (Units=1/GPa)
#
#
# Indices 1 2 3 4 5 6 
#
# 1 0.007416 0.003497 -0.004653 0.000000 0.000000 0.000000
# 2 0.003497 0.022661 -0.009634 0.000000 0.000000 0.000000
# 3 -0.004653 -0.009634 0.028024 0.000000 0.000000 0.000000
# 4 0.000000 0.000000 0.000000 0.043437 0.000000 0.000000
# 5 0.000000 0.000000 0.000000 0.000000 -0.003286 0.000000
# 6 0.000000 0.000000 0.000000 0.000000 0.000000 -0.012262
#
#
# Mechanical properties :
#
#
# Convention : Reuss Voigt Hill
#
# Bulk Modulus (GPa) = 27.38278 32.74298 30.06288
# Shear Modulus (GPa) = 41.75615 -57.13088 -7.68737
#
# Velocity S-wave (km/s) = 4.41820 -5.16798 -1.89572
# Velocity P-wave (km/s) = 6.23125 4.50596 3.04341
#
# Compressibility (1/GPa) = 0.03651930
#
# Stress axis : x y z
#
# Youngs Moduli (GPa) = 134.85236 44.12956 35.68379
#
# Poissons Ratio (x) = -0.15432 0.16605
# Poissons Ratio (y) = -0.47159 0.34378
# Poissons Ratio (z) = 0.62752 0.42515
#
# Static dielectric constant tensor:
#      x y z
#    x 1.923280 0.000000 0.000000 
#    y 0.000000 1.766950 0.000000 
#    z 0.000000 0.000000 1.822630 
# 
# From -- ./inp_files/24562.got.cif
#   From: 2010.05.17/outbox.cif.g08.bks.cpg/sg52_13_cif.got.tgz:24562.got - 2010.06.03 12:15:38.
