data_PCOD9407874
_publ_section_title
;
Structure prediction by ZEFSAII (Michael W. Deem and Ramdas Pophale) SiO2 
 PCOD9407874
Probable space group: P N N A
;
_chemical_formula_sum "Si O2"
_cell_formula_units_Z 32
_cell_length_a 11.751597
_cell_length_b 8.653280
_cell_length_c 11.822892
_cell_angle_alpha 90.000000
_cell_angle_beta 90.000000
_cell_angle_gamma 90.000000
_cell_volume 1202.268224
_symmetry_space_group_name_H-M "P N N A"
_symmetry_group_IT_number 52
_symmetry_cell_setting 'orthorhombic'
loop_
_space_group_symop_operation_xyz
x,y,z
1/2-x,-y,z
x,1/2-y,1/2-z
1/2-x,1/2+y,1/2-z
-x,-y,-z
1/2+x,y,-z
-x,1/2+y,1/2+z
1/2+x,1/2-y,1/2+z
loop_
_atom_site_type_symbol
_atom_site_label
_atom_site_fract_x
_atom_site_fract_y
_atom_site_fract_z
Si Si1 0.250000 0.000000 0.827126
Si Si2 0.506743 0.011776 0.187727
Si Si3 0.772389 0.221026 0.503932
Si Si4 0.841014 0.250000 0.750000
Si Si5 0.975593 0.758774 0.520248
O O1 0.132888 0.009256 0.759943
O O2 0.264739 0.143897 0.910919
O O3 0.416564 0.095139 0.266890
O O4 0.473724 0.848749 0.133282
O O5 0.516619 0.132896 0.082462
O O6 0.777285 0.279064 0.633764
O O7 0.644138 0.154210 0.503360
O O8 0.900947 0.161569 0.481244
#
# Coordination Sequence:
#
# PCOD9407874 Si02
#       5
#     4   8   8   4   8
#     4   8  14  28  44  58  84 120 140 154 204 272
#     4   8  14  23  39  60  84 109 135 166 205 247
#     4   9  15  24  40  60  84 109 135 165 203 246
#     4  10  16  20  34  66  92  98 128 186 216 222
#     4   8  14  25  40  57  80 113 136 152 198 266
#
# _framework density 26.616354999999999
#
# number of rings (size 3 to 8) (size 9 to 14) (size 15 to 20)
#    0.000    3.500    0.000    4.500    0.000    0.000 
#    0.000    0.000    0.000   24.000    0.000    0.000 
#    0.000  234.000    0.000    0.000    0.000    0.000 
#
# Total GULP energy -178396.210899 kJ/mol
# GULP energy per Si atom -5574.881591 kJ/mol
# Density = 2.655577 g / cm^3
# Si number density = 26.616355 Si / 1000 Ang^3
#
#
#
# Elastic Constant Matrix: (Units=GPa)
#
#
# Indices 1 2 3 4 5 6 
#
# 1 295.8776 62.6110 14.4920 0.0000 0.0000 0.0000
# 2 62.6110 70.6575 13.5858 0.0000 0.0000 0.0000
# 3 14.4920 13.5858 87.7504 0.0000 0.0000 0.0000
# 4 0.0000 0.0000 0.0000 7.5942 0.0000 0.0000
# 5 0.0000 0.0000 0.0000 0.0000 -7.7292 0.0000
# 6 0.0000 0.0000 0.0000 0.0000 0.0000 -64.0314
#
#
#
# Elastic Compliance Matrix: (Units=1/GPa)
#
#
# Indices 1 2 3 4 5 6 
#
# 1 0.004161 -0.003664 -0.000120 0.000000 0.000000 0.000000
# 2 -0.003664 0.017814 -0.002153 0.000000 0.000000 0.000000
# 3 -0.000120 -0.002153 0.011749 0.000000 0.000000 0.000000
# 4 0.000000 0.000000 0.000000 0.131679 0.000000 0.000000
# 5 0.000000 0.000000 0.000000 0.000000 -0.129379 0.000000
# 6 0.000000 0.000000 0.000000 0.000000 0.000000 -0.015617
#
#
# Mechanical properties :
#
#
# Convention : Reuss Voigt Hill
#
# Bulk Modulus (GPa) = 45.76662 70.62924 58.19793
# Shear Modulus (GPa) = 126.38035 11.40649 68.89342
#
# Velocity S-wave (km/s) = 6.89821 2.07240 5.09314
# Velocity P-wave (km/s) = 8.98217 5.68507 7.51663
#
# Compressibility (1/GPa) = 0.02184999
#
# Stress axis : x y z
#
# Youngs Moduli (GPa) = 240.32595 56.13700 85.11318
#
# Poissons Ratio (x) = 0.20569 0.01021
# Poissons Ratio (y) = 0.88058 0.18323
# Poissons Ratio (z) = 0.02882 0.12085
#
# Static dielectric constant tensor:
#      x y z
#    x 2.178520 0.000000 0.000000 
#    y 0.000000 2.035490 0.000000 
#    z 0.000000 0.000000 2.045750 
# 
# From -- ./inp_files/17656.got.cif
#   From: 2010.05.17/outbox.cif.g08.bks.cpg/sg52_9_cif.got.tgz:17656.got - 2010.06.03 12:15:38.
