data_PCOD9407728
_publ_section_title
;
Structure prediction by ZEFSAII (Michael W. Deem and Ramdas Pophale) SiO2 
 PCOD9407728
Probable space group: P M M A
;
_chemical_formula_sum "Si O2"
_cell_formula_units_Z 64
_cell_length_a 21.000000
_cell_length_b 9.000000
_cell_length_c 18.000000
_cell_angle_alpha 90.000000
_cell_angle_beta 90.000000
_cell_angle_gamma 90.000000
_cell_volume 3402.000000
_symmetry_space_group_name_H-M "P M M A"
_symmetry_group_IT_number 51
_symmetry_cell_setting 'orthorhombic'
loop_
_space_group_symop_operation_xyz
x,y,z
1/2-x,-y,z
1/2+x,-y,-z
-x,y,-z
-x,-y,-z
1/2+x,y,-z
1/2-x,y,z
x,-y,z
loop_
_atom_site_type_symbol
_atom_site_label
_atom_site_fract_x
_atom_site_fract_y
_atom_site_fract_z
Si Si1 0.573348 0.328298 0.668747
Si Si2 0.818256 0.174133 0.410503
Si Si3 0.449484 0.169695 0.644879
Si Si4 0.177773 0.178284 0.055134
Si Si5 0.072077 0.179414 0.171665
Si Si6 0.433607 0.167967 0.822079
Si Si7 0.677574 0.164659 0.588448
Si Si8 0.320839 0.323849 0.895616
O O1 0.562472 0.500000 0.681344
O O2 0.512744 0.258512 0.627126
O O3 0.581920 0.248291 0.747714
O O4 0.635044 0.292516 0.621198
O O5 0.750000 0.238753 0.386767
O O6 0.883760 0.240686 0.382204
O O7 0.820480 0.172812 0.499514
O O8 0.818605 0.000000 0.386175
O O9 0.444921 0.163588 0.734008
O O10 0.454781 0.000000 0.616552
O O11 0.250000 0.213621 0.078934
O O12 0.126222 0.226966 0.114984
O O13 0.173097 0.000000 0.047306
O O14 0.166867 0.251836 0.975728
O O15 0.000990 0.218888 0.144465
O O16 0.073119 0.000000 0.178596
O O17 0.375101 0.270270 0.841016
O O18 0.419769 0.000000 0.847753
O O19 0.750000 0.173376 0.615426
O O20 0.651919 0.000000 0.608980
O O21 0.250000 0.276019 0.871356
O O22 0.321410 0.500000 0.902714
#
# Coordination Sequence:
#
# PCOD9407728 Si02
#       8
#     8   8   8   8   8   8   8   8
#     4  11  22  34  50  74 106 139 170 206 248 300
#     4   8  15  30  54  81 102 125 167 219 261 297
#     4   9  18  34  55  77 102 132 168 211 256 301
#     4   9  18  34  56  78  99 126 162 204 248 295
#     4   9  19  36  55  76 101 129 167 211 253 296
#     4   9  18  32  51  74 100 131 166 208 252 294
#     4   9  18  34  55  76 100 132 170 212 256 302
#     4  10  21  35  50  71 102 136 167 202 244 295
#
# _framework density 18.812463000000001
#
# number of rings (size 3 to 8) (size 9 to 14) (size 15 to 20)
#    0.000    2.750    0.000    3.000    0.000    5.500 
#    0.000    8.125    0.000    1.125    0.000    0.000 
#    0.000    0.000    0.000    0.000    0.000    0.000 
#
# Total GULP energy -356501.418426 kJ/mol
# GULP energy per Si atom -5570.334663 kJ/mol
# Density = 1.876965 g / cm^3
# Si number density = 18.812463 Si / 1000 Ang^3
#
#
#
# Elastic Constant Matrix: (Units=GPa)
#
#
# Indices 1 2 3 4 5 6 
#
# 1 69.3464 22.1683 21.3879 0.0000 0.0000 0.0000
# 2 22.1683 9.3276 6.9446 0.0000 0.0000 0.0000
# 3 21.3879 6.9446 0.6891 0.0000 0.0000 0.0000
# 4 0.0000 0.0000 0.0000 -67.7667 0.0000 0.0000
# 5 0.0000 0.0000 0.0000 0.0000 25.6763 0.0000
# 6 0.0000 0.0000 0.0000 0.0000 0.0000 2.0485
#
#
#
# Elastic Compliance Matrix: (Units=1/GPa)
#
#
# Indices 1 2 3 4 5 6 
#
# 1 0.045493 -0.145027 0.049572 0.000000 0.000000 0.000000
# 2 -0.145027 0.445848 0.008108 0.000000 0.000000 0.000000
# 3 0.049572 0.008108 -0.169132 0.000000 0.000000 0.000000
# 4 0.000000 0.000000 0.000000 -0.014757 0.000000 0.000000
# 5 0.000000 0.000000 0.000000 0.000000 0.038946 0.000000
# 6 0.000000 0.000000 0.000000 0.000000 0.000000 0.488161
#
#
# Mechanical properties :
#
#
# Convention : Reuss Voigt Hill
#
# Bulk Modulus (GPa) = 6.77896 20.04054 13.40975
# Shear Modulus (GPa) = 4.72400 -6.08423 -0.68012
#
# Velocity S-wave (km/s) = 1.58636 -1.80033 -0.60192
# Velocity P-wave (km/s) = 2.63944 2.52079 2.58080
#
# Compressibility (1/GPa) = 0.14751535
#
# Stress axis : x y z
#
# Youngs Moduli (GPa) = 21.98145 2.24292 -5.91255
#
# Poissons Ratio (x) = 0.32528 0.29310
# Poissons Ratio (y) = 3.18791 0.04794
# Poissons Ratio (z) = -1.08966 -0.01819
#
# Static dielectric constant tensor:
#      x y z
#    x 1.694520 0.000000 0.000000 
#    y 0.000000 1.648990 0.000000 
#    z 0.000000 0.000000 1.625520 
# 
# From -- ./inp_files/30507.got.cif
#   From: 2010.05.17/outbox.ucp.g08.bks.cvg/sg51_16_cif.got.tgz:30507.got - 2010.06.11 16:27:58.
