data_PCOD9407500
_publ_section_title
;
Structure prediction by ZEFSAII (Michael W. Deem and Ramdas Pophale) SiO2 
 PCOD9407500
Probable space group: P M M A
;
_chemical_formula_sum "Si O2"
_cell_formula_units_Z 64
_cell_length_a 24.000000
_cell_length_b 15.000000
_cell_length_c 9.000000
_cell_angle_alpha 90.000000
_cell_angle_beta 90.000000
_cell_angle_gamma 90.000000
_cell_volume 3240.000000
_symmetry_space_group_name_H-M "P M M A"
_symmetry_group_IT_number 51
_symmetry_cell_setting 'orthorhombic'
loop_
_space_group_symop_operation_xyz
x,y,z
1/2-x,-y,z
1/2+x,-y,-z
-x,y,-z
-x,-y,-z
1/2+x,y,-z
1/2-x,y,z
x,-y,z
loop_
_atom_site_type_symbol
_atom_site_label
_atom_site_fract_x
_atom_site_fract_y
_atom_site_fract_z
Si Si1 0.504454 0.156515 0.668473
Si Si2 0.919066 0.598108 0.816120
Si Si3 0.314128 0.769488 0.960146
Si Si4 0.026496 0.362892 0.657963
Si Si5 0.893394 0.096029 0.200966
Si Si6 0.871156 0.398412 0.143240
Si Si7 0.185025 0.099885 0.510493
Si Si8 0.872327 0.221894 0.725155
O O1 0.500000 0.118997 0.500000
O O2 0.479678 0.256422 0.656645
O O3 0.459009 0.108396 0.770674
O O4 0.568188 0.167020 0.726631
O O5 0.897087 0.500000 0.779360
O O6 0.892986 0.675751 0.714090
O O7 0.984411 0.601208 0.782685
O O8 0.906660 0.614870 0.989730
O O9 0.250000 0.799040 0.941226
O O10 0.363011 0.828773 0.890738
O O11 0.322971 0.673965 0.880701
O O12 0.332114 0.773002 0.132191
O O13 0.088493 0.384801 0.714319
O O14 0.000000 0.394129 0.500000
O O15 0.858760 0.098139 0.354834
O O16 0.883839 0.000000 0.129230
O O17 0.851186 0.500000 0.144388
O O18 0.250000 0.112965 0.555812
O O19 0.163643 0.177148 0.403288
O O20 0.182334 0.000000 0.440724
#
# Coordination Sequence:
#
# PCOD9407500 Si02
#       8
#     8   8   8   8   8   8   8   8
#     4  10  19  36  60  89 122 150 187 240 300 361
#     4   9  19  33  52  82 118 155 190 229 282 351
#     4  11  24  41  59  84 119 156 201 250 294 345
#     4  10  19  31  53  84 119 150 187 235 289 343
#     4  11  23  40  63  87 116 156 196 239 299 361
#     4  10  20  36  57  80 112 155 199 238 286 345
#     4  10  21  38  61  87 113 151 204 247 287 353
#     4  10  21  37  62  88 120 155 193 244 303 350
#
# _framework density 19.753086
#
# number of rings (size 3 to 8) (size 9 to 14) (size 15 to 20)
#    0.000    1.875    2.500    1.500    0.000    4.750 
#    0.000    0.625    0.000    1.125    0.000    0.000 
#    0.000    0.000    0.000    0.000    0.000    0.000 
#
# Total GULP energy -356574.348091 kJ/mol
# GULP energy per Si atom -5571.474189 kJ/mol
# Density = 1.970813 g / cm^3
# Si number density = 19.753086 Si / 1000 Ang^3
#
#
#
# Elastic Constant Matrix: (Units=GPa)
#
#
# Indices 1 2 3 4 5 6 
#
# 1 72.8469 -12.8909 -9.9775 0.0000 0.0000 0.0000
# 2 -12.8909 49.0377 -0.7087 0.0000 0.0000 0.0000
# 3 -9.9775 -0.7087 13.2949 0.0000 0.0000 0.0000
# 4 0.0000 0.0000 0.0000 15.1476 0.0000 0.0000
# 5 0.0000 0.0000 0.0000 0.0000 24.4632 0.0000
# 6 0.0000 0.0000 0.0000 0.0000 0.0000 21.4642
#
#
#
# Elastic Compliance Matrix: (Units=1/GPa)
#
#
# Indices 1 2 3 4 5 6 
#
# 1 0.016212 0.004441 0.012404 0.000000 0.000000 0.000000
# 2 0.004441 0.021625 0.004486 0.000000 0.000000 0.000000
# 3 0.012404 0.004486 0.084764 0.000000 0.000000 0.000000
# 4 0.000000 0.000000 0.000000 0.066017 0.000000 0.000000
# 5 0.000000 0.000000 0.000000 0.000000 0.040878 0.000000
# 6 0.000000 0.000000 0.000000 0.000000 0.000000 0.046589
#
#
# Mechanical properties :
#
#
# Convention : Reuss Voigt Hill
#
# Bulk Modulus (GPa) = 6.05102 9.78061 7.91581
# Shear Modulus (GPa) = 17.33031 22.79879 20.06455
#
# Velocity S-wave (km/s) = 2.96522 3.40102 3.19057
# Velocity P-wave (km/s) = 3.84621 4.51495 4.19393
#
# Compressibility (1/GPa) = 0.16526139
#
# Stress axis : x y z
#
# Youngs Moduli (GPa) = 61.68211 46.24336 11.79743
#
# Poissons Ratio (x) = -0.20537 -0.14633
# Poissons Ratio (y) = -0.27393 -0.05292
# Poissons Ratio (z) = -0.76508 -0.20743
#
# Static dielectric constant tensor:
#      x y z
#    x 1.671820 0.000000 0.000000 
#    y 0.000000 1.768650 0.000000 
#    z 0.000000 0.000000 1.744540 
# 
# From -- ./inp_files/11866.got.cif
#   From: 2010.05.17/outbox.ucp.g08.bks.cvg/sg51_6_cif.got.tgz:11866.got - 2010.06.11 16:27:58.
