data_PCOD9407803
_publ_section_title
;
Structure prediction by ZEFSAII (Michael W. Deem and Ramdas Pophale) SiO2 
 PCOD9407803
Probable space group: P M M A
;
_chemical_formula_sum "Si O2"
_cell_formula_units_Z 48
_cell_length_a 18.000000
_cell_length_b 9.000000
_cell_length_c 15.000000
_cell_angle_alpha 90.000000
_cell_angle_beta 90.000000
_cell_angle_gamma 90.000000
_cell_volume 2430.000000
_symmetry_space_group_name_H-M "P M M A"
_symmetry_group_IT_number 51
_symmetry_cell_setting 'orthorhombic'
loop_
_space_group_symop_operation_xyz
x,y,z
1/2-x,-y,z
1/2+x,-y,-z
-x,y,-z
-x,-y,-z
1/2+x,y,-z
1/2-x,y,z
x,-y,z
loop_
_atom_site_type_symbol
_atom_site_label
_atom_site_fract_x
_atom_site_fract_y
_atom_site_fract_z
Si Si1 0.163547 0.824021 0.964367
Si Si2 0.420232 0.177061 0.146446
Si Si3 0.335800 0.175714 0.651213
Si Si4 0.577671 0.324022 0.192344
Si Si5 0.582470 0.824942 0.533149
Si Si6 0.335926 0.323777 0.305370
O O1 0.250000 0.797755 0.986237
O O2 0.137111 0.728951 0.880980
O O3 0.155661 0.000000 0.943291
O O4 0.110801 0.790626 0.048058
O O5 0.499193 0.250978 0.166748
O O6 0.361360 0.239112 0.217033
O O7 0.427255 0.000000 0.155354
O O8 0.250000 0.221096 0.663518
O O9 0.391543 0.264203 0.714119
O O10 0.361427 0.193019 0.549407
O O11 0.341354 0.000000 0.672974
O O12 0.570064 0.500000 0.193755
O O13 0.500000 0.785027 0.500000
O O14 0.611060 0.730337 0.615493
O O15 0.580752 0.000000 0.558305
O O16 0.250000 0.289963 0.326914
O O17 0.343126 0.500000 0.292178
#
# Coordination Sequence:
#
# PCOD9407803 Si02
#       6
#     8   8   8   8   8   8
#     4  10  22  41  64  89 117 153 199 246 290 344
#     4  11  23  41  65  89 116 156 204 248 291 345
#     4  10  21  38  60  86 118 158 204 250 292 343
#     4  12  25  39  59  89 123 157 194 242 302 360
#     4  10  21  38  62  90 118 154 201 247 291 345
#     4  11  24  40  60  90 126 159 192 239 300 360
#
# _framework density 19.753086
#
# number of rings (size 3 to 8) (size 9 to 14) (size 15 to 20)
#    0.000    1.333    0.000    5.500    0.000   11.000 
#    0.000    0.000    0.000    0.000    0.000    0.000 
#    0.000    0.000    0.000    0.000    0.000    0.000 
#
# Total GULP energy -268524.541039 kJ/mol
# GULP energy per Si atom -5594.261272 kJ/mol
# Density = 1.970813 g / cm^3
# Si number density = 19.753086 Si / 1000 Ang^3
#
#
#
# Elastic Constant Matrix: (Units=GPa)
#
#
# Indices 1 2 3 4 5 6 
#
# 1 48.5104 1.7610 -22.0821 0.0000 0.0000 0.0000
# 2 1.7610 32.3964 18.0540 0.0000 0.0000 0.0000
# 3 -22.0821 18.0540 37.5606 0.0000 0.0000 0.0000
# 4 0.0000 0.0000 0.0000 91.9752 0.0000 0.0000
# 5 0.0000 0.0000 0.0000 0.0000 34.0498 0.0000
# 6 0.0000 0.0000 0.0000 0.0000 0.0000 25.9067
#
#
#
# Elastic Compliance Matrix: (Units=1/GPa)
#
#
# Indices 1 2 3 4 5 6 
#
# 1 0.034398 -0.017947 0.028849 0.000000 0.000000 0.000000
# 2 -0.017947 0.051525 -0.035317 0.000000 0.000000 0.000000
# 3 0.028849 -0.035317 0.060560 0.000000 0.000000 0.000000
# 4 0.000000 0.000000 0.000000 0.010873 0.000000 0.000000
# 5 0.000000 0.000000 0.000000 0.000000 0.029369 0.000000
# 6 0.000000 0.000000 0.000000 0.000000 0.000000 0.038600
#
#
# Mechanical properties :
#
#
# Convention : Reuss Voigt Hill
#
# Bulk Modulus (GPa) = 10.24041 12.65924 11.44983
# Shear Modulus (GPa) = 16.30236 38.43530 27.36883
#
# Velocity S-wave (km/s) = 2.87593 4.41589 3.72633
# Velocity P-wave (km/s) = 4.02783 5.69410 4.93185
#
# Compressibility (1/GPa) = 0.09765231
#
# Stress axis : x y z
#
# Youngs Moduli (GPa) = 29.07168 19.40812 16.51266
#
# Poissons Ratio (x) = 0.34831 -0.47637
# Poissons Ratio (y) = 0.52174 0.58318
# Poissons Ratio (z) = -0.83869 0.68544
#
# Static dielectric constant tensor:
#      x y z
#    x 1.676360 0.000000 0.000000 
#    y 0.000000 1.664050 0.000000 
#    z 0.000000 0.000000 1.678390 
# 
# From -- ./inp_files/24774.got.cif
#   From: 2010.05.17/outbox.ucp.g08.bks.cvg/sg51_13_cif.got.tgz:24774.got - 2010.06.11 16:27:58.
