data_PCOD9407564
_publ_section_title
;
Structure prediction by ZEFSAII (Michael W. Deem and Ramdas Pophale) SiO2 
 PCOD9407564
Probable space group: P M M A
;
_chemical_formula_sum "Si O2"
_cell_formula_units_Z 48
_cell_length_a 18.000000
_cell_length_b 15.000000
_cell_length_c 9.000000
_cell_angle_alpha 90.000000
_cell_angle_beta 90.000000
_cell_angle_gamma 90.000000
_cell_volume 2430.000000
_symmetry_space_group_name_H-M "P M M A"
_symmetry_group_IT_number 51
_symmetry_cell_setting 'orthorhombic'
loop_
_space_group_symop_operation_xyz
x,y,z
1/2-x,-y,z
1/2+x,-y,-z
-x,y,-z
-x,-y,-z
1/2+x,y,-z
1/2-x,y,z
x,-y,z
loop_
_atom_site_type_symbol
_atom_site_label
_atom_site_fract_x
_atom_site_fract_y
_atom_site_fract_z
Si Si1 0.334768 0.895414 0.811943
Si Si2 0.837250 0.500000 0.127797
Si Si3 0.940362 0.770714 0.380588
Si Si4 0.661649 0.314075 0.623414
Si Si5 0.661489 0.500000 0.769944
Si Si6 0.057544 0.348563 0.882444
Si Si7 0.665207 0.225694 0.925835
O O1 0.250000 0.870923 0.767146
O O2 0.393401 0.843492 0.710408
O O3 0.340617 0.867097 0.985981
O O4 0.344228 0.000000 0.796242
O O5 0.750000 0.500000 0.160630
O O6 0.883044 0.416154 0.184777
O O7 0.847871 0.500000 0.947871
O O8 0.883486 0.712887 0.479022
O O9 0.976260 0.708093 0.252692
O O10 0.000000 0.805353 0.500000
O O11 0.750000 0.321088 0.592236
O O12 0.635107 0.408159 0.695014
O O13 0.653057 0.238001 0.751291
O O14 0.750000 0.500000 0.748758
O O15 0.106752 0.284746 0.986066
O O16 0.000000 0.389920 0.000000
O O17 0.750000 0.260100 0.950790
#
# Coordination Sequence:
#
# PCOD9407564 Si02
#       7
#     8   4   8   8   4   8   8
#     4   9  19  38  63  88 112 143 189 242 291 344
#     4  11  21  36  60  86 108 147 203 257 294 332
#     4  11  24  38  55  83 119 160 190 235 291 357
#     4  10  19  35  57  84 116 153 192 235 288 344
#     4   9  18  32  56  83 110 146 189 237 282 330
#     4  11  22  37  56  81 113 153 199 244 285 337
#     4   9  17  33  59  83 108 143 186 235 286 345
#
# _framework density 19.753086
#
# number of rings (size 3 to 8) (size 9 to 14) (size 15 to 20)
#    0.000    2.000    1.667    2.250    0.000    3.000 
#    0.000    2.500    0.000   20.000    0.000    0.000 
#    0.000    0.000    0.000    0.000    0.000    0.000 
#
# Total GULP energy -267601.947077 kJ/mol
# GULP energy per Si atom -5575.040564 kJ/mol
# Density = 1.970813 g / cm^3
# Si number density = 19.753086 Si / 1000 Ang^3
#
#
#
# Elastic Constant Matrix: (Units=GPa)
#
#
# Indices 1 2 3 4 5 6 
#
# 1 80.8310 35.6315 30.1407 0.0000 0.0000 0.0000
# 2 35.6315 65.0170 29.8840 0.0000 0.0000 0.0000
# 3 30.1407 29.8840 90.1175 0.0000 0.0000 0.0000
# 4 0.0000 0.0000 0.0000 -92.1165 0.0000 0.0000
# 5 0.0000 0.0000 0.0000 0.0000 33.2492 0.0000
# 6 0.0000 0.0000 0.0000 0.0000 0.0000 20.3773
#
#
#
# Elastic Compliance Matrix: (Units=1/GPa)
#
#
# Indices 1 2 3 4 5 6 
#
# 1 0.017000 -0.007909 -0.003063 0.000000 0.000000 0.000000
# 2 -0.007909 0.021826 -0.004593 0.000000 0.000000 0.000000
# 3 -0.003063 -0.004593 0.013644 0.000000 0.000000 0.000000
# 4 0.000000 0.000000 0.000000 -0.010856 0.000000 0.000000
# 5 0.000000 0.000000 0.000000 0.000000 0.030076 0.000000
# 6 0.000000 0.000000 0.000000 0.000000 0.000000 0.049074
#
#
# Mechanical properties :
#
#
# Convention : Reuss Voigt Hill
#
# Bulk Modulus (GPa) = 46.85815 47.47531 47.16673
# Shear Modulus (GPa) = 31.44530 1.65597 16.55063
#
# Velocity S-wave (km/s) = 3.99421 0.91660 2.89775
# Velocity P-wave (km/s) = 6.71156 5.02063 5.92671
#
# Compressibility (1/GPa) = 0.02134101
#
# Stress axis : x y z
#
# Youngs Moduli (GPa) = 58.82367 45.81765 73.29185
#
# Poissons Ratio (x) = 0.36235 0.22451
# Poissons Ratio (y) = 0.46521 0.33659
# Poissons Ratio (z) = 0.18019 0.21042
#
# Static dielectric constant tensor:
#      x y z
#    x 1.731370 0.000000 0.000000 
#    y 0.000000 1.714810 0.000000 
#    z 0.000000 0.000000 1.665550 
# 
# From -- ./inp_files/9671.got.cif
#   From: 2010.05.17/outbox.ucp.g08.bks.cvg/sg51_5_cif.got.tgz:9671.got - 2010.06.11 16:27:58.
