data_PCOD9407786
_publ_section_title
;
Structure prediction by ZEFSAII (Michael W. Deem and Ramdas Pophale) SiO2 
 PCOD9407786
Probable space group: P M M A
;
_chemical_formula_sum "Si O2"
_cell_formula_units_Z 48
_cell_length_a 15.000000
_cell_length_b 15.000000
_cell_length_c 12.000000
_cell_angle_alpha 90.000000
_cell_angle_beta 90.000000
_cell_angle_gamma 90.000000
_cell_volume 2700.000000
_symmetry_space_group_name_H-M "P M M A"
_symmetry_group_IT_number 51
_symmetry_cell_setting 'orthorhombic'
loop_
_space_group_symop_operation_xyz
x,y,z
1/2-x,-y,z
1/2+x,-y,-z
-x,y,-z
-x,-y,-z
1/2+x,y,-z
1/2-x,y,z
x,-y,z
loop_
_atom_site_type_symbol
_atom_site_label
_atom_site_fract_x
_atom_site_fract_y
_atom_site_fract_z
Si Si1 0.894603 0.753605 0.490506
Si Si2 0.351002 0.603216 0.691355
Si Si3 0.750000 0.892818 0.139128
Si Si4 0.086361 0.890956 0.697834
Si Si5 0.013012 0.393130 0.134671
Si Si6 0.250000 0.109926 0.124485
Si Si7 0.596689 0.219161 0.746899
O O1 0.860710 0.673457 0.410604
O O2 0.883144 0.845362 0.419400
O O3 0.866410 0.760740 0.620620
O O4 0.000000 0.737454 0.500000
O O5 0.250000 0.612220 0.734911
O O6 0.362447 0.500000 0.652436
O O7 0.422719 0.617020 0.790428
O O8 0.838349 0.867673 0.209596
O O9 0.750000 0.000000 0.139105
O O10 0.750000 0.867587 0.008561
O O11 0.994328 0.839693 0.729629
O O12 0.077135 0.000000 0.690890
O O13 0.040053 0.500000 0.147671
O O14 0.074381 0.313143 0.188260
O O15 0.000000 0.379586 0.000000
O O16 0.334967 0.157333 0.183452
O O17 0.250000 0.000000 0.136151
#
# Coordination Sequence:
#
# PCOD9407786 Si02
#       7
#     8   8   4   8   8   4   8
#     4  10  21  37  58  89 121 159 207 252 309 375
#     4  10  21  38  64  94 123 159 206 264 319 373
#     4   9  22  41  61  90 115 155 210 262 314 370
#     4  10  21  38  62  92 123 157 208 260 313 374
#     4  10  22  42  64  92 127 163 209 258 316 382
#     4  11  26  43  60  88 129 167 215 262 311 382
#     4  11  24  40  61  91 121 173 207 252 321 370
#
# _framework density 17.777778000000001
#
# number of rings (size 3 to 8) (size 9 to 14) (size 15 to 20)
#    0.000    1.833    3.333    0.500    4.667    4.667 
#    1.500    3.750    0.000    0.000    0.000    0.000 
#    0.000    0.000    0.000    0.000    0.000    0.000 
#
# Total GULP energy -267487.804034 kJ/mol
# GULP energy per Si atom -5572.662584 kJ/mol
# Density = 1.773731 g / cm^3
# Si number density = 17.777778 Si / 1000 Ang^3
#
#
#
# Elastic Constant Matrix: (Units=GPa)
#
#
# Indices 1 2 3 4 5 6 
#
# 1 89.9691 42.3928 51.8517 0.0000 0.0000 0.0000
# 2 42.3928 146.2793 68.0682 0.0000 0.0000 0.0000
# 3 51.8517 68.0682 171.3648 0.0000 0.0000 0.0000
# 4 0.0000 0.0000 0.0000 42.3501 0.0000 0.0000
# 5 0.0000 0.0000 0.0000 0.0000 31.7825 0.0000
# 6 0.0000 0.0000 0.0000 0.0000 0.0000 31.3323
#
#
#
# Elastic Compliance Matrix: (Units=1/GPa)
#
#
# Indices 1 2 3 4 5 6 
#
# 1 0.014226 -0.002600 -0.003272 0.000000 0.000000 0.000000
# 2 -0.002600 0.008862 -0.002733 0.000000 0.000000 0.000000
# 3 -0.003272 -0.002733 0.007911 0.000000 0.000000 0.000000
# 4 0.000000 0.000000 0.000000 0.023613 0.000000 0.000000
# 5 0.000000 0.000000 0.000000 0.000000 0.031464 0.000000
# 6 0.000000 0.000000 0.000000 0.000000 0.000000 0.031916
#
#
# Mechanical properties :
#
#
# Convention : Reuss Voigt Hill
#
# Bulk Modulus (GPa) = 72.52518 81.35987 76.94253
# Shear Modulus (GPa) = 35.76614 37.44635 36.60625
#
# Velocity S-wave (km/s) = 4.49023 4.59449 4.54266
# Velocity P-wave (km/s) = 8.23206 8.60291 8.41953
#
# Compressibility (1/GPa) = 0.01378831
#
# Stress axis : x y z
#
# Youngs Moduli (GPa) = 70.29547 112.84574 126.40570
#
# Poissons Ratio (x) = 0.29344 0.41354
# Poissons Ratio (y) = 0.18279 0.34548
# Poissons Ratio (z) = 0.22997 0.30842
#
# Static dielectric constant tensor:
#      x y z
#    x 1.634170 0.000000 0.000000 
#    y 0.000000 1.622650 0.000000 
#    z 0.000000 0.000000 1.613420 
# 
# From -- ./inp_files/16526.got.cif
#   From: 2010.05.17/outbox.ucp.g08.bks.cvg/sg51_9_cif.got.tgz:16526.got - 2010.06.11 16:27:58.
