data_PCOD9407424
_publ_section_title
;
Structure prediction by ZEFSAII (Michael W. Deem and Ramdas Pophale) SiO2 
 PCOD9407424
Probable space group: P M M A
;
_chemical_formula_sum "Si O2"
_cell_formula_units_Z 64
_cell_length_a 9.000000
_cell_length_b 24.000000
_cell_length_c 18.000000
_cell_angle_alpha 90.000000
_cell_angle_beta 90.000000
_cell_angle_gamma 90.000000
_cell_volume 3888.000000
_symmetry_space_group_name_H-M "P M M A"
_symmetry_group_IT_number 51
_symmetry_cell_setting 'orthorhombic'
loop_
_space_group_symop_operation_xyz
x,y,z
1/2-x,-y,z
1/2+x,-y,-z
-x,y,-z
-x,-y,-z
1/2+x,y,-z
1/2-x,y,z
x,-y,z
loop_
_atom_site_type_symbol
_atom_site_label
_atom_site_fract_x
_atom_site_fract_y
_atom_site_fract_z
Si Si1 0.579801 0.166660 0.178212
Si Si2 0.428107 0.089156 0.423377
Si Si3 0.576934 0.218791 0.572386
Si Si4 0.083077 0.244913 0.072842
Si Si5 0.572983 0.938733 0.269975
Si Si6 0.571748 0.435384 0.923825
Si Si7 0.083546 0.269053 0.704949
Si Si8 0.579242 0.654735 0.808429
O O1 0.750000 0.155879 0.156515
O O2 0.490530 0.190960 0.109551
O O3 0.519171 0.111603 0.218190
O O4 0.580599 0.216999 0.237997
O O5 0.500000 0.068254 0.500000
O O6 0.250000 0.083990 0.426596
O O7 0.472367 0.154601 0.417038
O O8 0.492307 0.062738 0.349083
O O9 0.500000 0.242096 0.500000
O O10 0.750000 0.216825 0.560416
O O11 0.533263 0.254008 0.642720
O O12 0.250000 0.231718 0.052515
O O13 0.081957 0.294758 0.132150
O O14 0.000000 0.263842 0.000000
O O15 0.750000 0.929985 0.282623
O O16 0.552953 0.000000 0.236321
O O17 0.750000 0.431224 0.930605
O O18 0.530737 0.500000 0.915174
O O19 0.528531 0.399235 0.853127
O O20 0.500000 0.414367 0.000000
O O21 0.250000 0.272753 0.674897
O O22 0.032424 0.324519 0.746184
O O23 0.750000 0.647627 0.782161
#
# Coordination Sequence:
#
# PCOD9407424 Si02
#       8
#     8   8   8   8   8   8   8   8
#     4   9  18  32  48  66  89 114 143 179 223 275
#     4  10  20  32  48  67  90 119 151 186 222 265
#     4  10  19  30  46  67  92 122 153 186 226 273
#     4  10  19  30  47  69  92 117 145 182 227 271
#     4  10  20  34  51  68  88 115 147 185 227 272
#     4   9  17  29  45  65  93 131 169 201 232 267
#     4  10  18  29  47  68  91 120 152 189 231 274
#     4   9  18  30  44  66  96 126 157 193 229 269
#
# _framework density 16.460905
#
# number of rings (size 3 to 8) (size 9 to 14) (size 15 to 20)
#    0.000    2.375    1.250    1.875    0.000    3.500 
#    0.000    0.000    0.000    0.375    0.000    0.000 
#    0.000    0.500    0.000    1.375    0.000    2.000 
#
# Total GULP energy -356545.561969 kJ/mol
# GULP energy per Si atom -5571.024406 kJ/mol
# Density = 1.642344 g / cm^3
# Si number density = 16.460905 Si / 1000 Ang^3
#
#
#
# Elastic Constant Matrix: (Units=GPa)
#
#
# Indices 1 2 3 4 5 6 
#
# 1 17.2387 10.3763 9.8708 0.0000 0.0000 0.0000
# 2 10.3763 56.4922 9.7516 0.0000 0.0000 0.0000
# 3 9.8708 9.7516 10.0148 0.0000 0.0000 0.0000
# 4 0.0000 0.0000 0.0000 7.7766 0.0000 0.0000
# 5 0.0000 0.0000 0.0000 0.0000 25.7441 0.0000
# 6 0.0000 0.0000 0.0000 0.0000 0.0000 19.3852
#
#
#
# Elastic Compliance Matrix: (Units=1/GPa)
#
#
# Indices 1 2 3 4 5 6 
#
# 1 0.133382 -0.002171 -0.129351 0.000000 0.000000 0.000000
# 2 -0.002171 0.021313 -0.018614 0.000000 0.000000 0.000000
# 3 -0.129351 -0.018614 0.245468 0.000000 0.000000 0.000000
# 4 0.000000 0.000000 0.000000 0.128590 0.000000 0.000000
# 5 0.000000 0.000000 0.000000 0.000000 0.038844 0.000000
# 6 0.000000 0.000000 0.000000 0.000000 0.000000 0.051586
#
#
# Mechanical properties :
#
#
# Convention : Reuss Voigt Hill
#
# Bulk Modulus (GPa) = 10.01073 15.97147 12.99110
# Shear Modulus (GPa) = 5.24796 14.16431 9.70613
#
# Velocity S-wave (km/s) = 1.78747 2.93658 2.43090
# Velocity P-wave (km/s) = 3.21789 4.60670 3.97344
#
# Compressibility (1/GPa) = 0.09989277
#
# Stress axis : x y z
#
# Youngs Moduli (GPa) = 7.49727 46.91899 4.07385
#
# Poissons Ratio (x) = 0.10185 0.52696
# Poissons Ratio (y) = 0.01627 0.07583
# Poissons Ratio (z) = 0.96978 0.87334
#
# Static dielectric constant tensor:
#      x y z
#    x 1.565460 0.000000 0.000000 
#    y 0.000000 1.562230 0.000000 
#    z 0.000000 0.000000 2.308240 
# 
# From -- ./inp_files/28572.got.cif
#   From: 2010.05.17/outbox.ucp.g08.bks.cvg/sg51_15_cif.got.tgz:28572.got - 2010.06.11 16:27:58.
