data_PCOD9407375
_publ_section_title
;
Structure prediction by ZEFSAII (Michael W. Deem and Ramdas Pophale) SiO2 
 PCOD9407375
Probable space group: P M M A
;
_chemical_formula_sum "Si O2"
_cell_formula_units_Z 48
_cell_length_a 9.402543
_cell_length_b 7.330053
_cell_length_c 32.028197
_cell_angle_alpha 90.000000
_cell_angle_beta 90.000000
_cell_angle_gamma 90.000000
_cell_volume 2207.419802
_symmetry_space_group_name_H-M "P M M A"
_symmetry_group_IT_number 51
_symmetry_cell_setting 'orthorhombic'
loop_
_space_group_symop_operation_xyz
x,y,z
1/2-x,-y,z
1/2+x,-y,-z
-x,y,-z
-x,-y,-z
1/2+x,y,-z
1/2-x,y,z
x,-y,z
loop_
_atom_site_type_symbol
_atom_site_label
_atom_site_fract_x
_atom_site_fract_y
_atom_site_fract_z
Si Si1 0.586932 0.777130 0.040900
Si Si2 0.586577 0.277113 0.294527
Si Si3 0.411994 0.782387 0.120709
Si Si4 0.412238 0.282597 0.214685
Si Si5 0.414080 0.722459 0.376572
Si Si6 0.414354 0.277467 0.541181
O O1 0.750000 0.718802 0.038933
O O2 0.509946 0.715267 0.083251
O O3 0.587111 0.000000 0.041075
O O4 0.500000 0.720841 0.000000
O O5 0.750000 0.218977 0.297759
O O6 0.587497 0.500000 0.294481
O O7 0.512385 0.215508 0.251687
O O8 0.493699 0.220883 0.334371
O O9 0.250000 0.711212 0.118034
O O10 0.465368 0.749400 0.167661
O O11 0.403738 0.000000 0.115717
O O12 0.250000 0.211280 0.217544
O O13 0.403491 0.500000 0.219968
O O14 0.250000 0.780949 0.377869
O O15 0.412950 0.500000 0.376700
O O16 0.502450 0.779699 0.417225
O O17 0.500000 0.220464 0.500000
O O18 0.250000 0.219302 0.540793
O O19 0.413226 0.500000 0.541174
#
# Coordination Sequence:
#
# PCOD9407375 Si02
#       6
#     8   8   8   8   8   8
#     4   9  16  26  42  64  88 112 138 169 204 241
#     4   9  16  25  37  53  72  95 126 164 202 239
#     4   9  17  29  45  65  88 112 138 169 205 244
#     4   9  17  29  44  61  82 109 139 170 205 245
#     4   9  15  22  32  45  62  86 118 157 199 241
#     4   9  15  21  28  39  57  82 114 153 197 243
#
# _framework density 21.744845000000002
#
# number of rings (size 3 to 8) (size 9 to 14) (size 15 to 20)
#    0.000    3.000    0.000    2.000    0.000    8.667 
#    0.000    0.000    0.000    0.500    0.000    0.000 
#    0.000    0.000    0.000    0.000    0.000    0.833 
#
# Total GULP energy -268161.652677 kJ/mol
# GULP energy per Si atom -5586.701097 kJ/mol
# Density = 2.169535 g / cm^3
# Si number density = 21.744845 Si / 1000 Ang^3
#
#
#
# Elastic Constant Matrix: (Units=GPa)
#
#
# Indices 1 2 3 4 5 6 
#
# 1 214.5213 6.3286 167.4112 0.0000 0.0000 0.0000
# 2 6.3286 85.2733 1.9196 0.0000 0.0000 0.0000
# 3 167.4112 1.9196 259.8754 0.0000 0.0000 0.0000
# 4 0.0000 0.0000 0.0000 10.9141 0.0000 0.0000
# 5 0.0000 0.0000 0.0000 0.0000 40.2003 0.0000
# 6 0.0000 0.0000 0.0000 0.0000 0.0000 -45.6702
#
#
#
# Elastic Compliance Matrix: (Units=1/GPa)
#
#
# Indices 1 2 3 4 5 6 
#
# 1 0.009401 -0.000561 -0.006052 0.000000 0.000000 0.000000
# 2 -0.000561 0.011762 0.000275 0.000000 0.000000 0.000000
# 3 -0.006052 0.000275 0.007745 0.000000 0.000000 0.000000
# 4 0.000000 0.000000 0.000000 0.091625 0.000000 0.000000
# 5 0.000000 0.000000 0.000000 0.000000 0.024875 0.000000
# 6 0.000000 0.000000 0.000000 0.000000 0.000000 -0.021896
#
#
# Mechanical properties :
#
#
# Convention : Reuss Voigt Hill
#
# Bulk Modulus (GPa) = 61.61089 101.22094 81.41592
# Shear Modulus (GPa) = 35.31079 26.68954 31.00016
#
# Velocity S-wave (km/s) = 4.03410 3.50722 3.77985
# Velocity P-wave (km/s) = 7.07769 7.94048 7.52147
#
# Compressibility (1/GPa) = 0.01623090
#
# Stress axis : x y z
#
# Youngs Moduli (GPa) = 106.37125 85.01603 129.12156
#
# Poissons Ratio (x) = 0.04773 0.78144
# Poissons Ratio (y) = 0.05972 -0.03548
# Poissons Ratio (z) = 0.64376 -0.02336
#
# Static dielectric constant tensor:
#      x y z
#    x 1.737050 0.000000 0.000000 
#    y 0.000000 1.896510 0.000000 
#    z 0.000000 0.000000 1.740030 
# 
# From -- ./inp_files/34555.got.cif
#   From: 2010.05.17/outbox.cif.g08.bks.cpg/sg51_18_cif.got.tgz:34555.got - 2010.06.03 11:52:47.
