data_PCOD9407225
_publ_section_title
;
Structure prediction by ZEFSAII (Michael W. Deem and Ramdas Pophale) SiO2 
 PCOD9407225
Probable space group: P M M A
;
_chemical_formula_sum "Si O2"
_cell_formula_units_Z 56
_cell_length_a 14.986587
_cell_length_b 8.833574
_cell_length_c 22.516954
_cell_angle_alpha 90.000000
_cell_angle_beta 90.000000
_cell_angle_gamma 90.000000
_cell_volume 2980.909776
_symmetry_space_group_name_H-M "P M M A"
_symmetry_group_IT_number 51
_symmetry_cell_setting 'orthorhombic'
loop_
_space_group_symop_operation_xyz
x,y,z
1/2-x,-y,z
1/2+x,-y,-z
-x,y,-z
-x,-y,-z
1/2+x,y,-z
1/2-x,y,z
x,-y,z
loop_
_atom_site_type_symbol
_atom_site_label
_atom_site_fract_x
_atom_site_fract_y
_atom_site_fract_z
Si Si1 0.500000 0.819810 0.716360
Si Si2 0.144642 0.683122 0.630274
Si Si3 0.855612 0.180330 0.931649
Si Si4 1.000000 0.678816 0.153289
Si Si5 0.855358 0.683122 0.630275
Si Si6 0.858480 0.324482 0.500000
Si Si7 0.144389 0.180330 0.931649
O O1 0.414634 0.756718 0.680768
O O2 0.500000 0.759753 0.783286
O O3 0.585366 0.756718 0.680768
O O4 0.500000 0.000000 0.715959
O O5 0.250000 0.714475 0.637514
O O6 0.134152 0.500000 0.631390
O O7 0.115494 0.738727 0.564218
O O8 0.750000 0.205787 0.923497
O O9 0.914845 0.269684 0.885203
O O10 0.871876 0.000000 0.925016
O O11 0.878059 0.220228 1.000000
O O12 1.000000 0.500000 0.162042
O O13 0.914845 0.730317 0.114796
O O14 0.750000 0.714474 0.637514
O O15 0.865848 0.500000 0.631390
O O16 0.884506 0.738727 0.564218
O O17 0.750000 0.325303 0.500000
O O18 0.887181 0.500000 0.500000
O O19 0.250000 0.205789 0.923497
O O20 0.128126 0.000000 0.925016
#
# Coordination Sequence:
#
# PCOD9407225 Si02
#       7
#     8   8   8   8   8   8   8
#     4  12  26  40  54  76 111 154 194 229 274 336
#     4   9  18  36  61  85 110 141 182 232 280 330
#     4   9  19  38  64  91 118 149 183 220 269 330
#     4  12  25  39  57  82 114 151 191 235 278 321
#     4   9  18  36  61  85 110 141 182 232 280 330
#     4   7  12  27  55  86 109 135 174 222 279 335
#     4   9  19  38  64  91 118 149 183 220 269 330
#
# _framework density 18.786211999999999
#
# number of rings (size 3 to 8) (size 9 to 14) (size 15 to 20)
#    0.000    2.429    0.000    5.571    0.000    5.143 
#    0.000    5.000    0.000    2.571    0.000    0.000 
#    0.000    0.000    0.000    0.000    0.000    0.000 
#
# Total GULP energy -312599.404400 kJ/mol
# GULP energy per Si atom -5582.132221 kJ/mol
# Density = 1.874345 g / cm^3
# Si number density = 18.786212 Si / 1000 Ang^3
#
#
#
# Elastic Constant Matrix: (Units=GPa)
#
#
# Indices 1 2 3 4 5 6 
#
# 1 87.5936 54.6289 77.1494 0.0000 0.0000 0.0000
# 2 54.6289 68.4374 66.9198 0.0000 0.0000 0.0000
# 3 77.1494 66.9198 165.4577 0.0000 0.0000 0.0000
# 4 0.0000 0.0000 0.0000 45.9403 0.0000 0.0000
# 5 0.0000 0.0000 0.0000 0.0000 87.5447 0.0000
# 6 0.0000 0.0000 0.0000 0.0000 0.0000 29.8365
#
#
#
# Elastic Compliance Matrix: (Units=1/GPa)
#
#
# Indices 1 2 3 4 5 6 
#
# 1 0.026071 -0.014762 -0.006186 0.000000 0.000000 0.000000
# 2 -0.014762 0.032530 -0.006273 0.000000 0.000000 0.000000
# 3 -0.006186 -0.006273 0.011466 0.000000 0.000000 0.000000
# 4 0.000000 0.000000 0.000000 0.021767 0.000000 0.000000
# 5 0.000000 0.000000 0.000000 0.000000 0.011423 0.000000
# 6 0.000000 0.000000 0.000000 0.000000 0.000000 0.033516
#
#
# Mechanical properties :
#
#
# Convention : Reuss Voigt Hill
#
# Bulk Modulus (GPa) = 64.00592 79.87610 71.94101
# Shear Modulus (GPa) = 25.45508 40.85034 33.15271
#
# Velocity S-wave (km/s) = 3.68501 4.66820 4.20543
# Velocity P-wave (km/s) = 7.22844 8.46563 7.87138
#
# Compressibility (1/GPa) = 0.01562355
#
# Stress axis : x y z
#
# Youngs Moduli (GPa) = 38.35618 30.74079 87.21804
#
# Poissons Ratio (x) = 0.45381 0.53952
# Poissons Ratio (y) = 0.56623 0.54716
# Poissons Ratio (z) = 0.23727 0.19285
#
# Static dielectric constant tensor:
#      x y z
#    x 1.657880 0.000000 0.000000 
#    y 0.000000 1.627920 0.000000 
#    z 0.000000 0.000000 1.640770 
# 
# From -- ./inp_files/33462.got.cif
#   From: 2010.05.17/outbox.cif.g08.bks.cpg/sg51_17_cif.got.tgz:33462.got - 2010.06.03 11:52:47.
