data_PCOD9407201
_publ_section_title
;
Structure prediction by ZEFSAII (Michael W. Deem and Ramdas Pophale) SiO2 
 PCOD9407201
Probable space group: P M M A
;
_chemical_formula_sum "Si O2"
_cell_formula_units_Z 30
_cell_length_a 14.038006
_cell_length_b 11.968733
_cell_length_c 9.315155
_cell_angle_alpha 90.000000
_cell_angle_beta 90.000000
_cell_angle_gamma 90.000000
_cell_volume 1565.105755
_symmetry_space_group_name_H-M "P M M A"
_symmetry_group_IT_number 51
_symmetry_cell_setting 'orthorhombic'
loop_
_space_group_symop_operation_xyz
x,y,z
1/2-x,-y,z
1/2+x,-y,-z
-x,y,-z
-x,-y,-z
1/2+x,y,-z
1/2-x,y,z
x,-y,z
loop_
_atom_site_type_symbol
_atom_site_label
_atom_site_fract_x
_atom_site_fract_y
_atom_site_fract_z
Si Si1 0.437617 0.871741 0.144505
Si Si2 0.455278 0.706066 0.655493
Si Si3 0.250000 0.739940 0.041846
Si Si4 0.750000 0.360277 0.276238
Si Si5 0.468974 0.500000 0.168831
Si Si6 0.750000 0.500000 0.818773
O O1 0.501336 0.816582 0.270045
O O2 0.342851 0.802690 0.103058
O O3 0.413239 0.000000 0.179227
O O4 0.500000 0.870288 0.000000
O O5 0.500000 0.691551 0.500000
O O6 0.343065 0.684231 0.642813
O O7 0.485410 0.609891 0.766017
O O8 0.250000 0.614928 0.097827
O O9 0.250000 0.712403 0.872062
O O10 0.750000 0.500000 0.259932
O O11 0.360447 0.500000 0.231575
O O12 0.500000 0.500000 0.000000
#
# Coordination Sequence:
#
# PCOD9407201 Si02
#       6
#     8   8   4   4   4   2
#     4  11  24  43  68  95 130 174 228 283 326 388
#     4  12  26  44  65  99 141 179 222 275 343 411
#     4  12  21  39  68 105 129 171 227 277 335 396
#     4  12  24  39  69  99 137 177 220 274 341 409
#     4  12  23  41  65  98 137 175 220 279 336 394
#     4  12  22  32  70 100 128 166 214 276 330 402
#
# _framework density 19.168033000000001
#
# number of rings (size 3 to 8) (size 9 to 14) (size 15 to 20)
#    0.000    0.267    7.333    3.200    0.000    2.667 
#    0.000    0.667    0.000    0.000    0.000    0.000 
#    0.000    0.000    0.000    0.000    0.000    0.000 
#
# Total GULP energy -167168.004248 kJ/mol
# GULP energy per Si atom -5572.266808 kJ/mol
# Density = 1.912441 g / cm^3
# Si number density = 19.168033 Si / 1000 Ang^3
#
#
#
# Elastic Constant Matrix: (Units=GPa)
#
#
# Indices 1 2 3 4 5 6 
#
# 1 172.3364 45.8236 35.3771 0.0000 0.0000 0.0000
# 2 45.8236 139.3427 44.7967 0.0000 0.0000 0.0000
# 3 35.3771 44.7967 110.0285 0.0000 0.0000 0.0000
# 4 0.0000 0.0000 0.0000 -0.5324 0.0000 0.0000
# 5 0.0000 0.0000 0.0000 0.0000 -3.8461 0.0000
# 6 0.0000 0.0000 0.0000 0.0000 0.0000 -22.2395
#
#
#
# Elastic Compliance Matrix: (Units=1/GPa)
#
#
# Indices 1 2 3 4 5 6 
#
# 1 0.006544 -0.001698 -0.001413 0.000000 0.000000 0.000000
# 2 -0.001698 0.008698 -0.002995 0.000000 0.000000 0.000000
# 3 -0.001413 -0.002995 0.010762 0.000000 0.000000 0.000000
# 4 0.000000 0.000000 0.000000 -1.878338 0.000000 0.000000
# 5 0.000000 0.000000 0.000000 0.000000 -0.260003 0.000000
# 6 0.000000 0.000000 0.000000 0.000000 0.000000 -0.044965
#
#
# Mechanical properties :
#
#
# Convention : Reuss Voigt Hill
#
# Bulk Modulus (GPa) = 72.50448 74.85582 73.68015
# Shear Modulus (GPa) = -2.33591 14.39041 6.02725
#
# Velocity S-wave (km/s) = -1.10512 2.74296 1.77518
# Velocity P-wave (km/s) = 6.02324 7.01206 6.53637
#
# Compressibility (1/GPa) = 0.01379225
#
# Stress axis : x y z
#
# Youngs Moduli (GPa) = 152.80980 114.97100 92.91678
#
# Poissons Ratio (x) = 0.19520 0.13128
# Poissons Ratio (y) = 0.25945 0.27831
# Poissons Ratio (z) = 0.21590 0.34437
#
# Static dielectric constant tensor:
#      x y z
#    x 1.546010 0.000000 0.000000 
#    y 0.000000 1.668310 0.000000 
#    z 0.000000 0.000000 1.644770 
# 
# From -- ./inp_files/7549.got.cif
#   From: 2010.05.17/outbox.cif.g08.bks.cpg/sg51_4_cif.got.tgz:7549.got - 2010.06.03 11:52:47.
