data_PCOD9407195
_publ_section_title
;
Structure prediction by ZEFSAII (Michael W. Deem and Ramdas Pophale) SiO2 
 PCOD9407195
Probable space group: P M M A
;
_chemical_formula_sum "Si O2"
_cell_formula_units_Z 52
_cell_length_a 10.178382
_cell_length_b 10.592185
_cell_length_c 28.864378
_cell_angle_alpha 90.000000
_cell_angle_beta 90.000000
_cell_angle_gamma 90.000000
_cell_volume 3111.906264
_symmetry_space_group_name_H-M "P M M A"
_symmetry_group_IT_number 51
_symmetry_cell_setting 'orthorhombic'
loop_
_space_group_symop_operation_xyz
x,y,z
1/2-x,-y,z
1/2+x,-y,-z
-x,y,-z
-x,-y,-z
1/2+x,y,-z
1/2-x,y,z
x,-y,z
loop_
_atom_site_type_symbol
_atom_site_label
_atom_site_fract_x
_atom_site_fract_y
_atom_site_fract_z
Si Si1 0.407430 0.150631 0.146274
Si Si2 0.508732 0.251967 0.599884
Si Si3 0.592817 0.350012 0.199498
Si Si4 0.602891 0.847338 0.962338
Si Si5 0.250000 0.847169 0.549517
Si Si6 0.250000 0.140425 0.446029
Si Si7 0.093627 0.500000 0.455191
Si Si8 0.595203 0.648300 0.308986
O O1 0.250000 0.168495 0.155222
O O2 0.500020 0.249312 0.173438
O O3 0.429292 0.175632 0.091410
O O4 0.435306 0.000000 0.154920
O O5 0.377039 0.205611 0.575349
O O6 0.624310 0.160440 0.585284
O O7 0.555941 0.380764 0.576014
O O8 0.485894 0.271546 0.654226
O O9 0.750000 0.330166 0.190646
O O10 0.565914 0.500000 0.189378
O O11 0.570732 0.331191 0.254665
O O12 0.750000 0.800146 0.971712
O O13 0.606468 0.000000 0.966596
O O14 0.500000 0.798943 0.000000
O O15 0.250000 0.792982 0.496498
O O16 0.250000 0.000000 0.553680
O O17 0.250000 0.000000 0.462792
O O18 0.250000 0.500000 0.465415
O O19 0.000000 0.500000 0.500000
O O20 0.750000 0.671572 0.317236
O O21 0.571437 0.500000 0.318389
#
# Coordination Sequence:
#
# PCOD9407195 Si02
#       8
#     8   8   8   8   4   4   4   8
#     4   9  18  33  52  79 115 148 180 226 280 327
#     4  12  22  38  61  82 108 136 175 218 261 317
#     4   9  19  36  58  79 103 138 186 230 271 327
#     4   8  14  25  43  70 106 145 182 221 267 321
#     4  11  24  41  61  81 105 148 187 207 246 317
#     4  11  24  41  55  75 111 148 175 211 252 303
#     4  12  26  38  56  88 116 136 166 214 271 318
#     4   9  18  36  58  81 104 134 168 214 274 325
#
# _framework density 16.710014999999999
#
# number of rings (size 3 to 8) (size 9 to 14) (size 15 to 20)
#    0.000    2.154    2.308    3.692    1.077    2.462 
#    1.385    3.077    0.000    0.462    0.000    0.000 
#    0.000    0.000    0.000    0.000    0.000    0.000 
#
# Total GULP energy -289581.749603 kJ/mol
# GULP energy per Si atom -5568.879800 kJ/mol
# Density = 1.667198 g / cm^3
# Si number density = 16.710015 Si / 1000 Ang^3
#
#
#
# Elastic Constant Matrix: (Units=GPa)
#
#
# Indices 1 2 3 4 5 6 
#
# 1 129.9589 51.7769 73.7810 0.0000 0.0000 0.0000
# 2 51.7769 71.6168 42.0654 0.0000 0.0000 0.0000
# 3 73.7810 42.0654 102.8327 0.0000 0.0000 0.0000
# 4 0.0000 0.0000 0.0000 49.1751 0.0000 0.0000
# 5 0.0000 0.0000 0.0000 0.0000 25.4218 0.0000
# 6 0.0000 0.0000 0.0000 0.0000 0.0000 31.7494
#
#
#
# Elastic Compliance Matrix: (Units=1/GPa)
#
#
# Indices 1 2 3 4 5 6 
#
# 1 0.014609 -0.005798 -0.008110 0.000000 0.000000 0.000000
# 2 -0.005798 0.020681 -0.004299 0.000000 0.000000 0.000000
# 3 -0.008110 -0.004299 0.017302 0.000000 0.000000 0.000000
# 4 0.000000 0.000000 0.000000 0.020335 0.000000 0.000000
# 5 0.000000 0.000000 0.000000 0.000000 0.039336 0.000000
# 6 0.000000 0.000000 0.000000 0.000000 0.000000 0.031497
#
#
# Mechanical properties :
#
#
# Convention : Reuss Voigt Hill
#
# Bulk Modulus (GPa) = 61.81917 71.07279 66.44598
# Shear Modulus (GPa) = 26.94432 30.38827 28.66629
#
# Velocity S-wave (km/s) = 4.01991 4.26909 4.14637
# Velocity P-wave (km/s) = 7.65649 8.18081 7.92298
#
# Compressibility (1/GPa) = 0.01617621
#
# Stress axis : x y z
#
# Youngs Moduli (GPa) = 68.45050 48.35424 57.79675
#
# Poissons Ratio (x) = 0.28038 0.46872
# Poissons Ratio (y) = 0.39691 0.24849
# Poissons Ratio (z) = 0.55512 0.20790
#
# Static dielectric constant tensor:
#      x y z
#    x 1.526820 0.000000 0.000000 
#    y 0.000000 1.581920 0.000000 
#    z 0.000000 0.000000 1.549040 
# 
# From -- ./inp_files/36285.got.cif
#   From: 2010.05.17/outbox.cif.g08.bks.cpg/sg51_19_cif.got.tgz:36285.got - 2010.06.03 11:52:47.
