data_PCOD9407760
_publ_section_title
;
Structure prediction by ZEFSAII (Michael W. Deem and Ramdas Pophale) SiO2 
 PCOD9407760
Probable space group: P M M A
;
_chemical_formula_sum "Si O2"
_cell_formula_units_Z 56
_cell_length_a 21.000000
_cell_length_b 9.000000
_cell_length_c 15.000000
_cell_angle_alpha 90.000000
_cell_angle_beta 90.000000
_cell_angle_gamma 90.000000
_cell_volume 2835.000000
_symmetry_space_group_name_H-M "P M M A"
_symmetry_group_IT_number 51
_symmetry_cell_setting 'orthorhombic'
loop_
_space_group_symop_operation_xyz
x,y,z
1/2-x,-y,z
1/2+x,-y,-z
-x,y,-z
-x,-y,-z
1/2+x,y,-z
1/2-x,y,z
x,-y,z
loop_
_atom_site_type_symbol
_atom_site_label
_atom_site_fract_x
_atom_site_fract_y
_atom_site_fract_z
Si Si1 0.323746 0.320603 0.846072
Si Si2 0.135077 0.177715 0.661246
Si Si3 0.556632 0.824722 0.766466
Si Si4 0.676760 0.324745 0.716811
Si Si5 0.546010 0.179673 0.084917
Si Si6 0.324370 0.838732 0.460251
Si Si7 0.494618 0.675526 0.605201
O O1 0.250000 0.291990 0.877299
O O2 0.330624 0.500000 0.838535
O O3 0.330861 0.242038 0.748756
O O4 0.384376 0.256791 0.903306
O O5 0.168680 0.191273 0.565038
O O6 0.073893 0.278725 0.642552
O O7 0.121302 0.000000 0.674760
O O8 0.625497 0.752000 0.780905
O O9 0.498964 0.777679 0.831149
O O10 0.538229 0.775693 0.667323
O O11 0.562268 0.000000 0.774980
O O12 0.750000 0.278664 0.734063
O O13 0.672510 0.500000 0.726926
O O14 0.659838 0.283389 0.613755
O O15 0.555915 0.000000 0.085567
O O16 0.500000 0.213725 0.000000
O O17 0.250000 0.855670 0.446022
O O18 0.355903 0.000000 0.441516
O O19 0.500000 0.709618 0.500000
O O20 0.507204 0.500000 0.617025
#
# Coordination Sequence:
#
# PCOD9407760 Si02
#       7
#     8   8   8   8   8   8   8
#     4  11  24  41  64  96 131 166 206 255 316 384
#     4  11  21  34  54  83 119 163 212 260 312 368
#     4  11  22  38  62  89 117 155 202 254 308 367
#     4  10  21  36  55  81 116 160 206 254 309 365
#     4  10  23  45  71  98 125 159 205 257 319 385
#     4   9  18  32  50  75 111 157 207 255 303 358
#     4  11  23  36  53  82 123 167 209 256 309 366
#
# _framework density 19.753086
#
# number of rings (size 3 to 8) (size 9 to 14) (size 15 to 20)
#    0.000    1.571    1.429    3.429    0.000    8.000 
#    0.000    2.143    0.000    4.286    0.000    0.000 
#    0.000    0.000    0.000    0.000    0.000    0.000 
#
# Total GULP energy -312082.590006 kJ/mol
# GULP energy per Si atom -5572.903393 kJ/mol
# Density = 1.970813 g / cm^3
# Si number density = 19.753086 Si / 1000 Ang^3
#
#
#
# Elastic Constant Matrix: (Units=GPa)
#
#
# Indices 1 2 3 4 5 6 
#
# 1 128.1855 37.9461 43.8409 0.0000 0.0000 0.0000
# 2 37.9461 49.4220 11.0676 0.0000 0.0000 0.0000
# 3 43.8409 11.0676 51.2988 0.0000 0.0000 0.0000
# 4 0.0000 0.0000 0.0000 17.7922 0.0000 0.0000
# 5 0.0000 0.0000 0.0000 0.0000 29.3580 0.0000
# 6 0.0000 0.0000 0.0000 0.0000 0.0000 24.9559
#
#
#
# Elastic Compliance Matrix: (Units=1/GPa)
#
#
# Indices 1 2 3 4 5 6 
#
# 1 0.013612 -0.008245 -0.009854 0.000000 0.000000 0.000000
# 2 -0.008245 0.026255 0.001382 0.000000 0.000000 0.000000
# 3 -0.009854 0.001382 0.027617 0.000000 0.000000 0.000000
# 4 0.000000 0.000000 0.000000 0.056205 0.000000 0.000000
# 5 0.000000 0.000000 0.000000 0.000000 0.034062 0.000000
# 6 0.000000 0.000000 0.000000 0.000000 0.000000 0.040071
#
#
# Mechanical properties :
#
#
# Convention : Reuss Voigt Hill
#
# Bulk Modulus (GPa) = 29.36913 46.06838 37.71876
# Shear Modulus (GPa) = 20.60952 23.49132 22.05042
#
# Velocity S-wave (km/s) = 3.23361 3.45229 3.34474
# Velocity P-wave (km/s) = 5.37048 6.26608 5.83549
#
# Compressibility (1/GPa) = 0.03404936
#
# Stress axis : x y z
#
# Youngs Moduli (GPa) = 73.46385 38.08841 36.20909
#
# Poissons Ratio (x) = 0.31402 0.35682
# Poissons Ratio (y) = 0.60568 -0.05003
# Poissons Ratio (z) = 0.72395 -0.05262
#
# Static dielectric constant tensor:
#      x y z
#    x 1.862940 0.000000 0.000000 
#    y 0.000000 1.688810 0.000000 
#    z 0.000000 0.000000 1.718100 
# 
# From -- ./inp_files/25764.got.cif
#   From: 2010.05.17/outbox.ucp.g08.bks.cvg/sg51_13_cif.got.tgz:25764.got - 2010.06.11 16:27:58.
