data_PCOD9407381
_publ_section_title
;
Structure prediction by ZEFSAII (Michael W. Deem and Ramdas Pophale) SiO2 
 PCOD9407381
Probable space group: P M M A
;
_chemical_formula_sum "Si O2"
_cell_formula_units_Z 64
_cell_length_a 14.377860
_cell_length_b 8.784438
_cell_length_c 23.370413
_cell_angle_alpha 90.000000
_cell_angle_beta 90.000000
_cell_angle_gamma 90.000000
_cell_volume 2951.716342
_symmetry_space_group_name_H-M "P M M A"
_symmetry_group_IT_number 51
_symmetry_cell_setting 'orthorhombic'
loop_
_space_group_symop_operation_xyz
x,y,z
1/2-x,-y,z
1/2+x,-y,-z
-x,y,-z
-x,-y,-z
1/2+x,y,-z
1/2-x,y,z
x,-y,z
loop_
_atom_site_type_symbol
_atom_site_label
_atom_site_fract_x
_atom_site_fract_y
_atom_site_fract_z
Si Si1 0.059942 0.816119 0.741408
Si Si2 0.609064 0.327159 0.016035
Si Si3 0.395209 0.326912 0.624225
Si Si4 0.118139 0.670586 0.392695
Si Si5 0.058460 0.183729 0.868299
Si Si6 0.150549 0.820561 0.277719
Si Si7 0.349638 0.818272 0.101437
Si Si8 0.387117 0.173117 0.507335
O O1 0.095097 0.779437 0.804991
O O2 0.951098 0.762726 0.740813
O O3 0.112907 0.745709 0.687214
O O4 0.059574 0.000000 0.734637
O O5 0.643986 0.500000 0.013923
O O6 0.613726 0.257742 0.079296
O O7 0.500000 0.331991 0.000000
O O8 0.649379 0.224510 0.965550
O O9 0.361111 0.500000 0.623341
O O10 0.506316 0.330739 0.612482
O O11 0.359846 0.231222 0.570144
O O12 0.148964 0.500000 0.378458
O O13 0.150215 0.790614 0.345634
O O14 0.145073 0.718482 0.456279
O O15 0.949119 0.233839 0.873427
O O16 0.059633 0.000000 0.874876
O O17 0.250000 0.757912 0.256270
O O18 0.150192 0.000000 0.264467
O O19 0.250000 0.760593 0.124665
O O20 0.349843 0.000000 0.108621
O O21 0.500000 0.173034 0.500000
O O22 0.357179 0.000000 0.498631
#
# Coordination Sequence:
#
# PCOD9407381 Si02
#       8
#     8   8   8   8   8   8   8   8
#     4   9  17  28  41  58  81 111 146 180 213 251
#     4   9  17  29  45  64  87 116 148 182 223 269
#     4   9  16  25  37  54  77 103 130 163 203 245
#     4   9  16  25  37  53  73  98 130 167 207 250
#     4   9  17  29  45  64  88 119 153 187 223 266
#     4   9  17  28  40  54  76 108 144 180 216 254
#     4   9  17  29  46  68  92 117 147 185 227 268
#     4   9  15  23  37  55  74  96 123 158 201 246
#
# _framework density 21.682300999999999
#
# number of rings (size 3 to 8) (size 9 to 14) (size 15 to 20)
#    0.000    3.000    0.000    1.500    0.000    7.500 
#    0.000    2.500    0.000    0.000    0.000    7.000 
#    0.000    1.000    0.000    8.750    0.000    6.875 
#
# Total GULP energy -356749.983917 kJ/mol
# GULP energy per Si atom -5574.218499 kJ/mol
# Density = 2.163295 g / cm^3
# Si number density = 21.682301 Si / 1000 Ang^3
#
#
#
# Elastic Constant Matrix: (Units=GPa)
#
#
# Indices 1 2 3 4 5 6 
#
# 1 48.7382 -6.2683 -9.7920 0.0000 0.0000 0.0000
# 2 -6.2683 34.5343 22.6934 0.0000 0.0000 0.0000
# 3 -9.7920 22.6934 158.9850 0.0000 0.0000 0.0000
# 4 0.0000 0.0000 0.0000 4.9208 0.0000 0.0000
# 5 0.0000 0.0000 0.0000 0.0000 -26.2020 0.0000
# 6 0.0000 0.0000 0.0000 0.0000 0.0000 -12.3035
#
#
#
# Elastic Compliance Matrix: (Units=1/GPa)
#
#
# Indices 1 2 3 4 5 6 
#
# 1 0.021107 0.003285 0.000831 0.000000 0.000000 0.000000
# 2 0.003285 0.032465 -0.004432 0.000000 0.000000 0.000000
# 3 0.000831 -0.004432 0.006974 0.000000 0.000000 0.000000
# 4 0.000000 0.000000 0.000000 0.203221 0.000000 0.000000
# 5 0.000000 0.000000 0.000000 0.000000 -0.038165 0.000000
# 6 0.000000 0.000000 0.000000 0.000000 0.000000 -0.081278
#
#
# Mechanical properties :
#
#
# Convention : Reuss Voigt Hill
#
# Bulk Modulus (GPa) = 16.69032 28.39150 22.54091
# Shear Modulus (GPa) = 30.31644 8.99135 19.65389
#
# Velocity S-wave (km/s) = 3.74332 2.03859 3.01399
# Velocity P-wave (km/s) = 5.13787 4.32017 4.74666
#
# Compressibility (1/GPa) = 0.05991496
#
# Stress axis : x y z
#
# Youngs Moduli (GPa) = 47.37705 30.80221 143.39648
#
# Poissons Ratio (x) = -0.10119 -0.11918
# Poissons Ratio (y) = -0.15563 0.63549
# Poissons Ratio (z) = -0.03938 0.13651
#
# Static dielectric constant tensor:
#      x y z
#    x 1.902400 0.000000 0.000000 
#    y 0.000000 1.746710 0.000000 
#    z 0.000000 0.000000 1.775580 
# 
# From -- ./inp_files/35915.got.cif
#   From: 2010.05.17/outbox.cif.g08.bks.cpg/sg51_18_cif.got.tgz:35915.got - 2010.06.03 11:52:47.
