data_PCOD9407492
_publ_section_title
;
Structure prediction by ZEFSAII (Michael W. Deem and Ramdas Pophale) SiO2 
 PCOD9407492
Probable space group: P M M A
;
_chemical_formula_sum "Si O2"
_cell_formula_units_Z 48
_cell_length_a 30.000000
_cell_length_b 9.000000
_cell_length_c 9.000000
_cell_angle_alpha 90.000000
_cell_angle_beta 90.000000
_cell_angle_gamma 90.000000
_cell_volume 2430.000000
_symmetry_space_group_name_H-M "P M M A"
_symmetry_group_IT_number 51
_symmetry_cell_setting 'orthorhombic'
loop_
_space_group_symop_operation_xyz
x,y,z
1/2-x,-y,z
1/2+x,-y,-z
-x,y,-z
-x,-y,-z
1/2+x,y,-z
1/2-x,y,z
x,-y,z
loop_
_atom_site_type_symbol
_atom_site_label
_atom_site_fract_x
_atom_site_fract_y
_atom_site_fract_z
Si Si1 0.942991 0.825798 0.138836
Si Si2 0.638139 0.169084 0.363011
Si Si3 0.624689 0.671583 0.956671
Si Si4 0.200923 0.677791 0.830324
Si Si5 0.614457 0.661700 0.632002
Si Si6 0.490113 0.330930 0.336838
O O1 0.905548 0.793492 0.265681
O O2 0.920120 0.758862 0.993960
O O3 0.987153 0.752474 0.201687
O O4 0.948975 0.000000 0.123708
O O5 0.679293 0.273103 0.323124
O O6 0.624990 0.201639 0.529592
O O7 0.649717 0.000000 0.332472
O O8 0.616537 0.500000 0.000941
O O9 0.665296 0.735032 0.051276
O O10 0.638864 0.671878 0.787336
O O11 0.250000 0.737367 0.851812
O O12 0.202271 0.500000 0.841494
O O13 0.623349 0.500000 0.559462
O O14 0.562589 0.662066 0.673096
O O15 0.500000 0.263582 0.500000
O O16 0.508358 0.500000 0.338230
#
# Coordination Sequence:
#
# PCOD9407492 Si02
#       6
#     8   8   8   8   8   8
#     4  10  20  33  50  73 102 138 178 217 258 304
#     4  10  20  33  52  77 105 135 167 208 256 307
#     4   9  19  35  54  75 103 136 170 212 262 313
#     4   9  18  35  59  81  99 126 166 208 251 306
#     4  10  20  34  52  76 105 139 177 217 261 306
#     4  10  19  31  50  73 100 139 184 224 258 299
#
# _framework density 19.753086
#
# number of rings (size 3 to 8) (size 9 to 14) (size 15 to 20)
#    0.000    2.333    1.667    1.000    0.000    4.000 
#    0.000    4.167    0.000    3.000    0.000    0.000 
#    0.000    0.000    0.000    0.000    0.000    0.000 
#
# Total GULP energy -267245.801243 kJ/mol
# GULP energy per Si atom -5567.620859 kJ/mol
# Density = 1.970813 g / cm^3
# Si number density = 19.753086 Si / 1000 Ang^3
#
#
#
# Elastic Constant Matrix: (Units=GPa)
#
#
# Indices 1 2 3 4 5 6 
#
# 1 70.4956 20.6665 20.1922 0.0000 0.0000 0.0000
# 2 20.6665 0.3589 19.0924 0.0000 0.0000 0.0000
# 3 20.1922 19.0924 40.4344 0.0000 0.0000 0.0000
# 4 0.0000 0.0000 0.0000 21.9411 0.0000 0.0000
# 5 0.0000 0.0000 0.0000 0.0000 -5.2138 0.0000
# 6 0.0000 0.0000 0.0000 0.0000 0.0000 25.6411
#
#
#
# Elastic Compliance Matrix: (Units=1/GPa)
#
#
# Indices 1 2 3 4 5 6 
#
# 1 0.013382 0.017209 -0.014809 0.000000 0.000000 0.000000
# 2 0.017209 -0.093393 0.035504 0.000000 0.000000 0.000000
# 3 -0.014809 0.035504 0.015362 0.000000 0.000000 0.000000
# 4 0.000000 0.000000 0.000000 0.045577 0.000000 0.000000
# 5 0.000000 0.000000 0.000000 0.000000 -0.191798 0.000000
# 6 0.000000 0.000000 0.000000 0.000000 0.000000 0.039000
#
#
# Mechanical properties :
#
#
# Convention : Reuss Voigt Hill
#
# Bulk Modulus (GPa) = 89.59500 25.68790 57.64145
# Shear Modulus (GPa) = -20.49512 11.89619 -4.29947
#
# Velocity S-wave (km/s) = -3.22462 2.45673 -1.47693
# Velocity P-wave (km/s) = 5.62065 4.59131 5.13185
#
# Compressibility (1/GPa) = 0.01116134
#
# Stress axis : x y z
#
# Youngs Moduli (GPa) = 74.72823 -10.70746 65.09518
#
# Poissons Ratio (x) = 0.18427 0.96397
# Poissons Ratio (y) = -1.28603 -2.31116
# Poissons Ratio (z) = 1.10662 0.38016
#
# Static dielectric constant tensor:
#      x y z
#    x 1.700580 0.000000 0.000000 
#    y 0.000000 1.707100 0.000000 
#    z 0.000000 0.000000 1.780970 
# 
# From -- ./inp_files/12769.got.cif
#   From: 2010.05.17/outbox.ucp.g08.bks.cvg/sg51_7_cif.got.tgz:12769.got - 2010.06.11 16:27:58.
