data_PCOD9407407
_publ_section_title
;
Structure prediction by ZEFSAII (Michael W. Deem and Ramdas Pophale) SiO2 
 PCOD9407407
Probable space group: P M M A
;
_chemical_formula_sum "Si O2"
_cell_formula_units_Z 44
_cell_length_a 9.000000
_cell_length_b 30.000000
_cell_length_c 9.000000
_cell_angle_alpha 90.000000
_cell_angle_beta 90.000000
_cell_angle_gamma 90.000000
_cell_volume 2430.000000
_symmetry_space_group_name_H-M "P M M A"
_symmetry_group_IT_number 51
_symmetry_cell_setting 'orthorhombic'
loop_
_space_group_symop_operation_xyz
x,y,z
1/2-x,-y,z
1/2+x,-y,-z
-x,y,-z
-x,-y,-z
1/2+x,y,-z
1/2-x,y,z
x,-y,z
loop_
_atom_site_type_symbol
_atom_site_label
_atom_site_fract_x
_atom_site_fract_y
_atom_site_fract_z
Si Si1 0.068767 0.908161 0.167558
Si Si2 0.931684 0.000000 0.168044
Si Si3 0.569754 0.816367 0.164527
Si Si4 0.928530 0.448992 0.663889
Si Si5 0.927802 0.275151 0.338728
Si Si6 0.429690 0.365897 0.837355
O O1 0.250000 0.909646 0.164797
O O2 0.006523 0.861269 0.231318
O O3 0.998518 0.953828 0.234373
O O4 0.000000 0.907196 0.000000
O O5 0.750000 0.000000 0.165032
O O6 0.000000 0.000000 0.000000
O O7 0.750000 0.822108 0.156070
O O8 0.535684 0.770972 0.253556
O O9 0.500000 0.811050 0.000000
O O10 0.750000 0.442707 0.656421
O O11 0.955442 0.500000 0.719130
O O12 0.000000 0.446435 0.500000
O O13 0.003031 0.409860 0.759287
O O14 0.750000 0.276002 0.353857
O O15 0.969496 0.320319 0.250616
O O16 0.000000 0.275458 0.500000
O O17 0.250000 0.369120 0.843523
O O18 0.500000 0.362756 0.000000
#
# Coordination Sequence:
#
# PCOD9407407 Si02
#       6
#     8   4   8   8   8   8
#     4  10  17  26  41  65  96 132 170 211 258 310
#     4  10  16  24  38  60  93 132 169 210 257 308
#     4  10  19  33  51  75 104 136 173 215 263 315
#     4  10  21  38  60  86 116 151 189 229 273 323
#     4  10  23  39  57  80 107 139 178 221 268 322
#     4  11  23  39  59  85 114 147 185 228 277 327
#
# _framework density 18.106995999999999
#
# number of rings (size 3 to 8) (size 9 to 14) (size 15 to 20)
#    0.000    1.818    0.000    7.364    0.000    5.818 
#    0.000    0.000    0.000    0.000    0.000    0.636 
#    0.000    0.000    0.000    0.000    0.000    0.000 
#
# Total GULP energy -245482.144940 kJ/mol
# GULP energy per Si atom -5579.139658 kJ/mol
# Density = 1.806578 g / cm^3
# Si number density = 18.106996 Si / 1000 Ang^3
#
#
#
# Elastic Constant Matrix: (Units=GPa)
#
#
# Indices 1 2 3 4 5 6 
#
# 1 135.1365 86.0595 40.1795 0.0000 0.0000 0.0000
# 2 86.0595 226.8995 83.1786 0.0000 0.0000 0.0000
# 3 40.1795 83.1786 82.3037 0.0000 0.0000 0.0000
# 4 0.0000 0.0000 0.0000 11.5934 0.0000 0.0000
# 5 0.0000 0.0000 0.0000 0.0000 28.6680 0.0000
# 6 0.0000 0.0000 0.0000 0.0000 0.0000 34.0033
#
#
#
# Elastic Compliance Matrix: (Units=1/GPa)
#
#
# Indices 1 2 3 4 5 6 
#
# 1 0.009895 -0.003149 -0.001648 0.000000 0.000000 0.000000
# 2 -0.003149 0.008003 -0.006551 0.000000 0.000000 0.000000
# 3 -0.001648 -0.006551 0.019575 0.000000 0.000000 0.000000
# 4 0.000000 0.000000 0.000000 0.086256 0.000000 0.000000
# 5 0.000000 0.000000 0.000000 0.000000 0.034882 0.000000
# 6 0.000000 0.000000 0.000000 0.000000 0.000000 0.029409
#
#
# Mechanical properties :
#
#
# Convention : Reuss Voigt Hill
#
# Bulk Modulus (GPa) = 67.67085 95.90832 81.78959
# Shear Modulus (GPa) = 23.18651 30.51442 26.85047
#
# Velocity S-wave (km/s) = 3.58233 4.10961 3.85499
# Velocity P-wave (km/s) = 7.38679 8.69489 8.06739
#
# Compressibility (1/GPa) = 0.01477741
#
# Stress axis : x y z
#
# Youngs Moduli (GPa) = 101.05769 124.95282 51.08461
#
# Poissons Ratio (x) = 0.39346 0.08421
# Poissons Ratio (y) = 0.31822 0.33465
# Poissons Ratio (z) = 0.16659 0.81855
#
# Static dielectric constant tensor:
#      x y z
#    x 1.602290 0.000000 0.000000 
#    y 0.000000 1.674950 0.000000 
#    z 0.000000 0.000000 1.609380 
# 
# From -- ./inp_files/5805.got.cif
#   From: 2010.05.17/outbox.ucp.g08.bks.cvg/sg51_3_cif.got.tgz:5805.got - 2010.06.11 16:27:58.
