data_PCOD9407452
_publ_section_title
;
Structure prediction by ZEFSAII (Michael W. Deem and Ramdas Pophale) SiO2 
 PCOD9407452
Probable space group: P M M A
;
_chemical_formula_sum "Si O2"
_cell_formula_units_Z 64
_cell_length_a 30.000000
_cell_length_b 9.000000
_cell_length_c 12.000000
_cell_angle_alpha 90.000000
_cell_angle_beta 90.000000
_cell_angle_gamma 90.000000
_cell_volume 3240.000000
_symmetry_space_group_name_H-M "P M M A"
_symmetry_group_IT_number 51
_symmetry_cell_setting 'orthorhombic'
loop_
_space_group_symop_operation_xyz
x,y,z
1/2-x,-y,z
1/2+x,-y,-z
-x,y,-z
-x,-y,-z
1/2+x,y,-z
1/2-x,y,z
x,-y,z
loop_
_atom_site_type_symbol
_atom_site_label
_atom_site_fract_x
_atom_site_fract_y
_atom_site_fract_z
Si Si1 0.472736 0.828104 0.615479
Si Si2 0.699009 0.663921 0.736013
Si Si3 0.297610 0.324693 0.999001
Si Si4 0.378159 0.321269 0.859842
Si Si5 0.944470 0.818393 0.753804
Si Si6 0.553100 0.172795 0.999225
Si Si7 0.620984 0.674907 0.385136
Si Si8 0.365939 0.829404 0.400787
O O1 0.500000 0.826682 0.500000
O O2 0.506367 0.779529 0.712566
O O3 0.430086 0.726489 0.605427
O O4 0.459279 0.000000 0.635741
O O5 0.750000 0.664973 0.699065
O O6 0.679755 0.500000 0.706920
O O7 0.672929 0.799669 0.685139
O O8 0.698667 0.677608 0.868664
O O9 0.250000 0.258685 0.965655
O O10 0.296659 0.500000 0.967836
O O11 0.341091 0.260593 0.943428
O O12 0.380848 0.500000 0.863447
O O13 0.424867 0.258915 0.900291
O O14 0.364520 0.275816 0.736655
O O15 0.909708 0.767137 0.660938
O O16 0.943170 0.000000 0.756148
O O17 0.932547 0.767280 0.877595
O O18 0.565743 0.000000 0.007842
O O19 0.500000 0.180587 0.000000
O O20 0.624472 0.500000 0.392900
O O21 0.646040 0.748313 0.486543
O O22 0.374664 0.000000 0.424921
#
# Coordination Sequence:
#
# PCOD9407452 Si02
#       8
#     8   8   8   8   8   8   8   8
#     4  10  18  34  56  74  99 139 184 224 265 317
#     4   9  18  34  57  84 110 133 163 211 267 320
#     4   8  15  32  59  85 107 136 175 216 265 325
#     4  10  21  36  54  78 109 142 181 228 272 319
#     4   9  18  32  51  77 103 130 172 222 266 312
#     4  10  20  34  53  76 105 141 179 219 267 328
#     4  11  23  36  50  75 110 143 181 227 270 314
#     4  11  21  35  54  76 104 139 178 217 259 312
#
# _framework density 19.753086
#
# number of rings (size 3 to 8) (size 9 to 14) (size 15 to 20)
#    0.000    2.250    1.250    3.000    0.000    2.750 
#    0.000    1.875    0.000    3.375    0.000    0.000 
#    0.000    0.000    0.000    0.000    0.000    0.000 
#
# Total GULP energy -356579.819447 kJ/mol
# GULP energy per Si atom -5571.559679 kJ/mol
# Density = 1.970813 g / cm^3
# Si number density = 19.753086 Si / 1000 Ang^3
#
#
#
# Elastic Constant Matrix: (Units=GPa)
#
#
# Indices 1 2 3 4 5 6 
#
# 1 35.3272 6.2617 12.7620 0.0000 0.0000 0.0000
# 2 6.2617 0.4638 27.4473 0.0000 0.0000 0.0000
# 3 12.7620 27.4473 51.9237 0.0000 0.0000 0.0000
# 4 0.0000 0.0000 0.0000 26.9681 0.0000 0.0000
# 5 0.0000 0.0000 0.0000 0.0000-1391.3820 0.0000
# 6 0.0000 0.0000 0.0000 0.0000 0.0000 17.5620
#
#
#
# Elastic Compliance Matrix: (Units=1/GPa)
#
#
# Indices 1 2 3 4 5 6 
#
# 1 0.031049 -0.001071 -0.007065 0.000000 0.000000 0.000000
# 2 -0.001071 -0.071162 0.037880 0.000000 0.000000 0.000000
# 3 -0.007065 0.037880 0.000972 0.000000 0.000000 0.000000
# 4 0.000000 0.000000 0.000000 0.037081 0.000000 0.000000
# 5 0.000000 0.000000 0.000000 0.000000 -0.000719 0.000000
# 6 0.000000 0.000000 0.000000 0.000000 0.000000 0.056941
#
#
# Mechanical properties :
#
#
# Convention : Reuss Voigt Hill
#
# Bulk Modulus (GPa) = 49.14793 20.07296 34.61045
# Shear Modulus (GPa) = 3433.31677 -266.62081 1583.34798
#
# Velocity S-wave (km/s) = 41.73595 -11.63055 28.34272
# Velocity P-wave (km/s) = 48.45054 13.04514 32.99454
#
# Compressibility (1/GPa) = 0.02034674
#
# Stress axis : x y z
#
# Youngs Moduli (GPa) = 32.20717 -14.05244 1029.01039
#
# Poissons Ratio (x) = -0.01505 7.27025
# Poissons Ratio (y) = 0.03449 -38.97901
# Poissons Ratio (z) = 0.22755 0.53231
#
# Static dielectric constant tensor:
#      x y z
#    x 1.737110 0.000000 0.000000 
#    y 0.000000 1.694210 0.000000 
#    z 0.000000 0.000000 1.747780 
# 
# From -- ./inp_files/19534.got.cif
#   From: 2010.05.17/outbox.ucp.g08.bks.cvg/sg51_10_cif.got.tgz:19534.got - 2010.06.11 16:27:58.
