data_PCOD9407434
_publ_section_title
;
Structure prediction by ZEFSAII (Michael W. Deem and Ramdas Pophale) SiO2 
 PCOD9407434
Probable space group: P M M A
;
_chemical_formula_sum "Si O2"
_cell_formula_units_Z 64
_cell_length_a 9.000000
_cell_length_b 24.000000
_cell_length_c 18.000000
_cell_angle_alpha 90.000000
_cell_angle_beta 90.000000
_cell_angle_gamma 90.000000
_cell_volume 3888.000000
_symmetry_space_group_name_H-M "P M M A"
_symmetry_group_IT_number 51
_symmetry_cell_setting 'orthorhombic'
loop_
_space_group_symop_operation_xyz
x,y,z
1/2-x,-y,z
1/2+x,-y,-z
-x,y,-z
-x,-y,-z
1/2+x,y,-z
1/2-x,y,z
x,-y,z
loop_
_atom_site_type_symbol
_atom_site_label
_atom_site_fract_x
_atom_site_fract_y
_atom_site_fract_z
Si Si1 0.573242 0.283916 0.206969
Si Si2 0.075754 0.227172 0.078857
Si Si3 0.420687 0.566802 0.576005
Si Si4 0.429350 0.939670 0.772171
Si Si5 0.570910 0.173415 0.300063
Si Si6 0.424439 0.097164 0.080194
Si Si7 0.571645 0.745898 0.420757
Si Si8 0.073480 0.351969 0.323076
O O1 0.750000 0.290398 0.213647
O O2 0.516133 0.270952 0.126092
O O3 0.528995 0.226143 0.248931
O O4 0.488721 0.335463 0.243017
O O5 0.250000 0.240106 0.078258
O O6 0.061058 0.162414 0.102912
O O7 0.000000 0.227368 0.000000
O O8 0.500000 0.585648 0.500000
O O9 0.250000 0.586217 0.577444
O O10 0.420965 0.500000 0.576404
O O11 0.511551 0.590783 0.644671
O O12 0.250000 0.936338 0.776873
O O13 0.485721 0.886126 0.726454
O O14 0.494634 0.935638 0.854724
O O15 0.468136 0.000000 0.739475
O O16 0.750000 0.170518 0.295997
O O17 0.532163 0.195630 0.381290
O O18 0.250000 0.083849 0.075274
O O19 0.500000 0.089227 0.000000
O O20 0.500000 0.743782 0.500000
O O21 0.750000 0.740105 0.421284
O O22 0.501638 0.695372 0.374439
O O23 0.250000 0.349224 0.326610
#
# Coordination Sequence:
#
# PCOD9407434 Si02
#       8
#     8   8   8   8   8   8   8   8
#     4  10  18  31  50  69  95 126 158 198 241 286
#     4  10  19  30  46  69  94 125 159 193 236 288
#     4  10  20  34  51  71  99 137 177 210 242 281
#     4  10  19  32  50  68  86 113 151 193 236 284
#     4   8  16  30  47  66  88 114 146 185 233 285
#     4  10  20  32  47  66  90 119 152 189 229 277
#     4  10  19  32  49  70  94 121 153 192 239 287
#     4  11  21  32  48  72 102 131 164 202 239 283
#
# _framework density 16.460905
#
# number of rings (size 3 to 8) (size 9 to 14) (size 15 to 20)
#    0.000    2.125    1.250    4.125    0.000    2.250 
#    0.000    0.625    0.000    0.375    0.000    0.000 
#    0.000    0.500    0.000    1.875    0.000    3.375 
#
# Total GULP energy -356502.544533 kJ/mol
# GULP energy per Si atom -5570.352258 kJ/mol
# Density = 1.642344 g / cm^3
# Si number density = 16.460905 Si / 1000 Ang^3
#
#
#
# Elastic Constant Matrix: (Units=GPa)
#
#
# Indices 1 2 3 4 5 6 
#
# 1 76.8981 23.5649 13.6793 0.0000 0.0000 0.0000
# 2 23.5649 35.7285 13.3493 0.0000 0.0000 0.0000
# 3 13.6793 13.3493 21.5424 0.0000 0.0000 0.0000
# 4 0.0000 0.0000 0.0000 24.9979 0.0000 0.0000
# 5 0.0000 0.0000 0.0000 0.0000 18.7243 0.0000
# 6 0.0000 0.0000 0.0000 0.0000 0.0000 14.7664
#
#
#
# Elastic Compliance Matrix: (Units=1/GPa)
#
#
# Indices 1 2 3 4 5 6 
#
# 1 0.016689 -0.009171 -0.004914 0.000000 0.000000 0.000000
# 2 -0.009171 0.041461 -0.019869 0.000000 0.000000 0.000000
# 3 -0.004914 -0.019869 0.061853 0.000000 0.000000 0.000000
# 4 0.000000 0.000000 0.000000 0.040003 0.000000 0.000000
# 5 0.000000 0.000000 0.000000 0.000000 0.053407 0.000000
# 6 0.000000 0.000000 0.000000 0.000000 0.000000 0.067721
#
#
# Mechanical properties :
#
#
# Convention : Reuss Voigt Hill
#
# Bulk Modulus (GPa) = 19.19590 26.15068 22.67329
# Shear Modulus (GPa) = 13.64600 17.26942 15.45771
#
# Velocity S-wave (km/s) = 2.88235 3.24252 3.06773
# Velocity P-wave (km/s) = 4.77117 5.47171 5.13341
#
# Compressibility (1/GPa) = 0.05209445
#
# Stress axis : x y z
#
# Youngs Moduli (GPa) = 59.92029 24.11880 16.16740
#
# Poissons Ratio (x) = 0.22120 0.07945
# Poissons Ratio (y) = 0.54954 0.32123
# Poissons Ratio (z) = 0.29446 0.47922
#
# Static dielectric constant tensor:
#      x y z
#    x 1.536660 0.000000 0.000000 
#    y 0.000000 1.576850 0.000000 
#    z 0.000000 0.000000 1.541560 
# 
# From -- ./inp_files/28607.got.cif
#   From: 2010.05.17/outbox.ucp.g08.bks.cvg/sg51_15_cif.got.tgz:28607.got - 2010.06.11 16:27:58.
