data_PCOD9407742
_publ_section_title
;
Structure prediction by ZEFSAII (Michael W. Deem and Ramdas Pophale) SiO2 
 PCOD9407742
Probable space group: P M M A
;
_chemical_formula_sum "Si O2"
_cell_formula_units_Z 44
_cell_length_a 9.000000
_cell_length_b 9.000000
_cell_length_c 30.000000
_cell_angle_alpha 90.000000
_cell_angle_beta 90.000000
_cell_angle_gamma 90.000000
_cell_volume 2430.000000
_symmetry_space_group_name_H-M "P M M A"
_symmetry_group_IT_number 51
_symmetry_cell_setting 'orthorhombic'
loop_
_space_group_symop_operation_xyz
x,y,z
1/2-x,-y,z
1/2+x,-y,-z
-x,y,-z
-x,-y,-z
1/2+x,y,-z
1/2-x,y,z
x,-y,z
loop_
_atom_site_type_symbol
_atom_site_label
_atom_site_fract_x
_atom_site_fract_y
_atom_site_fract_z
Si Si1 0.566881 0.000000 0.450304
Si Si2 0.574010 0.176796 0.953770
Si Si3 0.930063 0.680803 0.590391
Si Si4 0.573620 0.823602 0.223550
Si Si5 0.074570 0.323163 0.868209
Si Si6 0.427750 0.172708 0.317112
O O1 0.500000 0.000000 0.500000
O O2 0.506418 0.834544 0.431338
O O3 0.750000 0.000000 0.448174
O O4 0.750000 0.199547 0.956300
O O5 0.508180 0.255542 0.910506
O O6 0.544926 0.000000 0.949769
O O7 0.500000 0.228537 0.000000
O O8 0.750000 0.692692 0.582750
O O9 0.967342 0.500000 0.580362
O O10 0.961905 0.715549 0.642492
O O11 0.750000 0.796663 0.227845
O O12 0.520110 0.741327 0.179098
O O13 0.497210 0.781792 0.270007
O O14 0.550404 0.000000 0.217428
O O15 0.250000 0.284894 0.871839
O O16 0.060304 0.500000 0.868033
O O17 0.250000 0.168905 0.312865
O O18 0.475630 0.000000 0.327135
#
# Coordination Sequence:
#
# PCOD9407742 Si02
#       6
#     4   8   8   8   8   8
#     4  12  26  44  68  94 128 168 210 262 315 372
#     4  10  21  37  58  81 102 129 170 220 273 333
#     4  10  21  40  66  94 127 167 211 259 312 371
#     4   9  18  32  51  76 108 149 193 234 279 332
#     4  10  21  36  53  75 107 146 183 223 274 330
#     4   9  17  32  55  83 117 155 196 242 293 350
#
# _framework density 18.106995999999999
#
# number of rings (size 3 to 8) (size 9 to 14) (size 15 to 20)
#    0.000    2.182    0.909    1.909    0.000    5.455 
#    0.000    1.818    0.000    0.000    0.000    0.000 
#    0.000    0.000    0.000    0.000    0.000    0.000 
#
# Total GULP energy -244972.001320 kJ/mol
# GULP energy per Si atom -5567.545485 kJ/mol
# Density = 1.806578 g / cm^3
# Si number density = 18.106996 Si / 1000 Ang^3
#
#
#
# Elastic Constant Matrix: (Units=GPa)
#
#
# Indices 1 2 3 4 5 6 
#
# 1 40.6440 44.6674 41.6325 0.0000 0.0000 0.0000
# 2 44.6674 90.7015 61.2421 0.0000 0.0000 0.0000
# 3 41.6325 61.2421 140.9657 0.0000 0.0000 0.0000
# 4 0.0000 0.0000 0.0000 23.9264 0.0000 0.0000
# 5 0.0000 0.0000 0.0000 0.0000 34.1295 0.0000
# 6 0.0000 0.0000 0.0000 0.0000 0.0000 28.2266
#
#
#
# Elastic Compliance Matrix: (Units=1/GPa)
#
#
# Indices 1 2 3 4 5 6 
#
# 1 0.057718 -0.023936 -0.006648 0.000000 0.000000 0.000000
# 2 -0.023936 0.025528 -0.004021 0.000000 0.000000 0.000000
# 3 -0.006648 -0.004021 0.010804 0.000000 0.000000 0.000000
# 4 0.000000 0.000000 0.000000 0.041795 0.000000 0.000000
# 5 0.000000 0.000000 0.000000 0.000000 0.029300 0.000000
# 6 0.000000 0.000000 0.000000 0.000000 0.000000 0.035428
#
#
# Mechanical properties :
#
#
# Convention : Reuss Voigt Hill
#
# Bulk Modulus (GPa) = 40.25593 63.04391 51.64992
# Shear Modulus (GPa) = 17.98150 25.57444 21.77797
#
# Velocity S-wave (km/s) = 3.15472 3.76228 3.47181
# Velocity P-wave (km/s) = 5.96240 7.33253 6.68267
#
# Compressibility (1/GPa) = 0.02484106
#
# Stress axis : x y z
#
# Youngs Moduli (GPa) = 17.32549 39.17257 92.55576
#
# Poissons Ratio (x) = 0.93763 0.61527
# Poissons Ratio (y) = 0.41470 0.37221
# Poissons Ratio (z) = 0.11517 0.15753
#
# Static dielectric constant tensor:
#      x y z
#    x 1.614550 0.000000 0.000000 
#    y 0.000000 1.645880 0.000000 
#    z 0.000000 0.000000 1.620570 
# 
# From -- ./inp_files/36820.got.cif
#   From: 2010.05.17/outbox.ucp.g08.bks.cvg/sg51_19_cif.got.tgz:36820.got - 2010.06.11 16:27:58.
