data_PCOD9407830
_publ_section_title
;
Structure prediction by ZEFSAII (Michael W. Deem and Ramdas Pophale) SiO2 
 PCOD9407830
Probable space group: P M M A
;
_chemical_formula_sum "Si O2"
_cell_formula_units_Z 48
_cell_length_a 18.000000
_cell_length_b 9.000000
_cell_length_c 15.000000
_cell_angle_alpha 90.000000
_cell_angle_beta 90.000000
_cell_angle_gamma 90.000000
_cell_volume 2430.000000
_symmetry_space_group_name_H-M "P M M A"
_symmetry_group_IT_number 51
_symmetry_cell_setting 'orthorhombic'
loop_
_space_group_symop_operation_xyz
x,y,z
1/2-x,-y,z
1/2+x,-y,-z
-x,y,-z
-x,-y,-z
1/2+x,y,-z
1/2-x,y,z
x,-y,z
loop_
_atom_site_type_symbol
_atom_site_label
_atom_site_fract_x
_atom_site_fract_y
_atom_site_fract_z
Si Si1 0.568069 0.823963 0.876108
Si Si2 0.895127 0.823348 0.073974
Si Si3 0.586809 0.324777 0.691285
Si Si4 0.437117 0.824985 0.623647
Si Si5 0.832720 0.677161 0.517588
Si Si6 0.164521 0.330439 0.763723
O O1 0.479934 0.798350 0.892218
O O2 0.595910 0.739199 0.789759
O O3 0.576623 0.000000 0.861733
O O4 0.606835 0.785766 0.969558
O O5 0.843645 0.723343 0.135092
O O6 0.879807 0.000000 0.083795
O O7 0.573733 0.500000 0.696694
O O8 0.515113 0.249334 0.646655
O O9 0.653573 0.298818 0.622356
O O10 0.396282 0.758008 0.537920
O O11 0.383338 0.781264 0.705085
O O12 0.446066 0.000000 0.615350
O O13 0.750000 0.726211 0.491567
O O14 0.838464 0.500000 0.500427
O O15 0.250000 0.326490 0.735900
O O16 0.137266 0.500000 0.752858
#
# Coordination Sequence:
#
# PCOD9407830 Si02
#       6
#     8   8   8   8   8   8
#     4   9  18  34  57  85 115 147 186 235 283 330
#     4   9  18  34  56  82 114 151 189 231 283 339
#     4  11  22  37  61  90 116 150 193 237 287 342
#     4  12  24  38  59  87 116 149 192 241 289 343
#     4  10  23  43  62  82 114 153 191 235 288 345
#     4  11  23  37  55  83 119 155 193 240 292 346
#
# _framework density 19.753086
#
# number of rings (size 3 to 8) (size 9 to 14) (size 15 to 20)
#    0.000    1.667    1.667    4.500    0.000    7.667 
#    0.000    2.500    0.000    3.000    0.000    0.000 
#    0.000    0.000    0.000    0.000    0.000    0.000 
#
# Total GULP energy -268152.837242 kJ/mol
# GULP energy per Si atom -5586.517443 kJ/mol
# Density = 1.970813 g / cm^3
# Si number density = 19.753086 Si / 1000 Ang^3
#
#
#
# Elastic Constant Matrix: (Units=GPa)
#
#
# Indices 1 2 3 4 5 6 
#
# 1 24.3218 7.9316 11.4788 0.0000 0.0000 0.0000
# 2 7.9316 35.1766 41.4134 0.0000 0.0000 0.0000
# 3 11.4788 41.4134 115.4324 0.0000 0.0000 0.0000
# 4 0.0000 0.0000 0.0000 38.1769 0.0000 0.0000
# 5 0.0000 0.0000 0.0000 0.0000 67.5124 0.0000
# 6 0.0000 0.0000 0.0000 0.0000 0.0000 31.3571
#
#
#
# Elastic Compliance Matrix: (Units=1/GPa)
#
#
# Indices 1 2 3 4 5 6 
#
# 1 0.044514 -0.008354 -0.001429 0.000000 0.000000 0.000000
# 2 -0.008354 0.050783 -0.017389 0.000000 0.000000 0.000000
# 3 -0.001429 -0.017389 0.015044 0.000000 0.000000 0.000000
# 4 0.000000 0.000000 0.000000 0.026194 0.000000 0.000000
# 5 0.000000 0.000000 0.000000 0.000000 0.014812 0.000000
# 6 0.000000 0.000000 0.000000 0.000000 0.000000 0.031891
#
#
# Mechanical properties :
#
#
# Convention : Reuss Voigt Hill
#
# Bulk Modulus (GPa) = 17.85815 32.95315 25.40565
# Shear Modulus (GPa) = 19.51234 35.01641 27.26438
#
# Velocity S-wave (km/s) = 3.14636 4.21492 3.71921
# Velocity P-wave (km/s) = 4.71802 6.35658 5.59758
#
# Compressibility (1/GPa) = 0.05599683
#
# Stress axis : x y z
#
# Youngs Moduli (GPa) = 22.46466 19.69150 66.47305
#
# Poissons Ratio (x) = 0.16451 0.09501
# Poissons Ratio (y) = 0.18768 1.15588
# Poissons Ratio (z) = 0.03211 0.34241
#
# Static dielectric constant tensor:
#      x y z
#    x 1.635780 0.000000 0.000000 
#    y 0.000000 1.657240 0.000000 
#    z 0.000000 0.000000 1.733000 
# 
# From -- ./inp_files/24772.got.cif
#   From: 2010.05.17/outbox.ucp.g08.bks.cvg/sg51_13_cif.got.tgz:24772.got - 2010.06.11 16:27:58.
