data_PCOD9407389
_publ_section_title
;
Structure prediction by ZEFSAII (Michael W. Deem and Ramdas Pophale) SiO2 
 PCOD9407389
Probable space group: P M M A
;
_chemical_formula_sum "Si O2"
_cell_formula_units_Z 64
_cell_length_a 18.347742
_cell_length_b 7.642593
_cell_length_c 23.409202
_cell_angle_alpha 90.000000
_cell_angle_beta 90.000000
_cell_angle_gamma 90.000000
_cell_volume 3282.539539
_symmetry_space_group_name_H-M "P M M A"
_symmetry_group_IT_number 51
_symmetry_cell_setting 'orthorhombic'
loop_
_space_group_symop_operation_xyz
x,y,z
1/2-x,-y,z
1/2+x,-y,-z
-x,y,-z
-x,-y,-z
1/2+x,y,-z
1/2-x,y,z
x,-y,z
loop_
_atom_site_type_symbol
_atom_site_label
_atom_site_fract_x
_atom_site_fract_y
_atom_site_fract_z
Si Si1 0.487250 0.289543 0.742881
Si Si2 0.828755 0.706733 0.291191
Si Si3 0.667774 0.290504 0.946136
Si Si4 0.964803 0.789834 0.617525
Si Si5 0.936363 0.791376 0.042377
Si Si6 0.039757 0.705930 0.137491
Si Si7 0.875766 0.212074 0.417084
Si Si8 0.669736 0.785793 0.542889
O O1 0.481983 0.500000 0.748434
O O2 0.404200 0.221114 0.734892
O O3 0.529658 0.253587 0.684251
O O4 0.527340 0.220751 0.799300
O O5 0.750000 0.780671 0.273355
O O6 0.827857 0.500000 0.278387
O O7 0.836414 0.726549 0.359660
O O8 0.750000 0.223195 0.937760
O O9 0.670103 0.500000 0.939361
O O10 0.606169 0.221066 0.901571
O O11 0.637728 0.256842 0.010185
O O12 0.894475 0.723804 0.584096
O O13 0.040252 0.729786 0.588765
O O14 0.964459 0.000000 0.612781
O O15 0.963346 0.724613 0.103354
O O16 0.940141 0.000000 0.044646
O O17 0.000000 0.723586 0.000000
O O18 0.055117 0.500000 0.143093
O O19 0.843509 0.268924 0.477404
O O20 0.873598 0.000000 0.416027
O O21 0.750000 0.731675 0.561768
O O22 0.667931 0.000000 0.542770
#
# Coordination Sequence:
#
# PCOD9407389 Si02
#       8
#     8   8   8   8   8   8   8   8
#     4   9  18  32  48  65  88 121 157 189 223 264
#     4   9  17  29  44  63  88 115 143 180 227 275
#     4   9  17  30  49  72  96 123 156 192 227 262
#     4   9  17  29  45  64  86 114 149 187 225 269
#     4   9  17  29  47  71  97 122 146 178 225 274
#     4   9  17  31  50  69  91 122 160 194 221 261
#     4   9  16  27  45  66  85 108 142 183 226 274
#     4   9  16  26  42  64  88 113 143 182 228 276
#
# _framework density 19.497098000000001
#
# number of rings (size 3 to 8) (size 9 to 14) (size 15 to 20)
#    0.000    3.000    0.000    1.125    0.000    4.500 
#    0.000    1.875    0.000    7.125    0.000    0.000 
#    0.000    0.000    0.000    0.000    0.000    0.000 
#
# Total GULP energy -356620.350277 kJ/mol
# GULP energy per Si atom -5572.192973 kJ/mol
# Density = 1.945272 g / cm^3
# Si number density = 19.497098 Si / 1000 Ang^3
#
#
#
# Elastic Constant Matrix: (Units=GPa)
#
#
# Indices 1 2 3 4 5 6 
#
# 1 119.3714 1.0715 40.5100 0.0000 0.0000 0.0000
# 2 1.0715 35.0738 -7.2234 0.0000 0.0000 0.0000
# 3 40.5100 -7.2234 58.7677 0.0000 0.0000 0.0000
# 4 0.0000 0.0000 0.0000 19.1040 0.0000 0.0000
# 5 0.0000 0.0000 0.0000 0.0000 13.5232 0.0000
# 6 0.0000 0.0000 0.0000 0.0000 0.0000 9.8383
#
#
#
# Elastic Compliance Matrix: (Units=1/GPa)
#
#
# Indices 1 2 3 4 5 6 
#
# 1 0.011065 -0.001958 -0.007868 0.000000 0.000000 0.000000
# 2 -0.001958 0.029598 0.004988 0.000000 0.000000 0.000000
# 3 -0.007868 0.004988 0.023053 0.000000 0.000000 0.000000
# 4 0.000000 0.000000 0.000000 0.052345 0.000000 0.000000
# 5 0.000000 0.000000 0.000000 0.000000 0.073947 0.000000
# 6 0.000000 0.000000 0.000000 0.000000 0.000000 0.101644
#
#
# Mechanical properties :
#
#
# Convention : Reuss Voigt Hill
#
# Bulk Modulus (GPa) = 18.50502 31.32546 24.91524
# Shear Modulus (GPa) = 15.65719 20.41674 18.03696
#
# Velocity S-wave (km/s) = 2.83689 3.23951 3.04486
# Velocity P-wave (km/s) = 4.49915 5.48582 5.01680
#
# Compressibility (1/GPa) = 0.05403939
#
# Stress axis : x y z
#
# Youngs Moduli (GPa) = 90.37588 33.78560 43.37853
#
# Poissons Ratio (x) = 0.06617 0.34130
# Poissons Ratio (y) = 0.17699 -0.21637
# Poissons Ratio (z) = 0.71108 -0.16852
#
# Static dielectric constant tensor:
#      x y z
#    x 1.712200 0.000000 0.000000 
#    y 0.000000 1.721900 0.000000 
#    z 0.000000 0.000000 1.673070 
# 
# From -- ./inp_files/35904.got.cif
#   From: 2010.05.17/outbox.cif.g08.bks.cpg/sg51_18_cif.got.tgz:35904.got - 2010.06.03 11:52:47.
