data_PCOD9407463
_publ_section_title
;
Structure prediction by ZEFSAII (Michael W. Deem and Ramdas Pophale) SiO2 
 PCOD9407463
Probable space group: P M M A
;
_chemical_formula_sum "Si O2"
_cell_formula_units_Z 64
_cell_length_a 21.000000
_cell_length_b 9.000000
_cell_length_c 21.000000
_cell_angle_alpha 90.000000
_cell_angle_beta 90.000000
_cell_angle_gamma 90.000000
_cell_volume 3969.000000
_symmetry_space_group_name_H-M "P M M A"
_symmetry_group_IT_number 51
_symmetry_cell_setting 'orthorhombic'
loop_
_space_group_symop_operation_xyz
x,y,z
1/2-x,-y,z
1/2+x,-y,-z
-x,y,-z
-x,-y,-z
1/2+x,y,-z
1/2-x,y,z
x,-y,z
loop_
_atom_site_type_symbol
_atom_site_label
_atom_site_fract_x
_atom_site_fract_y
_atom_site_fract_z
Si Si1 0.176293 0.821327 0.866873
Si Si2 0.076587 0.330487 0.370582
Si Si3 0.827018 0.330797 0.002136
Si Si4 0.077821 0.330485 0.628761
Si Si5 0.426880 0.179232 0.762023
Si Si6 0.824640 0.680138 0.859618
Si Si7 0.424574 0.822004 0.237382
Si Si8 0.577756 0.828574 0.500408
O O1 0.250000 0.771924 0.854689
O O2 0.124266 0.772383 0.814966
O O3 0.177059 0.000000 0.866713
O O4 0.156040 0.765152 0.936645
O O5 0.098820 0.500000 0.363526
O O6 0.091577 0.234384 0.308437
O O7 0.098952 0.258199 0.436515
O O8 0.999438 0.333853 0.374275
O O9 0.750000 0.336160 0.000823
O O10 0.850130 0.500000 0.010072
O O11 0.844297 0.275440 0.931738
O O12 0.100401 0.500000 0.630355
O O13 0.092619 0.245479 0.693829
O O14 0.099494 0.247890 0.564880
O O15 0.500992 0.221597 0.775434
O O16 0.425864 0.000000 0.758239
O O17 0.750000 0.721922 0.848797
O O18 0.827049 0.500000 0.856983
O O19 0.874227 0.749669 0.810599
O O20 0.421016 0.000000 0.234254
O O21 0.500000 0.825758 0.500000
O O22 0.596988 0.000000 0.502980
#
# Coordination Sequence:
#
# PCOD9407463 Si02
#       8
#     8   8   8   8   8   8   8   8
#     4   9  17  30  49  70  90 116 152 190 226 267
#     4   9  16  26  40  59  86 118 151 187 224 265
#     4   8  15  29  48  68  89 113 144 185 229 268
#     4   9  16  25  39  60  85 116 153 188 223 266
#     4   9  18  31  44  63  94 125 150 183 229 273
#     4   9  18  33  51  69  90 117 149 186 227 269
#     4  10  19  30  45  66  93 123 152 184 225 272
#     4   9  15  23  37  58  85 116 149 186 227 268
#
# _framework density 16.124969
#
# number of rings (size 3 to 8) (size 9 to 14) (size 15 to 20)
#    0.000    3.000    0.000    2.250    0.000    6.250 
#    0.000    1.875    0.000    3.750    0.000    0.875 
#    0.000    5.000    0.000    0.000    0.000    0.000 
#
# Total GULP energy -356278.432881 kJ/mol
# GULP energy per Si atom -5566.850514 kJ/mol
# Density = 1.608827 g / cm^3
# Si number density = 16.124969 Si / 1000 Ang^3
#
#
#
# Elastic Constant Matrix: (Units=GPa)
#
#
# Indices 1 2 3 4 5 6 
#
# 1 51.0864 27.1278 60.7793 0.0000 0.0000 0.0000
# 2 27.1278 45.1138 49.0941 0.0000 0.0000 0.0000
# 3 60.7793 49.0941 162.4407 0.0000 0.0000 0.0000
# 4 0.0000 0.0000 0.0000 33.0420 0.0000 0.0000
# 5 0.0000 0.0000 0.0000 0.0000 2.8465 0.0000
# 6 0.0000 0.0000 0.0000 0.0000 0.0000 13.7779
#
#
#
# Elastic Compliance Matrix: (Units=1/GPa)
#
#
# Indices 1 2 3 4 5 6 
#
# 1 0.038743 -0.011208 -0.011109 0.000000 0.000000 0.000000
# 2 -0.011208 0.036272 -0.006769 0.000000 0.000000 0.000000
# 3 -0.011109 -0.006769 0.012358 0.000000 0.000000 0.000000
# 4 0.000000 0.000000 0.000000 0.030265 0.000000 0.000000
# 5 0.000000 0.000000 0.000000 0.000000 0.351307 0.000000
# 6 0.000000 0.000000 0.000000 0.000000 0.000000 0.072580
#
#
# Mechanical properties :
#
#
# Convention : Reuss Voigt Hill
#
# Bulk Modulus (GPa) = 34.24435 59.18257 46.71346
# Shear Modulus (GPa) = 8.20440 18.04257 13.12349
#
# Velocity S-wave (km/s) = 2.25811 3.34866 2.85592
# Velocity P-wave (km/s) = 5.29922 7.19260 6.31724
#
# Compressibility (1/GPa) = 0.02920190
#
# Stress axis : x y z
#
# Youngs Moduli (GPa) = 25.81121 27.56975 80.91741
#
# Poissons Ratio (x) = 0.30900 0.89890
# Poissons Ratio (y) = 0.28929 0.54770
# Poissons Ratio (z) = 0.28673 0.18661
#
# Static dielectric constant tensor:
#      x y z
#    x 1.520910 0.000000 0.000000 
#    y 0.000000 1.548410 0.000000 
#    z 0.000000 0.000000 1.540580 
# 
# From -- ./inp_files/30675.got.cif
#   From: 2010.05.17/outbox.ucp.g08.bks.cvg/sg51_16_cif.got.tgz:30675.got - 2010.06.11 16:27:58.
