data_PCOD9407158
_publ_section_title
;
Structure prediction by ZEFSAII (Michael W. Deem and Ramdas Pophale) SiO2 
 PCOD9407158
Probable space group: P M M A
;
_chemical_formula_sum "Si O2"
_cell_formula_units_Z 40
_cell_length_a 8.447061
_cell_length_b 27.266444
_cell_length_c 9.160566
_cell_angle_alpha 90.000000
_cell_angle_beta 90.000000
_cell_angle_gamma 90.000000
_cell_volume 2109.873614
_symmetry_space_group_name_H-M "P M M A"
_symmetry_group_IT_number 51
_symmetry_cell_setting 'orthorhombic'
loop_
_space_group_symop_operation_xyz
x,y,z
1/2-x,-y,z
1/2+x,-y,-z
-x,y,-z
-x,-y,-z
1/2+x,y,-z
1/2-x,y,z
x,-y,z
loop_
_atom_site_type_symbol
_atom_site_label
_atom_site_fract_x
_atom_site_fract_y
_atom_site_fract_z
Si Si1 0.061295 0.904606 0.834935
Si Si2 0.438714 0.000000 0.334839
Si Si3 0.058691 0.394584 0.167632
Si Si4 0.941692 0.500000 0.831678
Si Si5 0.441513 0.712379 0.166678
Si Si6 0.440244 0.190572 0.335237
O O1 0.250000 0.905165 0.834714
O O2 0.999294 0.951709 0.747522
O O3 0.001509 0.855242 0.757688
O O4 0.000000 0.906419 0.000000
O O5 0.500000 0.000000 0.500000
O O6 0.250000 0.000000 0.334859
O O7 0.250000 0.394725 0.168523
O O8 0.005772 0.447239 0.232485
O O9 0.006996 0.341357 0.226175
O O10 0.000000 0.394639 0.000000
O O11 0.750000 0.500000 0.831899
O O12 0.000000 0.500000 0.000000
O O13 0.250000 0.712940 0.163872
O O14 0.495260 0.758376 0.262153
O O15 0.500000 0.717371 0.000000
O O16 0.500000 0.186794 0.500000
O O17 0.250000 0.189789 0.334265
#
# Coordination Sequence:
#
# PCOD9407158 Si02
#       6
#     8   4   8   4   8   8
#     4  12  25  43  65  91 120 152 188 229 273 322
#     4  12  25  44  67  94 126 160 194 230 271 318
#     4   8  13  22  36  59  89 123 159 202 252 309
#     4   8  12  18  32  54  85 120 156 196 248 306
#     4   9  18  31  49  72 101 133 171 215 265 320
#     4  11  23  39  57  80 108 143 183 228 277 329
#
# _framework density 18.958482
#
# number of rings (size 3 to 8) (size 9 to 14) (size 15 to 20)
#    0.000    2.000    0.000    4.800    0.000    3.200 
#    0.000    0.000    0.000    0.000    0.000    0.700 
#    0.000    0.000    0.000    0.000    0.000    0.000 
#
# Total GULP energy -223118.826267 kJ/mol
# GULP energy per Si atom -5577.970657 kJ/mol
# Density = 1.891533 g / cm^3
# Si number density = 18.958482 Si / 1000 Ang^3
#
#
#
# Elastic Constant Matrix: (Units=GPa)
#
#
# Indices 1 2 3 4 5 6 
#
# 1 74.3187 48.7916 30.4858 0.0000 0.0000 0.0000
# 2 48.7916 245.0841 93.4782 0.0000 0.0000 0.0000
# 3 30.4858 93.4782 112.6049 0.0000 0.0000 0.0000
# 4 0.0000 0.0000 0.0000 -14.6711 0.0000 0.0000
# 5 0.0000 0.0000 0.0000 0.0000 25.6163 0.0000
# 6 0.0000 0.0000 0.0000 0.0000 0.0000 2.1389
#
#
#
# Elastic Compliance Matrix: (Units=1/GPa)
#
#
# Indices 1 2 3 4 5 6 
#
# 1 0.015931 -0.002234 -0.002459 0.000000 0.000000 0.000000
# 2 -0.002234 0.006284 -0.004612 0.000000 0.000000 0.000000
# 3 -0.002459 -0.004612 0.013375 0.000000 0.000000 0.000000
# 4 0.000000 0.000000 0.000000 -0.068161 0.000000 0.000000
# 5 0.000000 0.000000 0.000000 0.000000 0.039038 0.000000
# 6 0.000000 0.000000 0.000000 0.000000 0.000000 0.467530
#
#
# Mechanical properties :
#
#
# Convention : Reuss Voigt Hill
#
# Bulk Modulus (GPa) = 58.88970 86.39099 72.64034
# Shear Modulus (GPa) = 10.03483 19.90029 14.96756
#
# Velocity S-wave (km/s) = 2.30316 3.24339 2.81284
# Velocity P-wave (km/s) = 6.18083 7.72616 6.99629
#
# Compressibility (1/GPa) = 0.01698090
#
# Stress axis : x y z
#
# Youngs Moduli (GPa) = 62.77233 159.13609 74.76804
#
# Poissons Ratio (x) = 0.35547 0.18383
# Poissons Ratio (y) = 0.14022 0.34482
# Poissons Ratio (z) = 0.15433 0.73391
#
# Static dielectric constant tensor:
#      x y z
#    x 1.638390 0.000000 0.000000 
#    y 0.000000 1.722150 0.000000 
#    z 0.000000 0.000000 1.598180 
# 
# From -- ./inp_files/5633.got.cif
#   From: 2010.05.17/outbox.cif.g08.bks.cpg/sg51_3_cif.got.tgz:5633.got - 2010.06.03 11:52:47.
