data_PCOD9407117
_publ_section_title
;
Structure prediction by ZEFSAII (Michael W. Deem and Ramdas Pophale) SiO2 
 PCOD9407117
Probable space group: P M M A
;
_chemical_formula_sum "Si O2"
_cell_formula_units_Z 48
_cell_length_a 10.091836
_cell_length_b 7.902367
_cell_length_c 29.944456
_cell_angle_alpha 90.000000
_cell_angle_beta 90.000000
_cell_angle_gamma 90.000000
_cell_volume 2388.052153
_symmetry_space_group_name_H-M "P M M A"
_symmetry_group_IT_number 51
_symmetry_cell_setting 'orthorhombic'
loop_
_space_group_symop_operation_xyz
x,y,z
1/2-x,-y,z
1/2+x,-y,-z
-x,y,-z
-x,-y,-z
1/2+x,y,-z
1/2-x,y,z
x,-y,z
loop_
_atom_site_type_symbol
_atom_site_label
_atom_site_fract_x
_atom_site_fract_y
_atom_site_fract_z
Si Si1 0.400045 0.207188 0.203267
Si Si2 0.970235 0.199430 0.895645
Si Si3 0.098529 0.297037 0.619071
Si Si4 0.750000 0.301909 0.965503
Si Si5 0.099725 0.204503 0.720610
Si Si6 0.750000 0.703506 0.066183
Si Si7 0.904395 0.293170 0.541135
O O1 0.250000 0.254866 0.214118
O O2 0.434109 0.268322 0.153313
O O3 0.501141 0.266002 0.241122
O O4 0.406222 0.000000 0.202636
O O5 0.119869 0.237239 0.908419
O O6 0.876686 0.260853 0.935463
O O7 0.948287 0.000000 0.893127
O O8 0.250000 0.233552 0.610180
O O9 0.104328 0.500000 0.614011
O O10 0.064833 0.256813 0.670302
O O11 0.984932 0.236642 0.585249
O O12 0.750000 0.500000 0.972764
O O13 0.750000 0.226562 0.015256
O O14 0.250000 0.262816 0.729211
O O15 0.099510 0.000000 0.721793
O O16 0.750000 0.500000 0.065555
O O17 0.750000 0.237241 0.538355
O O18 0.899747 0.500000 0.541120
O O19 0.000000 0.243819 0.500000
#
# Coordination Sequence:
#
# PCOD9407117 Si02
#       7
#     8   8   8   4   8   4   8
#     4   9  18  34  55  79 105 133 170 219 269 312
#     4  11  22  38  62  88 111 141 188 238 274 318
#     4   9  17  30  47  69 100 131 162 208 259 302
#     4  11  23  41  61  81 117 155 181 217 278 343
#     4   9  18  32  53  76 100 135 174 209 255 318
#     4  11  25  41  57  83 117 153 183 219 278 341
#     4   9  16  26  43  68  97 131 170 210 255 306
#
# _framework density 20.100062000000001
#
# number of rings (size 3 to 8) (size 9 to 14) (size 15 to 20)
#    0.000    2.333    0.833    2.000    1.167    6.000 
#    0.000    1.667    0.000    0.500    0.000    0.000 
#    0.000    0.000    0.000    0.000    0.000    0.000 
#
# Total GULP energy -267895.427002 kJ/mol
# GULP energy per Si atom -5581.154729 kJ/mol
# Density = 2.005431 g / cm^3
# Si number density = 20.100062 Si / 1000 Ang^3
#
#
#
# Elastic Constant Matrix: (Units=GPa)
#
#
# Indices 1 2 3 4 5 6 
#
# 1 142.0560 -7.6647 93.0143 0.0000 0.0000 0.0000
# 2 -7.6647 14.9297 -1.8763 0.0000 0.0000 0.0000
# 3 93.0143 -1.8763 143.4288 0.0000 0.0000 0.0000
# 4 0.0000 0.0000 0.0000 23.0195 0.0000 0.0000
# 5 0.0000 0.0000 0.0000 0.0000 40.7925 0.0000
# 6 0.0000 0.0000 0.0000 0.0000 0.0000 16.5351
#
#
#
# Elastic Compliance Matrix: (Units=1/GPa)
#
#
# Indices 1 2 3 4 5 6 
#
# 1 0.012667 0.005480 -0.008143 0.000000 0.000000 0.000000
# 2 0.005480 0.069461 -0.002645 0.000000 0.000000 0.000000
# 3 -0.008143 -0.002645 0.012218 0.000000 0.000000 0.000000
# 4 0.000000 0.000000 0.000000 0.043442 0.000000 0.000000
# 5 0.000000 0.000000 0.000000 0.000000 0.024514 0.000000
# 6 0.000000 0.000000 0.000000 0.000000 0.000000 0.060477
#
#
# Mechanical properties :
#
#
# Convention : Reuss Voigt Hill
#
# Bulk Modulus (GPa) = 11.94312 51.92900 31.93606
# Shear Modulus (GPa) = 19.13467 30.53216 24.83341
#
# Velocity S-wave (km/s) = 3.08875 3.90167 3.51877
# Velocity P-wave (km/s) = 4.32148 6.79623 5.69491
#
# Compressibility (1/GPa) = 0.08373020
#
# Stress axis : x y z
#
# Youngs Moduli (GPa) = 78.94644 14.39649 81.84549
#
# Poissons Ratio (x) = -0.07889 0.66645
# Poissons Ratio (y) = -0.43260 0.21647
# Poissons Ratio (z) = 0.64285 0.03808
#
# Static dielectric constant tensor:
#      x y z
#    x 1.748280 0.000000 0.000000 
#    y 0.000000 1.733670 0.000000 
#    z 0.000000 0.000000 1.703870 
# 
# From -- ./inp_files/37190.got.cif
#   From: 2010.05.17/outbox.cif.g08.bks.cpg/sg51_19_cif.got.tgz:37190.got - 2010.06.03 11:52:47.
