data_PCOD9407138
_publ_section_title
;
Structure prediction by ZEFSAII (Michael W. Deem and Ramdas Pophale) SiO2 
 PCOD9407138
Probable space group: P M M A
;
_chemical_formula_sum "Si O2"
_cell_formula_units_Z 64
_cell_length_a 30.147433
_cell_length_b 7.605833
_cell_length_c 12.858654
_cell_angle_alpha 90.000000
_cell_angle_beta 90.000000
_cell_angle_gamma 90.000000
_cell_volume 2948.442310
_symmetry_space_group_name_H-M "P M M A"
_symmetry_group_IT_number 51
_symmetry_cell_setting 'orthorhombic'
loop_
_space_group_symop_operation_xyz
x,y,z
1/2-x,-y,z
1/2+x,-y,-z
-x,y,-z
-x,-y,-z
1/2+x,y,-z
1/2-x,y,z
x,-y,z
loop_
_atom_site_type_symbol
_atom_site_label
_atom_site_fract_x
_atom_site_fract_y
_atom_site_fract_z
Si Si1 0.698781 0.786497 0.262586
Si Si2 0.545939 0.706352 0.721965
Si Si3 0.876537 0.203551 0.866479
Si Si4 0.876396 0.295655 0.104311
Si Si5 0.445760 0.296876 0.498949
Si Si6 0.195852 0.795529 0.512163
Si Si7 0.054501 0.283332 0.726245
Si Si8 0.801054 0.784155 0.714549
O O1 0.750000 0.734170 0.249955
O O2 0.668719 0.723891 0.168868
O O3 0.682270 0.720435 0.376046
O O4 0.697695 0.000000 0.265122
O O5 0.539735 0.500000 0.699390
O O6 0.578821 0.720090 0.817710
O O7 0.565714 0.782334 0.613622
O O8 0.496424 0.773474 0.742883
O O9 0.833868 0.276043 0.805006
O O10 0.878513 0.000000 0.838667
O O11 0.873501 0.218236 0.989787
O O12 0.886455 0.500000 0.088331
O O13 0.913999 0.221605 0.181405
O O14 0.500000 0.295128 0.500000
O O15 0.430738 0.500000 0.501002
O O16 0.431655 0.221347 0.610360
O O17 0.250000 0.792418 0.512895
O O18 0.182989 0.721674 0.399852
O O19 0.182311 0.000000 0.512151
O O20 0.056065 0.500000 0.725321
O O21 0.750000 0.729608 0.730404
O O22 0.800217 0.000000 0.711660
#
# Coordination Sequence:
#
# PCOD9407138 Si02
#       8
#     8   8   8   8   8   8   8   8
#     4   9  18  34  56  80 106 134 162 198 250 309
#     4   9  17  33  57  79 101 131 166 206 256 314
#     4  11  23  36  50  73 104 135 174 220 260 301
#     4  11  23  37  52  72 100 135 179 221 250 288
#     4   7  11  24  50  80 102 123 159 204 250 308
#     4   7  11  24  49  78 102 125 158 197 240 299
#     4   8  16  32  54  78 102 132 169 208 253 308
#     4   8  15  30  52  75  99 130 166 203 245 296
#
# _framework density 21.706377
#
# number of rings (size 3 to 8) (size 9 to 14) (size 15 to 20)
#    0.000    3.250    0.000    3.750    0.000    2.250 
#    0.000    5.000    0.000    6.000    0.000    3.500 
#    0.000    0.000    0.000    0.000    0.000    0.000 
#
# Total GULP energy -356854.593824 kJ/mol
# GULP energy per Si atom -5575.853029 kJ/mol
# Density = 2.165697 g / cm^3
# Si number density = 21.706377 Si / 1000 Ang^3
#
#
#
# Elastic Constant Matrix: (Units=GPa)
#
#
# Indices 1 2 3 4 5 6 
#
# 1 82.6081 -6.6365 65.0465 0.0000 0.0000 0.0000
# 2 -6.6365 41.6418 -9.0349 0.0000 0.0000 0.0000
# 3 65.0465 -9.0349 173.6592 0.0000 0.0000 0.0000
# 4 0.0000 0.0000 0.0000 9.1987 0.0000 0.0000
# 5 0.0000 0.0000 0.0000 0.0000 36.7776 0.0000
# 6 0.0000 0.0000 0.0000 0.0000 0.0000 12.9321
#
#
#
# Elastic Compliance Matrix: (Units=1/GPa)
#
#
# Indices 1 2 3 4 5 6 
#
# 1 0.017245 0.001362 -0.006389 0.000000 0.000000 0.000000
# 2 0.001362 0.024396 0.000759 0.000000 0.000000 0.000000
# 3 -0.006389 0.000759 0.008191 0.000000 0.000000 0.000000
# 4 0.000000 0.000000 0.000000 0.108711 0.000000 0.000000
# 5 0.000000 0.000000 0.000000 0.000000 0.027190 0.000000
# 6 0.000000 0.000000 0.000000 0.000000 0.000000 0.077327
#
#
# Mechanical properties :
#
#
# Convention : Reuss Voigt Hill
#
# Bulk Modulus (GPa) = 24.21449 44.07323 34.14386
# Shear Modulus (GPa) = 17.52167 28.35062 22.93615
#
# Velocity S-wave (km/s) = 2.84423 3.61792 3.25415
# Velocity P-wave (km/s) = 4.68678 6.14823 5.46657
#
# Compressibility (1/GPa) = 0.04129759
#
# Stress axis : x y z
#
# Youngs Moduli (GPa) = 57.98705 40.99011 122.08784
#
# Poissons Ratio (x) = -0.05584 0.77997
# Poissons Ratio (y) = -0.07900 -0.09266
# Poissons Ratio (z) = 0.37045 -0.03111
#
# Static dielectric constant tensor:
#      x y z
#    x 1.792990 0.000000 0.000000 
#    y 0.000000 1.863780 0.000000 
#    z 0.000000 0.000000 1.791300 
# 
# From -- ./inp_files/19467.got.cif
#   From: 2010.05.17/outbox.cif.g08.bks.cpg/sg51_10_cif.got.tgz:19467.got - 2010.06.03 11:52:47.
