data_PCOD9407977
_publ_section_title
;
Structure prediction by ZEFSAII (Michael W. Deem and Ramdas Pophale) SiO2 
 PCOD9407977
Probable space group: P N N A
;
_chemical_formula_sum "Si O2"
_cell_formula_units_Z 56
_cell_length_a 14.272203
_cell_length_b 15.149409
_cell_length_c 11.948244
_cell_angle_alpha 90.000000
_cell_angle_beta 90.000000
_cell_angle_gamma 90.000000
_cell_volume 2583.394841
_symmetry_space_group_name_H-M "P N N A"
_symmetry_group_IT_number 52
_symmetry_cell_setting 'orthorhombic'
loop_
_space_group_symop_operation_xyz
x,y,z
1/2-x,-y,z
x,1/2-y,1/2-z
1/2-x,1/2+y,1/2-z
-x,-y,-z
1/2+x,y,-z
-x,1/2+y,1/2+z
1/2+x,1/2-y,1/2+z
loop_
_atom_site_type_symbol
_atom_site_label
_atom_site_fract_x
_atom_site_fract_y
_atom_site_fract_z
Si Si1 0.089157 0.420095 0.120592
Si Si2 0.792561 0.239839 0.380357
Si Si3 0.553060 0.619760 0.451742
Si Si4 0.377497 0.075504 0.525372
Si Si5 0.612530 0.241093 0.983574
Si Si6 0.527358 0.974641 0.819414
Si Si7 0.028443 0.677814 0.164404
O O1 0.096126 0.467373 0.240601
O O2 0.978384 0.426387 0.088012
O O3 0.140366 0.478527 0.024655
O O4 0.116893 0.318280 0.109382
O O5 0.770640 0.250000 0.250000
O O6 0.883315 0.298722 0.413182
O O7 0.809610 0.135705 0.402102
O O8 0.712021 0.274736 0.461803
O O9 0.446255 0.656114 0.448214
O O10 0.570669 0.578131 0.574578
O O11 0.552486 0.538785 0.366346
O O12 0.393798 0.134842 0.414129
O O13 0.548514 0.281173 0.083524
O O14 0.486150 0.900395 0.738093
O O15 0.065949 0.750000 0.250000
#
# Coordination Sequence:
#
# PCOD9407977 Si02
#       7
#     8   8   8   8   8   8   8
#     4   9  18  37  65  90 124 169 220 266 324 374
#     4  12  24  39  66 100 130 175 216 272 343 394
#     4  11  23  42  64  96 138 169 223 269 332 398
#     4   9  18  34  58  93 121 159 215 269 309 389
#     4  11  23  38  66  94 136 169 216 279 323 398
#     4  10  21  37  71  90 124 186 216 265 331 389
#     4  10  16  35  65  90 120 167 216 256 326 382
#
# _framework density 21.676902999999999
#
# number of rings (size 3 to 8) (size 9 to 14) (size 15 to 20)
#    0.000    1.714    4.286    2.143    0.000    0.571 
#    0.000    2.857   22.000    0.000    0.000    0.000 
#    0.000    0.000    0.000    0.000    0.000    0.000 
#
# Total GULP energy -312503.878435 kJ/mol
# GULP energy per Si atom -5580.426401 kJ/mol
# Density = 2.162757 g / cm^3
# Si number density = 21.676903 Si / 1000 Ang^3
#
#
#
# Elastic Constant Matrix: (Units=GPa)
#
#
# Indices 1 2 3 4 5 6 
#
# 1 35.0744 -3.4425 -12.8957 0.0000 0.0000 0.0000
# 2 -3.4425 84.4208 44.1528 0.0000 0.0000 0.0000
# 3 -12.8957 44.1528 39.8206 0.0000 0.0000 0.0000
# 4 0.0000 0.0000 0.0000 42.4041 0.0000 0.0000
# 5 0.0000 0.0000 0.0000 0.0000 6.3003 0.0000
# 6 0.0000 0.0000 0.0000 0.0000 0.0000 9.7258
#
#
#
# Elastic Compliance Matrix: (Units=1/GPa)
#
#
# Indices 1 2 3 4 5 6 
#
# 1 0.036265 -0.011101 0.024053 0.000000 0.000000 0.000000
# 2 -0.011101 0.031596 -0.038628 0.000000 0.000000 0.000000
# 3 0.024053 -0.038628 0.075733 0.000000 0.000000 0.000000
# 4 0.000000 0.000000 0.000000 0.023583 0.000000 0.000000
# 5 0.000000 0.000000 0.000000 0.000000 0.158724 0.000000
# 6 0.000000 0.000000 0.000000 0.000000 0.000000 0.102819
#
#
# Mechanical properties :
#
#
# Convention : Reuss Voigt Hill
#
# Bulk Modulus (GPa) = 10.84116 23.88277 17.36196
# Shear Modulus (GPa) = 9.78823 20.45278 15.12050
#
# Velocity S-wave (km/s) = 2.12728 3.07502 2.64396
# Velocity P-wave (km/s) = 3.32353 4.86305 4.16504
#
# Compressibility (1/GPa) = 0.09224108
#
# Stress axis : x y z
#
# Youngs Moduli (GPa) = 27.57485 31.65000 13.20433
#
# Poissons Ratio (x) = 0.35136 -0.31761
# Poissons Ratio (y) = 0.30612 0.51006
# Poissons Ratio (z) = -0.66327 1.22258
#
# Static dielectric constant tensor:
#      x y z
#    x 1.791640 0.000000 0.000000 
#    y 0.000000 1.830220 0.000000 
#    z 0.000000 0.000000 1.819270 
# 
# From -- ./inp_files/19657.got.cif
#   From: 2010.05.17/outbox.cif.g08.bks.cpg/sg52_10_cif.got.tgz:19657.got - 2010.06.03 12:15:38.
