data_PCOD9407216
_publ_section_title
;
Structure prediction by ZEFSAII (Michael W. Deem and Ramdas Pophale) SiO2 
 PCOD9407216
Probable space group: P M M A
;
_chemical_formula_sum "Si O2"
_cell_formula_units_Z 34
_cell_length_a 13.992526
_cell_length_b 7.472853
_cell_length_c 12.444367
_cell_angle_alpha 90.000000
_cell_angle_beta 90.000000
_cell_angle_gamma 90.000000
_cell_volume 1301.233910
_symmetry_space_group_name_H-M "P M M A"
_symmetry_group_IT_number 51
_symmetry_cell_setting 'orthorhombic'
loop_
_space_group_symop_operation_xyz
x,y,z
1/2-x,-y,z
1/2+x,-y,-z
-x,y,-z
-x,-y,-z
1/2+x,y,-z
1/2-x,y,z
x,-y,z
loop_
_atom_site_type_symbol
_atom_site_label
_atom_site_fract_x
_atom_site_fract_y
_atom_site_fract_z
Si Si1 0.067381 0.290435 0.141706
Si Si2 0.357826 0.279699 0.910540
Si Si3 0.619249 0.788741 0.392720
Si Si4 0.750000 0.500000 0.295961
Si Si5 0.391618 0.792316 0.372438
O O1 0.052694 0.500000 0.124486
O O2 0.125749 0.272012 0.252077
O O3 0.958008 0.215866 0.143783
O O4 0.122515 0.229598 0.035610
O O5 0.250000 0.216564 0.883889
O O6 0.351031 0.500000 0.901800
O O7 0.668517 0.657132 0.310756
O O8 0.505790 0.774062 0.383293
O O9 0.646061 0.722244 0.513733
O O10 0.642333 0.000000 0.381796
O O11 0.366511 0.000000 0.373556
#
# Coordination Sequence:
#
# PCOD9407216 Si02
#       5
#     8   8   8   2   8
#     4   9  17  29  54  79 103 138 189 233 276 340
#     4   8  15  31  48  74 110 142 172 233 294 327
#     4   9  21  39  56  80 118 151 185 233 284 334
#     4  12  22  34  60  86 112 152 190 232 284 336
#     4   9  19  38  57  74 107 153 186 228 284 334
#
# _framework density 26.129047
#
# number of rings (size 3 to 8) (size 9 to 14) (size 15 to 20)
#    0.000    3.059    0.000    3.176    3.294    0.941 
#    4.235    2.353    0.000    1.412    0.000    0.000 
#    0.000    0.000    0.000    0.000    0.000    0.000 
#
# Total GULP energy -189401.151455 kJ/mol
# GULP energy per Si atom -5570.622102 kJ/mol
# Density = 2.606958 g / cm^3
# Si number density = 26.129047 Si / 1000 Ang^3
#
#
#
# Elastic Constant Matrix: (Units=GPa)
#
#
# Indices 1 2 3 4 5 6 
#
# 1 151.1294 17.7728 17.3000 0.0000 0.0000 0.0000
# 2 17.7728 93.2906 -0.4863 0.0000 0.0000 0.0000
# 3 17.3000 -0.4863 155.4769 0.0000 0.0000 0.0000
# 4 0.0000 0.0000 0.0000 33.1438 0.0000 0.0000
# 5 0.0000 0.0000 0.0000 0.0000 -18.4452 0.0000
# 6 0.0000 0.0000 0.0000 0.0000 0.0000 20.8449
#
#
#
# Elastic Compliance Matrix: (Units=1/GPa)
#
#
# Indices 1 2 3 4 5 6 
#
# 1 0.006859 -0.001311 -0.000767 0.000000 0.000000 0.000000
# 2 -0.001311 0.010970 0.000180 0.000000 0.000000 0.000000
# 3 -0.000767 0.000180 0.006518 0.000000 0.000000 0.000000
# 4 0.000000 0.000000 0.000000 0.030172 0.000000 0.000000
# 5 0.000000 0.000000 0.000000 0.000000 -0.054215 0.000000
# 6 0.000000 0.000000 0.000000 0.000000 0.000000 0.047973
#
#
# Mechanical properties :
#
#
# Convention : Reuss Voigt Hill
#
# Bulk Modulus (GPa) = 48.65990 52.11886 50.38938
# Shear Modulus (GPa) = 84.85745 31.46275 58.16010
#
# Velocity S-wave (km/s) = 5.70498 3.47382 4.72304
# Velocity P-wave (km/s) = 7.87776 6.00666 7.00496
#
# Compressibility (1/GPa) = 0.02055080
#
# Stress axis : x y z
#
# Youngs Moduli (GPa) = 145.79780 91.15911 153.42686
#
# Poissons Ratio (x) = 0.11948 0.11772
# Poissons Ratio (y) = 0.19109 -0.02764
# Poissons Ratio (z) = 0.11187 -0.01642
#
# Static dielectric constant tensor:
#      x y z
#    x 2.271470 0.000000 0.000000 
#    y 0.000000 1.977930 0.000000 
#    z 0.000000 0.000000 2.238500 
# 
# From -- ./inp_files/24499.got.cif
#   From: 2010.05.17/outbox.cif.g08.bks.cpg/sg51_13_cif.got.tgz:24499.got - 2010.06.03 11:52:47.
