data_PCOD9407883
_publ_section_title
;
Structure prediction by ZEFSAII (Michael W. Deem and Ramdas Pophale) SiO2 
 PCOD9407883
Probable space group: P N N A
;
_chemical_formula_sum "Si O2"
_cell_formula_units_Z 64
_cell_length_a 5.524553
_cell_length_b 22.952652
_cell_length_c 20.505175
_cell_angle_alpha 90.000000
_cell_angle_beta 90.000000
_cell_angle_gamma 90.000000
_cell_volume 2600.120627
_symmetry_space_group_name_H-M "P N N A"
_symmetry_group_IT_number 52
_symmetry_cell_setting 'orthorhombic'
loop_
_space_group_symop_operation_xyz
x,y,z
1/2-x,-y,z
x,1/2-y,1/2-z
1/2-x,1/2+y,1/2-z
-x,-y,-z
1/2+x,y,-z
-x,1/2+y,1/2+z
1/2+x,1/2-y,1/2+z
loop_
_atom_site_type_symbol
_atom_site_label
_atom_site_fract_x
_atom_site_fract_y
_atom_site_fract_z
Si Si1 0.500000 0.849742 0.242067
Si Si2 0.999999 0.779182 0.891890
Si Si3 0.000001 0.162439 0.904905
Si Si4 0.500000 0.483383 0.728626
Si Si5 0.000000 0.180451 0.749894
Si Si6 1.000000 0.158003 0.457869
Si Si7 1.000000 0.030224 0.915460
Si Si8 0.000000 0.524196 0.925535
O O1 0.499999 0.800906 0.184042
O O2 0.500000 0.914679 0.212534
O O3 0.750351 0.841741 0.279817
O O4 0.249648 0.841741 0.279817
O O5 0.750901 0.805408 0.920652
O O6 0.249097 0.805408 0.920652
O O7 0.000000 0.711322 0.907222
O O8 0.000001 0.159112 0.825252
O O9 0.000000 0.097717 0.932583
O O10 0.750000 0.500000 0.761829
O O11 0.500000 0.521832 0.662914
O O12 0.250000 0.500000 0.761829
O O13 0.000000 0.250000 0.750000
O O14 0.749999 0.162502 0.500000
O O15 1.000000 0.093884 0.426706
O O16 0.750000 0.000000 0.935169
O O17 0.250000 0.000000 0.935169
O O18 0.750000 0.500000 0.897710
O O19 0.250000 0.500000 0.897710
O O20 0.000000 0.500000 0.000000
#
# Coordination Sequence:
#
# PCOD9407883 Si02
#       8
#     8   8   8   8   8   8   8   8
#     4  10  19  32  45  67 104 125 153 201 235 283
#     4  10  20  32  46  65  99 139 154 183 243 289
#     4  10  19  33  46  68 106 128 154 202 236 285
#     4  10  16  25  43  66  90 119 143 190 246 290
#     4  10  18  29  46  65  91 128 160 189 231 278
#     4  12  21  32  50  74 100 126 161 190 229 302
#     4  10  16  25  44  68  92 120 148 194 247 289
#     4  10  16  30  48  69  97 125 134 191 253 283
#
# _framework density 24.614243999999999
#
# number of rings (size 3 to 8) (size 9 to 14) (size 15 to 20)
#    0.000    1.750    2.500    8.625    0.000    0.000 
#    0.000    0.000    0.000    0.000    0.000    0.000 
#    0.000  274.000    0.000    0.000    0.000    0.000 
#
# Total GULP energy -357965.107105 kJ/mol
# GULP energy per Si atom -5593.204799 kJ/mol
# Density = 2.455822 g / cm^3
# Si number density = 24.614244 Si / 1000 Ang^3
#
#
#
# Elastic Constant Matrix: (Units=GPa)
#
#
# Indices 1 2 3 4 5 6 
#
# 1 317.5733 91.5558 29.7365 0.0000 0.0000 0.0000
# 2 91.5558 233.4997 24.2372 0.0000 0.0000 0.0000
# 3 29.7365 24.2372 85.2844 0.0000 0.0000 0.0000
# 4 0.0000 0.0000 0.0000 -6.2876 0.0000 0.0000
# 5 0.0000 0.0000 0.0000 0.0000 -43.2578 0.0000
# 6 0.0000 0.0000 0.0000 0.0000 0.0000 50.2174
#
#
#
# Elastic Compliance Matrix: (Units=1/GPa)
#
#
# Indices 1 2 3 4 5 6 
#
# 1 0.003614 -0.001325 -0.000883 0.000000 0.000000 0.000000
# 2 -0.001325 0.004899 -0.000930 0.000000 0.000000 0.000000
# 3 -0.000883 -0.000930 0.012298 0.000000 0.000000 0.000000
# 4 0.000000 0.000000 0.000000 -0.159043 0.000000 0.000000
# 5 0.000000 0.000000 0.000000 0.000000 -0.023117 0.000000
# 6 0.000000 0.000000 0.000000 0.000000 0.000000 0.019913
#
#
# Mechanical properties :
#
#
# Convention : Reuss Voigt Hill
#
# Bulk Modulus (GPa) = 68.80970 103.04627 85.92798
# Shear Modulus (GPa) = -38.36866 32.85626 -2.75620
#
# Velocity S-wave (km/s) = -3.95245 3.65752 -1.05933
# Velocity P-wave (km/s) = 2.68082 7.73253 5.78700
#
# Compressibility (1/GPa) = 0.01453284
#
# Stress axis : x y z
#
# Youngs Moduli (GPa) = 276.72803 204.13020 81.31522
#
# Poissons Ratio (x) = 0.27052 0.07183
# Poissons Ratio (y) = 0.36673 0.07563
# Poissons Ratio (z) = 0.24445 0.18987
#
# Static dielectric constant tensor:
#      x y z
#    x 2.028240 0.000000 0.000000 
#    y 0.000000 1.895520 0.000000 
#    z 0.000000 0.000000 1.934880 
# 
# From -- ./inp_files/43899.got.cif
#   From: 2010.05.17/outbox.cif.g08.bks.cpg/sg52_22_cif.got.tgz:43899.got - 2010.06.03 12:15:38.
