data_PCOD9407815
_publ_section_title
;
Structure prediction by ZEFSAII (Michael W. Deem and Ramdas Pophale) SiO2 
 PCOD9407815
Probable space group: P M M A
;
_chemical_formula_sum "Si O2"
_cell_formula_units_Z 48
_cell_length_a 9.000000
_cell_length_b 30.000000
_cell_length_c 9.000000
_cell_angle_alpha 90.000000
_cell_angle_beta 90.000000
_cell_angle_gamma 90.000000
_cell_volume 2430.000000
_symmetry_space_group_name_H-M "P M M A"
_symmetry_group_IT_number 51
_symmetry_cell_setting 'orthorhombic'
loop_
_space_group_symop_operation_xyz
x,y,z
1/2-x,-y,z
1/2+x,-y,-z
-x,y,-z
-x,-y,-z
1/2+x,y,-z
1/2-x,y,z
x,-y,z
loop_
_atom_site_type_symbol
_atom_site_label
_atom_site_fract_x
_atom_site_fract_y
_atom_site_fract_z
Si Si1 0.919192 0.946919 0.349148
Si Si2 0.926452 0.114929 0.844177
Si Si3 0.570743 0.547056 0.664861
Si Si4 0.928778 0.730092 0.840834
Si Si5 0.072228 0.191028 0.657944
Si Si6 0.427435 0.641980 0.339161
O O1 0.750000 0.929562 0.338514
O O2 0.000000 0.931656 0.500000
O O3 0.018177 0.933163 0.209120
O O4 0.910399 0.000000 0.356931
O O5 0.750000 0.119096 0.848838
O O6 0.000757 0.146316 0.721803
O O7 0.000000 0.126777 0.000000
O O8 0.500000 0.547277 0.500000
O O9 0.750000 0.546723 0.651568
O O10 0.525772 0.500000 0.736907
O O11 0.527670 0.594532 0.732842
O O12 0.750000 0.737109 0.843419
O O13 0.964042 0.684877 0.754486
O O14 0.012615 0.770433 0.763520
O O15 0.000000 0.725834 0.000000
O O16 0.250000 0.189157 0.652033
O O17 0.000000 0.200116 0.500000
O O18 0.500000 0.645222 0.500000
O O19 0.250000 0.641574 0.358183
#
# Coordination Sequence:
#
# PCOD9407815 Si02
#       6
#     8   8   8   8   8   8
#     4  10  21  39  63  91 123 160 202 246 291 339
#     4  12  25  42  63  89 122 158 196 238 287 340
#     4   8  13  23  41  67  98 131 168 213 265 318
#     4  11  23  39  57  80 110 145 185 228 279 334
#     4  12  25  43  65  89 116 147 186 230 279 334
#     4   9  18  31  50  76 105 137 176 222 271 326
#
# _framework density 19.753086
#
# number of rings (size 3 to 8) (size 9 to 14) (size 15 to 20)
#    0.000    1.667    0.000    5.500    0.000    4.000 
#    0.000    0.000    0.000    0.500    0.000    0.000 
#    0.000    0.000    0.000    0.000    0.000    0.167 
#
# Total GULP energy -267665.270185 kJ/mol
# GULP energy per Si atom -5576.359796 kJ/mol
# Density = 1.970813 g / cm^3
# Si number density = 19.753086 Si / 1000 Ang^3
#
#
#
# Elastic Constant Matrix: (Units=GPa)
#
#
# Indices 1 2 3 4 5 6 
#
# 1 111.8844 41.1502 10.1028 0.0000 0.0000 0.0000
# 2 41.1502 91.2406 30.5428 0.0000 0.0000 0.0000
# 3 10.1028 30.5428 24.1662 0.0000 0.0000 0.0000
# 4 0.0000 0.0000 0.0000 -414.3559 0.0000 0.0000
# 5 0.0000 0.0000 0.0000 0.0000 22.2428 0.0000
# 6 0.0000 0.0000 0.0000 0.0000 0.0000 2.9891
#
#
#
# Elastic Compliance Matrix: (Units=1/GPa)
#
#
# Indices 1 2 3 4 5 6 
#
# 1 0.010827 -0.005838 0.002852 0.000000 0.000000 0.000000
# 2 -0.005838 0.022145 -0.025548 0.000000 0.000000 0.000000
# 3 0.002852 -0.025548 0.072477 0.000000 0.000000 0.000000
# 4 0.000000 0.000000 0.000000 -0.002413 0.000000 0.000000
# 5 0.000000 0.000000 0.000000 0.000000 0.044958 0.000000
# 6 0.000000 0.000000 0.000000 0.000000 0.000000 0.334546
#
#
# Mechanical properties :
#
#
# Convention : Reuss Voigt Hill
#
# Bulk Modulus (GPa) = 20.66899 43.43142 32.05021
# Shear Modulus (GPa) = 8.99708 -68.12509 -29.56400
#
# Velocity S-wave (km/s) = 2.13651 -5.87905 -3.87289
# Velocity P-wave (km/s) = 4.07095 4.90402 1.93349
#
# Compressibility (1/GPa) = 0.04838165
#
# Stress axis : x y z
#
# Youngs Moduli (GPa) = 92.35819 45.15677 13.79751
#
# Poissons Ratio (x) = 0.26362 -0.03935
# Poissons Ratio (y) = 0.53918 0.35250
# Poissons Ratio (z) = -0.26339 1.15366
#
# Static dielectric constant tensor:
#      x y z
#    x 1.672450 0.000000 0.000000 
#    y 0.000000 1.838970 0.000000 
#    z 0.000000 0.000000 1.587100 
# 
# From -- ./inp_files/6030.got.cif
#   From: 2010.05.17/outbox.ucp.g08.bks.cvg/sg51_4_cif.got.tgz:6030.got - 2010.06.11 16:27:58.
