data_PCOD9407616
_publ_section_title
;
Structure prediction by ZEFSAII (Michael W. Deem and Ramdas Pophale) SiO2 
 PCOD9407616
Probable space group: P M M A
;
_chemical_formula_sum "Si O2"
_cell_formula_units_Z 40
_cell_length_a 15.000000
_cell_length_b 9.000000
_cell_length_c 15.000000
_cell_angle_alpha 90.000000
_cell_angle_beta 90.000000
_cell_angle_gamma 90.000000
_cell_volume 2025.000000
_symmetry_space_group_name_H-M "P M M A"
_symmetry_group_IT_number 51
_symmetry_cell_setting 'orthorhombic'
loop_
_space_group_symop_operation_xyz
x,y,z
1/2-x,-y,z
1/2+x,-y,-z
-x,y,-z
-x,-y,-z
1/2+x,y,-z
1/2-x,y,z
x,-y,z
loop_
_atom_site_type_symbol
_atom_site_label
_atom_site_fract_x
_atom_site_fract_y
_atom_site_fract_z
Si Si1 0.896222 0.322049 0.406906
Si Si2 0.083948 0.181460 0.945952
Si Si3 0.750000 0.319904 0.741020
Si Si4 0.250000 0.821168 0.065875
Si Si5 0.150451 0.830836 0.767619
Si Si6 0.896313 0.319671 0.602005
O O1 0.890879 0.500000 0.406399
O O2 0.847643 0.257533 0.322761
O O3 0.864193 0.270599 0.504018
O O4 0.000026 0.279500 0.393856
O O5 0.089368 0.235615 0.844781
O O6 0.083014 0.000000 0.939398
O O7 0.166406 0.222673 0.006597
O O8 0.000000 0.233083 0.000000
O O9 0.750000 0.500000 0.745811
O O10 0.750000 0.252600 0.838240
O O11 0.835649 0.270285 0.683228
O O12 0.250000 0.000000 0.076575
O O13 0.250000 0.836078 0.807211
O O14 0.123579 0.000000 0.747440
O O15 0.892639 0.500000 0.601819
#
# Coordination Sequence:
#
# PCOD9407616 Si02
#       6
#     8   8   4   4   8   8
#     4   9  18  34  55  77 101 133 175 213 245 296
#     4   9  18  34  55  74  99 136 171 205 254 310
#     4  10  20  34  53  74 104 140 167 202 261 308
#     4  10  20  36  55  78 100 128 177 220 243 298
#     4  10  20  34  52  77 106 134 165 209 261 306
#     4   8  17  34  53  74 103 138 172 205 248 306
#
# _framework density 19.753086
#
# number of rings (size 3 to 8) (size 9 to 14) (size 15 to 20)
#    0.000    2.800    1.000    1.200    4.200    0.400 
#    0.000    4.000    0.000    1.200    0.000    0.000 
#    0.000    0.000    0.000    0.000    0.000    0.000 
#
# Total GULP energy -222737.000670 kJ/mol
# GULP energy per Si atom -5568.425017 kJ/mol
# Density = 1.970813 g / cm^3
# Si number density = 19.753086 Si / 1000 Ang^3
#
#
#
# Elastic Constant Matrix: (Units=GPa)
#
#
# Indices 1 2 3 4 5 6 
#
# 1 79.1304 12.9702 44.5141 0.0000 0.0000 0.0000
# 2 12.9702 -0.0159 19.1310 0.0000 0.0000 0.0000
# 3 44.5141 19.1310 131.8849 0.0000 0.0000 0.0000
# 4 0.0000 0.0000 0.0000 28.6467 0.0000 0.0000
# 5 0.0000 0.0000 0.0000 0.0000 15.5675 0.0000
# 6 0.0000 0.0000 0.0000 0.0000 0.0000 -14.0675
#
#
#
# Elastic Compliance Matrix: (Units=1/GPa)
#
#
# Indices 1 2 3 4 5 6 
#
# 1 0.012610 0.029425 -0.008524 0.000000 0.000000 0.000000
# 2 0.029425 -0.289623 0.032081 0.000000 0.000000 0.000000
# 3 -0.008524 0.032081 0.005806 0.000000 0.000000 0.000000
# 4 0.000000 0.000000 0.000000 0.034908 0.000000 0.000000
# 5 0.000000 0.000000 0.000000 0.000000 0.064237 0.000000
# 6 0.000000 0.000000 0.000000 0.000000 0.000000 -0.071086
#
#
# Mechanical properties :
#
#
# Convention : Reuss Voigt Hill
#
# Bulk Modulus (GPa) = -6.05164 40.47001 17.20919
# Shear Modulus (GPa) = -12.37031 14.98826 1.30897
#
# Velocity S-wave (km/s) = -2.50521 2.75759 0.81493
# Velocity P-wave (km/s) = 3.38207 5.53818 3.10105
#
# Compressibility (1/GPa) = -0.16524450
#
# Stress axis : x y z
#
# Youngs Moduli (GPa) = 79.30466 -3.45276 172.23563
#
# Poissons Ratio (x) = 0.10160 1.46821
# Poissons Ratio (y) = -2.33357 -5.52541
# Poissons Ratio (z) = 0.67603 0.11077
#
# Static dielectric constant tensor:
#      x y z
#    x 1.779410 0.000000 0.000000 
#    y 0.000000 1.673630 0.000000 
#    z 0.000000 0.000000 1.672240 
# 
# From -- ./inp_files/23812.got.cif
#   From: 2010.05.17/outbox.ucp.g08.bks.cvg/sg51_12_cif.got.tgz:23812.got - 2010.06.11 16:27:58.
