data_PCOD9407639
_publ_section_title
;
Structure prediction by ZEFSAII (Michael W. Deem and Ramdas Pophale) SiO2 
 PCOD9407639
Probable space group: P M M A
;
_chemical_formula_sum "Si O2"
_cell_formula_units_Z 64
_cell_length_a 15.000000
_cell_length_b 9.000000
_cell_length_c 24.000000
_cell_angle_alpha 90.000000
_cell_angle_beta 90.000000
_cell_angle_gamma 90.000000
_cell_volume 3240.000000
_symmetry_space_group_name_H-M "P M M A"
_symmetry_group_IT_number 51
_symmetry_cell_setting 'orthorhombic'
loop_
_space_group_symop_operation_xyz
x,y,z
1/2-x,-y,z
1/2+x,-y,-z
-x,y,-z
-x,-y,-z
1/2+x,y,-z
1/2-x,y,z
x,-y,z
loop_
_atom_site_type_symbol
_atom_site_label
_atom_site_fract_x
_atom_site_fract_y
_atom_site_fract_z
Si Si1 0.471226 0.328404 0.173012
Si Si2 0.397745 0.665952 0.479816
Si Si3 0.652531 0.679593 0.399012
Si Si4 0.145275 0.669484 0.283237
Si Si5 0.642474 0.668483 0.037625
Si Si6 0.534863 0.826449 0.625159
Si Si7 0.146449 0.822126 0.844674
Si Si8 0.144199 0.177684 0.077177
O O1 0.487802 0.500000 0.157339
O O2 0.402532 0.327306 0.223917
O O3 0.565850 0.253435 0.188984
O O4 0.420415 0.241908 0.124086
O O5 0.500000 0.652859 0.500000
O O6 0.365903 0.500000 0.464786
O O7 0.348524 0.719636 0.535144
O O8 0.405718 0.769910 0.426886
O O9 0.750000 0.722143 0.375454
O O10 0.645215 0.500000 0.396457
O O11 0.562214 0.747430 0.374229
O O12 0.250000 0.702829 0.279198
O O13 0.136030 0.500000 0.305576
O O14 0.091836 0.781434 0.321720
O O15 0.750000 0.658658 0.034430
O O16 0.607595 0.500000 0.041437
O O17 0.626042 0.764035 0.092798
O O18 0.615171 0.750477 0.981371
O O19 0.519539 0.000000 0.620373
O O20 0.250000 0.780199 0.831321
O O21 0.140842 0.000000 0.841981
O O22 0.250000 0.214433 0.087163
O O23 0.137932 0.000000 0.074486
#
# Coordination Sequence:
#
# PCOD9407639 Si02
#       8
#     8   8   8   8   8   8   8   8
#     4  11  23  39  61  86 109 138 184 237 283 329
#     4   8  15  30  52  78 110 150 194 233 270 320
#     4   9  18  34  57  84 116 157 200 236 274 327
#     4  10  23  44  66  84 106 142 188 235 280 329
#     4   9  17  31  53  81 113 148 187 230 271 317
#     4  11  22  35  55  85 119 152 188 234 288 341
#     4  10  21  38  59  83 114 149 182 220 273 337
#     4  10  20  34  54  82 117 153 185 222 276 339
#
# _framework density 19.753086
#
# number of rings (size 3 to 8) (size 9 to 14) (size 15 to 20)
#    0.000    2.250    0.000    3.750    0.000    8.250 
#    0.000    4.375    0.000    0.750    0.000    0.000 
#    0.000    0.000    0.000    0.000    0.000    0.000 
#
# Total GULP energy -357058.065101 kJ/mol
# GULP energy per Si atom -5579.032267 kJ/mol
# Density = 1.970813 g / cm^3
# Si number density = 19.753086 Si / 1000 Ang^3
#
#
#
# Elastic Constant Matrix: (Units=GPa)
#
#
# Indices 1 2 3 4 5 6 
#
# 1 119.4655 41.6045 19.9565 0.0000 0.0000 0.0000
# 2 41.6045 76.3888 16.4921 0.0000 0.0000 0.0000
# 3 19.9565 16.4921 31.0713 0.0000 0.0000 0.0000
# 4 0.0000 0.0000 0.0000 38.6910 0.0000 0.0000
# 5 0.0000 0.0000 0.0000 0.0000 25.7302 0.0000
# 6 0.0000 0.0000 0.0000 0.0000 0.0000 10.7280
#
#
#
# Elastic Compliance Matrix: (Units=1/GPa)
#
#
# Indices 1 2 3 4 5 6 
#
# 1 0.010819 -0.004961 -0.004316 0.000000 0.000000 0.000000
# 2 -0.004961 0.017060 -0.005869 0.000000 0.000000 0.000000
# 3 -0.004316 -0.005869 0.038071 0.000000 0.000000 0.000000
# 4 0.000000 0.000000 0.000000 0.025846 0.000000 0.000000
# 5 0.000000 0.000000 0.000000 0.000000 0.038865 0.000000
# 6 0.000000 0.000000 0.000000 0.000000 0.000000 0.093214
#
#
# Mechanical properties :
#
#
# Convention : Reuss Voigt Hill
#
# Bulk Modulus (GPa) = 28.04329 42.55909 35.30119
# Shear Modulus (GPa) = 18.79332 24.95468 21.87400
#
# Velocity S-wave (km/s) = 3.08784 3.55819 3.33133
# Velocity P-wave (km/s) = 5.19045 6.20268 5.71901
#
# Compressibility (1/GPa) = 0.03565915
#
# Stress axis : x y z
#
# Youngs Moduli (GPa) = 92.42828 58.61722 26.26662
#
# Poissons Ratio (x) = 0.29079 0.11336
# Poissons Ratio (y) = 0.45852 0.15415
# Poissons Ratio (z) = 0.39891 0.34402
#
# Static dielectric constant tensor:
#      x y z
#    x 1.723860 0.000000 0.000000 
#    y 0.000000 1.677300 0.000000 
#    z 0.000000 0.000000 1.713910 
# 
# From -- ./inp_files/35691.got.cif
#   From: 2010.05.17/outbox.ucp.g08.bks.cvg/sg51_18_cif.got.tgz:35691.got - 2010.06.11 16:27:58.
