data_PCOD9407421
_publ_section_title
;
Structure prediction by ZEFSAII (Michael W. Deem and Ramdas Pophale) SiO2 
 PCOD9407421
Probable space group: P M M A
;
_chemical_formula_sum "Si O2"
_cell_formula_units_Z 64
_cell_length_a 30.000000
_cell_length_b 9.000000
_cell_length_c 15.000000
_cell_angle_alpha 90.000000
_cell_angle_beta 90.000000
_cell_angle_gamma 90.000000
_cell_volume 4050.000000
_symmetry_space_group_name_H-M "P M M A"
_symmetry_group_IT_number 51
_symmetry_cell_setting 'orthorhombic'
loop_
_space_group_symop_operation_xyz
x,y,z
1/2-x,-y,z
1/2+x,-y,-z
-x,y,-z
-x,-y,-z
1/2+x,y,-z
1/2-x,y,z
x,-y,z
loop_
_atom_site_type_symbol
_atom_site_label
_atom_site_fract_x
_atom_site_fract_y
_atom_site_fract_z
Si Si1 0.391964 0.674933 0.350494
Si Si2 0.300323 0.178832 0.372245
Si Si3 0.051373 0.821176 0.506971
Si Si4 0.201136 0.180384 0.582521
Si Si5 0.946183 0.832960 0.992517
Si Si6 0.111007 0.178411 0.673676
Si Si7 0.957645 0.675097 0.815043
Si Si8 0.560366 0.675570 0.171993
O O1 0.386368 0.500000 0.367571
O O2 0.343661 0.745391 0.330248
O O3 0.415705 0.752547 0.434165
O O4 0.427067 0.694089 0.270582
O O5 0.250000 0.221259 0.342255
O O6 0.303233 0.216164 0.477850
O O7 0.303754 0.000000 0.364186
O O8 0.072725 0.784263 0.602033
O O9 0.000000 0.770882 0.500000
O O10 0.051950 0.000000 0.496257
O O11 0.250000 0.231318 0.613525
O O12 0.158526 0.233289 0.637054
O O13 0.200876 0.000000 0.586705
O O14 0.937142 0.767412 0.895908
O O15 0.929230 0.000000 0.004239
O O16 0.931464 0.725758 0.071176
O O17 0.000000 0.837670 0.000000
O O18 0.095851 0.246515 0.765601
O O19 0.112930 0.000000 0.679949
O O20 0.958873 0.500000 0.839015
O O21 0.009390 0.721528 0.802297
O O22 0.562954 0.500000 0.181634
#
# Coordination Sequence:
#
# PCOD9407421 Si02
#       8
#     8   8   8   8   8   8   8   8
#     4  11  21  31  46  69  98 128 159 196 237 286
#     4   9  17  32  52  69  89 121 161 202 243 285
#     4  10  20  32  45  63  92 130 168 201 232 271
#     4   8  14  27  47  66  85 114 153 198 242 277
#     4   9  17  30  49  71  91 115 153 199 237 268
#     4  10  18  29  45  66  91 120 158 198 233 274
#     4   9  19  33  46  65  95 130 159 186 228 280
#     4  10  19  31  47  66  94 128 158 188 229 282
#
# _framework density 15.802469
#
# number of rings (size 3 to 8) (size 9 to 14) (size 15 to 20)
#    0.000    2.500    1.250    2.625    0.000    4.000 
#    0.000    0.000    0.000    0.375    0.000    0.875 
#    0.000    5.000    0.000    0.000    0.000    0.000 
#
# Total GULP energy -356540.230607 kJ/mol
# GULP energy per Si atom -5570.941103 kJ/mol
# Density = 1.576650 g / cm^3
# Si number density = 15.802469 Si / 1000 Ang^3
#
#
#
# Elastic Constant Matrix: (Units=GPa)
#
#
# Indices 1 2 3 4 5 6 
#
# 1 43.7169 1.8183 -2.7762 0.0000 0.0000 0.0000
# 2 1.8183 -9.6037 2.8495 0.0000 0.0000 0.0000
# 3 -2.7762 2.8495 19.8636 0.0000 0.0000 0.0000
# 4 0.0000 0.0000 0.0000 103.4641 0.0000 0.0000
# 5 0.0000 0.0000 0.0000 0.0000 3.8379 0.0000
# 6 0.0000 0.0000 0.0000 0.0000 0.0000 -1.2106
#
#
#
# Elastic Compliance Matrix: (Units=1/GPa)
#
#
# Indices 1 2 3 4 5 6 
#
# 1 0.022821 0.005052 0.002465 0.000000 0.000000 0.000000
# 2 0.005052 -0.098757 0.014873 0.000000 0.000000 0.000000
# 3 0.002465 0.014873 0.048554 0.000000 0.000000 0.000000
# 4 0.000000 0.000000 0.000000 0.009665 0.000000 0.000000
# 5 0.000000 0.000000 0.000000 0.000000 0.260559 0.000000
# 6 0.000000 0.000000 0.000000 0.000000 0.000000 -0.826032
#
#
# Mechanical properties :
#
#
# Convention : Reuss Voigt Hill
#
# Bulk Modulus (GPa) = 57.47656 6.41778 31.94717
# Shear Modulus (GPa) = -8.03638 24.69063 8.32712
#
# Velocity S-wave (km/s) = -2.25756 3.95708 2.29803
# Velocity P-wave (km/s) = 5.44568 4.99480 5.22510
#
# Compressibility (1/GPa) = 0.01739840
#
# Stress axis : x y z
#
# Youngs Moduli (GPa) = 43.81962 -10.12587 20.59551
#
# Poissons Ratio (x) = 0.05116 -0.05076
# Poissons Ratio (y) = -0.22138 -0.30632
# Poissons Ratio (z) = -0.10801 0.15060
#
# Static dielectric constant tensor:
#      x y z
#    x 1.529480 0.000000 0.000000 
#    y 0.000000 1.535890 0.000000 
#    z 0.000000 0.000000 1.512740 
# 
# From -- ./inp_files/26659.got.cif
#   From: 2010.05.17/outbox.ucp.g08.bks.cvg/sg51_14_cif.got.tgz:26659.got - 2010.06.11 16:27:58.
