data_PCOD9407809
_publ_section_title
;
Structure prediction by ZEFSAII (Michael W. Deem and Ramdas Pophale) SiO2 
 PCOD9407809
Probable space group: P M M A
;
_chemical_formula_sum "Si O2"
_cell_formula_units_Z 48
_cell_length_a 30.000000
_cell_length_b 9.000000
_cell_length_c 9.000000
_cell_angle_alpha 90.000000
_cell_angle_beta 90.000000
_cell_angle_gamma 90.000000
_cell_volume 2430.000000
_symmetry_space_group_name_H-M "P M M A"
_symmetry_group_IT_number 51
_symmetry_cell_setting 'orthorhombic'
loop_
_space_group_symop_operation_xyz
x,y,z
1/2-x,-y,z
1/2+x,-y,-z
-x,y,-z
-x,-y,-z
1/2+x,y,-z
1/2-x,y,z
x,-y,z
loop_
_atom_site_type_symbol
_atom_site_label
_atom_site_fract_x
_atom_site_fract_y
_atom_site_fract_z
Si Si1 0.344218 0.679480 0.951546
Si Si2 0.402146 0.821902 0.705754
Si Si3 0.344727 0.673659 0.475065
Si Si4 0.907692 0.327666 0.794753
Si Si5 0.000263 0.821304 0.175410
Si Si6 0.750000 0.821917 0.439040
Si Si7 0.250000 0.176705 0.920083
O O1 0.341554 0.500000 0.955248
O O2 0.362804 0.741563 0.797462
O O3 0.295495 0.748439 0.979825
O O4 0.385150 0.731632 0.055492
O O5 0.385545 0.767566 0.546497
O O6 0.452698 0.776245 0.750610
O O7 0.399157 0.000000 0.722199
O O8 0.343099 0.500000 0.525659
O O9 0.363701 0.671962 0.308594
O O10 0.296022 0.747760 0.499496
O O11 0.920905 0.500000 0.812470
O O12 0.953656 0.243327 0.757757
O O13 0.002280 0.000000 0.185248
O O14 0.000000 0.779835 0.000000
O O15 0.750000 0.802270 0.259644
O O16 0.750000 0.000000 0.468954
O O17 0.250000 0.000000 0.949619
#
# Coordination Sequence:
#
# PCOD9407809 Si02
#       7
#     8   8   8   8   8   4   4
#     4  11  22  38  62  90 119 155 199 246 300 354
#     4  11  22  38  61  91 122 155 203 251 294 355
#     4  11  24  42  63  89 124 163 202 248 304 361
#     4  10  24  42  61  90 125 160 201 250 300 360
#     4  10  21  38  62  90 122 162 203 249 304 358
#     4  11  23  40  63  90 121 159 202 246 299 362
#     4  11  23  38  61  92 123 153 198 252 299 358
#
# _framework density 19.753086
#
# number of rings (size 3 to 8) (size 9 to 14) (size 15 to 20)
#    0.000    1.333    3.333    2.000    0.000    5.667 
#    0.000    6.667    0.000    0.000    0.000    0.000 
#    0.000    0.000    0.000    0.000    0.000    0.000 
#
# Total GULP energy -267477.223130 kJ/mol
# GULP energy per Si atom -5572.442149 kJ/mol
# Density = 1.970813 g / cm^3
# Si number density = 19.753086 Si / 1000 Ang^3
#
#
#
# Elastic Constant Matrix: (Units=GPa)
#
#
# Indices 1 2 3 4 5 6 
#
# 1 169.5571 59.0702 3.4189 0.0000 0.0000 0.0000
# 2 59.0702 71.3518 -3.1606 0.0000 0.0000 0.0000
# 3 3.4189 -3.1606 8.8342 0.0000 0.0000 0.0000
# 4 0.0000 0.0000 0.0000 15.6622 0.0000 0.0000
# 5 0.0000 0.0000 0.0000 0.0000 31.2013 0.0000
# 6 0.0000 0.0000 0.0000 0.0000 0.0000 44.5843
#
#
#
# Elastic Compliance Matrix: (Units=1/GPa)
#
#
# Indices 1 2 3 4 5 6 
#
# 1 0.008586 -0.007372 -0.005961 0.000000 0.000000 0.000000
# 2 -0.007372 0.020571 0.010213 0.000000 0.000000 0.000000
# 3 -0.005961 0.010213 0.119157 0.000000 0.000000 0.000000
# 4 0.000000 0.000000 0.000000 0.063848 0.000000 0.000000
# 5 0.000000 0.000000 0.000000 0.000000 0.032050 0.000000
# 6 0.000000 0.000000 0.000000 0.000000 0.000000 0.022429
#
#
# Mechanical properties :
#
#
# Convention : Reuss Voigt Hill
#
# Bulk Modulus (GPa) = 7.03858 40.93333 23.98595
# Shear Modulus (GPa) = 15.61328 30.98388 23.29858
#
# Velocity S-wave (km/s) = 2.81450 3.96480 3.43810
# Velocity P-wave (km/s) = 3.75937 6.45964 5.28488
#
# Compressibility (1/GPa) = 0.14207413
#
# Stress axis : x y z
#
# Youngs Moduli (GPa) = 116.46476 48.61251 8.39226
#
# Poissons Ratio (x) = 0.35839 0.05002
# Poissons Ratio (y) = 0.85862 -0.08571
# Poissons Ratio (z) = 0.69419 -0.49646
#
# Static dielectric constant tensor:
#      x y z
#    x 1.644760 0.000000 0.000000 
#    y 0.000000 1.674540 0.000000 
#    z 0.000000 0.000000 1.761930 
# 
# From -- ./inp_files/12955.got.cif
#   From: 2010.05.17/outbox.ucp.g08.bks.cvg/sg51_7_cif.got.tgz:12955.got - 2010.06.11 16:27:58.
