data_PCOD9407368
_publ_section_title
;
Structure prediction by ZEFSAII (Michael W. Deem and Ramdas Pophale) SiO2 
 PCOD9407368
Probable space group: P M M A
;
_chemical_formula_sum "Si O2"
_cell_formula_units_Z 40
_cell_length_a 20.517717
_cell_length_b 9.307924
_cell_length_c 13.093549
_cell_angle_alpha 90.000000
_cell_angle_beta 90.000000
_cell_angle_gamma 90.000000
_cell_volume 2500.571297
_symmetry_space_group_name_H-M "P M M A"
_symmetry_group_IT_number 51
_symmetry_cell_setting 'orthorhombic'
loop_
_space_group_symop_operation_xyz
x,y,z
1/2-x,-y,z
1/2+x,-y,-z
-x,y,-z
-x,-y,-z
1/2+x,y,-z
1/2-x,y,z
x,-y,z
loop_
_atom_site_type_symbol
_atom_site_label
_atom_site_fract_x
_atom_site_fract_y
_atom_site_fract_z
Si Si1 0.069602 0.175219 0.453403
Si Si2 0.175602 0.175248 0.618284
Si Si3 0.445667 0.170480 0.222777
Si Si4 0.921890 0.665278 0.978141
Si Si5 0.599542 0.170339 0.179562
O O1 0.127903 0.222186 0.527169
O O2 0.075495 0.219049 0.335472
O O3 0.000000 0.220461 0.500000
O O4 0.068903 0.000000 0.453166
O O5 0.250000 0.222263 0.606223
O O6 0.145223 0.217700 0.727280
O O7 0.174889 0.000000 0.617460
O O8 0.413355 0.254239 0.129167
O O9 0.524140 0.189303 0.214199
O O10 0.433224 0.000000 0.212042
O O11 0.901732 0.500000 0.972518
O O12 0.890407 0.745705 0.074349
O O13 0.000000 0.669114 0.000000
O O14 0.608800 0.000000 0.162300
#
# Coordination Sequence:
#
# PCOD9407368 Si02
#       5
#     8   8   8   8   8
#     4   9  14  23  40  63  89 116 146 178 215 264
#     4   9  16  25  40  65  93 116 141 181 228 265
#     4   9  15  24  42  65  87 114 147 180 214 259
#     4   9  17  27  40  61  89 115 141 179 224 261
#     4   9  15  25  42  63  87 113 144 179 217 263
#
# _framework density 15.996346000000001
#
# number of rings (size 3 to 8) (size 9 to 14) (size 15 to 20)
#    0.000    3.000    2.000    0.600    0.000    2.400 
#    0.000    0.000    0.000    3.600    0.000    5.600 
#    0.000    0.000    0.000    0.000    0.000    0.000 
#
# Total GULP energy -222732.657865 kJ/mol
# GULP energy per Si atom -5568.316447 kJ/mol
# Density = 1.595994 g / cm^3
# Si number density = 15.996346 Si / 1000 Ang^3
#
#
#
# Elastic Constant Matrix: (Units=GPa)
#
#
# Indices 1 2 3 4 5 6 
#
# 1 73.5863 27.8807 72.5909 0.0000 0.0000 0.0000
# 2 27.8807 31.9377 57.0082 0.0000 0.0000 0.0000
# 3 72.5909 57.0082 202.1276 0.0000 0.0000 0.0000
# 4 0.0000 0.0000 0.0000 -2.4591 0.0000 0.0000
# 5 0.0000 0.0000 0.0000 0.0000 17.1884 0.0000
# 6 0.0000 0.0000 0.0000 0.0000 0.0000 4.1994
#
#
#
# Elastic Compliance Matrix: (Units=1/GPa)
#
#
# Indices 1 2 3 4 5 6 
#
# 1 0.022698 -0.010601 -0.005162 0.000000 0.000000 0.000000
# 2 -0.010601 0.068007 -0.015373 0.000000 0.000000 0.000000
# 3 -0.005162 -0.015373 0.011137 0.000000 0.000000 0.000000
# 4 0.000000 0.000000 0.000000 -0.406656 0.000000 0.000000
# 5 0.000000 0.000000 0.000000 0.000000 0.058179 0.000000
# 6 0.000000 0.000000 0.000000 0.000000 0.000000 0.238132
#
#
# Mechanical properties :
#
#
# Convention : Reuss Voigt Hill
#
# Bulk Modulus (GPa) = 25.27221 69.17904 47.22562
# Shear Modulus (GPa) = 74.67242 13.79717 44.23480
#
# Velocity S-wave (km/s) = 6.83976 2.94006 5.26432
# Velocity P-wave (km/s) = 8.84361 7.40715 8.15706
#
# Compressibility (1/GPa) = 0.03956916
#
# Stress axis : x y z
#
# Youngs Moduli (GPa) = 44.05681 14.70442 89.79069
#
# Poissons Ratio (x) = 0.15589 0.46347
# Poissons Ratio (y) = 0.46706 1.38039
# Poissons Ratio (z) = 0.22740 0.22606
#
# Static dielectric constant tensor:
#      x y z
#    x 1.520810 0.000000 0.000000 
#    y 0.000000 1.520800 0.000000 
#    z 0.000000 0.000000 1.536400 
# 
# From -- ./inp_files/17891.got.cif
#   From: 2010.05.17/outbox.cif.g08.bks.cpg/sg51_9_cif.got.tgz:17891.got - 2010.06.03 11:52:47.
