data_PCOD9407207
_publ_section_title
;
Structure prediction by ZEFSAII (Michael W. Deem and Ramdas Pophale) SiO2 
 PCOD9407207
Probable space group: P M M A
;
_chemical_formula_sum "Si O2"
_cell_formula_units_Z 56
_cell_length_a 21.951268
_cell_length_b 14.217243
_cell_length_c 8.935348
_cell_angle_alpha 90.000000
_cell_angle_beta 90.000000
_cell_angle_gamma 90.000000
_cell_volume 2788.601585
_symmetry_space_group_name_H-M "P M M A"
_symmetry_group_IT_number 51
_symmetry_cell_setting 'orthorhombic'
loop_
_space_group_symop_operation_xyz
x,y,z
1/2-x,-y,z
1/2+x,-y,-z
-x,y,-z
-x,-y,-z
1/2+x,y,-z
1/2-x,y,z
x,-y,z
loop_
_atom_site_type_symbol
_atom_site_label
_atom_site_fract_x
_atom_site_fract_y
_atom_site_fract_z
Si Si1 0.500000 0.614163 0.170646
Si Si2 0.183423 0.211423 0.678549
Si Si3 0.316577 0.788577 0.321451
Si Si4 0.634370 0.390864 0.818421
Si Si5 0.932313 0.886941 0.176465
Si Si6 0.567687 0.113059 0.823535
Si Si7 0.634370 0.609136 0.181578
O O1 0.499999 0.500000 0.162167
O O2 0.434141 0.637102 0.235738
O O3 0.565860 0.637101 0.235737
O O4 0.500000 0.649946 0.000000
O O5 0.250000 0.170843 0.719601
O O6 0.179606 0.215389 0.500000
O O7 0.125716 0.155296 0.741408
O O8 0.178650 0.315938 0.746553
O O9 0.250000 0.829157 0.280399
O O10 0.321350 0.684061 0.253448
O O11 0.374284 0.844704 0.258592
O O12 0.645915 0.500000 0.780497
O O13 0.635050 0.384720 1.000000
O O14 0.000000 0.854470 0.227652
O O15 0.931377 0.000000 0.190442
O O16 0.927602 0.864134 1.000000
O O17 0.568623 0.000000 0.809558
O O18 0.645915 0.500000 0.219502
#
# Coordination Sequence:
#
# PCOD9407207 Si02
#       7
#     8   8   8   8   8   8   8
#     4   7  12  26  49  77 104 131 172 231 291 334
#     4  11  25  40  54  81 123 165 198 232 283 345
#     4  11  25  40  54  81 123 165 198 232 283 345
#     4   9  18  34  57  83 112 150 198 248 293 338
#     4   9  20  41  68  94 116 142 184 240 297 349
#     4   9  20  41  68  94 116 142 184 240 297 349
#     4   9  18  34  57  83 112 150 198 248 293 338
#
# _framework density 20.081751000000001
#
# number of rings (size 3 to 8) (size 9 to 14) (size 15 to 20)
#    0.000    2.714    0.000    3.429    2.000    5.143 
#    0.000    7.143    0.000    2.571    0.000    0.000 
#    0.000    0.000    0.000    0.000    0.000    0.000 
#
# Total GULP energy -312373.487290 kJ/mol
# GULP energy per Si atom -5578.097987 kJ/mol
# Density = 2.003604 g / cm^3
# Si number density = 20.081751 Si / 1000 Ang^3
#
#
#
# Elastic Constant Matrix: (Units=GPa)
#
#
# Indices 1 2 3 4 5 6 
#
# 1 185.5165 57.3855 60.1358 0.0000 0.0000 0.0000
# 2 57.3855 60.4465 30.7931 0.0000 0.0000 0.0000
# 3 60.1358 30.7931 39.1829 0.0000 0.0000 0.0000
# 4 0.0000 0.0000 0.0000 149.6418 0.0000 0.0000
# 5 0.0000 0.0000 0.0000 0.0000 30.6490 0.0000
# 6 0.0000 0.0000 0.0000 0.0000 0.0000 20.8218
#
#
#
# Elastic Compliance Matrix: (Units=1/GPa)
#
#
# Indices 1 2 3 4 5 6 
#
# 1 0.011063 -0.003090 -0.014550 0.000000 0.000000 0.000000
# 2 -0.003090 0.028452 -0.017617 0.000000 0.000000 0.000000
# 3 -0.014550 -0.017617 0.061696 0.000000 0.000000 0.000000
# 4 0.000000 0.000000 0.000000 0.006683 0.000000 0.000000
# 5 0.000000 0.000000 0.000000 0.000000 0.032627 0.000000
# 6 0.000000 0.000000 0.000000 0.000000 0.000000 0.048026
#
#
# Mechanical properties :
#
#
# Convention : Reuss Voigt Hill
#
# Bulk Modulus (GPa) = 32.57664 64.64165 48.60914
# Shear Modulus (GPa) = 18.56714 49.34462 33.95588
#
# Velocity S-wave (km/s) = 3.04399 4.96238 4.11650
# Velocity P-wave (km/s) = 5.34899 8.06801 6.84487
#
# Compressibility (1/GPa) = 0.03069684
#
# Stress axis : x y z
#
# Youngs Moduli (GPa) = 90.39460 35.14693 16.20855
#
# Poissons Ratio (x) = 0.10862 0.23583
# Poissons Ratio (y) = 0.27936 0.28554
# Poissons Ratio (z) = 1.31520 0.61918
#
# Static dielectric constant tensor:
#      x y z
#    x 1.756920 0.000000 0.000000 
#    y 0.000000 1.731260 0.000000 
#    z 0.000000 0.000000 1.665450 
# 
# From -- ./inp_files/10970.got.cif
#   From: 2010.05.17/outbox.cif.g08.bks.cpg/sg51_6_cif.got.tgz:10970.got - 2010.06.03 11:52:47.
