data_PCOD9407666
_publ_section_title
;
Structure prediction by ZEFSAII (Michael W. Deem and Ramdas Pophale) SiO2 
 PCOD9407666
Probable space group: P M M A
;
_chemical_formula_sum "Si O2"
_cell_formula_units_Z 48
_cell_length_a 9.000000
_cell_length_b 30.000000
_cell_length_c 9.000000
_cell_angle_alpha 90.000000
_cell_angle_beta 90.000000
_cell_angle_gamma 90.000000
_cell_volume 2430.000000
_symmetry_space_group_name_H-M "P M M A"
_symmetry_group_IT_number 51
_symmetry_cell_setting 'orthorhombic'
loop_
_space_group_symop_operation_xyz
x,y,z
1/2-x,-y,z
1/2+x,-y,-z
-x,y,-z
-x,-y,-z
1/2+x,y,-z
1/2-x,y,z
x,-y,z
loop_
_atom_site_type_symbol
_atom_site_label
_atom_site_fract_x
_atom_site_fract_y
_atom_site_fract_z
Si Si1 0.081453 0.750926 0.149764
Si Si2 0.425387 0.181138 0.657490
Si Si3 0.571633 0.913812 0.338143
Si Si4 0.926518 0.422001 0.343170
Si Si5 0.421273 0.644468 0.153544
Si Si6 0.072442 0.500000 0.158623
Si Si7 0.570705 0.000000 0.159011
O O1 0.250000 0.766574 0.150564
O O2 0.080967 0.697692 0.159291
O O3 0.991058 0.774478 0.276230
O O4 0.000000 0.763966 0.000000
O O5 0.500000 0.175865 0.500000
O O6 0.250000 0.184942 0.646442
O O7 0.462394 0.134139 0.736480
O O8 0.500000 0.916662 0.500000
O O9 0.750000 0.915611 0.355746
O O10 0.522307 0.955772 0.244460
O O11 0.750000 0.427064 0.344583
O O12 0.000000 0.430230 0.500000
O O13 0.978308 0.374182 0.284730
O O14 0.006287 0.456887 0.237243
O O15 0.250000 0.628564 0.160463
O O16 0.500000 0.630656 0.000000
O O17 0.250000 0.500000 0.157973
O O18 0.000000 0.500000 0.000000
O O19 0.750000 0.000000 0.151029
O O20 0.500000 0.000000 0.000000
#
# Coordination Sequence:
#
# PCOD9407666 Si02
#       7
#     8   8   8   8   8   4   4
#     4  10  21  37  58  83 113 149 189 232 281 334
#     4  10  20  35  55  80 110 143 183 228 277 331
#     4   9  19  35  55  78 104 138 179 223 269 326
#     4  12  25  42  63  90 122 156 194 239 289 338
#     4  10  21  39  61  86 115 151 193 235 281 337
#     4  12  25  44  67  92 122 158 198 238 283 338
#     4  10  21  36  52  76 108 138 175 220 270 324
#
# _framework density 19.753086
#
# number of rings (size 3 to 8) (size 9 to 14) (size 15 to 20)
#    0.000    1.667    0.000    4.750    0.000    4.667 
#    0.000    1.667    0.000    0.000    0.000    0.000 
#    0.000    0.000    0.000    0.000    0.000    0.000 
#
# Total GULP energy -267643.921795 kJ/mol
# GULP energy per Si atom -5575.915037 kJ/mol
# Density = 1.970813 g / cm^3
# Si number density = 19.753086 Si / 1000 Ang^3
#
#
#
# Elastic Constant Matrix: (Units=GPa)
#
#
# Indices 1 2 3 4 5 6 
#
# 1 140.0832 41.6105 48.7944 0.0000 0.0000 0.0000
# 2 41.6105 8.0215 32.8845 0.0000 0.0000 0.0000
# 3 48.7944 32.8845 92.0332 0.0000 0.0000 0.0000
# 4 0.0000 0.0000 0.0000 50.8953 0.0000 0.0000
# 5 0.0000 0.0000 0.0000 0.0000 27.3174 0.0000
# 6 0.0000 0.0000 0.0000 0.0000 0.0000 45.4063
#
#
#
# Elastic Compliance Matrix: (Units=1/GPa)
#
#
# Indices 1 2 3 4 5 6 
#
# 1 0.003690 0.023929 -0.010507 0.000000 0.000000 0.000000
# 2 0.023929 -0.113049 0.027707 0.000000 0.000000 0.000000
# 3 -0.010507 0.027707 0.006536 0.000000 0.000000 0.000000
# 4 0.000000 0.000000 0.000000 0.019648 0.000000 0.000000
# 5 0.000000 0.000000 0.000000 0.000000 0.036607 0.000000
# 6 0.000000 0.000000 0.000000 0.000000 0.000000 0.022023
#
#
# Mechanical properties :
#
#
# Convention : Reuss Voigt Hill
#
# Bulk Modulus (GPa) = -48.62915 54.07962 2.72523
# Shear Modulus (GPa) = -43.99208 32.51373 -5.73918
#
# Velocity S-wave (km/s) = -4.72433 4.06150 -1.70639
# Velocity P-wave (km/s) = 7.37774 7.03076 1.58105
#
# Compressibility (1/GPa) = -0.02056380
#
# Stress axis : x y z
#
# Youngs Moduli (GPa) = 270.97157 -8.84574 152.99364
#
# Poissons Ratio (x) = 0.21167 1.60747
# Poissons Ratio (y) = -6.48413 -4.23895
# Poissons Ratio (z) = 2.84703 0.24509
#
# Static dielectric constant tensor:
#      x y z
#    x 1.639830 0.000000 0.000000 
#    y 0.000000 1.767960 0.000000 
#    z 0.000000 0.000000 1.703950 
# 
# From -- ./inp_files/6276.got.cif
#   From: 2010.05.17/outbox.ucp.g08.bks.cvg/sg51_4_cif.got.tgz:6276.got - 2010.06.11 16:27:58.
