data_PCOD9407961
_publ_section_title
;
Structure prediction by ZEFSAII (Michael W. Deem and Ramdas Pophale) SiO2 
 PCOD9407961
Probable space group: P N N A
;
_chemical_formula_sum "Si O2"
_cell_formula_units_Z 48
_cell_length_a 13.258227
_cell_length_b 16.416960
_cell_length_c 8.727913
_cell_angle_alpha 90.000000
_cell_angle_beta 90.000000
_cell_angle_gamma 90.000000
_cell_volume 1899.715644
_symmetry_space_group_name_H-M "P N N A"
_symmetry_group_IT_number 52
_symmetry_cell_setting 'orthorhombic'
loop_
_space_group_symop_operation_xyz
x,y,z
1/2-x,-y,z
x,1/2-y,1/2-z
1/2-x,1/2+y,1/2-z
-x,-y,-z
1/2+x,y,-z
-x,1/2+y,1/2+z
1/2+x,1/2-y,1/2+z
loop_
_atom_site_type_symbol
_atom_site_label
_atom_site_fract_x
_atom_site_fract_y
_atom_site_fract_z
Si Si1 0.222505 0.750000 0.750000
Si Si2 0.137299 0.340976 0.995886
Si Si3 0.992029 0.345903 0.739012
Si Si4 0.590394 0.333250 0.590328
Si Si5 0.105879 0.912162 0.801331
Si Si6 0.298095 0.420593 0.378791
Si Si7 0.250000 0.000000 0.552451
O O1 0.291722 0.710378 0.879509
O O2 0.152849 0.821698 0.809298
O O3 0.201982 0.421313 0.033781
O O4 0.047579 0.374075 0.890277
O O5 0.090925 0.266816 0.097280
O O6 0.976605 0.250000 0.750000
O O7 0.885514 0.386257 0.723718
O O8 0.055780 0.356807 0.583452
O O9 0.513953 0.390741 0.691217
O O10 0.706461 0.357938 0.606024
O O11 0.161397 0.961263 0.664711
O O12 0.147146 0.947450 0.961825
O O13 0.250000 0.500000 0.313682
#
# Coordination Sequence:
#
# PCOD9407961 Si02
#       7
#     4   8   8   8   8   8   4
#     4  10  16  34  50  74 106 142 190 220 274 324
#     4  10  17  34  55  77 110 153 185 226 282 353
#     4   9  19  34  53  74 109 151 180 213 283 353
#     4  10  19  34  52  79 111 150 182 225 291 345
#     4  10  20  31  53  81 111 143 184 241 278 331
#     4  11  21  31  51  86 112 138 177 236 280 335
#     4  10  20  30  56  90 112 144 196 246 282 324
#
# _framework density 25.266940000000002
#
# number of rings (size 3 to 8) (size 9 to 14) (size 15 to 20)
#    0.000    2.000    5.000    1.000    2.333    1.333 
#    1.500    0.000    0.000    4.000    2.167    0.000 
#    0.000    0.000    0.000    0.000    0.000    0.000 
#
# Total GULP energy -268332.281687 kJ/mol
# GULP energy per Si atom -5590.255868 kJ/mol
# Density = 2.520943 g / cm^3
# Si number density = 25.266940 Si / 1000 Ang^3
#
#
#
# Elastic Constant Matrix: (Units=GPa)
#
#
# Indices 1 2 3 4 5 6 
#
# 1 144.1303 73.7929 37.6050 0.0000 0.0000 0.0000
# 2 73.7929 121.9851 38.8315 0.0000 0.0000 0.0000
# 3 37.6050 38.8315 79.2059 0.0000 0.0000 0.0000
# 4 0.0000 0.0000 0.0000 75.6430 0.0000 0.0000
# 5 0.0000 0.0000 0.0000 0.0000 17.5115 0.0000
# 6 0.0000 0.0000 0.0000 0.0000 0.0000 49.8725
#
#
#
# Elastic Compliance Matrix: (Units=1/GPa)
#
#
# Indices 1 2 3 4 5 6 
#
# 1 0.010362 -0.005572 -0.002188 0.000000 0.000000 0.000000
# 2 -0.005572 0.012710 -0.003586 0.000000 0.000000 0.000000
# 3 -0.002188 -0.003586 0.015422 0.000000 0.000000 0.000000
# 4 0.000000 0.000000 0.000000 0.013220 0.000000 0.000000
# 5 0.000000 0.000000 0.000000 0.000000 0.057105 0.000000
# 6 0.000000 0.000000 0.000000 0.000000 0.000000 0.020051
#
#
# Mechanical properties :
#
#
# Convention : Reuss Voigt Hill
#
# Bulk Modulus (GPa) = 63.28017 71.75334 67.51675
# Shear Modulus (GPa) = 31.88207 41.61152 36.74680
#
# Velocity S-wave (km/s) = 3.55605 4.06257 3.81772
# Velocity P-wave (km/s) = 6.47763 7.10393 6.79799
#
# Compressibility (1/GPa) = 0.01580274
#
# Stress axis : x y z
#
# Youngs Moduli (GPa) = 96.51022 78.68056 64.84225
#
# Poissons Ratio (x) = 0.43838 0.14187
# Poissons Ratio (y) = 0.53772 0.23251
# Poissons Ratio (z) = 0.21115 0.28213
#
# Static dielectric constant tensor:
#      x y z
#    x 1.978490 0.000000 0.000000 
#    y 0.000000 1.999060 0.000000 
#    z 0.000000 0.000000 2.106420 
# 
# From -- ./inp_files/18247.got.cif
#   From: 2010.05.17/outbox.cif.g08.bks.cpg/sg52_10_cif.got.tgz:18247.got - 2010.06.03 12:15:38.
