data_PCOD9407064
_publ_section_title
;
Structure prediction by ZEFSAII (Michael W. Deem and Ramdas Pophale) SiO2 
 PCOD9407064
Probable space group: P M M A
;
_chemical_formula_sum "Si O2"
_cell_formula_units_Z 64
_cell_length_a 8.752438
_cell_length_b 14.375227
_cell_length_c 27.063727
_cell_angle_alpha 90.000000
_cell_angle_beta 90.000000
_cell_angle_gamma 90.000000
_cell_volume 3405.111664
_symmetry_space_group_name_H-M "P M M A"
_symmetry_group_IT_number 51
_symmetry_cell_setting 'orthorhombic'
loop_
_space_group_symop_operation_xyz
x,y,z
1/2-x,-y,z
1/2+x,-y,-z
-x,y,-z
-x,-y,-z
1/2+x,y,-z
1/2-x,y,z
x,-y,z
loop_
_atom_site_type_symbol
_atom_site_label
_atom_site_fract_x
_atom_site_fract_y
_atom_site_fract_z
Si Si1 0.935570 0.107448 0.091074
Si Si2 0.069173 0.710733 0.050244
Si Si3 0.064850 0.892633 0.691734
Si Si4 0.565883 0.391907 0.552148
Si Si5 0.929949 0.612142 0.145035
Si Si6 0.567149 0.716303 0.650112
Si Si7 0.576138 0.112933 0.200208
Si Si8 0.066613 0.610541 0.744423
O O1 0.750000 0.111483 0.091106
O O2 0.991200 0.133860 0.146741
O O3 0.003511 0.184887 0.055976
O O4 0.977569 0.000000 0.080687
O O5 0.250000 0.712864 0.046647
O O6 0.017441 0.656148 0.099248
O O7 0.000000 0.668971 0.000000
O O8 0.250000 0.887964 0.692889
O O9 0.007490 0.863120 0.746791
O O10 0.998355 0.820016 0.653571
O O11 0.023118 0.000000 0.683032
O O12 0.500000 0.357984 0.500000
O O13 0.750000 0.388949 0.549890
O O14 0.519588 0.500000 0.558051
O O15 0.515741 0.334941 0.600135
O O16 0.750000 0.635514 0.140027
O O17 0.942570 0.500000 0.143907
O O18 0.980497 0.642622 0.200261
O O19 0.750000 0.717717 0.650748
O O20 0.508641 0.662016 0.698554
O O21 0.750000 0.149622 0.199940
O O22 0.586156 0.000000 0.201012
O O23 0.250000 0.622717 0.741714
O O24 0.035166 0.500000 0.741090
#
# Coordination Sequence:
#
# PCOD9407064 Si02
#       8
#     8   8   8   8   8   8   8   8
#     4   9  18  35  59  83 108 141 179 222 273 325
#     4  12  26  41  58  81 109 141 180 225 274 331
#     4   9  18  33  52  76 108 149 196 236 269 316
#     4   9  19  36  56  79 110 149 190 233 280 329
#     4   9  20  41  65  85 108 140 179 225 274 324
#     4  11  22  33  51  83 121 154 183 225 284 337
#     4   7  12  26  49  74  98 130 173 216 259 308
#     4   9  19  36  58  84 113 147 185 220 261 325
#
# _framework density 18.795271
#
# number of rings (size 3 to 8) (size 9 to 14) (size 15 to 20)
#    0.000    2.625    0.000    4.125    1.750    3.500 
#    0.000    2.500    0.000    2.625    0.000    0.000 
#    0.000    0.000    0.000    0.000    0.000    0.000 
#
# Total GULP energy -357086.646136 kJ/mol
# GULP energy per Si atom -5579.478846 kJ/mol
# Density = 1.875249 g / cm^3
# Si number density = 18.795271 Si / 1000 Ang^3
#
#
#
# Elastic Constant Matrix: (Units=GPa)
#
#
# Indices 1 2 3 4 5 6 
#
# 1 33.2962 27.9900 37.8776 0.0000 0.0000 0.0000
# 2 27.9900 71.0718 64.9555 0.0000 0.0000 0.0000
# 3 37.8776 64.9555 153.9616 0.0000 0.0000 0.0000
# 4 0.0000 0.0000 0.0000 30.7916 0.0000 0.0000
# 5 0.0000 0.0000 0.0000 0.0000 29.0745 0.0000
# 6 0.0000 0.0000 0.0000 0.0000 0.0000 16.9168
#
#
#
# Elastic Compliance Matrix: (Units=1/GPa)
#
#
# Indices 1 2 3 4 5 6 
#
# 1 0.048369 -0.013303 -0.006287 0.000000 0.000000 0.000000
# 2 -0.013303 0.026559 -0.007932 0.000000 0.000000 0.000000
# 3 -0.006287 -0.007932 0.011389 0.000000 0.000000 0.000000
# 4 0.000000 0.000000 0.000000 0.032476 0.000000 0.000000
# 5 0.000000 0.000000 0.000000 0.000000 0.034394 0.000000
# 6 0.000000 0.000000 0.000000 0.000000 0.000000 0.059113
#
#
# Mechanical properties :
#
#
# Convention : Reuss Voigt Hill
#
# Bulk Modulus (GPa) = 31.97800 57.77506 44.87653
# Shear Modulus (GPa) = 18.00065 23.85703 20.92884
#
# Velocity S-wave (km/s) = 3.09807 3.56660 3.34056
# Velocity P-wave (km/s) = 5.46335 6.91135 6.22956
#
# Compressibility (1/GPa) = 0.03127150
#
# Stress axis : x y z
#
# Youngs Moduli (GPa) = 20.67458 37.65221 87.80756
#
# Poissons Ratio (x) = 0.50087 0.55208
# Poissons Ratio (y) = 0.27502 0.69652
# Poissons Ratio (z) = 0.12999 0.29867
#
# Static dielectric constant tensor:
#      x y z
#    x 1.636000 0.000000 0.000000 
#    y 0.000000 1.673060 0.000000 
#    z 0.000000 0.000000 1.663900 
# 
# From -- ./inp_files/34845.got.cif
#   From: 2010.05.17/outbox.cif.g08.bks.cpg/sg51_18_cif.got.tgz:34845.got - 2010.06.03 11:52:47.
