data_PCOD9407408
_publ_section_title
;
Structure prediction by ZEFSAII (Michael W. Deem and Ramdas Pophale) SiO2 
 PCOD9407408
Probable space group: P M M A
;
_chemical_formula_sum "Si O2"
_cell_formula_units_Z 56
_cell_length_a 21.000000
_cell_length_b 15.000000
_cell_length_c 9.000000
_cell_angle_alpha 90.000000
_cell_angle_beta 90.000000
_cell_angle_gamma 90.000000
_cell_volume 2835.000000
_symmetry_space_group_name_H-M "P M M A"
_symmetry_group_IT_number 51
_symmetry_cell_setting 'orthorhombic'
loop_
_space_group_symop_operation_xyz
x,y,z
1/2-x,-y,z
1/2+x,-y,-z
-x,y,-z
-x,-y,-z
1/2+x,y,-z
1/2-x,y,z
x,-y,z
loop_
_atom_site_type_symbol
_atom_site_label
_atom_site_fract_x
_atom_site_fract_y
_atom_site_fract_z
Si Si1 0.026009 0.098835 0.830817
Si Si2 0.424427 0.701130 0.470968
Si Si3 0.397327 0.745929 0.950250
Si Si4 0.391216 0.601042 0.752682
Si Si5 0.956034 0.394883 0.823196
Si Si6 0.675107 0.098133 0.882259
Si Si7 0.593170 0.900644 0.604700
O O1 0.065402 0.190734 0.832023
O O2 0.968131 0.105207 0.714738
O O3 0.055427 0.000000 0.806372
O O4 0.000000 0.097890 0.000000
O O5 0.500000 0.701151 0.500000
O O6 0.387869 0.643114 0.591279
O O7 0.419593 0.644837 0.319095
O O8 0.405605 0.805580 0.475722
O O9 0.358531 0.671182 0.862128
O O10 0.438565 0.682972 0.059487
O O11 0.358644 0.819099 0.041017
O O12 0.369571 0.500000 0.763807
O O13 0.467905 0.602313 0.790749
O O14 0.939518 0.500000 0.859381
O O15 0.750000 0.103691 0.900704
O O16 0.654230 0.098925 0.711350
O O17 0.653376 0.000000 0.939086
O O18 0.589131 0.000000 0.532166
#
# Coordination Sequence:
#
# PCOD9407408 Si02
#       7
#     8   8   8   8   8   8   8
#     4  10  16  24  43  73 105 132 157 198 259 319
#     4  10  18  32  49  73 109 148 173 201 254 318
#     4  12  19  31  52  78 106 135 177 218 265 311
#     4  10  21  32  47  76 113 146 174 208 263 322
#     4  10  19  30  48  75 108 143 181 219 255 308
#     4  10  21  36  55  79 105 136 177 223 268 314
#     4  10  19  32  51  77 108 141 177 218 266 317
#
# _framework density 19.753086
#
# number of rings (size 3 to 8) (size 9 to 14) (size 15 to 20)
#    0.000    1.714    2.857    4.286    0.000    3.143 
#    0.000    1.429    0.000    2.571    0.000    2.000 
#    0.000    0.000    0.000    0.000    0.000    0.000 
#
# Total GULP energy -311880.212253 kJ/mol
# GULP energy per Si atom -5569.289505 kJ/mol
# Density = 1.970813 g / cm^3
# Si number density = 19.753086 Si / 1000 Ang^3
#
#
#
# Elastic Constant Matrix: (Units=GPa)
#
#
# Indices 1 2 3 4 5 6 
#
# 1 20.8524 20.2526 9.4008 0.0000 0.0000 0.0000
# 2 20.2526 221.9875 49.8975 0.0000 0.0000 0.0000
# 3 9.4008 49.8975 80.7224 0.0000 0.0000 0.0000
# 4 0.0000 0.0000 0.0000 27.2781 0.0000 0.0000
# 5 0.0000 0.0000 0.0000 0.0000 0.3485 0.0000
# 6 0.0000 0.0000 0.0000 0.0000 0.0000 10.7358
#
#
#
# Elastic Compliance Matrix: (Units=1/GPa)
#
#
# Indices 1 2 3 4 5 6 
#
# 1 0.053572 -0.004048 -0.003737 0.000000 0.000000 0.000000
# 2 -0.004048 0.005537 -0.002952 0.000000 0.000000 0.000000
# 3 -0.003737 -0.002952 0.014648 0.000000 0.000000 0.000000
# 4 0.000000 0.000000 0.000000 0.036659 0.000000 0.000000
# 5 0.000000 0.000000 0.000000 0.000000 2.869823 0.000000
# 6 0.000000 0.000000 0.000000 0.000000 0.000000 0.093147
#
#
# Mechanical properties :
#
#
# Convention : Reuss Voigt Hill
#
# Bulk Modulus (GPa) = 19.12590 53.62935 36.37762
# Shear Modulus (GPa) = 1.60654 23.93988 12.77321
#
# Velocity S-wave (km/s) = 0.90281 3.48509 2.54568
# Velocity P-wave (km/s) = 3.28486 6.58812 5.20546
#
# Compressibility (1/GPa) = 0.05228511
#
# Stress axis : x y z
#
# Youngs Moduli (GPa) = 18.66649 180.58800 68.26965
#
# Poissons Ratio (x) = 0.73094 0.25512
# Poissons Ratio (y) = 0.07555 0.20150
# Poissons Ratio (z) = 0.06976 0.53301
#
# Static dielectric constant tensor:
#      x y z
#    x 1.670980 0.000000 0.000000 
#    y 0.000000 1.714480 0.000000 
#    z 0.000000 0.000000 1.834110 
# 
# From -- ./inp_files/11003.got.cif
#   From: 2010.05.17/outbox.ucp.g08.bks.cvg/sg51_6_cif.got.tgz:11003.got - 2010.06.11 16:27:58.
