data_PCOD9407255
_publ_section_title
;
Structure prediction by ZEFSAII (Michael W. Deem and Ramdas Pophale) SiO2 
 PCOD9407255
Probable space group: P M M A
;
_chemical_formula_sum "Si O2"
_cell_formula_units_Z 36
_cell_length_a 7.221941
_cell_length_b 25.932276
_cell_length_c 7.315472
_cell_angle_alpha 90.000000
_cell_angle_beta 90.000000
_cell_angle_gamma 90.000000
_cell_volume 1370.051598
_symmetry_space_group_name_H-M "P M M A"
_symmetry_group_IT_number 51
_symmetry_cell_setting 'orthorhombic'
loop_
_space_group_symop_operation_xyz
x,y,z
1/2-x,-y,z
1/2+x,-y,-z
-x,y,-z
-x,-y,-z
1/2+x,y,-z
1/2-x,y,z
x,-y,z
loop_
_atom_site_type_symbol
_atom_site_label
_atom_site_fract_x
_atom_site_fract_y
_atom_site_fract_z
Si Si1 0.029578 0.944684 0.279769
Si Si2 0.529294 0.165904 0.720470
Si Si3 0.031102 0.724183 0.285540
Si Si4 0.968958 0.609985 0.785294
Si Si5 0.529054 0.500000 0.779298
O O1 0.250000 0.944550 0.249665
O O2 0.956745 0.889394 0.211312
O O3 0.000000 0.944846 0.500000
O O4 0.956647 0.000000 0.211946
O O5 0.500000 0.164791 0.500000
O O6 0.750000 0.166564 0.749048
O O7 0.457679 0.221259 0.791587
O O8 0.250000 0.722021 0.240671
O O9 0.954230 0.667039 0.250986
O O10 0.000000 0.730120 0.500000
O O11 0.750000 0.611830 0.740713
O O12 0.042101 0.555368 0.708136
O O13 0.000000 0.604659 0.000000
O O14 0.750000 0.500000 0.751858
O O15 0.500000 0.500000 0.000000
#
# Coordination Sequence:
#
# PCOD9407255 Si02
#       5
#     8   8   8   8   4
#     4   8  12  17  26  41  61  86 116 148 180 214
#     4   8  13  21  32  46  67  95 123 150 182 221
#     4   9  17  28  41  58  81 108 134 159 191 232
#     4   9  17  29  45  63  81 102 130 163 197 232
#     4   8  14  26  43  60  78 100 126 158 195 232
#
# _framework density 26.276382000000002
#
# number of rings (size 3 to 8) (size 9 to 14) (size 15 to 20)
#    0.000    3.556    0.000    0.000    0.000    0.889 
#    0.000    0.556    0.000    0.000    0.000    0.000 
#    0.000    0.889    0.000    0.667    0.000   13.333 
#
# Total GULP energy -200528.025210 kJ/mol
# GULP energy per Si atom -5570.222923 kJ/mol
# Density = 2.621658 g / cm^3
# Si number density = 26.276382 Si / 1000 Ang^3
#
#
#
# Elastic Constant Matrix: (Units=GPa)
#
#
# Indices 1 2 3 4 5 6 
#
# 1 148.6220 29.8843 -19.4453 0.0000 0.0000 0.0000
# 2 29.8843 441.0913 17.1678 0.0000 0.0000 0.0000
# 3 -19.4453 17.1678 70.1375 0.0000 0.0000 0.0000
# 4 0.0000 0.0000 0.0000 24.0392 0.0000 0.0000
# 5 0.0000 0.0000 0.0000 0.0000 0.8376 0.0000
# 6 0.0000 0.0000 0.0000 0.0000 0.0000 5.8560
#
#
#
# Elastic Compliance Matrix: (Units=1/GPa)
#
#
# Indices 1 2 3 4 5 6 
#
# 1 0.007118 -0.000564 0.002112 0.000000 0.000000 0.000000
# 2 -0.000564 0.002334 -0.000728 0.000000 0.000000 0.000000
# 3 0.002112 -0.000728 0.015021 0.000000 0.000000 0.000000
# 4 0.000000 0.000000 0.000000 0.041599 0.000000 0.000000
# 5 0.000000 0.000000 0.000000 0.000000 1.193874 0.000000
# 6 0.000000 0.000000 0.000000 0.000000 0.000000 0.170766
#
#
# Mechanical properties :
#
#
# Convention : Reuss Voigt Hill
#
# Bulk Modulus (GPa) = 38.29629 79.45161 58.87395
# Shear Modulus (GPa) = 3.47759 48.29617 25.88688
#
# Velocity S-wave (km/s) = 1.15167 4.29185 3.14216
# Velocity P-wave (km/s) = 4.04654 7.40692 5.96812
#
# Compressibility (1/GPa) = 0.02611219
#
# Stress axis : x y z
#
# Youngs Moduli (GPa) = 140.48374 428.50958 66.57226
#
# Poissons Ratio (x) = 0.24187 -0.14058
# Poissons Ratio (y) = 0.07930 0.04845
# Poissons Ratio (z) = -0.29665 0.31183
#
# Static dielectric constant tensor:
#      x y z
#    x 1.954700 0.000000 0.000000 
#    y 0.000000 2.234070 0.000000 
#    z 0.000000 0.000000 2.036800 
# 
# From -- ./inp_files/6939.got.cif
#   From: 2010.05.17/outbox.cif.g08.bks.cpg/sg51_4_cif.got.tgz:6939.got - 2010.06.03 11:52:47.
