data_PCOD9407585
_publ_section_title
;
Structure prediction by ZEFSAII (Michael W. Deem and Ramdas Pophale) SiO2 
 PCOD9407585
Probable space group: P M M A
;
_chemical_formula_sum "Si O2"
_cell_formula_units_Z 64
_cell_length_a 30.000000
_cell_length_b 9.000000
_cell_length_c 15.000000
_cell_angle_alpha 90.000000
_cell_angle_beta 90.000000
_cell_angle_gamma 90.000000
_cell_volume 4050.000000
_symmetry_space_group_name_H-M "P M M A"
_symmetry_group_IT_number 51
_symmetry_cell_setting 'orthorhombic'
loop_
_space_group_symop_operation_xyz
x,y,z
1/2-x,-y,z
1/2+x,-y,-z
-x,y,-z
-x,-y,-z
1/2+x,y,-z
1/2-x,y,z
x,-y,z
loop_
_atom_site_type_symbol
_atom_site_label
_atom_site_fract_x
_atom_site_fract_y
_atom_site_fract_z
Si Si1 0.029646 0.679228 0.876661
Si Si2 0.699764 0.322999 0.517769
Si Si3 0.561685 0.821621 0.951246
Si Si4 0.698290 0.826080 0.710693
Si Si5 0.895201 0.323449 0.449765
Si Si6 0.553526 0.324991 0.635571
Si Si7 0.617972 0.324187 0.805102
Si Si8 0.537647 0.823381 0.315320
O O1 0.027758 0.500000 0.880865
O O2 0.040573 0.736870 0.778429
O O3 0.981839 0.749297 0.903945
O O4 0.062466 0.747376 0.951179
O O5 0.750000 0.295770 0.482487
O O6 0.696505 0.500000 0.538193
O O7 0.694885 0.233420 0.609569
O O8 0.657367 0.287942 0.456411
O O9 0.602156 0.770577 0.889391
O O10 0.557370 0.000000 0.956372
O O11 0.750000 0.811330 0.737056
O O12 0.665668 0.729413 0.770773
O O13 0.685932 0.000000 0.714174
O O14 0.900082 0.500000 0.430326
O O15 0.917290 0.298375 0.547224
O O16 0.922358 0.228619 0.378768
O O17 0.540788 0.500000 0.635859
O O18 0.583632 0.297826 0.722913
O O19 0.509054 0.227896 0.640224
O O20 0.617017 0.500000 0.824499
O O21 0.537652 0.000000 0.301288
#
# Coordination Sequence:
#
# PCOD9407585 Si02
#       8
#     8   8   8   8   8   8   8   8
#     4  11  21  36  54  73  99 134 171 209 249 299
#     4   9  17  32  53  74  97 129 171 214 257 307
#     4  11  21  34  53  78 104 130 163 209 255 301
#     4  10  20  32  48  73 105 137 169 212 262 305
#     4  10  20  35  51  71  99 136 174 212 256 305
#     4  10  20  34  50  70 100 138 176 212 249 299
#     4  11  20  33  53  76 102 138 176 210 251 306
#     4  12  24  35  49  72 101 137 176 218 258 299
#
# _framework density 15.802469
#
# number of rings (size 3 to 8) (size 9 to 14) (size 15 to 20)
#    0.000    1.500    2.500    5.250    0.000    3.750 
#    0.000    0.000    0.000    0.000    0.000    0.875 
#    0.000    5.000    0.000    0.000    0.000    0.000 
#
# Total GULP energy -357339.409976 kJ/mol
# GULP energy per Si atom -5583.428281 kJ/mol
# Density = 1.576650 g / cm^3
# Si number density = 15.802469 Si / 1000 Ang^3
#
#
#
# Elastic Constant Matrix: (Units=GPa)
#
#
# Indices 1 2 3 4 5 6 
#
# 1 82.7296 45.9502 32.7305 0.0000 0.0000 0.0000
# 2 45.9502 107.4605 36.1399 0.0000 0.0000 0.0000
# 3 32.7305 36.1399 59.9028 0.0000 0.0000 0.0000
# 4 0.0000 0.0000 0.0000 23.2871 0.0000 0.0000
# 5 0.0000 0.0000 0.0000 0.0000 20.4205 0.0000
# 6 0.0000 0.0000 0.0000 0.0000 0.0000 21.4063
#
#
#
# Elastic Compliance Matrix: (Units=1/GPa)
#
#
# Indices 1 2 3 4 5 6 
#
# 1 0.017596 -0.005383 -0.006367 0.000000 0.000000 0.000000
# 2 -0.005383 0.013321 -0.005096 0.000000 0.000000 0.000000
# 3 -0.006367 -0.005096 0.023247 0.000000 0.000000 0.000000
# 4 0.000000 0.000000 0.000000 0.042942 0.000000 0.000000
# 5 0.000000 0.000000 0.000000 0.000000 0.048970 0.000000
# 6 0.000000 0.000000 0.000000 0.000000 0.000000 0.046715
#
#
# Mechanical properties :
#
#
# Convention : Reuss Voigt Hill
#
# Bulk Modulus (GPa) = 48.84395 53.30378 51.07387
# Shear Modulus (GPa) = 21.43093 22.04094 21.73594
#
# Velocity S-wave (km/s) = 3.68662 3.73872 3.71277
# Velocity P-wave (km/s) = 7.00698 7.24168 7.12530
#
# Compressibility (1/GPa) = 0.02047336
#
# Stress axis : x y z
#
# Youngs Moduli (GPa) = 56.82983 75.06839 43.01667
#
# Poissons Ratio (x) = 0.40409 0.27389
# Poissons Ratio (y) = 0.30591 0.21919
# Poissons Ratio (z) = 0.36183 0.38252
#
# Static dielectric constant tensor:
#      x y z
#    x 1.537260 0.000000 0.000000 
#    y 0.000000 1.525300 0.000000 
#    z 0.000000 0.000000 1.522920 
# 
# From -- ./inp_files/26641.got.cif
#   From: 2010.05.17/outbox.ucp.g08.bks.cvg/sg51_14_cif.got.tgz:26641.got - 2010.06.11 16:27:58.
