data_PCOD9407906
_publ_section_title
;
Structure prediction by ZEFSAII (Michael W. Deem and Ramdas Pophale) SiO2 
 PCOD9407906
Probable space group: P N N A
;
_chemical_formula_sum "Si O2"
_cell_formula_units_Z 32
_cell_length_a 7.963909
_cell_length_b 18.766133
_cell_length_c 9.402863
_cell_angle_alpha 90.000000
_cell_angle_beta 90.000000
_cell_angle_gamma 90.000000
_cell_volume 1405.274570
_symmetry_space_group_name_H-M "P N N A"
_symmetry_group_IT_number 52
_symmetry_cell_setting 'orthorhombic'
loop_
_space_group_symop_operation_xyz
x,y,z
1/2-x,-y,z
x,1/2-y,1/2-z
1/2-x,1/2+y,1/2-z
-x,-y,-z
1/2+x,y,-z
-x,1/2+y,1/2+z
1/2+x,1/2-y,1/2+z
loop_
_atom_site_type_symbol
_atom_site_label
_atom_site_fract_x
_atom_site_fract_y
_atom_site_fract_z
Si Si1 0.652406 0.426272 0.467639
Si Si2 0.733361 0.832643 0.270344
Si Si3 0.908312 0.590986 0.801037
Si Si4 0.965901 0.071160 0.691229
O O1 0.750000 0.500000 0.443257
O O2 0.757422 0.365089 0.389042
O O3 0.612314 0.412805 0.629893
O O4 0.488922 0.429175 0.364012
O O5 0.767778 0.750000 0.250000
O O6 0.550905 0.851430 0.332739
O O7 0.878891 0.878311 0.350761
O O8 0.973475 0.512448 0.846985
O O9 0.716498 0.599646 0.850771
#
# Coordination Sequence:
#
# PCOD9407906 Si02
#       4
#     8   8   8   8
#     4  10  16  29  48  71  94 113 159 192 221 261
#     4  10  21  29  37  63 105 131 138 171 236 291
#     4  11  16  28  49  69  85 117 158 194 218 259
#     4   9  18  25  45  66  89 111 156 188 217 259
#
# _framework density 22.771349000000001
#
# number of rings (size 3 to 8) (size 9 to 14) (size 15 to 20)
#    1.500    0.500    5.000    3.000    0.000    1.000 
#    0.000    0.000    0.000    0.000    0.000    0.000 
#    0.000   18.000    0.000    0.000    0.000    0.000 
#
# Total GULP energy -178494.267144 kJ/mol
# GULP energy per Si atom -5577.945848 kJ/mol
# Density = 2.271952 g / cm^3
# Si number density = 22.771349 Si / 1000 Ang^3
#
#
#
# Elastic Constant Matrix: (Units=GPa)
#
#
# Indices 1 2 3 4 5 6 
#
# 1 146.9556 54.8257 4.2567 0.0000 0.0000 0.0000
# 2 54.8257 103.5608 -0.6290 0.0000 0.0000 0.0000
# 3 4.2567 -0.6290 94.6593 0.0000 0.0000 0.0000
# 4 0.0000 0.0000 0.0000 0.5068 0.0000 0.0000
# 5 0.0000 0.0000 0.0000 0.0000 21.8053 0.0000
# 6 0.0000 0.0000 0.0000 0.0000 0.0000 15.9892
#
#
#
# Elastic Compliance Matrix: (Units=1/GPa)
#
#
# Indices 1 2 3 4 5 6 
#
# 1 0.008496 -0.004500 -0.000412 0.000000 0.000000 0.000000
# 2 -0.004500 0.012040 0.000282 0.000000 0.000000 0.000000
# 3 -0.000412 0.000282 0.010585 0.000000 0.000000 0.000000
# 4 0.000000 0.000000 0.000000 1.973258 0.000000 0.000000
# 5 0.000000 0.000000 0.000000 0.000000 0.045861 0.000000
# 6 0.000000 0.000000 0.000000 0.000000 0.000000 0.062542
#
#
# Mechanical properties :
#
#
# Convention : Reuss Voigt Hill
#
# Bulk Modulus (GPa) = 45.74335 51.34247 48.54291
# Shear Modulus (GPa) = 2.34816 26.77507 14.56161
#
# Velocity S-wave (km/s) = 1.01658 3.43275 2.53152
# Velocity P-wave (km/s) = 4.63785 6.18931 5.46888
#
# Compressibility (1/GPa) = 0.02186110
#
# Stress axis : x y z
#
# Youngs Moduli (GPa) = 117.70803 83.05465 94.47686
#
# Poissons Ratio (x) = 0.37376 0.03892
# Poissons Ratio (y) = 0.52970 -0.02668
# Poissons Ratio (z) = 0.04849 -0.02345
#
# Static dielectric constant tensor:
#      x y z
#    x 1.934440 0.000000 0.000000 
#    y 0.000000 1.779230 0.000000 
#    z 0.000000 0.000000 1.947690 
# 
# From -- ./inp_files/30991.got.cif
#   From: 2010.05.17/outbox.cif.g08.bks.cpg/sg52_16_cif.got.tgz:30991.got - 2010.06.03 12:15:38.
