data_PCOD9407111
_publ_section_title
;
Structure prediction by ZEFSAII (Michael W. Deem and Ramdas Pophale) SiO2 
 PCOD9407111
Probable space group: P M M A
;
_chemical_formula_sum "Si O2"
_cell_formula_units_Z 58
_cell_length_a 23.881147
_cell_length_b 7.915088
_cell_length_c 15.529769
_cell_angle_alpha 90.000000
_cell_angle_beta 90.000000
_cell_angle_gamma 90.000000
_cell_volume 2935.458368
_symmetry_space_group_name_H-M "P M M A"
_symmetry_group_IT_number 51
_symmetry_cell_setting 'orthorhombic'
loop_
_space_group_symop_operation_xyz
x,y,z
1/2-x,-y,z
1/2+x,-y,-z
-x,y,-z
-x,-y,-z
1/2+x,y,-z
1/2-x,y,z
x,-y,z
loop_
_atom_site_type_symbol
_atom_site_label
_atom_site_fract_x
_atom_site_fract_y
_atom_site_fract_z
Si Si1 0.478041 0.699945 0.092214
Si Si2 0.837819 0.696950 0.336632
Si Si3 0.312788 0.304989 0.927841
Si Si4 0.182897 0.307535 0.289130
Si Si5 0.352658 0.811792 0.105131
Si Si6 0.314322 0.295881 0.473487
Si Si7 0.250000 0.000000 0.702941
Si Si8 0.586386 0.803037 0.193556
O O1 0.467349 0.500000 0.085779
O O2 0.419005 0.784663 0.110821
O O3 0.528216 0.732719 0.157689
O O4 0.500000 0.762050 0.000000
O O5 0.816731 0.500000 0.332388
O O6 0.845785 0.737878 0.437844
O O7 0.892566 0.708612 0.278372
O O8 0.798010 0.846745 0.301380
O O9 0.250000 0.234560 0.911452
O O10 0.312603 0.500000 0.899296
O O11 0.325892 0.300631 0.029838
O O12 0.364056 0.219724 0.877609
O O13 0.250000 0.314212 0.298521
O O14 0.161626 0.500000 0.279283
O O15 0.170042 0.215991 0.200679
O O16 0.163358 0.233561 0.381202
O O17 0.339573 0.000000 0.075763
O O18 0.250000 0.235677 0.487265
O O19 0.311966 0.500000 0.463899
O O20 0.579493 0.000000 0.210817
#
# Coordination Sequence:
#
# PCOD9407111 Si02
#       8
#     8   8   8   8   8   8   2   8
#     4  11  23  42  67  85 105 148 204 250 294 354
#     4  11  22  38  58  86 127 163 203 250 300 358
#     4  11  24  39  57  81 115 158 196 234 288 355
#     4   9  18  35  59  86 119 158 200 240 290 357
#     4  12  24  38  57  86 117 151 191 248 305 350
#     4   8  15  31  56  83 114 158 200 239 287 350
#     4  12  22  36  56  94 118 168 210 244 300 362
#     4  12  25  40  59  90 120 152 195 245 303 358
#
# _framework density 19.758413999999998
#
# number of rings (size 3 to 8) (size 9 to 14) (size 15 to 20)
#    0.000    1.379    2.759    4.759    0.966    3.586 
#    1.241    0.000    0.000    0.828    0.000    5.793 
#    0.000    0.000    0.000    0.000    0.000    0.000 
#
# Total GULP energy -323212.697390 kJ/mol
# GULP energy per Si atom -5572.632714 kJ/mol
# Density = 1.971344 g / cm^3
# Si number density = 19.758414 Si / 1000 Ang^3
#
#
#
# Elastic Constant Matrix: (Units=GPa)
#
#
# Indices 1 2 3 4 5 6 
#
# 1 36.1481 -6.2473 5.9381 0.0000 0.0000 0.0000
# 2 -6.2473 69.4900 -8.8802 0.0000 0.0000 0.0000
# 3 5.9381 -8.8802 100.2316 0.0000 0.0000 0.0000
# 4 0.0000 0.0000 0.0000 -284.8375 0.0000 0.0000
# 5 0.0000 0.0000 0.0000 0.0000 9.1110 0.0000
# 6 0.0000 0.0000 0.0000 0.0000 0.0000 17.2319
#
#
#
# Elastic Compliance Matrix: (Units=1/GPa)
#
#
# Indices 1 2 3 4 5 6 
#
# 1 0.028313 0.002358 -0.001468 0.000000 0.000000 0.000000
# 2 0.002358 0.014752 0.001167 0.000000 0.000000 0.000000
# 3 -0.001468 0.001167 0.010167 0.000000 0.000000 0.000000
# 4 0.000000 0.000000 0.000000 -0.003511 0.000000 0.000000
# 5 0.000000 0.000000 0.000000 0.000000 0.109758 0.000000
# 6 0.000000 0.000000 0.000000 0.000000 0.000000 0.058032
#
#
# Mechanical properties :
#
#
# Convention : Reuss Voigt Hill
#
# Bulk Modulus (GPa) = 17.43843 20.83235 19.13539
# Shear Modulus (GPa) = 21.50426 -37.36164 -7.92869
#
# Velocity S-wave (km/s) = 3.30261 -4.35319 -2.00537
# Velocity P-wave (km/s) = 4.83611 3.83414 2.08415
#
# Compressibility (1/GPa) = 0.05734462
#
# Stress axis : x y z
#
# Youngs Moduli (GPa) = 35.31991 67.78884 98.35448
#
# Poissons Ratio (x) = -0.15983 0.14443
# Poissons Ratio (y) = -0.08327 -0.11481
# Poissons Ratio (z) = 0.05187 -0.07913
#
# Static dielectric constant tensor:
#      x y z
#    x 1.651350 0.000000 0.000000 
#    y 0.000000 1.710470 0.000000 
#    z 0.000000 0.000000 1.736700 
# 
# From -- ./inp_files/26111.got.cif
#   From: 2010.05.17/outbox.cif.g08.bks.cpg/sg51_14_cif.got.tgz:26111.got - 2010.06.03 11:52:47.
