data_PCOD9407750
_publ_section_title
;
Structure prediction by ZEFSAII (Michael W. Deem and Ramdas Pophale) SiO2 
 PCOD9407750
Probable space group: P M M A
;
_chemical_formula_sum "Si O2"
_cell_formula_units_Z 48
_cell_length_a 9.000000
_cell_length_b 9.000000
_cell_length_c 30.000000
_cell_angle_alpha 90.000000
_cell_angle_beta 90.000000
_cell_angle_gamma 90.000000
_cell_volume 2430.000000
_symmetry_space_group_name_H-M "P M M A"
_symmetry_group_IT_number 51
_symmetry_cell_setting 'orthorhombic'
loop_
_space_group_symop_operation_xyz
x,y,z
1/2-x,-y,z
1/2+x,-y,-z
-x,y,-z
-x,-y,-z
1/2+x,y,-z
1/2-x,y,z
x,-y,z
loop_
_atom_site_type_symbol
_atom_site_label
_atom_site_fract_x
_atom_site_fract_y
_atom_site_fract_z
Si Si1 0.928148 0.666600 0.547667
Si Si2 0.583538 0.822160 0.777613
Si Si3 0.083590 0.678336 0.956695
Si Si4 0.572469 0.161490 0.630126
Si Si5 0.426822 0.169949 0.122899
Si Si6 0.083218 0.669639 0.702830
O O1 0.750000 0.674513 0.543845
O O2 0.964746 0.500000 0.564422
O O3 0.980616 0.791417 0.581575
O O4 0.000000 0.684294 0.500000
O O5 0.750000 0.769730 0.764596
O O6 0.547929 0.772557 0.827354
O O7 0.461140 0.770217 0.743879
O O8 0.590407 0.000000 0.778707
O O9 0.250000 0.735458 0.956194
O O10 0.086918 0.500000 0.959053
O O11 0.000180 0.727782 0.913066
O O12 0.000000 0.736053 0.000000
O O13 0.750000 0.155134 0.629165
O O14 0.525663 0.288120 0.663534
O O15 0.516037 0.000000 0.644511
O O16 0.250000 0.166392 0.116606
O O17 0.481554 0.000000 0.119205
O O18 0.250000 0.697016 0.687409
O O19 0.068211 0.500000 0.716362
#
# Coordination Sequence:
#
# PCOD9407750 Si02
#       6
#     8   8   8   8   8   8
#     4   9  18  33  53  77 106 140 176 215 260 310
#     4   9  19  37  59  81 106 138 176 216 260 314
#     4  10  21  36  54  77 106 141 180 221 265 313
#     4  10  21  37  57  80 106 139 180 222 264 314
#     4   9  19  36  57  81 108 138 174 216 262 314
#     4  11  24  38  53  78 110 141 176 219 265 314
#
# _framework density 19.753086
#
# number of rings (size 3 to 8) (size 9 to 14) (size 15 to 20)
#    0.000    2.333    0.000    3.000    0.000    8.667 
#    0.000    6.667    0.000    0.000    0.000    0.000 
#    0.000    0.000    0.000    0.000    0.000    0.000 
#
# Total GULP energy -267446.516309 kJ/mol
# GULP energy per Si atom -5571.802423 kJ/mol
# Density = 1.970813 g / cm^3
# Si number density = 19.753086 Si / 1000 Ang^3
#
#
#
# Elastic Constant Matrix: (Units=GPa)
#
#
# Indices 1 2 3 4 5 6 
#
# 1 -85.9904 -10.4458 81.9819 0.0000 0.0000 0.0000
# 2 -10.4458 -12.5859 44.2175 0.0000 0.0000 0.0000
# 3 81.9819 44.2175 35.7616 0.0000 0.0000 0.0000
# 4 0.0000 0.0000 0.0000 33.1797 0.0000 0.0000
# 5 0.0000 0.0000 0.0000 0.0000 10.7347 0.0000
# 6 0.0000 0.0000 0.0000 0.0000 0.0000 -7.3080
#
#
#
# Elastic Compliance Matrix: (Units=1/GPa)
#
#
# Indices 1 2 3 4 5 6 
#
# 1 -0.011357 0.018880 0.002691 0.000000 0.000000 0.000000
# 2 0.018880 -0.046255 0.013910 0.000000 0.000000 0.000000
# 3 0.002691 0.013910 0.004595 0.000000 0.000000 0.000000
# 4 0.000000 0.000000 0.000000 0.030139 0.000000 0.000000
# 5 0.000000 0.000000 0.000000 0.000000 0.093156 0.000000
# 6 0.000000 0.000000 0.000000 0.000000 0.000000 -0.136835
#
#
# Mechanical properties :
#
#
# Convention : Reuss Voigt Hill
#
# Bulk Modulus (GPa) = 55.72502 18.74360 37.23431
# Shear Modulus (GPa) = -38.01174 -4.58330 -21.29752
#
# Velocity S-wave (km/s) = -4.39149 -1.52490 -3.28714
# Velocity P-wave (km/s) = 1.59950 2.53162 2.11749
#
# Compressibility (1/GPa) = 0.01794526
#
# Stress axis : x y z
#
# Youngs Moduli (GPa) = -88.05067 -21.61926 217.62911
#
# Poissons Ratio (x) = 0.40818 -0.58565
# Poissons Ratio (y) = 1.66242 -3.02719
# Poissons Ratio (z) = 0.23695 0.30072
#
# Static dielectric constant tensor:
#      x y z
#    x 1.709540 0.000000 0.000000 
#    y 0.000000 1.702470 0.000000 
#    z 0.000000 0.000000 1.675600 
# 
# From -- ./inp_files/37008.got.cif
#   From: 2010.05.17/outbox.ucp.g08.bks.cvg/sg51_19_cif.got.tgz:37008.got - 2010.06.11 16:27:58.
