data_PCOD9407331
_publ_section_title
;
Structure prediction by ZEFSAII (Michael W. Deem and Ramdas Pophale) SiO2 
 PCOD9407331
Probable space group: P M M A
;
_chemical_formula_sum "Si O2"
_cell_formula_units_Z 40
_cell_length_a 14.297002
_cell_length_b 15.777151
_cell_length_c 7.484137
_cell_angle_alpha 90.000000
_cell_angle_beta 90.000000
_cell_angle_gamma 90.000000
_cell_volume 1688.166543
_symmetry_space_group_name_H-M "P M M A"
_symmetry_group_IT_number 51
_symmetry_cell_setting 'orthorhombic'
loop_
_space_group_symop_operation_xyz
x,y,z
1/2-x,-y,z
1/2+x,-y,-z
-x,y,-z
-x,-y,-z
1/2+x,y,-z
1/2-x,y,z
x,-y,z
loop_
_atom_site_type_symbol
_atom_site_label
_atom_site_fract_x
_atom_site_fract_y
_atom_site_fract_z
Si Si1 0.109358 0.590465 0.043284
Si Si2 0.355301 0.408093 0.627025
Si Si3 0.635415 0.096618 0.612637
Si Si4 0.860613 0.774341 0.911801
Si Si5 0.865005 0.772864 0.317980
O O1 0.134789 0.500000 0.128022
O O2 0.152545 0.593772 0.844690
O O3 0.130482 0.676250 0.147285
O O4 0.000000 0.590004 0.000000
O O5 0.250000 0.408585 0.553112
O O6 0.399172 0.500000 0.583802
O O7 0.397975 0.315674 0.593155
O O8 0.750000 0.095165 0.616219
O O9 0.603109 0.156315 0.774926
O O10 0.609072 0.145622 0.432209
O O11 0.603350 0.000000 0.623367
O O12 0.750000 0.790814 0.926876
O O13 0.898615 0.778181 0.113700
O O14 0.750000 0.768033 0.316699
#
# Coordination Sequence:
#
# PCOD9407331 Si02
#       5
#     8   8   8   8   8
#     4   9  16  26  43  67  93 121 151 182 219 264
#     4   8  13  23  41  63  86 113 144 178 217 261
#     4   9  17  28  43  66  93 116 144 187 230 265
#     4   9  17  29  46  68  92 119 151 184 221 266
#     4   8  14  25  41  62  88 116 144 176 217 260
#
# _framework density 23.694344999999998
#
# number of rings (size 3 to 8) (size 9 to 14) (size 15 to 20)
#    0.000    3.400    0.000    1.800    0.000    2.000 
#    0.000    5.000    0.000    9.000    0.000   18.200 
#    0.000    0.000    0.000    0.000    0.000    0.000 
#
# Total GULP energy -223200.534068 kJ/mol
# GULP energy per Si atom -5580.013352 kJ/mol
# Density = 2.364042 g / cm^3
# Si number density = 23.694345 Si / 1000 Ang^3
#
#
#
# Elastic Constant Matrix: (Units=GPa)
#
#
# Indices 1 2 3 4 5 6 
#
# 1 69.1921 -5.4529 9.2735 0.0000 0.0000 0.0000
# 2 -5.4529 268.9760 89.1565 0.0000 0.0000 0.0000
# 3 9.2735 89.1565 92.7938 0.0000 0.0000 0.0000
# 4 0.0000 0.0000 0.0000 25.4323 0.0000 0.0000
# 5 0.0000 0.0000 0.0000 0.0000 5.3733 0.0000
# 6 0.0000 0.0000 0.0000 0.0000 0.0000 15.8625
#
#
#
# Elastic Compliance Matrix: (Units=1/GPa)
#
#
# Indices 1 2 3 4 5 6 
#
# 1 0.014894 0.001167 -0.002610 0.000000 0.000000 0.000000
# 2 0.001167 0.005547 -0.005446 0.000000 0.000000 0.000000
# 3 -0.002610 -0.005446 0.016270 0.000000 0.000000 0.000000
# 4 0.000000 0.000000 0.000000 0.039320 0.000000 0.000000
# 5 0.000000 0.000000 0.000000 0.000000 0.186106 0.000000
# 6 0.000000 0.000000 0.000000 0.000000 0.000000 0.063042
#
#
# Mechanical properties :
#
#
# Convention : Reuss Voigt Hill
#
# Bulk Modulus (GPa) = 43.60437 68.54625 56.07531
# Shear Modulus (GPa) = 14.42585 31.86593 23.14589
#
# Velocity S-wave (km/s) = 2.47013 3.67123 3.12886
# Velocity P-wave (km/s) = 5.15540 6.85294 6.06387
#
# Compressibility (1/GPa) = 0.02293348
#
# Stress axis : x y z
#
# Youngs Moduli (GPa) = 67.13999 180.29220 61.46396
#
# Poissons Ratio (x) = -0.21040 0.16040
# Poissons Ratio (y) = -0.07835 0.33472
# Poissons Ratio (z) = 0.17522 0.98183
#
# Static dielectric constant tensor:
#      x y z
#    x 1.949300 0.000000 0.000000 
#    y 0.000000 1.895290 0.000000 
#    z 0.000000 0.000000 1.886920 
# 
# From -- ./inp_files/9427.got.cif
#   From: 2010.05.17/outbox.cif.g08.bks.cpg/sg51_5_cif.got.tgz:9427.got - 2010.06.03 11:52:47.
