data_PCOD9407042
_publ_section_title
;
Structure prediction by ZEFSAII (Michael W. Deem and Ramdas Pophale) SiO2 
 PCOD9407042
Probable space group: P M M A
;
_chemical_formula_sum "Si O2"
_cell_formula_units_Z 48
_cell_length_a 19.480705
_cell_length_b 8.582400
_cell_length_c 15.402862
_cell_angle_alpha 90.000000
_cell_angle_beta 90.000000
_cell_angle_gamma 90.000000
_cell_volume 2575.223021
_symmetry_space_group_name_H-M "P M M A"
_symmetry_group_IT_number 51
_symmetry_cell_setting 'orthorhombic'
loop_
_space_group_symop_operation_xyz
x,y,z
1/2-x,-y,z
1/2+x,-y,-z
-x,y,-z
-x,-y,-z
1/2+x,y,-z
1/2-x,y,z
x,-y,z
loop_
_atom_site_type_symbol
_atom_site_label
_atom_site_fract_x
_atom_site_fract_y
_atom_site_fract_z
Si Si1 0.171540 0.310269 0.435162
Si Si2 0.081505 0.313551 0.272748
Si Si3 0.933278 0.183627 0.225012
Si Si4 0.923964 0.314426 0.033936
Si Si5 0.330153 0.814477 0.114525
Si Si6 0.168986 0.313189 0.632754
O O1 0.250000 0.259569 0.416731
O O2 0.172462 0.500000 0.434317
O O3 0.119109 0.260225 0.360970
O O4 0.153032 0.264497 0.533439
O O5 0.072198 0.500000 0.276077
O O6 0.130353 0.271216 0.192227
O O7 0.008159 0.235724 0.257846
O O8 0.918498 0.269488 0.134319
O O9 0.877717 0.229817 0.297080
O O10 0.932759 0.000000 0.209273
O O11 0.917242 0.500000 0.023261
O O12 0.867679 0.231482 0.974506
O O13 0.000000 0.269344 0.000000
O O14 0.250000 0.771810 0.113110
O O15 0.335720 0.000000 0.127697
O O16 0.250000 0.284490 0.646715
O O17 0.158132 0.500000 0.638889
#
# Coordination Sequence:
#
# PCOD9407042 Si02
#       6
#     8   8   8   8   8   8
#     4   8  16  33  59  88 116 151 196 247 297 339
#     4  11  21  36  60  89 120 156 201 246 289 343
#     4  12  25  39  59  86 121 159 193 238 299 360
#     4  11  23  41  65  88 111 150 201 246 289 344
#     4  11  24  40  60  90 125 158 192 235 293 357
#     4   9  19  39  64  87 114 151 199 250 294 344
#
# _framework density 18.639161999999999
#
# number of rings (size 3 to 8) (size 9 to 14) (size 15 to 20)
#    0.000    1.667    1.667    4.500    0.000    4.333 
#    0.000    5.000    0.000    2.000    0.000    0.000 
#    0.000    0.000    0.000    0.000    0.000    0.000 
#
# Total GULP energy -268234.466105 kJ/mol
# GULP energy per Si atom -5588.218044 kJ/mol
# Density = 1.859674 g / cm^3
# Si number density = 18.639162 Si / 1000 Ang^3
#
#
#
# Elastic Constant Matrix: (Units=GPa)
#
#
# Indices 1 2 3 4 5 6 
#
# 1 61.6780 9.5954 30.5139 0.0000 0.0000 0.0000
# 2 9.5954 18.0375 -10.3856 0.0000 0.0000 0.0000
# 3 30.5139 -10.3856 92.7019 0.0000 0.0000 0.0000
# 4 0.0000 0.0000 0.0000 -34.2376 0.0000 0.0000
# 5 0.0000 0.0000 0.0000 0.0000 61.0324 0.0000
# 6 0.0000 0.0000 0.0000 0.0000 0.0000 24.7692
#
#
#
# Elastic Compliance Matrix: (Units=1/GPa)
#
#
# Indices 1 2 3 4 5 6 
#
# 1 0.024040 -0.018541 -0.009990 0.000000 0.000000 0.000000
# 2 -0.018541 0.073562 0.014344 0.000000 0.000000 0.000000
# 3 -0.009990 0.014344 0.015683 0.000000 0.000000 0.000000
# 4 0.000000 0.000000 0.000000 -0.029208 0.000000 0.000000
# 5 0.000000 0.000000 0.000000 0.000000 0.016385 0.000000
# 6 0.000000 0.000000 0.000000 0.000000 0.000000 0.040373
#
#
# Mechanical properties :
#
#
# Convention : Reuss Voigt Hill
#
# Bulk Modulus (GPa) = 11.77696 25.76275 18.76985
# Shear Modulus (GPa) = 25.31491 19.82572 22.57032
#
# Velocity S-wave (km/s) = 3.68932 3.26492 3.48359
# Velocity P-wave (km/s) = 4.94775 5.29762 5.12567
#
# Compressibility (1/GPa) = 0.08491159
#
# Stress axis : x y z
#
# Youngs Moduli (GPa) = 41.59719 13.59392 63.76470
#
# Poissons Ratio (x) = 0.25204 0.63702
# Poissons Ratio (y) = 0.77124 -0.91465
# Poissons Ratio (z) = 0.41556 -0.19499
#
# Static dielectric constant tensor:
#      x y z
#    x 1.615850 0.000000 0.000000 
#    y 0.000000 1.627860 0.000000 
#    z 0.000000 0.000000 1.625670 
# 
# From -- ./inp_files/24687.got.cif
#   From: 2010.05.17/outbox.cif.g08.bks.cpg/sg51_13_cif.got.tgz:24687.got - 2010.06.03 11:52:47.
