data_PCOD9407563
_publ_section_title
;
Structure prediction by ZEFSAII (Michael W. Deem and Ramdas Pophale) SiO2 
 PCOD9407563
Probable space group: P M M A
;
_chemical_formula_sum "Si O2"
_cell_formula_units_Z 64
_cell_length_a 21.000000
_cell_length_b 9.000000
_cell_length_c 18.000000
_cell_angle_alpha 90.000000
_cell_angle_beta 90.000000
_cell_angle_gamma 90.000000
_cell_volume 3402.000000
_symmetry_space_group_name_H-M "P M M A"
_symmetry_group_IT_number 51
_symmetry_cell_setting 'orthorhombic'
loop_
_space_group_symop_operation_xyz
x,y,z
1/2-x,-y,z
1/2+x,-y,-z
-x,y,-z
-x,-y,-z
1/2+x,y,-z
1/2-x,y,z
x,-y,z
loop_
_atom_site_type_symbol
_atom_site_label
_atom_site_fract_x
_atom_site_fract_y
_atom_site_fract_z
Si Si1 0.824167 0.669138 0.550095
Si Si2 0.918741 0.822636 0.148839
Si Si3 0.610105 0.327029 0.693092
Si Si4 0.136517 0.828575 0.595805
Si Si5 0.922753 0.671189 0.994858
Si Si6 0.931981 0.823052 0.841432
Si Si7 0.986820 0.331385 0.411880
Si Si8 0.178927 0.324453 0.739228
O O1 0.750000 0.662935 0.534442
O O2 0.850758 0.500000 0.543405
O O3 0.835384 0.717368 0.634764
O O4 0.853669 0.773474 0.488063
O O5 0.873548 0.757519 0.211883
O O6 0.992721 0.782600 0.164355
O O7 0.914413 0.000000 0.146967
O O8 0.900409 0.756371 0.068453
O O9 0.618332 0.500000 0.714049
O O10 0.601798 0.233237 0.767043
O O11 0.548242 0.316839 0.639724
O O12 0.063244 0.791697 0.612380
O O13 0.175110 0.732026 0.654741
O O14 0.152249 0.000000 0.603872
O O15 0.902326 0.500000 0.996206
O O16 0.906411 0.747829 0.916791
O O17 0.000000 0.674524 0.000000
O O18 0.927776 0.000000 0.848469
O O19 0.961211 0.500000 0.400978
O O20 0.000000 0.316158 0.500000
O O21 0.250000 0.294084 0.768081
O O22 0.167572 0.500000 0.741269
#
# Coordination Sequence:
#
# PCOD9407563 Si02
#       8
#     8   8   8   8   8   8   8   8
#     4  10  21  39  59  75  97 136 185 229 269 318
#     4  10  20  35  56  83 114 144 175 218 275 328
#     4  10  20  34  54  79 105 137 178 223 271 321
#     4  12  24  36  54  80 110 140 177 226 278 328
#     4   9  17  31  54  82 111 143 176 210 254 314
#     4  10  20  33  52  82 116 145 175 217 273 330
#     4  10  19  35  56  77 105 140 179 221 269 327
#     4  11  24  40  57  77 105 146 193 233 269 320
#
# _framework density 18.812463000000001
#
# number of rings (size 3 to 8) (size 9 to 14) (size 15 to 20)
#    0.000    1.750    1.250    3.750    0.000    9.000 
#    0.000    0.000    0.000    0.750    0.000    1.750 
#    0.000    0.000    0.000    0.000    0.000    0.000 
#
# Total GULP energy -357232.234826 kJ/mol
# GULP energy per Si atom -5581.753669 kJ/mol
# Density = 1.876965 g / cm^3
# Si number density = 18.812463 Si / 1000 Ang^3
#
#
#
# Elastic Constant Matrix: (Units=GPa)
#
#
# Indices 1 2 3 4 5 6 
#
# 1 29.0998 14.4800 -1.7118 0.0000 0.0000 0.0000
# 2 14.4800 50.3650 23.0279 0.0000 0.0000 0.0000
# 3 -1.7118 23.0279 78.2936 0.0000 0.0000 0.0000
# 4 0.0000 0.0000 0.0000 58.0916 0.0000 0.0000
# 5 0.0000 0.0000 0.0000 0.0000 11.0289 0.0000
# 6 0.0000 0.0000 0.0000 0.0000 0.0000 2.7433
#
#
#
# Elastic Compliance Matrix: (Units=1/GPa)
#
#
# Indices 1 2 3 4 5 6 
#
# 1 0.041820 -0.014374 0.005142 0.000000 0.000000 0.000000
# 2 -0.014374 0.027881 -0.008515 0.000000 0.000000 0.000000
# 3 0.005142 -0.008515 0.015389 0.000000 0.000000 0.000000
# 4 0.000000 0.000000 0.000000 0.017214 0.000000 0.000000
# 5 0.000000 0.000000 0.000000 0.000000 0.090671 0.000000
# 6 0.000000 0.000000 0.000000 0.000000 0.000000 0.364522
#
#
# Mechanical properties :
#
#
# Convention : Reuss Voigt Hill
#
# Bulk Modulus (GPa) = 20.16290 25.48340 22.82315
# Shear Modulus (GPa) = 8.20314 22.50359 15.35336
#
# Velocity S-wave (km/s) = 2.09044 3.46237 2.85989
# Velocity P-wave (km/s) = 4.07035 5.43686 4.80246
#
# Compressibility (1/GPa) = 0.04959604
#
# Stress axis : x y z
#
# Youngs Moduli (GPa) = 23.91222 35.86706 64.98062
#
# Poissons Ratio (x) = 0.51556 -0.33414
# Poissons Ratio (y) = 0.34372 0.55329
# Poissons Ratio (z) = -0.12296 0.30539
#
# Static dielectric constant tensor:
#      x y z
#    x 1.690660 0.000000 0.000000 
#    y 0.000000 1.638600 0.000000 
#    z 0.000000 0.000000 1.634560 
# 
# From -- ./inp_files/30645.got.cif
#   From: 2010.05.17/outbox.ucp.g08.bks.cvg/sg51_16_cif.got.tgz:30645.got - 2010.06.11 16:27:58.
