data_PCOD9407144
_publ_section_title
;
Structure prediction by ZEFSAII (Michael W. Deem and Ramdas Pophale) SiO2 
 PCOD9407144
Probable space group: P M M A
;
_chemical_formula_sum "Si O2"
_cell_formula_units_Z 32
_cell_length_a 9.113160
_cell_length_b 7.484841
_cell_length_c 25.503184
_cell_angle_alpha 90.000000
_cell_angle_beta 90.000000
_cell_angle_gamma 90.000000
_cell_volume 1739.586299
_symmetry_space_group_name_H-M "P M M A"
_symmetry_group_IT_number 51
_symmetry_cell_setting 'orthorhombic'
loop_
_space_group_symop_operation_xyz
x,y,z
1/2-x,-y,z
1/2+x,-y,-z
-x,y,-z
-x,-y,-z
1/2+x,y,-z
1/2-x,y,z
x,-y,z
loop_
_atom_site_type_symbol
_atom_site_label
_atom_site_fract_x
_atom_site_fract_y
_atom_site_fract_z
Si Si1 0.426229 0.708298 0.445554
Si Si2 0.926740 0.287936 0.168701
Si Si3 0.928186 0.000000 0.637534
Si Si4 0.581199 0.282293 0.052025
Si Si5 0.073137 0.000000 0.241694
O O1 0.500000 0.766248 0.500000
O O2 0.250000 0.724104 0.450928
O O3 0.461985 0.500000 0.437214
O O4 0.473471 0.828532 0.396632
O O5 0.750000 0.261002 0.171520
O O6 0.953243 0.500000 0.174844
O O7 0.975205 0.232009 0.109734
O O8 0.008746 0.171201 0.211527
O O9 0.750000 0.000000 0.638879
O O10 0.975920 0.000000 0.697604
O O11 0.750000 0.227388 0.048908
O O12 0.578026 0.500000 0.051645
O O13 0.500000 0.219709 0.000000
O O14 0.250000 0.000000 0.239627
#
# Coordination Sequence:
#
# PCOD9407144 Si02
#       5
#     8   8   4   8   4
#     4   9  17  31  52  76 102 131 162 199 245 297
#     4   9  19  37  57  75 102 141 177 213 265 322
#     4   9  19  34  50  71 101 136 169 203 250 301
#     4   8  14  26  47  74 100 127 162 206 259 317
#     4  11  23  36  53  79 106 136 182 229 260 299
#
# _framework density 18.395177
#
# number of rings (size 3 to 8) (size 9 to 14) (size 15 to 20)
#    0.000    3.000    0.000    2.250    0.000    2.500 
#    0.000    8.125    0.000    3.000    0.000    0.000 
#    0.000    0.000    0.000    0.000    0.000    0.000 
#
# Total GULP energy -178428.321360 kJ/mol
# GULP energy per Si atom -5575.885042 kJ/mol
# Density = 1.835331 g / cm^3
# Si number density = 18.395177 Si / 1000 Ang^3
#
#
#
# Elastic Constant Matrix: (Units=GPa)
#
#
# Indices 1 2 3 4 5 6 
#
# 1 27.3433 33.2059 55.8645 0.0000 0.0000 0.0000
# 2 33.2059 89.3849 85.9928 0.0000 0.0000 0.0000
# 3 55.8645 85.9928 225.3819 0.0000 0.0000 0.0000
# 4 0.0000 0.0000 0.0000 4.0040 0.0000 0.0000
# 5 0.0000 0.0000 0.0000 0.0000 32.9686 0.0000
# 6 0.0000 0.0000 0.0000 0.0000 0.0000 16.3221
#
#
#
# Elastic Compliance Matrix: (Units=1/GPa)
#
#
# Indices 1 2 3 4 5 6 
#
# 1 0.090934 -0.019113 -0.015247 0.000000 0.000000 0.000000
# 2 -0.019113 0.021693 -0.003539 0.000000 0.000000 0.000000
# 3 -0.015247 -0.003539 0.009567 0.000000 0.000000 0.000000
# 4 0.000000 0.000000 0.000000 0.249749 0.000000 0.000000
# 5 0.000000 0.000000 0.000000 0.000000 0.030332 0.000000
# 6 0.000000 0.000000 0.000000 0.000000 0.000000 0.061267
#
#
# Mechanical properties :
#
#
# Convention : Reuss Voigt Hill
#
# Bulk Modulus (GPa) = 21.55422 76.91517 49.23469
# Shear Modulus (GPa) = 9.01219 21.79539 15.40379
#
# Velocity S-wave (km/s) = 2.21582 3.44589 2.89689
# Velocity P-wave (km/s) = 4.27659 7.59840 6.16542
#
# Compressibility (1/GPa) = 0.04639463
#
# Stress axis : x y z
#
# Youngs Moduli (GPa) = 10.99703 46.09793 104.53134
#
# Poissons Ratio (x) = 0.88107 1.59378
# Poissons Ratio (y) = 0.21019 0.36997
# Poissons Ratio (z) = 0.16767 0.16316
#
# Static dielectric constant tensor:
#      x y z
#    x 1.613360 0.000000 0.000000 
#    y 0.000000 1.665980 0.000000 
#    z 0.000000 0.000000 1.621620 
# 
# From -- ./inp_files/31097.got.cif
#   From: 2010.05.17/outbox.cif.g08.bks.cpg/sg51_16_cif.got.tgz:31097.got - 2010.06.03 11:52:47.
