data_PCOD9407978
_publ_section_title
;
Structure prediction by ZEFSAII (Michael W. Deem and Ramdas Pophale) SiO2 
 PCOD9407978
Probable space group: P N N A
;
_chemical_formula_sum "Si O2"
_cell_formula_units_Z 52
_cell_length_a 14.334013
_cell_length_b 21.882727
_cell_length_c 6.713366
_cell_angle_alpha 90.000000
_cell_angle_beta 90.000000
_cell_angle_gamma 90.000000
_cell_volume 2105.763342
_symmetry_space_group_name_H-M "P N N A"
_symmetry_group_IT_number 52
_symmetry_cell_setting 'orthorhombic'
loop_
_space_group_symop_operation_xyz
x,y,z
1/2-x,-y,z
x,1/2-y,1/2-z
1/2-x,1/2+y,1/2-z
-x,-y,-z
1/2+x,y,-z
-x,1/2+y,1/2+z
1/2+x,1/2-y,1/2+z
loop_
_atom_site_type_symbol
_atom_site_label
_atom_site_fract_x
_atom_site_fract_y
_atom_site_fract_z
Si Si1 0.201930 0.128132 0.433984
Si Si2 0.250000 0.500000 0.214401
Si Si3 0.620636 0.036859 0.081388
Si Si4 0.752891 0.857050 0.020215
Si Si5 0.169638 0.734155 0.018284
Si Si6 0.527500 0.194020 0.625922
Si Si7 0.561958 0.912348 0.108064
O O1 0.285240 0.168524 0.517532
O O2 0.104665 0.158391 0.504816
O O3 0.232560 0.058060 0.426044
O O4 0.196670 0.141887 0.193473
O O5 0.334928 0.508979 0.375254
O O6 0.809760 0.908371 0.144897
O O7 0.599823 0.975635 0.207138
O O8 0.521859 0.067272 0.034657
O O9 0.648801 0.883070 0.994324
O O10 0.730800 0.788014 0.080525
O O11 0.176383 0.750000 0.250000
O O12 0.060596 0.729054 0.970391
O O13 0.573361 0.250000 0.750000
O O14 0.480362 0.139234 0.750743
#
# Coordination Sequence:
#
# PCOD9407978 Si02
#       7
#     8   4   8   8   8   8   8
#     4  10  21  38  63  84 118 173 208 256 327 395
#     4  10  16  36  60  82 116 170 220 242 320 412
#     4  10  19  31  57  98 126 160 209 269 315 382
#     4  10  17  35  58  89 123 164 207 256 315 394
#     4  10  23  39  62  87 125 173 218 261 322 393
#     4  12  22  38  65  95 125 160 216 273 325 384
#     4  11  19  31  60  98 125 155 212 272 320 372
#
# _framework density 24.694133999999998
#
# number of rings (size 3 to 8) (size 9 to 14) (size 15 to 20)
#    0.000    1.538    7.692    1.385    0.000    0.000 
#    0.000    1.538   10.154    0.000    0.000    0.000 
#    0.000    0.000    0.000    0.000    0.000    0.000 
#
# Total GULP energy -290107.848806 kJ/mol
# GULP energy per Si atom -5578.997092 kJ/mol
# Density = 2.463793 g / cm^3
# Si number density = 24.694134 Si / 1000 Ang^3
#
#
#
# Elastic Constant Matrix: (Units=GPa)
#
#
# Indices 1 2 3 4 5 6 
#
# 1 136.0166 53.3984 0.2476 0.0000 0.0000 0.0000
# 2 53.3984 232.1330 25.2471 0.0000 0.0000 0.0000
# 3 0.2476 25.2471 51.2076 0.0000 0.0000 0.0000
# 4 0.0000 0.0000 0.0000 30.2186 0.0000 0.0000
# 5 0.0000 0.0000 0.0000 0.0000 24.2604 0.0000
# 6 0.0000 0.0000 0.0000 0.0000 0.0000 62.9183
#
#
#
# Elastic Compliance Matrix: (Units=1/GPa)
#
#
# Indices 1 2 3 4 5 6 
#
# 1 0.008124 -0.001970 0.000932 0.000000 0.000000 0.000000
# 2 -0.001970 0.005030 -0.002470 0.000000 0.000000 0.000000
# 3 0.000932 -0.002470 0.020742 0.000000 0.000000 0.000000
# 4 0.000000 0.000000 0.000000 0.033092 0.000000 0.000000
# 5 0.000000 0.000000 0.000000 0.000000 0.041219 0.000000
# 6 0.000000 0.000000 0.000000 0.000000 0.000000 0.015894
#
#
# Mechanical properties :
#
#
# Convention : Reuss Voigt Hill
#
# Bulk Modulus (GPa) = 37.20434 64.12703 50.66569
# Shear Modulus (GPa) = 35.69469 46.17705 40.93587
#
# Velocity S-wave (km/s) = 3.80606 4.32900 4.07592
# Velocity P-wave (km/s) = 5.86631 7.14226 6.53550
#
# Compressibility (1/GPa) = 0.02687858
#
# Stress axis : x y z
#
# Youngs Moduli (GPa) = 123.09520 198.81730 48.21186
#
# Poissons Ratio (x) = 0.39169 -0.04494
# Poissons Ratio (y) = 0.24251 0.11910
# Poissons Ratio (z) = -0.11473 0.49114
#
# Static dielectric constant tensor:
#      x y z
#    x 1.953870 0.000000 0.000000 
#    y 0.000000 2.066010 0.000000 
#    z 0.000000 0.000000 2.100150 
# 
# From -- ./inp_files/10737.got.cif
#   From: 2010.05.17/outbox.cif.g08.bks.cpg/sg52_6_cif.got.tgz:10737.got - 2010.06.03 12:15:38.
