data_PCOD9407346
_publ_section_title
;
Structure prediction by ZEFSAII (Michael W. Deem and Ramdas Pophale) SiO2 
 PCOD9407346
Probable space group: P M M A
;
_chemical_formula_sum "Si O2"
_cell_formula_units_Z 64
_cell_length_a 7.378403
_cell_length_b 27.823685
_cell_length_c 14.419240
_cell_angle_alpha 90.000000
_cell_angle_beta 90.000000
_cell_angle_gamma 90.000000
_cell_volume 2960.188660
_symmetry_space_group_name_H-M "P M M A"
_symmetry_group_IT_number 51
_symmetry_cell_setting 'orthorhombic'
loop_
_space_group_symop_operation_xyz
x,y,z
1/2-x,-y,z
1/2+x,-y,-z
-x,y,-z
-x,-y,-z
1/2+x,y,-z
1/2-x,y,z
x,-y,z
loop_
_atom_site_type_symbol
_atom_site_label
_atom_site_fract_x
_atom_site_fract_y
_atom_site_fract_z
Si Si1 0.971826 0.148025 0.711986
Si Si2 0.466420 0.405185 0.108375
Si Si3 0.034243 0.700184 0.110626
Si Si4 0.466336 0.350360 0.389977
Si Si5 0.033383 0.946685 0.390886
Si Si6 0.966397 0.195096 0.891488
Si Si7 0.466367 0.244980 0.389731
Si Si8 0.028662 0.551969 0.294104
O O1 0.750000 0.147233 0.707245
O O2 0.036430 0.098866 0.665926
O O3 0.027314 0.155397 0.818693
O O4 0.032210 0.196217 0.658036
O O5 0.250000 0.402404 0.115410
O O6 0.525321 0.442381 0.186179
O O7 0.500000 0.415053 0.000000
O O8 0.536983 0.352136 0.137793
O O9 0.250000 0.699894 0.129648
O O10 0.963146 0.752203 0.140112
O O11 0.000000 0.700722 0.000000
O O12 0.500000 0.352173 0.500000
O O13 0.250000 0.349783 0.373585
O O14 0.534578 0.297708 0.357227
O O15 0.534697 0.399751 0.345363
O O16 0.250000 0.948008 0.377760
O O17 0.000000 0.939074 0.500000
O O18 0.963215 0.000000 0.366493
O O19 0.750000 0.198120 0.882937
O O20 0.000000 0.186896 0.000000
O O21 0.500000 0.242034 0.500000
O O22 0.250000 0.245851 0.374602
O O23 0.250000 0.552066 0.298914
O O24 0.968865 0.500000 0.330688
#
# Coordination Sequence:
#
# PCOD9407346 Si02
#       8
#     8   8   8   8   8   8   8   8
#     4   9  17  28  46  70  93 122 156 188 223 268
#     4   9  17  29  46  66  88 114 144 178 218 263
#     4   8  14  24  40  60  81 107 140 176 213 254
#     4   9  18  32  50  68  88 115 146 182 224 267
#     4   9  17  30  48  70  96 125 156 190 228 270
#     4   9  17  29  44  63  90 120 153 189 224 262
#     4   9  17  29  46  68  93 118 145 179 222 271
#     4   9  18  31  47  67  88 113 148 184 217 263
#
# _framework density 21.620245000000001
#
# number of rings (size 3 to 8) (size 9 to 14) (size 15 to 20)
#    0.000    3.125    0.000    0.375    1.750    0.500 
#    0.000    1.875    0.000    1.125    0.000    0.000 
#    0.000    0.000    0.000    0.000    0.000    0.000 
#
# Total GULP energy -356876.780544 kJ/mol
# GULP energy per Si atom -5576.199696 kJ/mol
# Density = 2.157104 g / cm^3
# Si number density = 21.620245 Si / 1000 Ang^3
#
#
#
# Elastic Constant Matrix: (Units=GPa)
#
#
# Indices 1 2 3 4 5 6 
#
# 1 78.6138 10.5536 -4.9573 0.0000 0.0000 0.0000
# 2 10.5536 210.7051 93.0943 0.0000 0.0000 0.0000
# 3 -4.9573 93.0943 86.1353 0.0000 0.0000 0.0000
# 4 0.0000 0.0000 0.0000 40.8626 0.0000 0.0000
# 5 0.0000 0.0000 0.0000 0.0000 11.3279 0.0000
# 6 0.0000 0.0000 0.0000 0.0000 0.0000 -3.5738
#
#
#
# Elastic Compliance Matrix: (Units=1/GPa)
#
#
# Indices 1 2 3 4 5 6 
#
# 1 0.013153 -0.001901 0.002812 0.000000 0.000000 0.000000
# 2 -0.001901 0.009358 -0.010224 0.000000 0.000000 0.000000
# 3 0.002812 -0.010224 0.022821 0.000000 0.000000 0.000000
# 4 0.000000 0.000000 0.000000 0.024472 0.000000 0.000000
# 5 0.000000 0.000000 0.000000 0.000000 0.088277 0.000000
# 6 0.000000 0.000000 0.000000 0.000000 0.000000 -0.279817
#
#
# Mechanical properties :
#
#
# Convention : Reuss Voigt Hill
#
# Bulk Modulus (GPa) = 37.44478 63.64838 50.54658
# Shear Modulus (GPa) = -53.07456 28.17427 -12.45015
#
# Velocity S-wave (km/s) = -4.96002 3.61382 -2.40230
# Velocity P-wave (km/s) = 3.93008 6.84953 3.96677
#
# Compressibility (1/GPa) = 0.02670599
#
# Stress axis : x y z
#
# Youngs Moduli (GPa) = 76.02887 106.85745 43.81894
#
# Poissons Ratio (x) = 0.20314 -0.12320
# Poissons Ratio (y) = 0.14453 0.44799
# Poissons Ratio (z) = -0.21376 1.09248
#
# Static dielectric constant tensor:
#      x y z
#    x 1.854980 0.000000 0.000000 
#    y 0.000000 1.806830 0.000000 
#    z 0.000000 0.000000 1.775960 
# 
# From -- ./inp_files/15698.got.cif
#   From: 2010.05.17/outbox.cif.g08.bks.cpg/sg51_8_cif.got.tgz:15698.got - 2010.06.03 11:52:47.
