data_PCOD9407113
_publ_section_title
;
Structure prediction by ZEFSAII (Michael W. Deem and Ramdas Pophale) SiO2 
 PCOD9407113
Probable space group: P M M A
;
_chemical_formula_sum "Si O2"
_cell_formula_units_Z 48
_cell_length_a 8.193986
_cell_length_b 10.416620
_cell_length_c 28.418333
_cell_angle_alpha 90.000000
_cell_angle_beta 90.000000
_cell_angle_gamma 90.000000
_cell_volume 2425.608120
_symmetry_space_group_name_H-M "P M M A"
_symmetry_group_IT_number 51
_symmetry_cell_setting 'orthorhombic'
loop_
_space_group_symop_operation_xyz
x,y,z
1/2-x,-y,z
1/2+x,-y,-z
-x,y,-z
-x,-y,-z
1/2+x,y,-z
1/2-x,y,z
x,-y,z
loop_
_atom_site_type_symbol
_atom_site_label
_atom_site_fract_x
_atom_site_fract_y
_atom_site_fract_z
Si Si1 0.950034 0.000000 0.726962
Si Si2 0.949415 0.500000 0.697482
Si Si3 0.554779 0.500000 0.589529
Si Si4 0.050375 0.645720 0.128996
Si Si5 0.050711 0.727376 0.233603
Si Si6 0.944064 0.000000 0.619376
Si Si7 0.552862 0.146050 0.946930
Si Si8 0.557139 0.773389 0.447834
O O1 0.001997 0.870183 0.752855
O O2 0.006850 0.000000 0.672855
O O3 0.750000 0.000000 0.726804
O O4 0.750000 0.500000 0.696546
O O5 0.005670 0.500000 0.643657
O O6 0.000586 0.625166 0.726847
O O7 0.750000 0.500000 0.590514
O O8 0.499893 0.629639 0.564085
O O9 0.250000 0.647005 0.128848
O O10 0.999361 0.500000 0.118344
O O11 0.998823 0.684054 0.181703
O O12 0.994811 0.749692 0.090786
O O13 0.250000 0.726086 0.233450
O O14 0.994402 0.874038 0.590618
O O15 0.750000 0.000000 0.622503
O O16 0.750000 0.145440 0.945469
O O17 0.497334 0.000000 0.936399
O O18 0.500000 0.177398 0.000000
O O19 0.500000 0.810476 0.500000
O O20 0.750000 0.776482 0.447097
#
# Coordination Sequence:
#
# PCOD9407113 Si02
#       8
#     4   4   4   8   8   4   8   8
#     4   9  18  28  46  75 108 137 169 213 264 319
#     4   9  16  28  48  73 106 141 171 207 262 319
#     4  11  22  38  61  89 120 153 189 233 280 337
#     4   9  16  26  42  67 101 135 167 210 264 317
#     4   9  15  25  41  69 105 137 165 207 265 319
#     4  11  22  40  61  87 118 151 189 233 284 341
#     4   9  18  31  47  69  98 132 171 215 264 313
#     4  12  25  42  62  87 117 152 192 236 286 340
#
# _framework density 19.788853
#
# number of rings (size 3 to 8) (size 9 to 14) (size 15 to 20)
#    0.000    2.167    0.833    3.500    1.167    3.000 
#    0.000    0.000    0.000    0.000    0.000    7.000 
#    0.000    0.000    0.000    0.000    0.000    0.000 
#
# Total GULP energy -268104.748795 kJ/mol
# GULP energy per Si atom -5585.515600 kJ/mol
# Density = 1.974381 g / cm^3
# Si number density = 19.788853 Si / 1000 Ang^3
#
#
#
# Elastic Constant Matrix: (Units=GPa)
#
#
# Indices 1 2 3 4 5 6 
#
# 1 28.8049 8.4753 6.1112 0.0000 0.0000 0.0000
# 2 8.4753 128.4288 51.8282 0.0000 0.0000 0.0000
# 3 6.1112 51.8282 111.2808 0.0000 0.0000 0.0000
# 4 0.0000 0.0000 0.0000 43.1165 0.0000 0.0000
# 5 0.0000 0.0000 0.0000 0.0000 16.5725 0.0000
# 6 0.0000 0.0000 0.0000 0.0000 0.0000 16.9605
#
#
#
# Elastic Compliance Matrix: (Units=1/GPa)
#
#
# Indices 1 2 3 4 5 6 
#
# 1 0.035504 -0.001916 -0.001057 0.000000 0.000000 0.000000
# 2 -0.001916 0.009692 -0.004409 0.000000 0.000000 0.000000
# 3 -0.001057 -0.004409 0.011098 0.000000 0.000000 0.000000
# 4 0.000000 0.000000 0.000000 0.023193 0.000000 0.000000
# 5 0.000000 0.000000 0.000000 0.000000 0.060341 0.000000
# 6 0.000000 0.000000 0.000000 0.000000 0.000000 0.058961
#
#
# Mechanical properties :
#
#
# Convention : Reuss Voigt Hill
#
# Bulk Modulus (GPa) = 24.07932 44.59377 34.33654
# Shear Modulus (GPa) = 21.98803 28.80322 25.39562
#
# Velocity S-wave (km/s) = 3.33698 3.81928 3.58625
# Velocity P-wave (km/s) = 5.20017 6.48328 5.87685
#
# Compressibility (1/GPa) = 0.04152942
#
# Stress axis : x y z
#
# Youngs Moduli (GPa) = 28.16549 103.17721 90.10884
#
# Poissons Ratio (x) = 0.19772 0.09527
# Poissons Ratio (y) = 0.05397 0.39727
# Poissons Ratio (z) = 0.02978 0.45488
#
# Static dielectric constant tensor:
#      x y z
#    x 1.701320 0.000000 0.000000 
#    y 0.000000 1.670900 0.000000 
#    z 0.000000 0.000000 1.736490 
# 
# From -- ./inp_files/37246.got.cif
#   From: 2010.05.17/outbox.cif.g08.bks.cpg/sg51_19_cif.got.tgz:37246.got - 2010.06.03 11:52:47.
