data_PCOD9407838
_publ_section_title
;
Structure prediction by ZEFSAII (Michael W. Deem and Ramdas Pophale) SiO2 
 PCOD9407838
Probable space group: P M M A
;
_chemical_formula_sum "Si O2"
_cell_formula_units_Z 48
_cell_length_a 18.000000
_cell_length_b 15.000000
_cell_length_c 9.000000
_cell_angle_alpha 90.000000
_cell_angle_beta 90.000000
_cell_angle_gamma 90.000000
_cell_volume 2430.000000
_symmetry_space_group_name_H-M "P M M A"
_symmetry_group_IT_number 51
_symmetry_cell_setting 'orthorhombic'
loop_
_space_group_symop_operation_xyz
x,y,z
1/2-x,-y,z
1/2+x,-y,-z
-x,y,-z
-x,-y,-z
1/2+x,y,-z
1/2-x,y,z
x,-y,z
loop_
_atom_site_type_symbol
_atom_site_label
_atom_site_fract_x
_atom_site_fract_y
_atom_site_fract_z
Si Si1 0.661721 0.177587 0.618905
Si Si2 0.337697 0.000000 0.751910
Si Si3 0.062733 0.268739 0.622203
Si Si4 0.939709 0.148025 0.109923
Si Si5 0.914067 0.000000 0.564135
Si Si6 0.334738 0.727738 0.078715
Si Si7 0.664796 0.395122 0.181199
O O1 0.750000 0.156067 0.605523
O O2 0.626803 0.217151 0.469010
O O3 0.612272 0.088881 0.650758
O O4 0.654845 0.252915 0.747348
O O5 0.377906 0.082722 0.827853
O O6 0.250000 0.000000 0.768870
O O7 0.361837 0.000000 0.580866
O O8 0.029790 0.201350 0.746453
O O9 0.104525 0.345196 0.716207
O O10 0.000000 0.293659 0.500000
O O11 0.895999 0.216195 0.006161
O O12 0.000000 0.105933 0.000000
O O13 0.000000 0.000000 0.500000
O O14 0.250000 0.759139 0.047571
O O15 0.341255 0.633664 0.992906
O O16 0.750000 0.370634 0.226370
O O17 0.656218 0.500000 0.195990
#
# Coordination Sequence:
#
# PCOD9407838 Si02
#       7
#     8   4   8   8   4   8   8
#     4  11  22  39  62  87 122 166 214 259 307 365
#     4  12  25  40  60  87 122 168 218 267 313 374
#     4  11  22  37  60  89 123 162 205 254 311 375
#     4  11  23  38  60  84 118 161 209 262 314 368
#     4  12  26  38  60  90 128 169 209 262 315 364
#     4   9  20  37  60  87 117 156 203 253 309 370
#     4   9  19  39  65  92 123 160 202 252 314 383
#
# _framework density 19.753086
#
# number of rings (size 3 to 8) (size 9 to 14) (size 15 to 20)
#    0.000    1.500    1.667    3.500    2.333    2.333 
#    0.000    1.667    0.000   20.000    0.000    0.000 
#    0.000    0.000    0.000    0.000    0.000    0.000 
#
# Total GULP energy -267661.050009 kJ/mol
# GULP energy per Si atom -5576.271875 kJ/mol
# Density = 1.970813 g / cm^3
# Si number density = 19.753086 Si / 1000 Ang^3
#
#
#
# Elastic Constant Matrix: (Units=GPa)
#
#
# Indices 1 2 3 4 5 6 
#
# 1 120.8439 47.9631 49.6466 0.0000 0.0000 0.0000
# 2 47.9631 78.8442 37.8939 0.0000 0.0000 0.0000
# 3 49.6466 37.8939 115.5655 0.0000 0.0000 0.0000
# 4 0.0000 0.0000 0.0000 45.7799 0.0000 0.0000
# 5 0.0000 0.0000 0.0000 0.0000 20.1981 0.0000
# 6 0.0000 0.0000 0.0000 0.0000 0.0000 22.4918
#
#
#
# Elastic Compliance Matrix: (Units=1/GPa)
#
#
# Indices 1 2 3 4 5 6 
#
# 1 0.011848 -0.005652 -0.003237 0.000000 0.000000 0.000000
# 2 -0.005652 0.017752 -0.003393 0.000000 0.000000 0.000000
# 3 -0.003237 -0.003393 0.011156 0.000000 0.000000 0.000000
# 4 0.000000 0.000000 0.000000 0.021844 0.000000 0.000000
# 5 0.000000 0.000000 0.000000 0.000000 0.049510 0.000000
# 6 0.000000 0.000000 0.000000 0.000000 0.000000 0.044461
#
#
# Mechanical properties :
#
#
# Convention : Reuss Voigt Hill
#
# Bulk Modulus (GPa) = 61.75345 65.14008 63.44677
# Shear Modulus (GPa) = 26.80520 29.67729 28.24125
#
# Velocity S-wave (km/s) = 3.68776 3.88030 3.78526
# Velocity P-wave (km/s) = 7.03302 7.28865 7.16197
#
# Compressibility (1/GPa) = 0.01619343
#
# Stress axis : x y z
#
# Youngs Moduli (GPa) = 84.40155 56.33118 89.63726
#
# Poissons Ratio (x) = 0.31838 0.29012
# Poissons Ratio (y) = 0.47703 0.30413
# Poissons Ratio (z) = 0.27318 0.19112
#
# Static dielectric constant tensor:
#      x y z
#    x 1.706040 0.000000 0.000000 
#    y 0.000000 1.739550 0.000000 
#    z 0.000000 0.000000 1.714850 
# 
# From -- ./inp_files/9702.got.cif
#   From: 2010.05.17/outbox.ucp.g08.bks.cvg/sg51_5_cif.got.tgz:9702.got - 2010.06.11 16:27:58.
