data_PCOD9407026
_publ_section_title
;
Structure prediction by ZEFSAII (Michael W. Deem and Ramdas Pophale) SiO2 
 PCOD9407026
Probable space group: P M M A
;
_chemical_formula_sum "Si O2"
_cell_formula_units_Z 48
_cell_length_a 8.966591
_cell_length_b 14.421301
_cell_length_c 21.092059
_cell_angle_alpha 90.000000
_cell_angle_beta 90.000000
_cell_angle_gamma 90.000000
_cell_volume 2727.412204
_symmetry_space_group_name_H-M "P M M A"
_symmetry_group_IT_number 51
_symmetry_cell_setting 'orthorhombic'
loop_
_space_group_symop_operation_xyz
x,y,z
1/2-x,-y,z
1/2+x,-y,-z
-x,y,-z
-x,-y,-z
1/2+x,y,-z
1/2-x,y,z
x,-y,z
loop_
_atom_site_type_symbol
_atom_site_label
_atom_site_fract_x
_atom_site_fract_y
_atom_site_fract_z
Si Si1 0.928541 0.211139 0.805307
Si Si2 0.573000 0.791407 0.565173
Si Si3 0.926269 0.606383 0.392558
Si Si4 0.075176 0.110928 0.685608
Si Si5 0.429215 0.107943 0.066630
Si Si6 0.073393 0.605699 0.759647
O O1 0.750000 0.204232 0.799766
O O2 0.973928 0.169258 0.873182
O O3 0.003640 0.152679 0.748994
O O4 0.981071 0.316352 0.795352
O O5 0.500000 0.825655 0.500000
O O6 0.750000 0.799522 0.562917
O O7 0.524115 0.684374 0.574586
O O8 0.506983 0.846267 0.624972
O O9 0.750000 0.621841 0.405661
O O10 0.962334 0.500000 0.409773
O O11 0.946780 0.615715 0.316430
O O12 0.250000 0.136646 0.682962
O O13 0.062520 0.000000 0.685651
O O14 0.250000 0.111639 0.061298
O O15 0.471240 0.000000 0.077808
O O16 0.500000 0.137286 0.000000
O O17 0.250000 0.617988 0.771636
O O18 0.032752 0.500000 0.776242
#
# Coordination Sequence:
#
# PCOD9407026 Si02
#       6
#     8   8   8   8   8   8
#     4  11  21  34  57  88 118 147 181 229 280 327
#     4  12  25  40  59  81 109 145 183 229 281 335
#     4   9  18  35  58  82 111 144 180 226 276 328
#     4  11  24  41  60  82 109 143 185 230 275 329
#     4   9  19  35  54  80 116 153 188 226 271 324
#     4   9  18  33  55  82 113 148 184 225 272 325
#
# _framework density 17.599101000000001
#
# number of rings (size 3 to 8) (size 9 to 14) (size 15 to 20)
#    0.000    1.833    1.667    4.000    0.000    4.667 
#    0.000    3.333    0.000    0.500    0.000    0.000 
#    0.000    0.000    0.000    0.000    0.000    0.000 
#
# Total GULP energy -268171.288531 kJ/mol
# GULP energy per Si atom -5586.901844 kJ/mol
# Density = 1.755904 g / cm^3
# Si number density = 17.599101 Si / 1000 Ang^3
#
#
#
# Elastic Constant Matrix: (Units=GPa)
#
#
# Indices 1 2 3 4 5 6 
#
# 1 94.2636 57.0608 70.0666 0.0000 0.0000 0.0000
# 2 57.0608 81.3591 62.3944 0.0000 0.0000 0.0000
# 3 70.0666 62.3944 139.8841 0.0000 0.0000 0.0000
# 4 0.0000 0.0000 0.0000 -22.2258 0.0000 0.0000
# 5 0.0000 0.0000 0.0000 0.0000 30.8972 0.0000
# 6 0.0000 0.0000 0.0000 0.0000 0.0000 -32.1009
#
#
#
# Elastic Compliance Matrix: (Units=1/GPa)
#
#
# Indices 1 2 3 4 5 6 
#
# 1 0.021402 -0.010319 -0.006117 0.000000 0.000000 0.000000
# 2 -0.010319 0.023657 -0.005383 0.000000 0.000000 0.000000
# 3 -0.006117 -0.005383 0.012614 0.000000 0.000000 0.000000
# 4 0.000000 0.000000 0.000000 -0.044993 0.000000 0.000000
# 5 0.000000 0.000000 0.000000 0.000000 0.032365 0.000000
# 6 0.000000 0.000000 0.000000 0.000000 0.000000 -0.031152
#
#
# Mechanical properties :
#
#
# Convention : Reuss Voigt Hill
#
# Bulk Modulus (GPa) = 71.25667 77.17224 74.21445
# Shear Modulus (GPa) = 80.37247 3.71309 42.04278
#
# Velocity S-wave (km/s) = 6.76518 1.45410 4.89296
# Velocity P-wave (km/s) = 10.07969 6.83846 8.61292
#
# Compressibility (1/GPa) = 0.01403377
#
# Stress axis : x y z
#
# Youngs Moduli (GPa) = 46.72494 42.27142 79.27600
#
# Poissons Ratio (x) = 0.43618 0.48496
# Poissons Ratio (y) = 0.48214 0.42677
# Poissons Ratio (z) = 0.28584 0.22756
#
# Static dielectric constant tensor:
#      x y z
#    x 1.585740 0.000000 0.000000 
#    y 0.000000 1.602020 0.000000 
#    z 0.000000 0.000000 1.578450 
# 
# From -- ./inp_files/27545.got.cif
#   From: 2010.05.17/outbox.cif.g08.bks.cpg/sg51_14_cif.got.tgz:27545.got - 2010.06.03 11:52:47.
