data_PCOD9407125
_publ_section_title
;
Structure prediction by ZEFSAII (Michael W. Deem and Ramdas Pophale) SiO2 
 PCOD9407125
Probable space group: P M M A
;
_chemical_formula_sum "Si O2"
_cell_formula_units_Z 40
_cell_length_a 22.862697
_cell_length_b 8.067731
_cell_length_c 10.025262
_cell_angle_alpha 90.000000
_cell_angle_beta 90.000000
_cell_angle_gamma 90.000000
_cell_volume 1849.160471
_symmetry_space_group_name_H-M "P M M A"
_symmetry_group_IT_number 51
_symmetry_cell_setting 'orthorhombic'
loop_
_space_group_symop_operation_xyz
x,y,z
1/2-x,-y,z
1/2+x,-y,-z
-x,y,-z
-x,-y,-z
1/2+x,y,-z
1/2-x,y,z
x,-y,z
loop_
_atom_site_type_symbol
_atom_site_label
_atom_site_fract_x
_atom_site_fract_y
_atom_site_fract_z
Si Si1 0.686956 0.702277 0.552365
Si Si2 0.906775 0.304587 0.763067
Si Si3 0.816141 0.193825 0.978657
Si Si4 0.522078 0.806067 0.353386
Si Si5 0.147869 0.306036 0.734039
O O1 0.750000 0.754536 0.606205
O O2 0.685144 0.500000 0.554655
O O3 0.633633 0.760257 0.641954
O O4 0.679841 0.753655 0.399845
O O5 0.917545 0.500000 0.745372
O O6 0.866902 0.279260 0.892729
O O7 0.968857 0.216758 0.749900
O O8 0.750000 0.259160 0.954794
O O9 0.816581 0.000000 0.943814
O O10 0.831940 0.214261 0.133766
O O11 0.500000 0.746034 0.500000
O O12 0.579369 0.714786 0.299896
O O13 0.536612 0.000000 0.367222
O O14 0.161313 0.500000 0.753218
#
# Coordination Sequence:
#
# PCOD9407125 Si02
#       5
#     8   8   8   8   8
#     4   9  18  33  57  90 122 153 198 257 312 361
#     4  11  22  39  65  93 124 163 212 262 310 366
#     4  11  25  44  63  90 131 171 207 253 314 379
#     4  11  23  40  63  92 131 168 204 254 317 380
#     4  11  22  39  65  93 124 163 212 262 310 366
#
# _framework density 21.631439
#
# number of rings (size 3 to 8) (size 9 to 14) (size 15 to 20)
#    0.000    1.400    2.000    3.600    0.000    4.800 
#    0.000    4.000    0.000    4.800    0.000    0.000 
#    0.000    0.000    0.000    0.000    0.000    0.000 
#
# Total GULP energy -223648.104996 kJ/mol
# GULP energy per Si atom -5591.202625 kJ/mol
# Density = 2.158221 g / cm^3
# Si number density = 21.631439 Si / 1000 Ang^3
#
#
#
# Elastic Constant Matrix: (Units=GPa)
#
#
# Indices 1 2 3 4 5 6 
#
# 1 89.4033 -10.3243 -4.8565 0.0000 0.0000 0.0000
# 2 -10.3243 33.2295 -7.2957 0.0000 0.0000 0.0000
# 3 -4.8565 -7.2957 62.6632 0.0000 0.0000 0.0000
# 4 0.0000 0.0000 0.0000 15.2824 0.0000 0.0000
# 5 0.0000 0.0000 0.0000 0.0000 -8.0885 0.0000
# 6 0.0000 0.0000 0.0000 0.0000 0.0000 -1.6179
#
#
#
# Elastic Compliance Matrix: (Units=1/GPa)
#
#
# Indices 1 2 3 4 5 6 
#
# 1 0.011714 0.003940 0.001367 0.000000 0.000000 0.000000
# 2 0.003940 0.032208 0.004055 0.000000 0.000000 0.000000
# 3 0.001367 0.004055 0.016536 0.000000 0.000000 0.000000
# 4 0.000000 0.000000 0.000000 0.065435 0.000000 0.000000
# 5 0.000000 0.000000 0.000000 0.000000 -0.123633 0.000000
# 6 0.000000 0.000000 0.000000 0.000000 0.000000 -0.618073
#
#
# Mechanical properties :
#
#
# Convention : Reuss Voigt Hill
#
# Bulk Modulus (GPa) = 12.62914 15.59367 14.11141
# Shear Modulus (GPa) = -8.22177 14.96670 3.37246
#
# Velocity S-wave (km/s) = -1.95169 2.63324 1.24998
# Velocity P-wave (km/s) = 0.87875 4.05829 2.93615
#
# Compressibility (1/GPa) = 0.07918194
#
# Stress axis : x y z
#
# Youngs Moduli (GPa) = 85.36457 31.04806 60.47271
#
# Poissons Ratio (x) = -0.12232 -0.08264
# Poissons Ratio (y) = -0.33631 -0.24523
# Poissons Ratio (z) = -0.11666 -0.12591
#
# Static dielectric constant tensor:
#      x y z
#    x 1.032540 0.000000 0.000000 
#    y 0.000000 1.755130 0.000000 
#    z 0.000000 0.000000 1.777040 
# 
# From -- ./inp_files/11423.got.cif
#   From: 2010.05.17/outbox.cif.g08.bks.cpg/sg51_6_cif.got.tgz:11423.got - 2010.06.03 11:52:47.
