data_PCOD9407832
_publ_section_title
;
Structure prediction by ZEFSAII (Michael W. Deem and Ramdas Pophale) SiO2 
 PCOD9407832
Probable space group: P M M A
;
_chemical_formula_sum "Si O2"
_cell_formula_units_Z 40
_cell_length_a 21.000000
_cell_length_b 9.000000
_cell_length_c 12.000000
_cell_angle_alpha 90.000000
_cell_angle_beta 90.000000
_cell_angle_gamma 90.000000
_cell_volume 2268.000000
_symmetry_space_group_name_H-M "P M M A"
_symmetry_group_IT_number 51
_symmetry_cell_setting 'orthorhombic'
loop_
_space_group_symop_operation_xyz
x,y,z
1/2-x,-y,z
1/2+x,-y,-z
-x,y,-z
-x,-y,-z
1/2+x,y,-z
1/2-x,y,z
x,-y,z
loop_
_atom_site_type_symbol
_atom_site_label
_atom_site_fract_x
_atom_site_fract_y
_atom_site_fract_z
Si Si1 0.325176 0.329178 0.753009
Si Si2 0.081976 0.174544 0.916783
Si Si3 0.595964 0.168745 0.414473
Si Si4 0.946128 0.326932 0.872119
Si Si5 0.050031 0.831470 0.338496
O O1 0.250000 0.309161 0.753398
O O2 0.339973 0.500000 0.781334
O O3 0.360913 0.221678 0.838165
O O4 0.355802 0.286157 0.635157
O O5 0.018274 0.263949 0.881982
O O6 0.069237 0.000000 0.912506
O O7 0.094252 0.231639 0.041051
O O8 0.524935 0.190481 0.365009
O O9 0.586849 0.176889 0.545952
O O10 0.615572 0.000000 0.384907
O O11 0.944249 0.500000 0.898009
O O12 0.926485 0.289246 0.747654
O O13 0.056067 0.000000 0.293390
#
# Coordination Sequence:
#
# PCOD9407832 Si02
#       5
#     8   8   8   8   8
#     4  11  23  37  53  76 108 140 174 218 261 305
#     4  11  21  34  52  74 103 139 178 215 256 311
#     4   9  18  32  52  76 105 138 175 213 255 307
#     4  11  20  31  51  79 109 137 167 213 269 316
#     4   9  17  31  51  78 108 137 168 213 263 307
#
# _framework density 17.636683999999999
#
# number of rings (size 3 to 8) (size 9 to 14) (size 15 to 20)
#    0.000    1.800    2.000    6.600    0.000    2.400 
#    0.000    2.000    0.000    1.200    0.000    5.600 
#    0.000    0.000    0.000    0.000    0.000    0.000 
#
# Total GULP energy -223027.374917 kJ/mol
# GULP energy per Si atom -5575.684373 kJ/mol
# Density = 1.759654 g / cm^3
# Si number density = 17.636684 Si / 1000 Ang^3
#
#
#
# Elastic Constant Matrix: (Units=GPa)
#
#
# Indices 1 2 3 4 5 6 
#
# 1 31.7677 31.7165 11.7673 0.0000 0.0000 0.0000
# 2 31.7165 68.4972 28.5260 0.0000 0.0000 0.0000
# 3 11.7673 28.5260 69.9553 0.0000 0.0000 0.0000
# 4 0.0000 0.0000 0.0000 -52.3986 0.0000 0.0000
# 5 0.0000 0.0000 0.0000 0.0000 5.5251 0.0000
# 6 0.0000 0.0000 0.0000 0.0000 0.0000 1.5067
#
#
#
# Elastic Compliance Matrix: (Units=1/GPa)
#
#
# Indices 1 2 3 4 5 6 
#
# 1 0.058665 -0.027770 0.001456 0.000000 0.000000 0.000000
# 2 -0.027770 0.030731 -0.007860 0.000000 0.000000 0.000000
# 3 0.001456 -0.007860 0.017255 0.000000 0.000000 0.000000
# 4 0.000000 0.000000 0.000000 -0.019084 0.000000 0.000000
# 5 0.000000 0.000000 0.000000 0.000000 0.180994 0.000000
# 6 0.000000 0.000000 0.000000 0.000000 0.000000 0.663699
#
#
# Mechanical properties :
#
#
# Convention : Reuss Voigt Hill
#
# Bulk Modulus (GPa) = 26.10817 34.91553 30.51185
# Shear Modulus (GPa) = 4.93401 -2.52602 1.20400
#
# Velocity S-wave (km/s) = 1.67441 -1.19807 0.82713
# Velocity P-wave (km/s) = 4.30972 4.23394 4.27200
#
# Compressibility (1/GPa) = 0.03830218
#
# Stress axis : x y z
#
# Youngs Moduli (GPa) = 17.04606 32.54046 57.95388
#
# Poissons Ratio (x) = 0.90365 -0.08437
# Poissons Ratio (y) = 0.47337 0.45552
# Poissons Ratio (z) = -0.02482 0.25577
#
# Static dielectric constant tensor:
#      x y z
#    x 1.559160 0.000000 0.000000 
#    y 0.000000 1.610710 0.000000 
#    z 0.000000 0.000000 1.702070 
# 
# From -- ./inp_files/17916.got.cif
#   From: 2010.05.17/outbox.ucp.g08.bks.cvg/sg51_9_cif.got.tgz:17916.got - 2010.06.11 16:27:58.
