data_PCOD9407729
_publ_section_title
;
Structure prediction by ZEFSAII (Michael W. Deem and Ramdas Pophale) SiO2 
 PCOD9407729
Probable space group: P M M A
;
_chemical_formula_sum "Si O2"
_cell_formula_units_Z 64
_cell_length_a 15.000000
_cell_length_b 9.000000
_cell_length_c 24.000000
_cell_angle_alpha 90.000000
_cell_angle_beta 90.000000
_cell_angle_gamma 90.000000
_cell_volume 3240.000000
_symmetry_space_group_name_H-M "P M M A"
_symmetry_group_IT_number 51
_symmetry_cell_setting 'orthorhombic'
loop_
_space_group_symop_operation_xyz
x,y,z
1/2-x,-y,z
1/2+x,-y,-z
-x,y,-z
-x,-y,-z
1/2+x,y,-z
1/2-x,y,z
x,-y,z
loop_
_atom_site_type_symbol
_atom_site_label
_atom_site_fract_x
_atom_site_fract_y
_atom_site_fract_z
Si Si1 0.847533 0.677033 0.894678
Si Si2 0.019335 0.834686 0.598794
Si Si3 0.143311 0.335465 0.806068
Si Si4 0.346800 0.672558 0.389240
Si Si5 0.150524 0.178397 0.983679
Si Si6 0.524178 0.173266 0.113315
Si Si7 0.847222 0.672754 0.476419
Si Si8 0.354787 0.836678 0.703036
O O1 0.750000 0.720871 0.871746
O O2 0.852111 0.500000 0.895423
O O3 0.935313 0.744132 0.867595
O O4 0.851976 0.740507 0.957464
O O5 0.067002 0.748537 0.549170
O O6 0.093992 0.836105 0.645904
O O7 0.933162 0.762312 0.626607
O O8 0.996063 0.000000 0.580319
O O9 0.250000 0.330575 0.809181
O O10 0.113490 0.500000 0.823234
O O11 0.101280 0.209378 0.843536
O O12 0.117014 0.295526 0.743303
O O13 0.250000 0.728944 0.370586
O O14 0.354001 0.500000 0.373552
O O15 0.348383 0.679118 0.456756
O O16 0.250000 0.207268 0.959054
O O17 0.069049 0.225451 0.944625
O O18 0.143871 0.000000 0.991734
O O19 0.505145 0.000000 0.108025
O O20 0.750000 0.735091 0.458548
O O21 0.849448 0.500000 0.460196
O O22 0.250000 0.822206 0.693102
O O23 0.369587 0.000000 0.729667
#
# Coordination Sequence:
#
# PCOD9407729 Si02
#       8
#     8   8   8   8   8   8   8   8
#     4  10  21  35  50  71 102 138 174 215 258 293
#     4  11  21  31  49  77 104 131 165 207 255 301
#     4  10  21  36  55  80 106 130 161 204 251 298
#     4   9  19  35  51  68  96 136 177 212 247 291
#     4   9  18  32  49  72 103 137 172 206 244 298
#     4  11  21  33  53  77 102 136 173 207 249 302
#     4   9  18  32  49  70  99 136 174 208 244 293
#     4   9  19  36  54  73 102 135 162 194 244 305
#
# _framework density 19.753086
#
# number of rings (size 3 to 8) (size 9 to 14) (size 15 to 20)
#    0.000    2.250    0.000    3.750    0.000    8.500 
#    0.000    3.750    0.000    0.750    0.000    3.500 
#    0.000    0.000    0.000    0.000    0.000    0.000 
#
# Total GULP energy -356547.551570 kJ/mol
# GULP energy per Si atom -5571.055493 kJ/mol
# Density = 1.970813 g / cm^3
# Si number density = 19.753086 Si / 1000 Ang^3
#
#
#
# Elastic Constant Matrix: (Units=GPa)
#
#
# Indices 1 2 3 4 5 6 
#
# 1 28.7569 23.3866 -1.4839 0.0000 0.0000 0.0000
# 2 23.3866 13.1848 -0.1423 0.0000 0.0000 0.0000
# 3 -1.4839 -0.1423 15.5249 0.0000 0.0000 0.0000
# 4 0.0000 0.0000 0.0000 24.7017 0.0000 0.0000
# 5 0.0000 0.0000 0.0000 0.0000 13.1873 0.0000
# 6 0.0000 0.0000 0.0000 0.0000 0.0000 -3.7066
#
#
#
# Elastic Compliance Matrix: (Units=1/GPa)
#
#
# Indices 1 2 3 4 5 6 
#
# 1 -0.077986 0.138261 -0.006187 0.000000 0.000000 0.000000
# 2 0.138261 -0.169269 0.011664 0.000000 0.000000 0.000000
# 3 -0.006187 0.011664 0.063928 0.000000 0.000000 0.000000
# 4 0.000000 0.000000 0.000000 0.040483 0.000000 0.000000
# 5 0.000000 0.000000 0.000000 0.000000 0.075830 0.000000
# 6 0.000000 0.000000 0.000000 0.000000 0.000000 -0.269786
#
#
# Mechanical properties :
#
#
# Convention : Reuss Voigt Hill
#
# Bulk Modulus (GPa) = 9.60167 11.22081 10.41124
# Shear Modulus (GPa) = -8.48092 9.21689 0.36798
#
# Velocity S-wave (km/s) = -2.07432 2.16245 0.43208
# Velocity P-wave (km/s) = 0.93040 3.45366 2.35182
#
# Compressibility (1/GPa) = 0.10414852
#
# Stress axis : x y z
#
# Youngs Moduli (GPa) = -12.82285 -5.90774 15.64251
#
# Poissons Ratio (x) = 0.81681 0.09678
# Poissons Ratio (y) = 1.77290 -0.18245
# Poissons Ratio (z) = -0.07933 0.06891
#
# Static dielectric constant tensor:
#      x y z
#    x 1.753470 0.000000 0.000000 
#    y 0.000000 1.714450 0.000000 
#    z 0.000000 0.000000 1.697050 
# 
# From -- ./inp_files/35701.got.cif
#   From: 2010.05.17/outbox.ucp.g08.bks.cvg/sg51_18_cif.got.tgz:35701.got - 2010.06.11 16:27:58.
