data_PCOD9407404
_publ_section_title
;
Structure prediction by ZEFSAII (Michael W. Deem and Ramdas Pophale) SiO2 
 PCOD9407404
Probable space group: P M M A
;
_chemical_formula_sum "Si O2"
_cell_formula_units_Z 56
_cell_length_a 25.002197
_cell_length_b 9.670195
_cell_length_c 13.307479
_cell_angle_alpha 90.000000
_cell_angle_beta 90.000000
_cell_angle_gamma 90.000000
_cell_volume 3217.430645
_symmetry_space_group_name_H-M "P M M A"
_symmetry_group_IT_number 51
_symmetry_cell_setting 'orthorhombic'
loop_
_space_group_symop_operation_xyz
x,y,z
1/2-x,-y,z
1/2+x,-y,-z
-x,y,-z
-x,-y,-z
1/2+x,y,-z
1/2-x,y,z
x,-y,z
loop_
_atom_site_type_symbol
_atom_site_label
_atom_site_fract_x
_atom_site_fract_y
_atom_site_fract_z
Si Si1 0.614797 0.832271 0.923641
Si Si2 0.007204 0.340629 0.613905
Si Si3 0.987733 0.163287 0.801983
Si Si4 0.366548 0.340535 0.663815
Si Si5 0.112883 0.835950 0.851899
Si Si6 0.185603 0.660236 0.456683
Si Si7 0.186090 0.836535 0.264350
O O1 0.555677 0.793723 0.884886
O O2 0.656003 0.790979 0.836688
O O3 0.615707 0.000000 0.929271
O O4 0.627076 0.784926 0.036334
O O5 0.988157 0.500000 0.618307
O O6 0.980343 0.248269 0.699515
O O7 0.070363 0.339864 0.638066
O O8 0.000000 0.290211 0.500000
O O9 0.048553 0.181205 0.839476
O O10 0.980044 0.000000 0.782208
O O11 0.350471 0.500000 0.682431
O O12 0.359585 0.247620 0.762153
O O13 0.336656 0.290415 0.563696
O O14 0.124040 0.000000 0.842816
O O15 0.250000 0.663558 0.459783
O O16 0.168549 0.500000 0.444234
O O17 0.168186 0.751250 0.361942
O O18 0.250000 0.819426 0.252966
O O19 0.175442 0.000000 0.279208
#
# Coordination Sequence:
#
# PCOD9407404 Si02
#       7
#     8   8   8   8   8   8   8
#     4   9  17  30  49  70  93 123 157 192 234 276
#     4   9  18  30  43  63  94 126 151 182 228 277
#     4   9  17  29  46  68  91 120 158 193 224 267
#     4   9  18  32  48  66  93 124 152 187 233 275
#     4   9  17  31  49  69  94 124 157 192 228 270
#     4   9  18  33  52  71  92 121 156 193 233 278
#     4   9  18  32  49  70  95 120 149 190 236 278
#
# _framework density 17.405190999999999
#
# number of rings (size 3 to 8) (size 9 to 14) (size 15 to 20)
#    0.000    3.000    0.000    0.429    2.000    2.571 
#    0.000    2.143    0.000    4.286    0.000    0.000 
#    0.000    0.000    0.000    0.000    0.000    0.000 
#
# Total GULP energy -312049.321084 kJ/mol
# GULP energy per Si atom -5572.309305 kJ/mol
# Density = 1.736558 g / cm^3
# Si number density = 17.405191 Si / 1000 Ang^3
#
#
#
# Elastic Constant Matrix: (Units=GPa)
#
#
# Indices 1 2 3 4 5 6 
#
# 1 16.1798 19.3947 32.0130 0.0000 0.0000 0.0000
# 2 19.3947 39.5066 67.6520 0.0000 0.0000 0.0000
# 3 32.0130 67.6520 197.5043 0.0000 0.0000 0.0000
# 4 0.0000 0.0000 0.0000 -22.8110 0.0000 0.0000
# 5 0.0000 0.0000 0.0000 0.0000 22.7213 0.0000
# 6 0.0000 0.0000 0.0000 0.0000 0.0000 12.5376
#
#
#
# Elastic Compliance Matrix: (Units=1/GPa)
#
#
# Indices 1 2 3 4 5 6 
#
# 1 0.150582 -0.077711 0.002211 0.000000 0.000000 0.000000
# 2 -0.077711 0.101328 -0.022112 0.000000 0.000000 0.000000
# 3 0.002211 -0.022112 0.012279 0.000000 0.000000 0.000000
# 4 0.000000 0.000000 0.000000 -0.043838 0.000000 0.000000
# 5 0.000000 0.000000 0.000000 0.000000 0.044012 0.000000
# 6 0.000000 0.000000 0.000000 0.000000 0.000000 0.079760
#
#
# Mechanical properties :
#
#
# Convention : Reuss Voigt Hill
#
# Bulk Modulus (GPa) = 14.50001 54.58999 34.54500
# Shear Modulus (GPa) = 8.89150 11.43164 10.16157
#
# Velocity S-wave (km/s) = 2.26266 2.56558 2.41887
# Velocity P-wave (km/s) = 3.89552 6.34102 5.26230
#
# Compressibility (1/GPa) = 0.06896548
#
# Stress axis : x y z
#
# Youngs Moduli (GPa) = 6.64089 9.86896 81.43959
#
# Poissons Ratio (x) = 0.76692 -0.18006
# Poissons Ratio (y) = 0.51607 1.80082
# Poissons Ratio (z) = -0.01468 0.21823
#
# Static dielectric constant tensor:
#      x y z
#    x 1.598700 0.000000 0.000000 
#    y 0.000000 1.587210 0.000000 
#    z 0.000000 0.000000 1.584730 
# 
# From -- ./inp_files/19170.got.cif
#   From: 2010.05.17/outbox.cif.g08.bks.cpg/sg51_10_cif.got.tgz:19170.got - 2010.06.03 11:52:47.
