data_PCOD9407514
_publ_section_title
;
Structure prediction by ZEFSAII (Michael W. Deem and Ramdas Pophale) SiO2 
 PCOD9407514
Probable space group: P M M A
;
_chemical_formula_sum "Si O2"
_cell_formula_units_Z 64
_cell_length_a 30.000000
_cell_length_b 9.000000
_cell_length_c 12.000000
_cell_angle_alpha 90.000000
_cell_angle_beta 90.000000
_cell_angle_gamma 90.000000
_cell_volume 3240.000000
_symmetry_space_group_name_H-M "P M M A"
_symmetry_group_IT_number 51
_symmetry_cell_setting 'orthorhombic'
loop_
_space_group_symop_operation_xyz
x,y,z
1/2-x,-y,z
1/2+x,-y,-z
-x,y,-z
-x,-y,-z
1/2+x,y,-z
1/2-x,y,z
x,-y,z
loop_
_atom_site_type_symbol
_atom_site_label
_atom_site_fract_x
_atom_site_fract_y
_atom_site_fract_z
Si Si1 0.198136 0.161762 0.572027
Si Si2 0.666104 0.334354 0.626480
Si Si3 0.443279 0.674972 0.754515
Si Si4 0.927056 0.330838 0.492189
Si Si5 0.884802 0.821208 0.060207
Si Si6 0.471802 0.833702 0.317351
Si Si7 0.199672 0.181579 0.806116
Si Si8 0.120794 0.830758 0.185303
O O1 0.250000 0.143947 0.599395
O O2 0.196285 0.243369 0.456444
O O3 0.181988 0.237514 0.685722
O O4 0.176299 0.000000 0.558512
O O5 0.682266 0.500000 0.640408
O O6 0.619612 0.334511 0.556896
O O7 0.655924 0.259691 0.743152
O O8 0.438529 0.500000 0.769251
O O9 0.422269 0.717475 0.634808
O O10 0.420425 0.757838 0.855274
O O11 0.494303 0.722707 0.740688
O O12 0.944714 0.500000 0.492054
O O13 0.958751 0.224328 0.561334
O O14 0.835834 0.777745 0.102054
O O15 0.888597 0.000000 0.061593
O O16 0.889692 0.767114 0.935042
O O17 0.425415 0.835324 0.251607
O O18 0.490573 0.000000 0.319170
O O19 0.250000 0.230645 0.829512
O O20 0.199799 0.000000 0.798287
O O21 0.137094 0.000000 0.173228
#
# Coordination Sequence:
#
# PCOD9407514 Si02
#       8
#     8   8   8   8   8   8   8   8
#     4   9  17  30  50  77 107 133 158 196 248 302
#     4  10  19  32  52  74  98 131 168 205 248 301
#     4  11  22  34  50  74 105 134 164 209 260 308
#     4   9  19  34  50  72 102 132 162 204 261 314
#     4  10  20  35  55  76 100 133 174 213 248 295
#     4  10  20  34  52  73  99 133 173 213 253 301
#     4   8  15  30  54  82 106 128 159 202 249 295
#     4   9  20  37  53  71  99 135 173 214 255 295
#
# _framework density 19.753086
#
# number of rings (size 3 to 8) (size 9 to 14) (size 15 to 20)
#    0.000    2.500    0.000    3.000    0.000    4.750 
#    0.000    3.125    0.000    3.375    0.000    0.000 
#    0.000    0.000    0.000    0.000    0.000    0.000 
#
# Total GULP energy -356405.248436 kJ/mol
# GULP energy per Si atom -5568.832007 kJ/mol
# Density = 1.970813 g / cm^3
# Si number density = 19.753086 Si / 1000 Ang^3
#
#
#
# Elastic Constant Matrix: (Units=GPa)
#
#
# Indices 1 2 3 4 5 6 
#
# 1 17.2486 6.6426 -10.8726 0.0000 0.0000 0.0000
# 2 6.6426 23.8644 44.6638 0.0000 0.0000 0.0000
# 3 -10.8726 44.6638 91.3410 0.0000 0.0000 0.0000
# 4 0.0000 0.0000 0.0000 5.2120 0.0000 0.0000
# 5 0.0000 0.0000 0.0000 0.0000 35.6373 0.0000
# 6 0.0000 0.0000 0.0000 0.0000 0.0000 113.0325
#
#
#
# Elastic Compliance Matrix: (Units=1/GPa)
#
#
# Indices 1 2 3 4 5 6 
#
# 1 -0.018287 0.108015 -0.054994 0.000000 0.000000 0.000000
# 2 0.108015 -0.144102 0.083320 0.000000 0.000000 0.000000
# 3 -0.054994 0.083320 -0.036340 0.000000 0.000000 0.000000
# 4 0.000000 0.000000 0.000000 0.191864 0.000000 0.000000
# 5 0.000000 0.000000 0.000000 0.000000 0.028060 0.000000
# 6 0.000000 0.000000 0.000000 0.000000 0.000000 0.008847
#
#
# Mechanical properties :
#
#
# Convention : Reuss Voigt Hill
#
# Bulk Modulus (GPa) = 13.52195 23.70241 18.61218
# Shear Modulus (GPa) = -22.93692 36.91105 6.98707
#
# Velocity S-wave (km/s) = -3.41131 4.32745 1.88279
# Velocity P-wave (km/s) = 2.94205 6.08231 3.76422
#
# Compressibility (1/GPa) = 0.07395384
#
# Stress axis : x y z
#
# Youngs Moduli (GPa) = -54.68244 -6.93954 -27.51793
#
# Poissons Ratio (x) = 0.74958 -1.51332
# Poissons Ratio (y) = 5.90655 2.29280
# Poissons Ratio (z) = -3.00721 0.57820
#
# Static dielectric constant tensor:
#      x y z
#    x 1.720420 0.000000 0.000000 
#    y 0.000000 1.911890 0.000000 
#    z 0.000000 0.000000 1.711940 
# 
# From -- ./inp_files/19614.got.cif
#   From: 2010.05.17/outbox.ucp.g08.bks.cvg/sg51_10_cif.got.tgz:19614.got - 2010.06.11 16:27:58.
