data_PCOD9407719
_publ_section_title
;
Structure prediction by ZEFSAII (Michael W. Deem and Ramdas Pophale) SiO2 
 PCOD9407719
Probable space group: P M M A
;
_chemical_formula_sum "Si O2"
_cell_formula_units_Z 38
_cell_length_a 9.000000
_cell_length_b 24.000000
_cell_length_c 9.000000
_cell_angle_alpha 90.000000
_cell_angle_beta 90.000000
_cell_angle_gamma 90.000000
_cell_volume 1944.000000
_symmetry_space_group_name_H-M "P M M A"
_symmetry_group_IT_number 51
_symmetry_cell_setting 'orthorhombic'
loop_
_space_group_symop_operation_xyz
x,y,z
1/2-x,-y,z
1/2+x,-y,-z
-x,y,-z
-x,-y,-z
1/2+x,y,-z
1/2-x,y,z
x,-y,z
loop_
_atom_site_type_symbol
_atom_site_label
_atom_site_fract_x
_atom_site_fract_y
_atom_site_fract_z
Si Si1 0.072802 0.307385 0.342735
Si Si2 0.425696 0.000000 0.157726
Si Si3 0.914713 0.614511 0.151018
Si Si4 0.929098 0.110599 0.659675
Si Si5 0.750000 0.500000 0.151934
Si Si6 0.071336 0.789612 0.840624
O O1 0.250000 0.303274 0.347649
O O2 0.000000 0.293406 0.500000
O O3 0.015616 0.367461 0.288763
O O4 0.001006 0.266655 0.221822
O O5 0.463129 0.055534 0.246624
O O6 0.250000 0.000000 0.136962
O O7 0.500000 0.000000 0.000000
O O8 0.750000 0.642125 0.158042
O O9 0.876791 0.549466 0.151817
O O10 0.000000 0.628966 0.000000
O O11 0.750000 0.119028 0.654153
O O12 0.000000 0.102574 0.500000
O O13 0.011425 0.162471 0.733057
O O14 0.250000 0.787776 0.845494
O O15 0.000000 0.800968 0.000000
#
# Coordination Sequence:
#
# PCOD9407719 Si02
#       6
#     8   4   8   8   2   8
#     4  12  25  43  65  91 125 165 207 256 314 373
#     4  10  23  40  62  90 126 170 217 266 317 372
#     4  10  20  38  63  93 125 161 204 252 301 363
#     4  11  23  41  63  93 129 169 214 262 318 378
#     4   8  22  36  68  90 134 156 214 244 314 348
#     4  12  25  43  66  95 126 163 208 261 314 374
#
# _framework density 19.547325000000001
#
# number of rings (size 3 to 8) (size 9 to 14) (size 15 to 20)
#    0.632    0.421    0.000    7.579    0.000    3.368 
#    0.000    0.526    0.000    0.000    0.000    0.000 
#    0.000    0.000    0.000    0.000    0.000    0.000 
#
# Total GULP energy -211665.266077 kJ/mol
# GULP energy per Si atom -5570.138581 kJ/mol
# Density = 1.950283 g / cm^3
# Si number density = 19.547325 Si / 1000 Ang^3
#
#
#
# Elastic Constant Matrix: (Units=GPa)
#
#
# Indices 1 2 3 4 5 6 
#
# 1 165.3843 47.4555 48.5195 0.0000 0.0000 0.0000
# 2 47.4555 81.0722 37.8477 0.0000 0.0000 0.0000
# 3 48.5195 37.8477 105.6890 0.0000 0.0000 0.0000
# 4 0.0000 0.0000 0.0000 -1.6575 0.0000 0.0000
# 5 0.0000 0.0000 0.0000 0.0000 31.4008 0.0000
# 6 0.0000 0.0000 0.0000 0.0000 0.0000 44.4370
#
#
#
# Elastic Compliance Matrix: (Units=1/GPa)
#
#
# Indices 1 2 3 4 5 6 
#
# 1 0.007710 -0.003435 -0.002309 0.000000 0.000000 0.000000
# 2 -0.003435 0.016341 -0.004275 0.000000 0.000000 0.000000
# 3 -0.002309 -0.004275 0.012053 0.000000 0.000000 0.000000
# 4 0.000000 0.000000 0.000000 -0.603301 0.000000 0.000000
# 5 0.000000 0.000000 0.000000 0.000000 0.031846 0.000000
# 6 0.000000 0.000000 0.000000 0.000000 0.000000 0.022504
#
#
# Mechanical properties :
#
#
# Convention : Reuss Voigt Hill
#
# Bulk Modulus (GPa) = 62.24602 68.86567 65.55585
# Shear Modulus (GPa) = -10.25737 29.39090 9.56676
#
# Velocity S-wave (km/s) = -2.29322 3.88180 2.21467
# Velocity P-wave (km/s) = 4.99010 7.44298 6.33636
#
# Compressibility (1/GPa) = 0.01606528
#
# Stress axis : x y z
#
# Youngs Moduli (GPa) = 129.70883 61.19610 82.96857
#
# Poissons Ratio (x) = 0.21019 0.19160
# Poissons Ratio (y) = 0.44551 0.35469
# Poissons Ratio (z) = 0.29954 0.26161
#
# Static dielectric constant tensor:
#      x y z
#    x 1.652260 0.000000 0.000000 
#    y 0.000000 1.881840 0.000000 
#    z 0.000000 0.000000 1.875800 
# 
# From -- ./inp_files/5286.got.cif
#   From: 2010.05.17/outbox.ucp.g08.bks.cvg/sg51_3_cif.got.tgz:5286.got - 2010.06.11 16:27:58.
