data_PCOD9407965
_publ_section_title
;
Structure prediction by ZEFSAII (Michael W. Deem and Ramdas Pophale) SiO2 
 PCOD9407965
Probable space group: P N N A
;
_chemical_formula_sum "Si O2"
_cell_formula_units_Z 28
_cell_length_a 13.053874
_cell_length_b 9.960893
_cell_length_c 8.688536
_cell_angle_alpha 90.000000
_cell_angle_beta 90.000000
_cell_angle_gamma 90.000000
_cell_volume 1129.755063
_symmetry_space_group_name_H-M "P N N A"
_symmetry_group_IT_number 52
_symmetry_cell_setting 'orthorhombic'
loop_
_space_group_symop_operation_xyz
x,y,z
1/2-x,-y,z
x,1/2-y,1/2-z
1/2-x,1/2+y,1/2-z
-x,-y,-z
1/2+x,y,-z
-x,1/2+y,1/2+z
1/2+x,1/2-y,1/2+z
loop_
_atom_site_type_symbol
_atom_site_label
_atom_site_fract_x
_atom_site_fract_y
_atom_site_fract_z
Si Si1 0.165634 0.750000 0.250000
Si Si2 0.543455 0.489325 0.728237
Si Si3 0.147969 0.409125 0.578368
Si Si4 0.682244 0.119650 0.504898
O O1 0.093348 0.633333 0.308461
O O2 0.238309 0.821063 0.370549
O O3 0.423605 0.516106 0.704019
O O4 0.586641 0.404923 0.585559
O O5 0.586378 0.434526 0.891272
O O6 0.250000 0.500000 0.558003
O O7 0.162952 0.249732 0.597661
O O8 0.750000 0.000000 0.432402
#
# Coordination Sequence:
#
# PCOD9407965 Si02
#       4
#     4   8   8   8
#     4  10  16  34  56  82 112 150 200 250 290 364
#     4  10  20  31  60  87 115 153 204 252 308 351
#     4  11  19  35  60  88 116 156 207 252 305 373
#     4  10  18  34  59  85 115 155 204 253 301 356
#
# _framework density 24.784133000000001
#
# number of rings (size 3 to 8) (size 9 to 14) (size 15 to 20)
#    0.000    1.714    5.714    0.857    0.000    0.000 
#    0.000    5.714   18.857    0.000    0.000    0.000 
#    0.000    0.000    0.000    0.000    0.000    0.000 
#
# Total GULP energy -156448.322680 kJ/mol
# GULP energy per Si atom -5587.440096 kJ/mol
# Density = 2.472772 g / cm^3
# Si number density = 24.784133 Si / 1000 Ang^3
#
#
#
# Elastic Constant Matrix: (Units=GPa)
#
#
# Indices 1 2 3 4 5 6 
#
# 1 173.6345 68.4673 56.2928 0.0000 0.0000 0.0000
# 2 68.4673 174.4870 37.1981 0.0000 0.0000 0.0000
# 3 56.2928 37.1981 87.8920 0.0000 0.0000 0.0000
# 4 0.0000 0.0000 0.0000 -12.2863 0.0000 0.0000
# 5 0.0000 0.0000 0.0000 0.0000 21.2489 0.0000
# 6 0.0000 0.0000 0.0000 0.0000 0.0000 30.1920
#
#
#
# Elastic Compliance Matrix: (Units=1/GPa)
#
#
# Indices 1 2 3 4 5 6 
#
# 1 0.007998 -0.002249 -0.004171 0.000000 0.000000 0.000000
# 2 -0.002249 0.006932 -0.001493 0.000000 0.000000 0.000000
# 3 -0.004171 -0.001493 0.014681 0.000000 0.000000 0.000000
# 4 0.000000 0.000000 0.000000 -0.081392 0.000000 0.000000
# 5 0.000000 0.000000 0.000000 0.000000 0.047061 0.000000
# 6 0.000000 0.000000 0.000000 0.000000 0.000000 0.033121
#
#
# Mechanical properties :
#
#
# Convention : Reuss Voigt Hill
#
# Bulk Modulus (GPa) = 72.54447 84.43666 78.49056
# Shear Modulus (GPa) = 102.40907 26.10127 64.25517
#
# Velocity S-wave (km/s) = 6.43507 3.24874 5.09728
# Velocity P-wave (km/s) = 9.19498 6.94372 8.14748
#
# Compressibility (1/GPa) = 0.01378465
#
# Stress axis : x y z
#
# Youngs Moduli (GPa) = 125.02553 144.25789 68.11603
#
# Poissons Ratio (x) = 0.32449 0.28410
# Poissons Ratio (y) = 0.28123 0.10171
# Poissons Ratio (z) = 0.52146 0.21540
#
# Static dielectric constant tensor:
#      x y z
#    x 1.972870 0.000000 0.000000 
#    y 0.000000 2.028230 0.000000 
#    z 0.000000 0.000000 2.011170 
# 
# From -- ./inp_files/17543.got.cif
#   From: 2010.05.17/outbox.cif.g08.bks.cpg/sg52_9_cif.got.tgz:17543.got - 2010.06.03 12:15:38.
