data_PCOD9407974
_publ_section_title
;
Structure prediction by ZEFSAII (Michael W. Deem and Ramdas Pophale) SiO2 
 PCOD9407974
Probable space group: P N N A
;
_chemical_formula_sum "Si O2"
_cell_formula_units_Z 56
_cell_length_a 19.579522
_cell_length_b 11.882603
_cell_length_c 11.105410
_cell_angle_alpha 90.000000
_cell_angle_beta 90.000000
_cell_angle_gamma 90.000000
_cell_volume 2583.736791
_symmetry_space_group_name_H-M "P N N A"
_symmetry_group_IT_number 52
_symmetry_cell_setting 'orthorhombic'
loop_
_space_group_symop_operation_xyz
x,y,z
1/2-x,-y,z
x,1/2-y,1/2-z
1/2-x,1/2+y,1/2-z
-x,-y,-z
1/2+x,y,-z
-x,1/2+y,1/2+z
1/2+x,1/2-y,1/2+z
loop_
_atom_site_type_symbol
_atom_site_label
_atom_site_fract_x
_atom_site_fract_y
_atom_site_fract_z
Si Si1 0.250000 0.500000 0.716261
Si Si2 0.035136 0.523149 0.645709
Si Si3 0.894106 0.684004 0.878500
Si Si4 0.587707 0.750000 0.750000
Si Si5 0.652723 0.387311 0.476254
Si Si6 0.123841 0.509928 0.286151
Si Si7 0.035920 0.761672 0.506491
Si Si8 0.631864 0.634756 0.173935
O O1 0.292982 0.580691 0.625846
O O2 0.298134 0.426906 0.801362
O O3 0.079564 0.426864 0.580000
O O4 0.039539 0.636068 0.563371
O O5 0.075123 0.554556 0.766434
O O6 0.957031 0.500992 0.678951
O O7 0.900592 0.750000 0.750000
O O8 0.851820 0.760691 0.972370
O O9 0.865743 0.565106 0.833106
O O10 0.969516 0.680551 0.935941
O O11 0.634238 0.640688 0.733729
O O12 0.538650 0.761118 0.635519
O O13 0.662454 0.462049 0.597044
O O14 0.104186 0.827979 0.545882
O O15 0.632650 0.750000 0.250000
#
# Coordination Sequence:
#
# PCOD9407974 Si02
#       8
#     4   8   8   4   8   8   8   8
#     4  10  22  38  62  98 120 172 224 268 332 392
#     4  10  16  34  64  88 114 160 213 254 317 379
#     4  10  18  33  63  90 123 162 213 264 327 375
#     4  12  26  30  54  92 138 168 198 248 336 392
#     4  10  19  33  62  89 122 158 223 271 306 396
#     4  11  20  36  57  93 128 166 207 262 327 396
#     4  11  18  36  56  93 124 162 204 263 325 398
#     4   9  19  36  66  89 117 159 212 270 315 380
#
# _framework density 21.674033999999999
#
# number of rings (size 3 to 8) (size 9 to 14) (size 15 to 20)
#    0.000    1.714    5.714    1.714    0.000    0.571 
#    0.000    1.429   15.714    0.857    0.000    0.000 
#    0.000    0.000    0.000    0.000    0.000    0.000 
#
# Total GULP energy -312725.803867 kJ/mol
# GULP energy per Si atom -5584.389355 kJ/mol
# Density = 2.162470 g / cm^3
# Si number density = 21.674034 Si / 1000 Ang^3
#
#
#
# Elastic Constant Matrix: (Units=GPa)
#
#
# Indices 1 2 3 4 5 6 
#
# 1 64.4133 16.4410 25.0990 0.0000 0.0000 0.0000
# 2 16.4410 100.2911 30.8063 0.0000 0.0000 0.0000
# 3 25.0990 30.8063 90.3953 0.0000 0.0000 0.0000
# 4 0.0000 0.0000 0.0000 27.2269 0.0000 0.0000
# 5 0.0000 0.0000 0.0000 0.0000 3.9690 0.0000
# 6 0.0000 0.0000 0.0000 0.0000 0.0000 17.0349
#
#
#
# Elastic Compliance Matrix: (Units=1/GPa)
#
#
# Indices 1 2 3 4 5 6 
#
# 1 0.017621 -0.001548 -0.004365 0.000000 0.000000 0.000000
# 2 -0.001548 0.011273 -0.003412 0.000000 0.000000 0.000000
# 3 -0.004365 -0.003412 0.013437 0.000000 0.000000 0.000000
# 4 0.000000 0.000000 0.000000 0.036728 0.000000 0.000000
# 5 0.000000 0.000000 0.000000 0.000000 0.251950 0.000000
# 6 0.000000 0.000000 0.000000 0.000000 0.000000 0.058703
#
#
# Mechanical properties :
#
#
# Convention : Reuss Voigt Hill
#
# Bulk Modulus (GPa) = 42.22768 44.42136 43.32452
# Shear Modulus (GPa) = 12.01185 21.82973 16.92079
#
# Velocity S-wave (km/s) = 2.35671 3.17706 2.79712
# Velocity P-wave (km/s) = 5.18949 5.83078 5.51945
#
# Compressibility (1/GPa) = 0.02368115
#
# Stress axis : x y z
#
# Youngs Moduli (GPa) = 56.75152 88.70947 74.41975
#
# Poissons Ratio (x) = 0.13730 0.32484
# Poissons Ratio (y) = 0.08784 0.25392
# Poissons Ratio (z) = 0.24772 0.30267
#
# Static dielectric constant tensor:
#      x y z
#    x 1.781500 0.000000 0.000000 
#    y 0.000000 1.861240 0.000000 
#    z 0.000000 0.000000 1.782780 
# 
# From -- ./inp_files/21718.got.cif
#   From: 2010.05.17/outbox.cif.g08.bks.cpg/sg52_11_cif.got.tgz:21718.got - 2010.06.03 12:15:38.
