data_PCOD9407752
_publ_section_title
;
Structure prediction by ZEFSAII (Michael W. Deem and Ramdas Pophale) SiO2 
 PCOD9407752
Probable space group: P M M A
;
_chemical_formula_sum "Si O2"
_cell_formula_units_Z 56
_cell_length_a 9.000000
_cell_length_b 21.000000
_cell_length_c 15.000000
_cell_angle_alpha 90.000000
_cell_angle_beta 90.000000
_cell_angle_gamma 90.000000
_cell_volume 2835.000000
_symmetry_space_group_name_H-M "P M M A"
_symmetry_group_IT_number 51
_symmetry_cell_setting 'orthorhombic'
loop_
_space_group_symop_operation_xyz
x,y,z
1/2-x,-y,z
1/2+x,-y,-z
-x,y,-z
-x,-y,-z
1/2+x,y,-z
1/2-x,y,z
x,-y,z
loop_
_atom_site_type_symbol
_atom_site_label
_atom_site_fract_x
_atom_site_fract_y
_atom_site_fract_z
Si Si1 0.572438 0.333632 0.408410
Si Si2 0.918219 0.799356 0.853333
Si Si3 0.928271 0.661144 0.909995
Si Si4 0.571856 0.929856 0.097831
Si Si5 0.081198 0.202681 0.354586
Si Si6 0.571308 0.070667 0.401939
Si Si7 0.928554 0.575554 0.738460
O O1 0.500000 0.356237 0.500000
O O2 0.750000 0.331878 0.411489
O O3 0.510038 0.261761 0.393766
O O4 0.514838 0.382730 0.334260
O O5 0.750000 0.811137 0.888405
O O6 0.981987 0.734425 0.895220
O O7 0.906526 0.783137 0.749665
O O8 0.009314 0.864690 0.861190
O O9 0.750000 0.665542 0.916341
O O10 0.961431 0.612525 0.830479
O O11 0.000000 0.636855 0.000000
O O12 0.750000 0.926098 0.093856
O O13 0.534920 0.000000 0.138783
O O14 0.500000 0.930904 0.000000
O O15 0.250000 0.199482 0.392370
O O16 0.001670 0.134125 0.361900
O O17 0.500000 0.068384 0.500000
O O18 0.750000 0.077535 0.404935
O O19 0.540455 0.000000 0.361186
O O20 0.750000 0.580612 0.722897
O O21 0.965303 0.500000 0.739701
#
# Coordination Sequence:
#
# PCOD9407752 Si02
#       7
#     8   8   8   8   8   8   8
#     4  12  25  42  67  96 129 167 210 258 311 372
#     4  10  21  37  58  83 116 156 201 254 306 364
#     4  10  21  39  62  93 128 165 209 253 306 364
#     4  10  21  36  54  78 111 151 199 253 307 366
#     4  11  22  39  61  86 120 159 206 258 311 370
#     4  10  21  37  56  81 115 155 202 255 311 370
#     4  10  22  44  70  95 130 170 207 254 309 366
#
# _framework density 19.753086
#
# number of rings (size 3 to 8) (size 9 to 14) (size 15 to 20)
#    0.000    1.571    1.429    3.429    0.000    6.571 
#    0.000    2.857    0.000    0.000    0.000    0.000 
#    0.000    0.000    0.000    0.000    0.000    0.000 
#
# Total GULP energy -312470.138306 kJ/mol
# GULP energy per Si atom -5579.823898 kJ/mol
# Density = 1.970813 g / cm^3
# Si number density = 19.753086 Si / 1000 Ang^3
#
#
#
# Elastic Constant Matrix: (Units=GPa)
#
#
# Indices 1 2 3 4 5 6 
#
# 1 104.0577 74.6754 47.1545 0.0000 0.0000 0.0000
# 2 74.6754 160.6616 55.8687 0.0000 0.0000 0.0000
# 3 47.1545 55.8687 110.5882 0.0000 0.0000 0.0000
# 4 0.0000 0.0000 0.0000 -160.3468 0.0000 0.0000
# 5 0.0000 0.0000 0.0000 0.0000 27.3298 0.0000
# 6 0.0000 0.0000 0.0000 0.0000 0.0000 33.3269
#
#
#
# Elastic Compliance Matrix: (Units=1/GPa)
#
#
# Indices 1 2 3 4 5 6 
#
# 1 0.015522 -0.005960 -0.003608 0.000000 0.000000 0.000000
# 2 -0.005960 0.009839 -0.002429 0.000000 0.000000 0.000000
# 3 -0.003608 -0.002429 0.011808 0.000000 0.000000 0.000000
# 4 0.000000 0.000000 0.000000 -0.006236 0.000000 0.000000
# 5 0.000000 0.000000 0.000000 0.000000 0.036590 0.000000
# 6 0.000000 0.000000 0.000000 0.000000 0.000000 0.030006
#
#
# Mechanical properties :
#
#
# Convention : Reuss Voigt Hill
#
# Bulk Modulus (GPa) = 75.89925 81.18942 78.54434
# Shear Modulus (GPa) = 39.70938 -6.76411 16.47263
#
# Velocity S-wave (km/s) = 4.48849 -1.85250 2.89091
# Velocity P-wave (km/s) = 8.08514 6.05109 7.14091
#
# Compressibility (1/GPa) = 0.01317536
#
# Stress axis : x y z
#
# Youngs Moduli (GPa) = 64.42449 101.63279 84.68752
#
# Poissons Ratio (x) = 0.60575 0.30551
# Poissons Ratio (y) = 0.38398 0.20574
# Poissons Ratio (z) = 0.23241 0.24691
#
# Static dielectric constant tensor:
#      x y z
#    x 1.677580 0.000000 0.000000 
#    y 0.000000 1.692140 0.000000 
#    z 0.000000 0.000000 1.747190 
# 
# From -- ./inp_files/21843.got.cif
#   From: 2010.05.17/outbox.ucp.g08.bks.cvg/sg51_11_cif.got.tgz:21843.got - 2010.06.11 16:27:58.
