data_PCOD9407695
_publ_section_title
;
Structure prediction by ZEFSAII (Michael W. Deem and Ramdas Pophale) SiO2 
 PCOD9407695
Probable space group: P M M A
;
_chemical_formula_sum "Si O2"
_cell_formula_units_Z 48
_cell_length_a 18.000000
_cell_length_b 15.000000
_cell_length_c 9.000000
_cell_angle_alpha 90.000000
_cell_angle_beta 90.000000
_cell_angle_gamma 90.000000
_cell_volume 2430.000000
_symmetry_space_group_name_H-M "P M M A"
_symmetry_group_IT_number 51
_symmetry_cell_setting 'orthorhombic'
loop_
_space_group_symop_operation_xyz
x,y,z
1/2-x,-y,z
1/2+x,-y,-z
-x,y,-z
-x,-y,-z
1/2+x,y,-z
1/2-x,y,z
x,-y,z
loop_
_atom_site_type_symbol
_atom_site_label
_atom_site_fract_x
_atom_site_fract_y
_atom_site_fract_z
Si Si1 0.468369 0.596354 0.337851
Si Si2 0.337606 0.785152 0.914297
Si Si3 0.160647 0.895714 0.618523
Si Si4 0.077938 0.398778 0.912548
Si Si5 0.430358 0.217882 0.392098
Si Si6 0.933361 0.898980 0.882493
O O1 0.500000 0.586834 0.500000
O O2 0.436528 0.500000 0.288059
O O3 0.544819 0.612321 0.250623
O O4 0.414678 0.681817 0.333218
O O5 0.250000 0.775248 0.908266
O O6 0.360911 0.838051 0.764155
O O7 0.372565 0.687478 0.939498
O O8 0.363649 0.849615 0.045471
O O9 0.250000 0.899599 0.615142
O O10 0.131263 0.838631 0.479266
O O11 0.133950 0.000000 0.622902
O O12 0.108432 0.500000 0.930953
O O13 0.000000 0.393286 0.000000
O O14 0.500000 0.227759 0.500000
O O15 0.456718 0.158293 0.256714
O O16 0.916099 0.000000 0.841885
O O17 0.000000 0.898040 0.000000
#
# Coordination Sequence:
#
# PCOD9407695 Si02
#       6
#     8   8   8   8   8   8
#     4   9  17  30  52  80 107 136 171 215 266 319
#     4  11  22  37  58  82 112 148 185 230 282 334
#     4  10  22  39  56  77 110 151 190 228 276 331
#     4  10  20  36  58  82 110 144 182 225 274 330
#     4  11  21  35  58  83 109 141 184 233 275 323
#     4  11  23  37  55  81 113 147 187 234 281 333
#
# _framework density 19.753086
#
# number of rings (size 3 to 8) (size 9 to 14) (size 15 to 20)
#    0.000    1.667    0.000    6.500    0.000    4.667 
#    0.000    0.000    0.000    1.500    0.000    0.000 
#    0.000    0.000    0.000    0.000    0.000    0.000 
#
# Total GULP energy -267389.914044 kJ/mol
# GULP energy per Si atom -5570.623209 kJ/mol
# Density = 1.970813 g / cm^3
# Si number density = 19.753086 Si / 1000 Ang^3
#
#
#
# Elastic Constant Matrix: (Units=GPa)
#
#
# Indices 1 2 3 4 5 6 
#
# 1 40.7676 45.4696 11.0474 0.0000 0.0000 0.0000
# 2 45.4696 230.6871 36.6049 0.0000 0.0000 0.0000
# 3 11.0474 36.6049 48.9052 0.0000 0.0000 0.0000
# 4 0.0000 0.0000 0.0000 24.9879 0.0000 0.0000
# 5 0.0000 0.0000 0.0000 0.0000 21.3586 0.0000
# 6 0.0000 0.0000 0.0000 0.0000 0.0000 3.7157
#
#
#
# Elastic Compliance Matrix: (Units=1/GPa)
#
#
# Indices 1 2 3 4 5 6 
#
# 1 0.031782 -0.005816 -0.002826 0.000000 0.000000 0.000000
# 2 -0.005816 0.005983 -0.003165 0.000000 0.000000 0.000000
# 3 -0.002826 -0.003165 0.023455 0.000000 0.000000 0.000000
# 4 0.000000 0.000000 0.000000 0.040019 0.000000 0.000000
# 5 0.000000 0.000000 0.000000 0.000000 0.046820 0.000000
# 6 0.000000 0.000000 0.000000 0.000000 0.000000 0.269129
#
#
# Mechanical properties :
#
#
# Convention : Reuss Voigt Hill
#
# Bulk Modulus (GPa) = 26.59117 56.28933 41.44025
# Shear Modulus (GPa) = 11.02931 25.16164 18.09547
#
# Velocity S-wave (km/s) = 2.36552 3.57292 3.02997
# Velocity P-wave (km/s) = 4.57733 6.75125 5.76764
#
# Compressibility (1/GPa) = 0.03760646
#
# Stress axis : x y z
#
# Youngs Moduli (GPa) = 31.46449 167.12929 42.63498
#
# Poissons Ratio (x) = 0.97201 0.12050
# Poissons Ratio (y) = 0.18299 0.13493
# Poissons Ratio (z) = 0.08893 0.52892
#
# Static dielectric constant tensor:
#      x y z
#    x 1.652930 0.000000 0.000000 
#    y 0.000000 1.773620 0.000000 
#    z 0.000000 0.000000 1.809910 
# 
# From -- ./inp_files/9565.got.cif
#   From: 2010.05.17/outbox.ucp.g08.bks.cvg/sg51_5_cif.got.tgz:9565.got - 2010.06.11 16:27:58.
