data_PCOD9407468
_publ_section_title
;
Structure prediction by ZEFSAII (Michael W. Deem and Ramdas Pophale) SiO2 
 PCOD9407468
Probable space group: P M M A
;
_chemical_formula_sum "Si O2"
_cell_formula_units_Z 64
_cell_length_a 9.000000
_cell_length_b 15.000000
_cell_length_c 24.000000
_cell_angle_alpha 90.000000
_cell_angle_beta 90.000000
_cell_angle_gamma 90.000000
_cell_volume 3240.000000
_symmetry_space_group_name_H-M "P M M A"
_symmetry_group_IT_number 51
_symmetry_cell_setting 'orthorhombic'
loop_
_space_group_symop_operation_xyz
x,y,z
1/2-x,-y,z
1/2+x,-y,-z
-x,y,-z
-x,-y,-z
1/2+x,y,-z
1/2-x,y,z
x,-y,z
loop_
_atom_site_type_symbol
_atom_site_label
_atom_site_fract_x
_atom_site_fract_y
_atom_site_fract_z
Si Si1 0.422960 0.726662 0.137433
Si Si2 0.575698 0.404613 0.059215
Si Si3 0.918278 0.136195 0.307130
Si Si4 0.421689 0.900051 0.193567
Si Si5 0.427314 0.095127 0.417501
Si Si6 0.574428 0.707458 0.554001
Si Si7 0.582367 0.403258 0.761452
Si Si8 0.584018 0.656899 0.339649
O O1 0.250000 0.715738 0.122243
O O2 0.524084 0.677857 0.094280
O O3 0.458625 0.828804 0.146973
O O4 0.445228 0.675617 0.195784
O O5 0.750000 0.403557 0.052129
O O6 0.533193 0.500000 0.085875
O O7 0.500000 0.401453 0.000000
O O8 0.750000 0.105567 0.317716
O O9 0.919411 0.242323 0.315815
O O10 0.973243 0.111774 0.246314
O O11 0.030518 0.098263 0.352648
O O12 0.250000 0.881358 0.211269
O O13 0.429341 0.000000 0.172984
O O14 0.250000 0.095704 0.424674
O O15 0.485054 0.189794 0.439998
O O16 0.486235 0.000000 0.439142
O O17 0.500000 0.667099 0.500000
O O18 0.750000 0.711058 0.548530
O O19 0.526933 0.656025 0.608984
O O20 0.750000 0.390778 0.739145
O O21 0.577355 0.500000 0.789430
O O22 0.469061 0.401375 0.711265
O O23 0.750000 0.636581 0.358515
#
# Coordination Sequence:
#
# PCOD9407468 Si02
#       8
#     8   8   8   8   8   8   8   8
#     4  10  20  35  56  82 117 154 189 230 275 322
#     4  10  21  37  59  87 118 152 190 231 277 330
#     4  10  19  30  46  70 100 135 176 222 267 313
#     4  10  20  33  51  75 106 148 193 231 270 320
#     4   9  18  31  46  65  92 128 168 211 263 323
#     4  10  20  34  52  71  94 127 170 217 267 323
#     4  10  20  34  55  83 112 144 179 215 266 330
#     4  10  20  34  52  74 103 137 174 215 264 321
#
# _framework density 19.753086
#
# number of rings (size 3 to 8) (size 9 to 14) (size 15 to 20)
#    0.000    2.125    1.250    2.250    0.000    6.250 
#    0.000    0.000    0.000    0.750    0.000    0.000 
#    0.000    0.000    0.000    0.000    0.000    0.000 
#
# Total GULP energy -356657.390228 kJ/mol
# GULP energy per Si atom -5572.771722 kJ/mol
# Density = 1.970813 g / cm^3
# Si number density = 19.753086 Si / 1000 Ang^3
#
#
#
# Elastic Constant Matrix: (Units=GPa)
#
#
# Indices 1 2 3 4 5 6 
#
# 1 24.0599 31.6864 48.6282 0.0000 0.0000 0.0000
# 2 31.6864 49.6031 29.6880 0.0000 0.0000 0.0000
# 3 48.6282 29.6880 43.1639 0.0000 0.0000 0.0000
# 4 0.0000 0.0000 0.0000 -28.7511 0.0000 0.0000
# 5 0.0000 0.0000 0.0000 0.0000 24.8165 0.0000
# 6 0.0000 0.0000 0.0000 0.0000 0.0000 -10.5204
#
#
#
# Elastic Compliance Matrix: (Units=1/GPa)
#
#
# Indices 1 2 3 4 5 6 
#
# 1 -0.032435 -0.001956 0.037887 0.000000 0.000000 0.000000
# 2 -0.001956 0.034148 -0.021283 0.000000 0.000000 0.000000
# 3 0.037887 -0.021283 -0.004877 0.000000 0.000000 0.000000
# 4 0.000000 0.000000 0.000000 -0.034781 0.000000 0.000000
# 5 0.000000 0.000000 0.000000 0.000000 0.040296 0.000000
# 6 0.000000 0.000000 0.000000 0.000000 0.000000 -0.095054
#
#
# Mechanical properties :
#
#
# Convention : Reuss Voigt Hill
#
# Bulk Modulus (GPa) = 38.26914 37.42579 37.84747
# Shear Modulus (GPa) = -44.13476 -2.43605 -23.28541
#
# Velocity S-wave (km/s) = -4.73199 -1.11172 -3.43712
# Velocity P-wave (km/s) = 3.23107 4.16414 1.85745
#
# Compressibility (1/GPa) = 0.02613071
#
# Stress axis : x y z
#
# Youngs Moduli (GPa) = -30.83053 29.28461 -205.03876
#
# Poissons Ratio (x) = 0.05728 7.76826
# Poissons Ratio (y) = -0.06030 -4.36386
# Poissons Ratio (z) = 1.16807 0.62327
#
# Static dielectric constant tensor:
#      x y z
#    x 1.684440 0.000000 0.000000 
#    y 0.000000 1.736250 0.000000 
#    z 0.000000 0.000000 1.664210 
# 
# From -- ./inp_files/35018.got.cif
#   From: 2010.05.17/outbox.ucp.g08.bks.cvg/sg51_18_cif.got.tgz:35018.got - 2010.06.11 16:27:58.
