data_PCOD9407191
_publ_section_title
;
Structure prediction by ZEFSAII (Michael W. Deem and Ramdas Pophale) SiO2 
 PCOD9407191
Probable space group: P M M A
;
_chemical_formula_sum "Si O2"
_cell_formula_units_Z 40
_cell_length_a 9.435170
_cell_length_b 14.618778
_cell_length_c 15.131818
_cell_angle_alpha 90.000000
_cell_angle_beta 90.000000
_cell_angle_gamma 90.000000
_cell_volume 2087.141577
_symmetry_space_group_name_H-M "P M M A"
_symmetry_group_IT_number 51
_symmetry_cell_setting 'orthorhombic'
loop_
_space_group_symop_operation_xyz
x,y,z
1/2-x,-y,z
1/2+x,-y,-z
-x,y,-z
-x,-y,-z
1/2+x,y,-z
1/2-x,y,z
x,-y,z
loop_
_atom_site_type_symbol
_atom_site_label
_atom_site_fract_x
_atom_site_fract_y
_atom_site_fract_z
Si Si1 0.912122 0.388569 0.414347
Si Si2 0.415553 0.607493 0.241718
Si Si3 0.081784 0.109676 0.782714
Si Si4 0.581526 0.244503 0.908199
Si Si5 0.413551 0.888761 0.584556
O O1 0.750000 0.357974 0.417841
O O2 0.912006 0.500000 0.415310
O O3 0.000000 0.359220 0.500000
O O4 0.987696 0.361948 0.323372
O O5 0.250000 0.616525 0.267496
O O6 0.442357 0.500000 0.224712
O O7 0.439161 0.667707 0.155119
O O8 0.250000 0.130997 0.792284
O O9 0.036936 0.137304 0.682853
O O10 0.988101 0.160913 0.854416
O O11 0.067988 0.000000 0.790237
O O12 0.750000 0.231437 0.921607
O O13 0.500000 0.255599 0.000000
O O14 0.500000 0.856214 0.500000
O O15 0.250000 0.862399 0.575698
O O16 0.417916 0.000000 0.583797
#
# Coordination Sequence:
#
# PCOD9407191 Si02
#       5
#     8   8   8   8   8
#     4   9  16  27  48  79 112 146 182 220 265 317
#     4   9  19  37  58  80 109 144 182 224 270 323
#     4   9  19  37  59  82 111 147 184 223 268 318
#     4  11  24  40  59  82 107 138 178 227 281 331
#     4   8  14  26  47  76 108 141 175 211 254 305
#
# _framework density 19.164967000000001
#
# number of rings (size 3 to 8) (size 9 to 14) (size 15 to 20)
#    0.000    2.800    0.000    2.400    0.000    6.000 
#    0.000    3.000    0.000    2.400    0.000    0.000 
#    0.000    0.000    0.000    0.000    0.000    0.000 
#
# Total GULP energy -223303.072756 kJ/mol
# GULP energy per Si atom -5582.576819 kJ/mol
# Density = 1.912135 g / cm^3
# Si number density = 19.164967 Si / 1000 Ang^3
#
#
#
# Elastic Constant Matrix: (Units=GPa)
#
#
# Indices 1 2 3 4 5 6 
#
# 1 129.6030 48.0356 125.6083 0.0000 0.0000 0.0000
# 2 48.0356 75.4687 46.5220 0.0000 0.0000 0.0000
# 3 125.6083 46.5220 187.9348 0.0000 0.0000 0.0000
# 4 0.0000 0.0000 0.0000 29.6389 0.0000 0.0000
# 5 0.0000 0.0000 0.0000 0.0000 41.4544 0.0000
# 6 0.0000 0.0000 0.0000 0.0000 0.0000 9.9687
#
#
#
# Elastic Compliance Matrix: (Units=1/GPa)
#
#
# Indices 1 2 3 4 5 6 
#
# 1 0.024294 -0.006436 -0.014644 0.000000 0.000000 0.000000
# 2 -0.006436 0.017342 0.000009 0.000000 0.000000 0.000000
# 3 -0.014644 0.000009 0.015106 0.000000 0.000000 0.000000
# 4 0.000000 0.000000 0.000000 0.033739 0.000000 0.000000
# 5 0.000000 0.000000 0.000000 0.000000 0.024123 0.000000
# 6 0.000000 0.000000 0.000000 0.000000 0.000000 0.100314
#
#
# Mechanical properties :
#
#
# Convention : Reuss Voigt Hill
#
# Bulk Modulus (GPa) = 68.49538 92.59314 80.54426
# Shear Modulus (GPa) = 19.08940 27.73511 23.41226
#
# Velocity S-wave (km/s) = 3.15946 3.80831 3.49896
# Velocity P-wave (km/s) = 7.00907 8.23142 7.64471
#
# Compressibility (1/GPa) = 0.01459953
#
# Stress axis : x y z
#
# Youngs Moduli (GPa) = 41.16312 57.66491 66.19811
#
# Poissons Ratio (x) = 0.37112 0.96939
# Poissons Ratio (y) = 0.26492 -0.00057
# Poissons Ratio (z) = 0.60278 -0.00050
#
# Static dielectric constant tensor:
#      x y z
#    x 1.641340 0.000000 0.000000 
#    y 0.000000 1.705960 0.000000 
#    z 0.000000 0.000000 1.634180 
# 
# From -- ./inp_files/14031.got.cif
#   From: 2010.05.17/outbox.cif.g08.bks.cpg/sg51_8_cif.got.tgz:14031.got - 2010.06.03 11:52:47.
