data_PCOD9407089
_publ_section_title
;
Structure prediction by ZEFSAII (Michael W. Deem and Ramdas Pophale) SiO2 
 PCOD9407089
Probable space group: P M M A
;
_chemical_formula_sum "Si O2"
_cell_formula_units_Z 64
_cell_length_a 8.607033
_cell_length_b 25.055951
_cell_length_c 15.003912
_cell_angle_alpha 90.000000
_cell_angle_beta 90.000000
_cell_angle_gamma 90.000000
_cell_volume 3235.704608
_symmetry_space_group_name_H-M "P M M A"
_symmetry_group_IT_number 51
_symmetry_cell_setting 'orthorhombic'
loop_
_space_group_symop_operation_xyz
x,y,z
1/2-x,-y,z
1/2+x,-y,-z
-x,y,-z
-x,-y,-z
1/2+x,y,-z
1/2-x,y,z
x,-y,z
loop_
_atom_site_type_symbol
_atom_site_label
_atom_site_fract_x
_atom_site_fract_y
_atom_site_fract_z
Si Si1 0.565630 0.825529 0.598985
Si Si2 0.928635 0.161278 0.902954
Si Si3 0.576557 0.058650 0.153768
Si Si4 0.574308 0.941279 0.365568
Si Si5 0.565359 0.351997 0.762525
Si Si6 0.433473 0.267551 0.898929
Si Si7 0.062656 0.437880 0.095889
Si Si8 0.564591 0.713568 0.398575
O O1 0.500000 0.820542 0.500000
O O2 0.750000 0.821485 0.604648
O O3 0.516637 0.886015 0.622621
O O4 0.496060 0.770866 0.640326
O O5 0.750000 0.177967 0.905049
O O6 0.951408 0.103857 0.861206
O O7 0.031296 0.208236 0.862029
O O8 0.000000 0.154437 0.000000
O O9 0.750000 0.074045 0.119754
O O10 0.589027 0.054238 0.259574
O O11 0.537770 0.000000 0.117477
O O12 0.750000 0.935029 0.403351
O O13 0.512557 0.000000 0.395721
O O14 0.750000 0.355033 0.747586
O O15 0.524522 0.307653 0.836251
O O16 0.513321 0.405420 0.815859
O O17 0.487271 0.332673 0.670455
O O18 0.250000 0.278209 0.899477
O O19 0.500000 0.269676 0.000000
O O20 0.250000 0.434783 0.091671
O O21 0.016317 0.500000 0.102510
O O22 0.000000 0.417066 0.000000
O O23 0.500000 0.705718 0.500000
O O24 0.750000 0.715971 0.403639
#
# Coordination Sequence:
#
# PCOD9407089 Si02
#       8
#     8   8   8   8   8   8   8   8
#     4  11  22  37  57  80 108 140 179 228 284 349
#     4  11  22  36  53  73 100 133 173 222 275 333
#     4   9  19  36  55  73  96 128 168 215 269 331
#     4   9  19  36  56  77 103 135 173 220 278 345
#     4  11  22  37  60  90 122 160 205 246 292 351
#     4  11  22  37  55  80 116 153 191 238 290 348
#     4   9  19  36  60  92 132 174 211 250 293 340
#     4  11  23  41  62  86 118 155 199 252 306 359
#
# _framework density 19.779309999999999
#
# number of rings (size 3 to 8) (size 9 to 14) (size 15 to 20)
#    0.000    1.750    0.000    7.500    1.750    3.500 
#    0.000    1.250    0.000    0.375    0.000    0.000 
#    0.000    0.000    0.000    0.000    0.000    0.000 
#
# Total GULP energy -356780.831308 kJ/mol
# GULP energy per Si atom -5574.700489 kJ/mol
# Density = 1.973429 g / cm^3
# Si number density = 19.779310 Si / 1000 Ang^3
#
#
#
# Elastic Constant Matrix: (Units=GPa)
#
#
# Indices 1 2 3 4 5 6 
#
# 1 86.7240 29.3932 25.5647 0.0000 0.0000 0.0000
# 2 29.3932 100.4494 45.2532 0.0000 0.0000 0.0000
# 3 25.5647 45.2532 84.1605 0.0000 0.0000 0.0000
# 4 0.0000 0.0000 0.0000 36.7647 0.0000 0.0000
# 5 0.0000 0.0000 0.0000 0.0000 23.7694 0.0000
# 6 0.0000 0.0000 0.0000 0.0000 0.0000 22.8066
#
#
#
# Elastic Compliance Matrix: (Units=1/GPa)
#
#
# Indices 1 2 3 4 5 6 
#
# 1 0.013203 -0.002714 -0.002551 0.000000 0.000000 0.000000
# 2 -0.002714 0.013696 -0.006540 0.000000 0.000000 0.000000
# 3 -0.002551 -0.006540 0.016173 0.000000 0.000000 0.000000
# 4 0.000000 0.000000 0.000000 0.027200 0.000000 0.000000
# 5 0.000000 0.000000 0.000000 0.000000 0.042071 0.000000
# 6 0.000000 0.000000 0.000000 0.000000 0.000000 0.043847
#
#
# Mechanical properties :
#
#
# Convention : Reuss Voigt Hill
#
# Bulk Modulus (GPa) = 51.38231 52.41736 51.89983
# Shear Modulus (GPa) = 26.84032 28.07632 27.45832
#
# Velocity S-wave (km/s) = 3.68773 3.77169 3.72994
# Velocity P-wave (km/s) = 6.64580 6.74730 6.69675
#
# Compressibility (1/GPa) = 0.01946195
#
# Stress axis : x y z
#
# Youngs Moduli (GPa) = 75.74198 73.01588 61.82982
#
# Poissons Ratio (x) = 0.19817 0.15774
# Poissons Ratio (y) = 0.20557 0.40435
# Poissons Ratio (z) = 0.19323 0.47751
#
# Static dielectric constant tensor:
#      x y z
#    x 1.673250 0.000000 0.000000 
#    y 0.000000 1.785710 0.000000 
#    z 0.000000 0.000000 1.702130 
# 
# From -- ./inp_files/22309.got.cif
#   From: 2010.05.17/outbox.cif.g08.bks.cpg/sg51_12_cif.got.tgz:22309.got - 2010.06.03 11:52:47.
