data_PCOD9407622
_publ_section_title
;
Structure prediction by ZEFSAII (Michael W. Deem and Ramdas Pophale) SiO2 
 PCOD9407622
Probable space group: P M M A
;
_chemical_formula_sum "Si O2"
_cell_formula_units_Z 44
_cell_length_a 9.000000
_cell_length_b 9.000000
_cell_length_c 30.000000
_cell_angle_alpha 90.000000
_cell_angle_beta 90.000000
_cell_angle_gamma 90.000000
_cell_volume 2430.000000
_symmetry_space_group_name_H-M "P M M A"
_symmetry_group_IT_number 51
_symmetry_cell_setting 'orthorhombic'
loop_
_space_group_symop_operation_xyz
x,y,z
1/2-x,-y,z
1/2+x,-y,-z
-x,y,-z
-x,-y,-z
1/2+x,y,-z
1/2-x,y,z
x,-y,z
loop_
_atom_site_type_symbol
_atom_site_label
_atom_site_fract_x
_atom_site_fract_y
_atom_site_fract_z
Si Si1 0.428475 0.673956 0.907451
Si Si2 0.573814 0.823915 0.453963
Si Si3 0.430694 0.171482 0.277932
Si Si4 0.430088 0.000000 0.951114
Si Si5 0.575067 0.323278 0.631067
Si Si6 0.077133 0.326637 0.188467
O O1 0.250000 0.670845 0.909673
O O2 0.476073 0.500000 0.921927
O O3 0.473207 0.834884 0.930160
O O4 0.485718 0.688636 0.856828
O O5 0.500000 0.770886 0.500000
O O6 0.750000 0.804612 0.456796
O O7 0.509844 0.743163 0.410893
O O8 0.541284 0.000000 0.449716
O O9 0.250000 0.183619 0.276722
O O10 0.480185 0.259230 0.321742
O O11 0.481888 0.235577 0.230611
O O12 0.470561 0.000000 0.282416
O O13 0.250000 0.000000 0.951829
O O14 0.500000 0.000000 0.000000
O O15 0.750000 0.283605 0.626844
O O16 0.562978 0.500000 0.631613
O O17 0.250000 0.284775 0.179730
O O18 0.076377 0.500000 0.201348
#
# Coordination Sequence:
#
# PCOD9407622 Si02
#       6
#     8   8   8   4   8   8
#     4   9  19  36  55  76 107 144 177 216 270 324
#     4  10  21  37  57  79 102 130 167 212 262 315
#     4   9  17  29  48  75 105 138 174 213 257 304
#     4  10  22  38  56  80 108 140 180 224 269 320
#     4  10  20  34  53  76 104 139 175 212 257 309
#     4   9  17  30  50  77 106 137 177 220 258 304
#
# _framework density 18.106995999999999
#
# number of rings (size 3 to 8) (size 9 to 14) (size 15 to 20)
#    0.000    2.545    0.000    1.636    1.273    5.818 
#    0.000    0.909    0.000    3.273    0.000    0.000 
#    0.000    0.000    0.000    0.000    0.000    0.000 
#
# Total GULP energy -245022.144633 kJ/mol
# GULP energy per Si atom -5568.685105 kJ/mol
# Density = 1.806578 g / cm^3
# Si number density = 18.106996 Si / 1000 Ang^3
#
#
#
# Elastic Constant Matrix: (Units=GPa)
#
#
# Indices 1 2 3 4 5 6 
#
# 1 -1.8965 25.3441 18.3416 0.0000 0.0000 0.0000
# 2 25.3441 99.1849 71.5819 0.0000 0.0000 0.0000
# 3 18.3416 71.5819 115.3263 0.0000 0.0000 0.0000
# 4 0.0000 0.0000 0.0000 17.4615 0.0000 0.0000
# 5 0.0000 0.0000 0.0000 0.0000 26.0972 0.0000
# 6 0.0000 0.0000 0.0000 0.0000 0.0000 19.9143
#
#
#
# Elastic Compliance Matrix: (Units=1/GPa)
#
#
# Indices 1 2 3 4 5 6 
#
# 1 -0.119438 0.030451 0.000095 0.000000 0.000000 0.000000
# 2 0.030451 0.010500 -0.011360 0.000000 0.000000 0.000000
# 3 0.000095 -0.011360 0.015707 0.000000 0.000000 0.000000
# 4 0.000000 0.000000 0.000000 0.057269 0.000000 0.000000
# 5 0.000000 0.000000 0.000000 0.000000 0.038318 0.000000
# 6 0.000000 0.000000 0.000000 0.000000 0.000000 0.050215
#
#
# Mechanical properties :
#
#
# Convention : Reuss Voigt Hill
#
# Bulk Modulus (GPa) = -18.22820 49.23888 15.50534
# Shear Modulus (GPa) = -1223.34686 19.18440 -602.08123
#
# Velocity S-wave (km/s) = -26.02091 3.25853 -18.25472
# Velocity P-wave (km/s) = 30.21378 6.43504 20.87418
#
# Compressibility (1/GPa) = -0.05486004
#
# Stress axis : x y z
#
# Youngs Moduli (GPa) = -8.37251 95.23866 63.66584
#
# Poissons Ratio (x) = -2.90008 -0.00606
# Poissons Ratio (y) = 0.25495 0.72325
# Poissons Ratio (z) = 0.00080 1.08192
#
# Static dielectric constant tensor:
#      x y z
#    x 1.617720 0.000000 0.000000 
#    y 0.000000 1.650190 0.000000 
#    z 0.000000 0.000000 1.596810 
# 
# From -- ./inp_files/36773.got.cif
#   From: 2010.05.17/outbox.ucp.g08.bks.cvg/sg51_19_cif.got.tgz:36773.got - 2010.06.11 16:27:58.
