data_PCOD9407238
_publ_section_title
;
Structure prediction by ZEFSAII (Michael W. Deem and Ramdas Pophale) SiO2 
 PCOD9407238
Probable space group: P M M A
;
_chemical_formula_sum "Si O2"
_cell_formula_units_Z 48
_cell_length_a 9.322605
_cell_length_b 7.354548
_cell_length_c 33.143583
_cell_angle_alpha 90.000000
_cell_angle_beta 90.000000
_cell_angle_gamma 90.000000
_cell_volume 2272.441576
_symmetry_space_group_name_H-M "P M M A"
_symmetry_group_IT_number 51
_symmetry_cell_setting 'orthorhombic'
loop_
_space_group_symop_operation_xyz
x,y,z
1/2-x,-y,z
1/2+x,-y,-z
-x,y,-z
-x,-y,-z
1/2+x,y,-z
1/2-x,y,z
x,-y,z
loop_
_atom_site_type_symbol
_atom_site_label
_atom_site_fract_x
_atom_site_fract_y
_atom_site_fract_z
Si Si1 0.914822 0.722299 0.380147
Si Si2 0.915165 0.721826 0.539937
Si Si3 0.083104 0.777943 0.039591
Si Si4 0.584679 0.218158 0.786295
Si Si5 0.086297 0.284304 0.302204
Si Si6 0.076236 0.216608 0.127209
O O1 0.750000 0.779939 0.382368
O O2 0.914535 0.500000 0.379982
O O3 0.003955 0.778654 0.419434
O O4 0.991500 0.784493 0.339081
O O5 0.750000 0.779917 0.539403
O O6 0.914918 0.500000 0.539845
O O7 0.000000 0.779512 0.500000
O O8 0.250000 0.727871 0.036568
O O9 0.026718 0.714843 0.083493
O O10 0.077661 0.000000 0.040019
O O11 0.000000 0.716530 0.000000
O O12 0.750000 0.284643 0.784164
O O13 0.521101 0.258624 0.742510
O O14 0.522907 0.285002 0.829183
O O15 0.589704 0.000000 0.789269
O O16 0.250000 0.210837 0.302878
O O17 0.097709 0.500000 0.307998
O O18 0.250000 0.239757 0.127685
O O19 0.049393 0.000000 0.126665
#
# Coordination Sequence:
#
# PCOD9407238 Si02
#       6
#     8   8   8   8   8   8
#     4   9  16  25  36  50  71 101 132 157 186 228
#     4   9  15  22  33  50  73 100 129 160 193 229
#     4   8  12  17  26  41  61  84 109 137 170 209
#     4   8  13  22  37  55  74  98 127 155 185 226
#     4   9  16  25  38  57  78  97 121 158 197 224
#     4   7  10  17  29  45  64  87 116 146 174 210
#
# _framework density 21.122655999999999
#
# number of rings (size 3 to 8) (size 9 to 14) (size 15 to 20)
#    0.000    3.667    0.000    3.000    0.000    4.000 
#    0.000    0.000    0.000    1.500    0.000    2.333 
#    0.000    1.333    0.000    2.333    0.000    4.333 
#
# Total GULP energy -267414.077363 kJ/mol
# GULP energy per Si atom -5571.126612 kJ/mol
# Density = 2.107458 g / cm^3
# Si number density = 21.122656 Si / 1000 Ang^3
#
#
#
# Elastic Constant Matrix: (Units=GPa)
#
#
# Indices 1 2 3 4 5 6 
#
# 1 93.5480 3.8558 103.8241 0.0000 0.0000 0.0000
# 2 3.8558 76.4040 5.5547 0.0000 0.0000 0.0000
# 3 103.8241 5.5547 292.8595 0.0000 0.0000 0.0000
# 4 0.0000 0.0000 0.0000 6.3419 0.0000 0.0000
# 5 0.0000 0.0000 0.0000 0.0000 29.5646 0.0000
# 6 0.0000 0.0000 0.0000 0.0000 0.0000 -23.4669
#
#
#
# Elastic Compliance Matrix: (Units=1/GPa)
#
#
# Indices 1 2 3 4 5 6 
#
# 1 0.017639 -0.000436 -0.006245 0.000000 0.000000 0.000000
# 2 -0.000436 0.013117 -0.000094 0.000000 0.000000 0.000000
# 3 -0.006245 -0.000094 0.005630 0.000000 0.000000 0.000000
# 4 0.000000 0.000000 0.000000 0.157682 0.000000 0.000000
# 5 0.000000 0.000000 0.000000 0.000000 0.033824 0.000000
# 6 0.000000 0.000000 0.000000 0.000000 0.000000 -0.042613
#
#
# Mechanical properties :
#
#
# Convention : Reuss Voigt Hill
#
# Bulk Modulus (GPa) = 43.79120 76.58673 60.18897
# Shear Modulus (GPa) = 24.21997 25.79306 25.00651
#
# Velocity S-wave (km/s) = 3.38987 3.49823 3.44448
# Velocity P-wave (km/s) = 6.00820 7.25628 6.66154
#
# Compressibility (1/GPa) = 0.02283564
#
# Stress axis : x y z
#
# Youngs Moduli (GPa) = 56.69382 76.23591 177.60922
#
# Poissons Ratio (x) = 0.03325 1.10916
# Poissons Ratio (y) = 0.02473 0.01673
# Poissons Ratio (z) = 0.35405 0.00718
#
# Static dielectric constant tensor:
#      x y z
#    x 1.708050 0.000000 0.000000 
#    y 0.000000 1.901240 0.000000 
#    z 0.000000 0.000000 1.800410 
# 
# From -- ./inp_files/37307.got.cif
#   From: 2010.05.17/outbox.cif.g08.bks.cpg/sg51_19_cif.got.tgz:37307.got - 2010.06.03 11:52:47.
