data_PCOD9407937
_publ_section_title
;
Structure prediction by ZEFSAII (Michael W. Deem and Ramdas Pophale) SiO2 
 PCOD9407937
Probable space group: P N N A
;
_chemical_formula_sum "Si O2"
_cell_formula_units_Z 64
_cell_length_a 19.516796
_cell_length_b 8.704284
_cell_length_c 16.853013
_cell_angle_alpha 90.000000
_cell_angle_beta 90.000000
_cell_angle_gamma 90.000000
_cell_volume 2862.985385
_symmetry_space_group_name_H-M "P N N A"
_symmetry_group_IT_number 52
_symmetry_cell_setting 'orthorhombic'
loop_
_space_group_symop_operation_xyz
x,y,z
1/2-x,-y,z
x,1/2-y,1/2-z
1/2-x,1/2+y,1/2-z
-x,-y,-z
1/2+x,y,-z
-x,1/2+y,1/2+z
1/2+x,1/2-y,1/2+z
loop_
_atom_site_type_symbol
_atom_site_label
_atom_site_fract_x
_atom_site_fract_y
_atom_site_fract_z
Si Si1 0.329386 0.161180 0.413011
Si Si2 0.334513 0.667057 0.099801
Si Si3 0.193782 0.289182 0.841674
Si Si4 0.460299 0.843862 0.486554
Si Si5 0.421453 0.584517 0.581013
Si Si6 0.664288 0.635805 0.099968
Si Si7 0.832620 0.498466 0.573621
Si Si8 0.970696 0.211858 0.162384
O O1 0.246707 0.159621 0.412379
O O2 0.350469 0.145082 0.505815
O O3 0.348744 0.333482 0.386948
O O4 0.352238 0.004949 0.367064
O O5 0.377715 0.658518 0.017807
O O6 0.345289 0.845548 0.125223
O O7 0.207278 0.250000 0.750000
O O8 0.134836 0.173689 0.868115
O O9 0.265393 0.271898 0.887453
O O10 0.173088 0.465590 0.862397
O O11 0.475763 0.708942 0.547646
O O12 0.479224 0.792018 0.399063
O O13 0.500000 0.000000 0.500000
O O14 0.380158 0.512096 0.505483
O O15 0.460518 0.461746 0.634378
O O16 0.603299 0.713196 0.147426
O O17 0.750000 0.500000 0.554663
O O18 0.993483 0.250000 0.250000
#
# Coordination Sequence:
#
# PCOD9407937 Si02
#       8
#     8   8   8   8   8   8   8   8
#     4  10  16  31  55  81 112 137 178 241 297 349
#     4   9  18  30  51  81 113 139 184 235 296 344
#     4  11  22  34  52  79 114 152 194 239 297 348
#     4  11  23  40  59  80 111 154 203 247 293 346
#     4  11  22  37  58  81 110 148 200 251 294 346
#     4  11  20  35  51  75 112 159 194 228 285 357
#     4   9  16  28  49  80 109 142 172 228 293 343
#     4  12  25  39  56  81 119 159 202 241 294 352
#
# _framework density 22.354289000000001
#
# number of rings (size 3 to 8) (size 9 to 14) (size 15 to 20)
#    0.000    1.500    1.250    8.250    0.000    1.000 
#    0.000    0.000    0.000    0.000    0.000    0.000 
#   30.000    0.000    0.000    0.000    0.000    0.000 
#
# Total GULP energy -356730.910457 kJ/mol
# GULP energy per Si atom -5573.920476 kJ/mol
# Density = 2.230341 g / cm^3
# Si number density = 22.354289 Si / 1000 Ang^3
#
#
#
# Elastic Constant Matrix: (Units=GPa)
#
#
# Indices 1 2 3 4 5 6 
#
# 1 34.7921 33.9696 16.6271 0.0000 0.0000 0.0000
# 2 33.9696 194.9362 17.9331 0.0000 0.0000 0.0000
# 3 16.6271 17.9331 40.5863 0.0000 0.0000 0.0000
# 4 0.0000 0.0000 0.0000 393.0337 0.0000 0.0000
# 5 0.0000 0.0000 0.0000 0.0000 6.5882 0.0000
# 6 0.0000 0.0000 0.0000 0.0000 0.0000 37.7751
#
#
#
# Elastic Compliance Matrix: (Units=1/GPa)
#
#
# Indices 1 2 3 4 5 6 
#
# 1 0.041339 -0.005885 -0.014335 0.000000 0.000000 0.000000
# 2 -0.005885 0.006185 -0.000322 0.000000 0.000000 0.000000
# 3 -0.014335 -0.000322 0.030654 0.000000 0.000000 0.000000
# 4 0.000000 0.000000 0.000000 0.002544 0.000000 0.000000
# 5 0.000000 0.000000 0.000000 0.000000 0.151787 0.000000
# 6 0.000000 0.000000 0.000000 0.000000 0.000000 0.026472
#
#
# Mechanical properties :
#
#
# Convention : Reuss Voigt Hill
#
# Bulk Modulus (GPa) = 26.95885 45.26380 36.11133
# Shear Modulus (GPa) = 16.00358 100.93171 58.46765
#
# Velocity S-wave (km/s) = 2.67855 6.72673 5.11974
# Velocity P-wave (km/s) = 4.65319 8.97910 7.15110
#
# Compressibility (1/GPa) = 0.03709357
#
# Stress axis : x y z
#
# Youngs Moduli (GPa) = 24.19045 161.68129 32.62235
#
# Poissons Ratio (x) = 0.95148 0.46764
# Poissons Ratio (y) = 0.14236 0.01050
# Poissons Ratio (z) = 0.34677 0.05205
#
# Static dielectric constant tensor:
#      x y z
#    x 1.910420 0.000000 0.000000 
#    y 0.000000 1.950660 0.000000 
#    z 0.000000 0.000000 1.763020 
# 
# From -- ./inp_files/34131.got.cif
#   From: 2010.05.17/outbox.cif.g08.bks.cpg/sg52_18_cif.got.tgz:34131.got - 2010.06.03 12:15:38.
