data_PCOD9407022
_publ_section_title
;
Structure prediction by ZEFSAII (Michael W. Deem and Ramdas Pophale) SiO2 
 PCOD9407022
Probable space group: P M M A
;
_chemical_formula_sum "Si O2"
_cell_formula_units_Z 32
_cell_length_a 8.610790
_cell_length_b 21.429615
_cell_length_c 9.482210
_cell_angle_alpha 90.000000
_cell_angle_beta 90.000000
_cell_angle_gamma 90.000000
_cell_volume 1749.713472
_symmetry_space_group_name_H-M "P M M A"
_symmetry_group_IT_number 51
_symmetry_cell_setting 'orthorhombic'
loop_
_space_group_symop_operation_xyz
x,y,z
1/2-x,-y,z
1/2+x,-y,-z
-x,y,-z
-x,-y,-z
1/2+x,y,-z
1/2-x,y,z
x,-y,z
loop_
_atom_site_type_symbol
_atom_site_label
_atom_site_fract_x
_atom_site_fract_y
_atom_site_fract_z
Si Si1 0.936352 0.068135 0.660321
Si Si2 0.437302 0.429273 0.344014
Si Si3 0.435256 0.198053 0.659820
Si Si4 0.563178 0.312292 0.842238
O O1 0.750000 0.073935 0.656743
O O2 0.000000 0.066421 0.500000
O O3 0.008748 0.131210 0.721170
O O4 0.975438 0.000000 0.723942
O O5 0.500000 0.414874 0.500000
O O6 0.250000 0.428718 0.349696
O O7 0.487255 0.500000 0.307348
O O8 0.486822 0.376520 0.234348
O O9 0.500000 0.203443 0.500000
O O10 0.250000 0.199384 0.654302
O O11 0.499678 0.254501 0.752061
O O12 0.750000 0.310019 0.843349
O O13 0.500000 0.309821 0.000000
#
# Coordination Sequence:
#
# PCOD9407022 Si02
#       4
#     8   8   8   8
#     4   9  16  27  46  74 106 137 172 217 267 316
#     4   9  19  36  58  83 109 138 174 217 264 315
#     4  11  21  34  54  79 108 142 181 223 268 318
#     4  11  23  38  55  77 108 143 181 223 268 319
#
# _framework density 18.288709000000001
#
# number of rings (size 3 to 8) (size 9 to 14) (size 15 to 20)
#    0.000    2.000    0.000    6.000    0.000    6.000 
#    0.000    0.000    0.000    0.750    0.000    0.000 
#    0.000    0.000    0.000    0.000    0.000    0.000 
#
# Total GULP energy -178564.475530 kJ/mol
# GULP energy per Si atom -5580.139860 kJ/mol
# Density = 1.824708 g / cm^3
# Si number density = 18.288709 Si / 1000 Ang^3
#
#
#
# Elastic Constant Matrix: (Units=GPa)
#
#
# Indices 1 2 3 4 5 6 
#
# 1 88.4630 60.8932 36.8411 0.0000 0.0000 0.0000
# 2 60.8932 185.6463 97.5093 0.0000 0.0000 0.0000
# 3 36.8411 97.5093 89.7788 0.0000 0.0000 0.0000
# 4 0.0000 0.0000 0.0000 -4.8478 0.0000 0.0000
# 5 0.0000 0.0000 0.0000 0.0000 25.8985 0.0000
# 6 0.0000 0.0000 0.0000 0.0000 0.0000 21.8168
#
#
#
# Elastic Compliance Matrix: (Units=1/GPa)
#
#
# Indices 1 2 3 4 5 6 
#
# 1 0.014732 -0.003858 -0.001856 0.000000 0.000000 0.000000
# 2 -0.003858 0.013551 -0.013135 0.000000 0.000000 0.000000
# 3 -0.001856 -0.013135 0.026166 0.000000 0.000000 0.000000
# 4 0.000000 0.000000 0.000000 -0.206280 0.000000 0.000000
# 5 0.000000 0.000000 0.000000 0.000000 0.038612 0.000000
# 6 0.000000 0.000000 0.000000 0.000000 0.000000 0.045836
#
#
# Mechanical properties :
#
#
# Convention : Reuss Voigt Hill
#
# Bulk Modulus (GPa) = 59.69132 83.81948 71.75540
# Shear Modulus (GPa) = -207.44716 19.81646 -93.81535
#
# Velocity S-wave (km/s) = -10.66186 3.29528 -7.16995
# Velocity P-wave (km/s) = 10.90220 7.77234 5.40595
#
# Compressibility (1/GPa) = 0.01675285
#
# Stress axis : x y z
#
# Youngs Moduli (GPa) = 67.87782 73.79674 38.21826
#
# Poissons Ratio (x) = 0.28468 0.07092
# Poissons Ratio (y) = 0.26185 0.50198
# Poissons Ratio (z) = 0.12596 0.96929
#
# Static dielectric constant tensor:
#      x y z
#    x 1.610280 0.000000 0.000000 
#    y 0.000000 1.675560 0.000000 
#    z 0.000000 0.000000 1.587710 
# 
# From -- ./inp_files/4844.got.cif
#   From: 2010.05.17/outbox.cif.g08.bks.cpg/sg51_3_cif.got.tgz:4844.got - 2010.06.03 11:52:47.
