data_PCOD9407836
_publ_section_title
;
Structure prediction by ZEFSAII (Michael W. Deem and Ramdas Pophale) SiO2 
 PCOD9407836
Probable space group: P M M A
;
_chemical_formula_sum "Si O2"
_cell_formula_units_Z 56
_cell_length_a 15.000000
_cell_length_b 9.000000
_cell_length_c 21.000000
_cell_angle_alpha 90.000000
_cell_angle_beta 90.000000
_cell_angle_gamma 90.000000
_cell_volume 2835.000000
_symmetry_space_group_name_H-M "P M M A"
_symmetry_group_IT_number 51
_symmetry_cell_setting 'orthorhombic'
loop_
_space_group_symop_operation_xyz
x,y,z
1/2-x,-y,z
1/2+x,-y,-z
-x,y,-z
-x,-y,-z
1/2+x,y,-z
1/2-x,y,z
x,-y,z
loop_
_atom_site_type_symbol
_atom_site_label
_atom_site_fract_x
_atom_site_fract_y
_atom_site_fract_z
Si Si1 0.544123 0.678596 0.090572
Si Si2 0.352369 0.679726 0.037517
Si Si3 0.641694 0.832739 0.596033
Si Si4 0.037434 0.822697 0.782102
Si Si5 0.349640 0.818656 0.263070
Si Si6 0.640921 0.329193 0.471165
Si Si7 0.855600 0.679298 0.331910
O O1 0.541767 0.500000 0.095936
O O2 0.612612 0.713842 0.033699
O O3 0.576771 0.753823 0.154441
O O4 0.441223 0.728274 0.076575
O O5 0.250000 0.733284 0.050191
O O6 0.348990 0.500000 0.043561
O O7 0.750000 0.839860 0.591001
O O8 0.627686 0.764295 0.665482
O O9 0.607805 0.750286 0.534147
O O10 0.606920 0.000000 0.596381
O O11 0.087636 0.757622 0.721631
O O12 0.933056 0.776935 0.779288
O O13 0.042061 0.000000 0.781942
O O14 0.250000 0.769038 0.244571
O O15 0.346389 0.000000 0.266274
O O16 0.750000 0.326080 0.471801
O O17 0.614183 0.500000 0.474057
O O18 0.615328 0.267650 0.402297
O O19 0.750000 0.709616 0.324201
O O20 0.865899 0.500000 0.329599
#
# Coordination Sequence:
#
# PCOD9407836 Si02
#       7
#     8   8   8   8   8   8   8
#     4   9  18  33  53  77 104 133 166 203 243 291
#     4   8  15  31  56  81 102 129 167 205 239 284
#     4   8  13  24  45  68  88 118 163 210 253 300
#     4  11  22  34  51  76 106 138 172 212 251 290
#     4   8  16  32  50  68  96 136 176 209 249 306
#     4   8  14  26  45  68  92 119 156 206 262 311
#     4   9  19  36  54  70  95 135 175 209 254 313
#
# _framework density 19.753086
#
# number of rings (size 3 to 8) (size 9 to 14) (size 15 to 20)
#    0.000    3.286    0.000    3.000    0.000    2.000 
#    0.000    6.429    0.000    8.143    0.000    0.000 
#    0.000    0.000    0.000    0.000    0.000    0.000 
#
# Total GULP energy -311830.712491 kJ/mol
# GULP energy per Si atom -5568.405580 kJ/mol
# Density = 1.970813 g / cm^3
# Si number density = 19.753086 Si / 1000 Ang^3
#
#
#
# Elastic Constant Matrix: (Units=GPa)
#
#
# Indices 1 2 3 4 5 6 
#
# 1 34.9958 2.9160 -3.9650 0.0000 0.0000 0.0000
# 2 2.9160 7.0947 17.8598 0.0000 0.0000 0.0000
# 3 -3.9650 17.8598 73.3637 0.0000 0.0000 0.0000
# 4 0.0000 0.0000 0.0000 20.4851 0.0000 0.0000
# 5 0.0000 0.0000 0.0000 0.0000 -60.9245 0.0000
# 6 0.0000 0.0000 0.0000 0.0000 0.0000 14.1545
#
#
#
# Elastic Compliance Matrix: (Units=1/GPa)
#
#
# Indices 1 2 3 4 5 6 
#
# 1 0.034132 -0.048227 0.013585 0.000000 0.000000 0.000000
# 2 -0.048227 0.432185 -0.107818 0.000000 0.000000 0.000000
# 3 0.013585 -0.107818 0.040612 0.000000 0.000000 0.000000
# 4 0.000000 0.000000 0.000000 0.048816 0.000000 0.000000
# 5 0.000000 0.000000 0.000000 0.000000 -0.016414 0.000000
# 6 0.000000 0.000000 0.000000 0.000000 0.000000 0.070649
#
#
# Mechanical properties :
#
#
# Convention : Reuss Voigt Hill
#
# Bulk Modulus (GPa) = 4.50431 16.56398 10.53414
# Shear Modulus (GPa) = 5.16047 1.31926 3.23987
#
# Velocity S-wave (km/s) = 1.61807 0.81812 1.28209
# Velocity P-wave (km/s) = 2.40336 3.04896 2.74520
#
# Compressibility (1/GPa) = 0.22200960
#
# Stress axis : x y z
#
# Youngs Moduli (GPa) = 29.29761 2.31382 24.62303
#
# Poissons Ratio (x) = 0.11159 -0.33451
# Poissons Ratio (y) = 1.41294 2.65481
# Poissons Ratio (z) = -0.39801 0.24947
#
# Static dielectric constant tensor:
#      x y z
#    x 1.720090 0.000000 0.000000 
#    y 0.000000 1.665490 0.000000 
#    z 0.000000 0.000000 1.716370 
# 
# From -- ./inp_files/33379.got.cif
#   From: 2010.05.17/outbox.ucp.g08.bks.cvg/sg51_17_cif.got.tgz:33379.got - 2010.06.11 16:27:58.
