data_PCOD9407890
_publ_section_title
;
Structure prediction by ZEFSAII (Michael W. Deem and Ramdas Pophale) SiO2 
 PCOD9407890
Probable space group: P N N A
;
_chemical_formula_sum "Si O2"
_cell_formula_units_Z 32
_cell_length_a 5.439017
_cell_length_b 7.194363
_cell_length_c 35.491286
_cell_angle_alpha 90.000000
_cell_angle_beta 90.000000
_cell_angle_gamma 90.000000
_cell_volume 1388.783343
_symmetry_space_group_name_H-M "P N N A"
_symmetry_group_IT_number 52
_symmetry_cell_setting 'orthorhombic'
loop_
_space_group_symop_operation_xyz
x,y,z
1/2-x,-y,z
x,1/2-y,1/2-z
1/2-x,1/2+y,1/2-z
-x,-y,-z
1/2+x,y,-z
-x,1/2+y,1/2+z
1/2+x,1/2-y,1/2+z
loop_
_atom_site_type_symbol
_atom_site_label
_atom_site_fract_x
_atom_site_fract_y
_atom_site_fract_z
Si Si1 0.311442 0.712721 0.486771
Si Si2 0.498317 0.617641 0.714485
Si Si3 0.981598 0.791620 0.900772
Si Si4 0.983614 0.718107 0.369963
O O1 0.250000 0.500000 0.499406
O O2 0.535614 0.795711 0.511326
O O3 0.416656 0.706848 0.444671
O O4 0.750000 0.500000 0.709571
O O5 0.535016 0.750000 0.750000
O O6 0.452138 0.719892 0.674772
O O7 0.250000 0.500000 0.721246
O O8 0.747779 0.702973 0.880554
O O9 0.244356 0.706511 0.890959
O O10 0.999895 0.002798 0.884611
#
# Coordination Sequence:
#
# PCOD9407890 Si02
#       4
#     8   8   8   8
#     4  10  18  22  31  54  84 122 168 206 242 294
#     4  12  23  40  59  84 111 142 184 240 283 334
#     4  10  16  27  43  57  92 126 176 210 246 307
#     4  10  17  29  45  65  88 124 175 213 245 312
#
# _framework density 23.041751999999999
#
# number of rings (size 3 to 8) (size 9 to 14) (size 15 to 20)
#    0.000    1.500    7.500    2.250    7.000    0.000 
#    0.000    0.000    0.000    0.000    0.000    0.000 
#    0.000    0.000    0.000    0.000    0.000  145.000 
#
# Total GULP energy -178679.915013 kJ/mol
# GULP energy per Si atom -5583.747344 kJ/mol
# Density = 2.298931 g / cm^3
# Si number density = 23.041752 Si / 1000 Ang^3
#
#
#
# Elastic Constant Matrix: (Units=GPa)
#
#
# Indices 1 2 3 4 5 6 
#
# 1 258.9634 20.4953 46.2828 0.0000 0.0000 0.0000
# 2 20.4953 64.1252 9.6111 0.0000 0.0000 0.0000
# 3 46.2828 9.6111 161.0268 0.0000 0.0000 0.0000
# 4 0.0000 0.0000 0.0000 -8.1647 0.0000 0.0000
# 5 0.0000 0.0000 0.0000 0.0000 45.4341 0.0000
# 6 0.0000 0.0000 0.0000 0.0000 0.0000 -18.0464
#
#
#
# Elastic Compliance Matrix: (Units=1/GPa)
#
#
# Indices 1 2 3 4 5 6 
#
# 1 0.004154 -0.001159 -0.001125 0.000000 0.000000 0.000000
# 2 -0.001159 0.016059 -0.000625 0.000000 0.000000 0.000000
# 3 -0.001125 -0.000625 0.006571 0.000000 0.000000 0.000000
# 4 0.000000 0.000000 0.000000 -0.122478 0.000000 0.000000
# 5 0.000000 0.000000 0.000000 0.000000 0.022010 0.000000
# 6 0.000000 0.000000 0.000000 0.000000 0.000000 -0.055413
#
#
# Mechanical properties :
#
#
# Convention : Reuss Voigt Hill
#
# Bulk Modulus (GPa) = 47.69831 70.76599 59.23215
# Shear Modulus (GPa) = -42.99601 31.02632 -5.98484
#
# Velocity S-wave (km/s) = -4.32441 3.67349 -1.61339
# Velocity P-wave (km/s) = 2.04654 6.98365 4.72139
#
# Compressibility (1/GPa) = 0.02096510
#
# Stress axis : x y z
#
# Youngs Moduli (GPa) = 240.71267 62.27150 152.18893
#
# Poissons Ratio (x) = 0.07218 0.17119
# Poissons Ratio (y) = 0.27903 0.09517
# Poissons Ratio (z) = 0.27077 0.03894
#
# Static dielectric constant tensor:
#      x y z
#    x 1.975370 0.000000 0.000000 
#    y 0.000000 1.762580 0.000000 
#    z 0.000000 0.000000 1.817440 
# 
# From -- ./inp_files/43553.got.cif
#   From: 2010.05.17/outbox.cif.g08.bks.cpg/sg52_22_cif.got.tgz:43553.got - 2010.06.03 12:15:38.
