data_PCOD9407754
_publ_section_title
;
Structure prediction by ZEFSAII (Michael W. Deem and Ramdas Pophale) SiO2 
 PCOD9407754
Probable space group: P M M A
;
_chemical_formula_sum "Si O2"
_cell_formula_units_Z 56
_cell_length_a 9.000000
_cell_length_b 15.000000
_cell_length_c 21.000000
_cell_angle_alpha 90.000000
_cell_angle_beta 90.000000
_cell_angle_gamma 90.000000
_cell_volume 2835.000000
_symmetry_space_group_name_H-M "P M M A"
_symmetry_group_IT_number 51
_symmetry_cell_setting 'orthorhombic'
loop_
_space_group_symop_operation_xyz
x,y,z
1/2-x,-y,z
1/2+x,-y,-z
-x,y,-z
-x,-y,-z
1/2+x,y,-z
1/2-x,y,z
x,-y,z
loop_
_atom_site_type_symbol
_atom_site_label
_atom_site_fract_x
_atom_site_fract_y
_atom_site_fract_z
Si Si1 0.427090 0.778042 0.936460
Si Si2 0.917649 0.392645 0.240565
Si Si3 0.927619 0.104932 0.186138
Si Si4 0.428457 0.212762 0.564754
Si Si5 0.069540 0.398870 0.616723
Si Si6 0.574293 0.893091 0.680245
Si Si7 0.925931 0.604050 0.889252
O O1 0.250000 0.778163 0.941796
O O2 0.469197 0.834974 0.874180
O O3 0.485351 0.677122 0.928700
O O4 0.500000 0.816670 0.000000
O O5 0.750000 0.356354 0.228699
O O6 0.903935 0.500000 0.242231
O O7 0.970825 0.370163 0.311178
O O8 0.028391 0.373655 0.183525
O O9 0.750000 0.113391 0.196078
O O10 0.010866 0.132530 0.250491
O O11 0.959055 0.000000 0.174155
O O12 0.500000 0.177433 0.500000
O O13 0.250000 0.208642 0.562528
O O14 0.475093 0.316829 0.572896
O O15 0.488383 0.158368 0.624933
O O16 0.250000 0.403181 0.616557
O O17 0.015928 0.500000 0.602894
O O18 0.750000 0.875202 0.676510
O O19 0.551709 0.000000 0.673630
O O20 0.750000 0.612840 0.898779
O O21 0.966870 0.500000 0.901357
#
# Coordination Sequence:
#
# PCOD9407754 Si02
#       7
#     8   8   8   8   8   8   8
#     4  11  24  40  60  87 120 158 199 240 290 347
#     4   8  14  28  51  77 104 139 187 239 289 341
#     4   9  20  41  67  93 120 152 191 235 288 353
#     4  11  23  38  58  86 121 160 202 245 294 350
#     4   8  16  32  54  80 112 152 197 241 287 343
#     4  10  22  41  65  92 120 151 190 240 298 355
#     4  10  21  36  54  80 116 156 198 245 294 343
#
# _framework density 19.753086
#
# number of rings (size 3 to 8) (size 9 to 14) (size 15 to 20)
#    0.000    2.429    0.000    2.571    2.000    4.000 
#    0.000    0.714    0.000    2.143    0.000    0.000 
#    0.000    0.000    0.000    0.000    0.000    0.000 
#
# Total GULP energy -312596.416618 kJ/mol
# GULP energy per Si atom -5582.078868 kJ/mol
# Density = 1.970813 g / cm^3
# Si number density = 19.753086 Si / 1000 Ang^3
#
#
#
# Elastic Constant Matrix: (Units=GPa)
#
#
# Indices 1 2 3 4 5 6 
#
# 1 60.5082 42.0038 59.4442 0.0000 0.0000 0.0000
# 2 42.0038 70.2633 64.9121 0.0000 0.0000 0.0000
# 3 59.4442 64.9121 150.3854 0.0000 0.0000 0.0000
# 4 0.0000 0.0000 0.0000 7.4383 0.0000 0.0000
# 5 0.0000 0.0000 0.0000 0.0000 27.6434 0.0000
# 6 0.0000 0.0000 0.0000 0.0000 0.0000 18.6726
#
#
#
# Elastic Compliance Matrix: (Units=1/GPa)
#
#
# Indices 1 2 3 4 5 6 
#
# 1 0.032587 -0.012609 -0.007439 0.000000 0.000000 0.000000
# 2 -0.012609 0.028550 -0.007339 0.000000 0.000000 0.000000
# 3 -0.007439 -0.007339 0.012758 0.000000 0.000000 0.000000
# 4 0.000000 0.000000 0.000000 0.134440 0.000000 0.000000
# 5 0.000000 0.000000 0.000000 0.000000 0.036175 0.000000
# 6 0.000000 0.000000 0.000000 0.000000 0.000000 0.053554
#
#
# Mechanical properties :
#
#
# Convention : Reuss Voigt Hill
#
# Bulk Modulus (GPa) = 52.29625 68.20856 60.25240
# Shear Modulus (GPa) = 13.91934 18.40398 16.16166
#
# Velocity S-wave (km/s) = 2.65744 3.05569 2.86349
# Velocity P-wave (km/s) = 5.99570 6.85968 6.44219
#
# Compressibility (1/GPa) = 0.01912183
#
# Stress axis : x y z
#
# Youngs Moduli (GPa) = 30.68674 35.02607 78.38284
#
# Poissons Ratio (x) = 0.44163 0.58307
# Poissons Ratio (y) = 0.38692 0.57528
# Poissons Ratio (z) = 0.22827 0.25707
#
# Static dielectric constant tensor:
#      x y z
#    x 1.653680 0.000000 0.000000 
#    y 0.000000 1.706320 0.000000 
#    z 0.000000 0.000000 1.711450 
# 
# From -- ./inp_files/31879.got.cif
#   From: 2010.05.17/outbox.ucp.g08.bks.cvg/sg51_16_cif.got.tgz:31879.got - 2010.06.11 16:27:58.
