data_PCOD9407471
_publ_section_title
;
Structure prediction by ZEFSAII (Michael W. Deem and Ramdas Pophale) SiO2 
 PCOD9407471
Probable space group: P M M A
;
_chemical_formula_sum "Si O2"
_cell_formula_units_Z 64
_cell_length_a 24.000000
_cell_length_b 9.000000
_cell_length_c 18.000000
_cell_angle_alpha 90.000000
_cell_angle_beta 90.000000
_cell_angle_gamma 90.000000
_cell_volume 3888.000000
_symmetry_space_group_name_H-M "P M M A"
_symmetry_group_IT_number 51
_symmetry_cell_setting 'orthorhombic'
loop_
_space_group_symop_operation_xyz
x,y,z
1/2-x,-y,z
1/2+x,-y,-z
-x,y,-z
-x,-y,-z
1/2+x,y,-z
1/2-x,y,z
x,-y,z
loop_
_atom_site_type_symbol
_atom_site_label
_atom_site_fract_x
_atom_site_fract_y
_atom_site_fract_z
Si Si1 0.085801 0.178660 0.328933
Si Si2 0.042009 0.181800 0.171908
Si Si3 0.566777 0.169954 0.987190
Si Si4 0.813810 0.320761 0.248034
Si Si5 0.412770 0.819101 0.849514
Si Si6 0.686057 0.820335 0.564442
Si Si7 0.143964 0.321119 0.588499
Si Si8 0.515029 0.327921 0.413095
O O1 0.076688 0.228193 0.244011
O O2 0.140525 0.229743 0.374166
O O3 0.030465 0.231383 0.371184
O O4 0.087538 0.000000 0.328418
O O5 0.069803 0.237791 0.095076
O O6 0.976030 0.222795 0.176328
O O7 0.041931 0.000000 0.168122
O O8 0.587543 0.000000 0.982374
O O9 0.500000 0.163012 0.000000
O O10 0.591488 0.231999 0.063875
O O11 0.750000 0.278166 0.228013
O O12 0.818269 0.500000 0.241011
O O13 0.862904 0.246818 0.199558
O O14 0.824675 0.284663 0.334957
O O15 0.410374 0.000000 0.847987
O O16 0.750000 0.779040 0.582192
O O17 0.669167 0.754751 0.484404
O O18 0.683415 0.000000 0.560358
O O19 0.145890 0.500000 0.578179
O O20 0.078837 0.278750 0.596919
O O21 0.500000 0.323330 0.500000
O O22 0.510933 0.500000 0.388283
#
# Coordination Sequence:
#
# PCOD9407471 Si02
#       8
#     8   8   8   8   8   8   8   8
#     4  10  19  30  47  69  93 123 155 187 227 278
#     4   8  14  26  46  73  98 119 147 183 230 281
#     4   7  11  22  43  70  96 118 140 172 216 267
#     4  10  21  34  46  63  90 125 160 190 225 272
#     4   9  16  28  49  73  94 118 150 188 227 269
#     4  10  21  34  46  63  88 118 154 195 232 262
#     4  10  20  35  52  67  87 119 157 192 229 279
#     4  10  19  31  47  69  95 118 145 189 241 282
#
# _framework density 16.460905
#
# number of rings (size 3 to 8) (size 9 to 14) (size 15 to 20)
#    0.000    2.750    1.250    2.625    0.000    2.250 
#    0.000    0.000    0.000    4.875    0.000    3.500 
#    0.000    0.000    0.000    0.000    0.000    0.000 
#
# Total GULP energy -356414.553738 kJ/mol
# GULP energy per Si atom -5568.977402 kJ/mol
# Density = 1.642344 g / cm^3
# Si number density = 16.460905 Si / 1000 Ang^3
#
#
#
# Elastic Constant Matrix: (Units=GPa)
#
#
# Indices 1 2 3 4 5 6 
#
# 1 110.8684 18.0354 68.2037 0.0000 0.0000 0.0000
# 2 18.0354 5.2805 20.9391 0.0000 0.0000 0.0000
# 3 68.2037 20.9391 143.8408 0.0000 0.0000 0.0000
# 4 0.0000 0.0000 0.0000 8.1427 0.0000 0.0000
# 5 0.0000 0.0000 0.0000 0.0000 19.6389 0.0000
# 6 0.0000 0.0000 0.0000 0.0000 0.0000 15.3557
#
#
#
# Elastic Compliance Matrix: (Units=1/GPa)
#
#
# Indices 1 2 3 4 5 6 
#
# 1 0.020371 -0.073978 0.001110 0.000000 0.000000 0.000000
# 2 -0.073978 0.716600 -0.069239 0.000000 0.000000 0.000000
# 3 0.001110 -0.069239 0.016505 0.000000 0.000000 0.000000
# 4 0.000000 0.000000 0.000000 0.122810 0.000000 0.000000
# 5 0.000000 0.000000 0.000000 0.000000 0.050919 0.000000
# 6 0.000000 0.000000 0.000000 0.000000 0.000000 0.065123
#
#
# Mechanical properties :
#
#
# Convention : Reuss Voigt Hill
#
# Bulk Modulus (GPa) = 2.13100 52.70512 27.41806
# Shear Modulus (GPa) = 3.48927 18.81489 11.15208
#
# Velocity S-wave (km/s) = 1.45751 3.38450 2.60569
# Velocity P-wave (km/s) = 2.03220 6.88193 5.07400
#
# Compressibility (1/GPa) = 0.46926261
#
# Stress axis : x y z
#
# Youngs Moduli (GPa) = 49.08871 1.39548 60.58743
#
# Poissons Ratio (x) = 0.10323 -0.06724
# Poissons Ratio (y) = 3.63149 4.19500
# Poissons Ratio (z) = -0.05448 0.09662
#
# Static dielectric constant tensor:
#      x y z
#    x 1.539610 0.000000 0.000000 
#    y 0.000000 1.556370 0.000000 
#    z 0.000000 0.000000 1.587650 
# 
# From -- ./inp_files/30930.got.cif
#   From: 2010.05.17/outbox.ucp.g08.bks.cvg/sg51_16_cif.got.tgz:30930.got - 2010.06.11 16:27:58.
