data_PCOD9407301
_publ_section_title
;
Structure prediction by ZEFSAII (Michael W. Deem and Ramdas Pophale) SiO2 
 PCOD9407301
Probable space group: P M M A
;
_chemical_formula_sum "Si O2"
_cell_formula_units_Z 56
_cell_length_a 19.288572
_cell_length_b 7.541462
_cell_length_c 19.717569
_cell_angle_alpha 90.000000
_cell_angle_beta 90.000000
_cell_angle_gamma 90.000000
_cell_volume 2868.197103
_symmetry_space_group_name_H-M "P M M A"
_symmetry_group_IT_number 51
_symmetry_cell_setting 'orthorhombic'
loop_
_space_group_symop_operation_xyz
x,y,z
1/2-x,-y,z
1/2+x,-y,-z
-x,y,-z
-x,-y,-z
1/2+x,y,-z
1/2-x,y,z
x,-y,z
loop_
_atom_site_type_symbol
_atom_site_label
_atom_site_fract_x
_atom_site_fract_y
_atom_site_fract_z
Si Si1 0.665893 0.705242 0.436242
Si Si2 0.030781 0.216324 0.071355
Si Si3 0.827708 0.793610 0.285834
Si Si4 0.899711 0.787550 0.722627
Si Si5 0.539991 0.217132 0.210221
Si Si6 0.827788 0.216570 0.860235
Si Si7 0.328742 0.287970 0.418239
O O1 0.750000 0.713595 0.440350
O O2 0.645036 0.500000 0.431208
O O3 0.647634 0.788003 0.364192
O O4 0.642830 0.779960 0.509205
O O5 0.109293 0.271673 0.090434
O O6 0.982175 0.268709 0.134500
O O7 0.031656 0.000000 0.070080
O O8 0.000000 0.277259 0.000000
O O9 0.750000 0.715149 0.282220
O O10 0.886677 0.716729 0.237590
O O11 0.821430 0.000000 0.267745
O O12 0.849468 0.727131 0.783902
O O13 0.873416 0.743176 0.648247
O O14 0.976953 0.725937 0.740981
O O15 0.900459 0.000000 0.727269
O O16 0.541339 0.000000 0.211419
O O17 0.750000 0.275604 0.877056
O O18 0.827311 0.000000 0.860833
O O19 0.250000 0.220786 0.407094
O O20 0.323921 0.500000 0.427157
#
# Coordination Sequence:
#
# PCOD9407301 Si02
#       7
#     8   8   8   8   8   8   8
#     4   8  15  28  43  58  79 107 136 168 207 245
#     4   8  13  22  36  53  78 112 137 153 191 249
#     4   9  16  27  44  62  79 103 136 173 210 245
#     4   9  16  26  41  58  79 110 141 167 199 242
#     4   8  15  27  40  57  82 107 133 168 206 241
#     4   8  13  21  34  54  77 100 132 171 199 224
#     4   9  17  28  41  59  84 109 133 169 212 243
#
# _framework density 19.524460999999999
#
# number of rings (size 3 to 8) (size 9 to 14) (size 15 to 20)
#    0.000    3.571    0.000    3.000    0.000    1.429 
#    0.000    3.571    0.000    8.571    0.000    0.000 
#    0.000   14.286    0.000   16.857    0.000   14.857 
#
# Total GULP energy -311845.191403 kJ/mol
# GULP energy per Si atom -5568.664132 kJ/mol
# Density = 1.948002 g / cm^3
# Si number density = 19.524461 Si / 1000 Ang^3
#
#
#
# Elastic Constant Matrix: (Units=GPa)
#
#
# Indices 1 2 3 4 5 6 
#
# 1 138.6975 6.8425 110.4265 0.0000 0.0000 0.0000
# 2 6.8425 43.3705 1.7517 0.0000 0.0000 0.0000
# 3 110.4265 1.7517 146.4174 0.0000 0.0000 0.0000
# 4 0.0000 0.0000 0.0000 34.8330 0.0000 0.0000
# 5 0.0000 0.0000 0.0000 0.0000 26.4605 0.0000
# 6 0.0000 0.0000 0.0000 0.0000 0.0000 -3.3936
#
#
#
# Elastic Compliance Matrix: (Units=1/GPa)
#
#
# Indices 1 2 3 4 5 6 
#
# 1 0.018278 -0.002328 -0.013757 0.000000 0.000000 0.000000
# 2 -0.002328 0.023365 0.001476 0.000000 0.000000 0.000000
# 3 -0.013757 0.001476 0.017187 0.000000 0.000000 0.000000
# 4 0.000000 0.000000 0.000000 0.028708 0.000000 0.000000
# 5 0.000000 0.000000 0.000000 0.000000 0.037792 0.000000
# 6 0.000000 0.000000 0.000000 0.000000 0.000000 -0.294673
#
#
# Mechanical properties :
#
#
# Convention : Reuss Voigt Hill
#
# Bulk Modulus (GPa) = 33.76956 62.94742 48.35849
# Shear Modulus (GPa) = -38.38638 25.54429 -6.42105
#
# Velocity S-wave (km/s) = -4.43884 3.62100 -1.81545
# Velocity P-wave (km/s) = 2.98957 7.05638 4.51967
#
# Compressibility (1/GPa) = 0.02961247
#
# Stress axis : x y z
#
# Youngs Moduli (GPa) = 54.71166 42.79939 58.18189
#
# Poissons Ratio (x) = 0.09964 0.80041
# Poissons Ratio (y) = 0.12737 -0.08589
# Poissons Ratio (z) = 0.75267 -0.06318
#
# Static dielectric constant tensor:
#      x y z
#    x 1.688800 0.000000 0.000000 
#    y 0.000000 1.738180 0.000000 
#    z 0.000000 0.000000 1.682380 
# 
# From -- ./inp_files/33699.got.cif
#   From: 2010.05.17/outbox.cif.g08.bks.cpg/sg51_17_cif.got.tgz:33699.got - 2010.06.03 11:52:47.
