data_PCOD9407794
_publ_section_title
;
Structure prediction by ZEFSAII (Michael W. Deem and Ramdas Pophale) SiO2 
 PCOD9407794
Probable space group: P M M A
;
_chemical_formula_sum "Si O2"
_cell_formula_units_Z 64
_cell_length_a 18.000000
_cell_length_b 9.000000
_cell_length_c 21.000000
_cell_angle_alpha 90.000000
_cell_angle_beta 90.000000
_cell_angle_gamma 90.000000
_cell_volume 3402.000000
_symmetry_space_group_name_H-M "P M M A"
_symmetry_group_IT_number 51
_symmetry_cell_setting 'orthorhombic'
loop_
_space_group_symop_operation_xyz
x,y,z
1/2-x,-y,z
1/2+x,-y,-z
-x,y,-z
-x,-y,-z
1/2+x,y,-z
1/2-x,y,z
x,-y,z
loop_
_atom_site_type_symbol
_atom_site_label
_atom_site_fract_x
_atom_site_fract_y
_atom_site_fract_z
Si Si1 0.832215 0.675825 0.013170
Si Si2 0.664810 0.678432 0.785592
Si Si3 0.558045 0.679259 0.900764
Si Si4 0.660581 0.677304 0.252390
Si Si5 0.340499 0.169162 0.344225
Si Si6 0.401403 0.175674 0.872107
Si Si7 0.340906 0.326963 0.471758
Si Si8 0.163343 0.319206 0.608681
O O1 0.750000 0.696785 0.984664
O O2 0.839998 0.500000 0.027107
O O3 0.841177 0.765943 0.077552
O O4 0.896433 0.717919 0.964083
O O5 0.750000 0.729595 0.796420
O O6 0.666386 0.500000 0.784257
O O7 0.609993 0.723531 0.841592
O O8 0.638407 0.737248 0.717504
O O9 0.548751 0.500000 0.900117
O O10 0.479201 0.755432 0.894644
O O11 0.750000 0.700704 0.249147
O O12 0.648809 0.500000 0.245450
O O13 0.619953 0.762471 0.196710
O O14 0.632664 0.724466 0.322700
O O15 0.250000 0.172856 0.346370
O O16 0.366668 0.237055 0.410704
O O17 0.363986 0.000000 0.336982
O O18 0.404895 0.000000 0.871864
O O19 0.250000 0.321446 0.473595
O O20 0.360572 0.500000 0.464148
O O21 0.368253 0.270753 0.540662
O O22 0.250000 0.274582 0.609549
O O23 0.162695 0.500000 0.607187
#
# Coordination Sequence:
#
# PCOD9407794 Si02
#       8
#     8   8   8   8   8   8   8   8
#     4  10  21  39  63  86 105 129 165 209 254 298
#     4   9  17  31  52  76  99 125 163 212 260 302
#     4  10  21  38  59  80 102 131 169 211 253 298
#     4   9  17  32  54  76  99 132 175 219 260 302
#     4   9  16  24  36  60  96 134 167 199 241 297
#     4  12  25  37  51  76 110 143 172 203 244 298
#     4   8  12  20  36  59  89 124 161 203 250 296
#     4   7  11  21  40  66  92 120 160 210 258 299
#
# _framework density 18.812463000000001
#
# number of rings (size 3 to 8) (size 9 to 14) (size 15 to 20)
#    0.000    2.750    0.000    4.125    0.000    7.500 
#    0.000    0.625    0.000    4.500    0.000    0.875 
#    0.000    7.000    0.000    0.000    0.000    0.000 
#
# Total GULP energy -356699.182549 kJ/mol
# GULP energy per Si atom -5573.424727 kJ/mol
# Density = 1.876965 g / cm^3
# Si number density = 18.812463 Si / 1000 Ang^3
#
#
#
# Elastic Constant Matrix: (Units=GPa)
#
#
# Indices 1 2 3 4 5 6 
#
# 1 37.1508 19.8960 23.4976 0.0000 0.0000 0.0000
# 2 19.8960 13.2150 28.0017 0.0000 0.0000 0.0000
# 3 23.4976 28.0017 120.5088 0.0000 0.0000 0.0000
# 4 0.0000 0.0000 0.0000 -41.1464 0.0000 0.0000
# 5 0.0000 0.0000 0.0000 0.0000 -12.0701 0.0000
# 6 0.0000 0.0000 0.0000 0.0000 0.0000 1.9676
#
#
#
# Elastic Compliance Matrix: (Units=1/GPa)
#
#
# Indices 1 2 3 4 5 6 
#
# 1 0.664885 -1.430776 0.202815 0.000000 0.000000 0.000000
# 2 -1.430776 3.227972 -0.471078 0.000000 0.000000 0.000000
# 3 0.202815 -0.471078 0.078213 0.000000 0.000000 0.000000
# 4 0.000000 0.000000 0.000000 -0.024303 0.000000 0.000000
# 5 0.000000 0.000000 0.000000 0.000000 -0.082849 0.000000
# 6 0.000000 0.000000 0.000000 0.000000 0.000000 0.508223
#
#
# Mechanical properties :
#
#
# Convention : Reuss Voigt Hill
#
# Bulk Modulus (GPa) = 1.74522 34.85170 18.29846
# Shear Modulus (GPa) = 0.62804 -3.61781 -1.49488
#
# Velocity S-wave (km/s) = 0.57842 -1.38826 -0.89238
# Velocity P-wave (km/s) = 1.17295 3.99955 2.94722
#
# Compressibility (1/GPa) = 0.57299283
#
# Stress axis : x y z
#
# Youngs Moduli (GPa) = 1.50402 0.30979 12.78564
#
# Poissons Ratio (x) = 0.44324 -2.59312
# Poissons Ratio (y) = 2.15191 6.02303
# Poissons Ratio (z) = -0.30504 0.14594
#
# Static dielectric constant tensor:
#      x y z
#    x 1.656210 0.000000 0.000000 
#    y 0.000000 1.623820 0.000000 
#    z 0.000000 0.000000 1.678270 
# 
# From -- ./inp_files/33805.got.cif
#   From: 2010.05.17/outbox.ucp.g08.bks.cvg/sg51_17_cif.got.tgz:33805.got - 2010.06.11 16:27:58.
