data_PCOD9407373
_publ_section_title
;
Structure prediction by ZEFSAII (Michael W. Deem and Ramdas Pophale) SiO2 
 PCOD9407373
Probable space group: P M M A
;
_chemical_formula_sum "Si O2"
_cell_formula_units_Z 40
_cell_length_a 11.195692
_cell_length_b 22.745223
_cell_length_c 7.280100
_cell_angle_alpha 90.000000
_cell_angle_beta 90.000000
_cell_angle_gamma 90.000000
_cell_volume 1853.866626
_symmetry_space_group_name_H-M "P M M A"
_symmetry_group_IT_number 51
_symmetry_cell_setting 'orthorhombic'
loop_
_space_group_symop_operation_xyz
x,y,z
1/2-x,-y,z
1/2+x,-y,-z
-x,y,-z
-x,-y,-z
1/2+x,y,-z
1/2-x,y,z
x,-y,z
loop_
_atom_site_type_symbol
_atom_site_label
_atom_site_fract_x
_atom_site_fract_y
_atom_site_fract_z
Si Si1 0.379938 0.310616 0.201035
Si Si2 0.120853 0.739749 0.787156
Si Si3 0.114118 0.433310 0.365576
Si Si4 0.878816 0.119626 0.206321
Si Si5 0.621027 0.070362 0.789095
O O1 0.250000 0.293650 0.279209
O O2 0.496666 0.283009 0.293678
O O3 0.391366 0.380852 0.218998
O O4 0.377449 0.288110 0.991747
O O5 0.250000 0.724215 0.702610
O O6 0.114476 0.810016 0.802976
O O7 0.250000 0.428700 0.449471
O O8 0.105623 0.500000 0.292007
O O9 0.000000 0.425666 0.500000
O O10 0.750000 0.102841 0.288198
O O11 0.999722 0.095593 0.294083
O O12 0.877035 0.093968 0.999011
O O13 0.750000 0.087990 0.709365
O O14 0.613901 0.000000 0.791687
#
# Coordination Sequence:
#
# PCOD9407373 Si02
#       5
#     8   8   8   8   8
#     4   9  16  27  43  60  79 103 129 158 192 231
#     4   9  17  27  39  58  82 106 133 163 195 233
#     4   9  18  32  48  64  81 102 129 160 194 233
#     4   9  15  22  32  45  65  95 128 159 190 225
#     4   9  15  20  27  41  61  88 126 167 198 222
#
# _framework density 21.576523999999999
#
# number of rings (size 3 to 8) (size 9 to 14) (size 15 to 20)
#    0.000    3.000    0.000    3.600    0.000    4.400 
#    0.000    2.000    0.000    1.200    0.000    0.000 
#    0.000    0.000    0.000    0.000    0.000   64.000 
#
# Total GULP energy -222700.318280 kJ/mol
# GULP energy per Si atom -5567.507957 kJ/mol
# Density = 2.152741 g / cm^3
# Si number density = 21.576524 Si / 1000 Ang^3
#
#
#
# Elastic Constant Matrix: (Units=GPa)
#
#
# Indices 1 2 3 4 5 6 
#
# 1 281.7980 76.1917 22.5749 0.0000 0.0000 0.0000
# 2 76.1917 82.4661 15.0830 0.0000 0.0000 0.0000
# 3 22.5749 15.0830 69.3338 0.0000 0.0000 0.0000
# 4 0.0000 0.0000 0.0000 -38.0959 0.0000 0.0000
# 5 0.0000 0.0000 0.0000 0.0000 -27.4538 0.0000
# 6 0.0000 0.0000 0.0000 0.0000 0.0000 23.9832
#
#
#
# Elastic Compliance Matrix: (Units=1/GPa)
#
#
# Indices 1 2 3 4 5 6 
#
# 1 0.004756 -0.004281 -0.000617 0.000000 0.000000 0.000000
# 2 -0.004281 0.016482 -0.002192 0.000000 0.000000 0.000000
# 3 -0.000617 -0.002192 0.015101 0.000000 0.000000 0.000000
# 4 0.000000 0.000000 0.000000 -0.026250 0.000000 0.000000
# 5 0.000000 0.000000 0.000000 0.000000 -0.036425 0.000000
# 6 0.000000 0.000000 0.000000 0.000000 0.000000 0.041696
#
#
# Mechanical properties :
#
#
# Convention : Reuss Voigt Hill
#
# Bulk Modulus (GPa) = 45.12834 73.47747 59.30290
# Shear Modulus (GPa) = 135.40699 13.00323 74.20511
#
# Velocity S-wave (km/s) = 7.93050 2.45757 5.87080
# Velocity P-wave (km/s) = 10.23807 6.49470 8.57319
#
# Compressibility (1/GPa) = 0.02215902
#
# Stress axis : x y z
#
# Youngs Moduli (GPa) = 210.28220 60.67156 66.22205
#
# Poissons Ratio (x) = 0.25972 0.04087
# Poissons Ratio (y) = 0.90018 0.14514
# Poissons Ratio (z) = 0.12977 0.13298
#
# Static dielectric constant tensor:
#      x y z
#    x 1.936480 0.000000 0.000000 
#    y 0.000000 1.733150 0.000000 
#    z 0.000000 0.000000 1.737870 
# 
# From -- ./inp_files/6878.got.cif
#   From: 2010.05.17/outbox.cif.g08.bks.cpg/sg51_4_cif.got.tgz:6878.got - 2010.06.03 11:52:47.
