data_PCOD9407682
_publ_section_title
;
Structure prediction by ZEFSAII (Michael W. Deem and Ramdas Pophale) SiO2 
 PCOD9407682
Probable space group: P M M A
;
_chemical_formula_sum "Si O2"
_cell_formula_units_Z 64
_cell_length_a 18.000000
_cell_length_b 9.000000
_cell_length_c 21.000000
_cell_angle_alpha 90.000000
_cell_angle_beta 90.000000
_cell_angle_gamma 90.000000
_cell_volume 3402.000000
_symmetry_space_group_name_H-M "P M M A"
_symmetry_group_IT_number 51
_symmetry_cell_setting 'orthorhombic'
loop_
_space_group_symop_operation_xyz
x,y,z
1/2-x,-y,z
1/2+x,-y,-z
-x,y,-z
-x,-y,-z
1/2+x,y,-z
1/2-x,y,z
x,-y,z
loop_
_atom_site_type_symbol
_atom_site_label
_atom_site_fract_x
_atom_site_fract_y
_atom_site_fract_z
Si Si1 0.951182 0.328423 0.810038
Si Si2 0.667738 0.822544 0.133892
Si Si3 0.837610 0.166588 0.747031
Si Si4 0.580180 0.822743 0.263011
Si Si5 0.956777 0.673316 0.060340
Si Si6 0.337365 0.677085 0.619051
Si Si7 0.838846 0.329329 0.616978
Si Si8 0.587881 0.174499 0.500928
O O1 0.936816 0.500000 0.796530
O O2 0.877475 0.232055 0.808163
O O3 0.004325 0.257515 0.756451
O O4 0.991880 0.317370 0.877297
O O5 0.750000 0.761568 0.130166
O O6 0.633791 0.788668 0.203147
O O7 0.616947 0.758087 0.078983
O O8 0.668828 0.000000 0.129094
O O9 0.750000 0.163042 0.755377
O O10 0.853340 0.275143 0.688246
O O11 0.863602 0.000000 0.732470
O O12 0.616590 0.759071 0.326218
O O13 0.570160 0.000000 0.267423
O O14 0.940002 0.500000 0.048529
O O15 0.000000 0.734686 0.000000
O O16 0.250000 0.714403 0.623660
O O17 0.345046 0.500000 0.625586
O O18 0.369692 0.730462 0.551972
O O19 0.750000 0.319589 0.606193
O O20 0.861616 0.500000 0.607556
O O21 0.880128 0.222148 0.568681
O O22 0.500000 0.203041 0.500000
O O23 0.600165 0.000000 0.488843
#
# Coordination Sequence:
#
# PCOD9407682 Si02
#       8
#     8   8   8   8   8   8   8   8
#     4  10  20  35  57  83 112 146 183 228 277 324
#     4   9  18  33  54  82 113 145 184 227 272 324
#     4  10  21  37  58  83 111 144 184 230 278 330
#     4  10  20  35  57  83 113 147 182 224 274 330
#     4   9  19  36  56  80 111 148 189 228 270 323
#     4  11  24  40  58  82 112 145 183 227 276 330
#     4  10  21  38  60  83 107 139 180 228 281 333
#     4  11  25  41  57  79 108 144 186 230 276 329
#
# _framework density 18.812463000000001
#
# number of rings (size 3 to 8) (size 9 to 14) (size 15 to 20)
#    0.000    2.000    0.000    3.000    1.750    7.000 
#    0.000    0.625    0.000    3.750    0.000    0.000 
#    0.000    0.000    0.000    0.000    0.000    0.000 
#
# Total GULP energy -357172.035501 kJ/mol
# GULP energy per Si atom -5580.813055 kJ/mol
# Density = 1.876965 g / cm^3
# Si number density = 18.812463 Si / 1000 Ang^3
#
#
#
# Elastic Constant Matrix: (Units=GPa)
#
#
# Indices 1 2 3 4 5 6 
#
# 1 35.6675 13.5408 42.7047 0.0000 0.0000 0.0000
# 2 13.5408 13.2448 29.6988 0.0000 0.0000 0.0000
# 3 42.7047 29.6988 -34.6785 0.0000 0.0000 0.0000
# 4 0.0000 0.0000 0.0000 26.9454 0.0000 0.0000
# 5 0.0000 0.0000 0.0000 0.0000 -1.6554 0.0000
# 6 0.0000 0.0000 0.0000 0.0000 0.0000 -449.7948
#
#
#
# Elastic Compliance Matrix: (Units=1/GPa)
#
#
# Indices 1 2 3 4 5 6 
#
# 1 0.042867 -0.055539 0.005224 0.000000 0.000000 0.000000
# 2 -0.055539 0.097812 0.015373 0.000000 0.000000 0.000000
# 3 0.005224 0.015373 -0.009238 0.000000 0.000000 0.000000
# 4 0.000000 0.000000 0.000000 0.037112 0.000000 0.000000
# 5 0.000000 0.000000 0.000000 0.000000 -0.604091 0.000000
# 6 0.000000 0.000000 0.000000 0.000000 0.000000 -0.002223
#
#
# Mechanical properties :
#
#
# Convention : Reuss Voigt Hill
#
# Bulk Modulus (GPa) = 16.24527 20.68026 18.46277
# Shear Modulus (GPa) = -14.39432 -89.68168 -52.03800
#
# Velocity S-wave (km/s) = -2.76913 -6.91194 -5.26512
# Velocity P-wave (km/s) = 1.25300 7.25832 5.20832
#
# Compressibility (1/GPa) = 0.06155637
#
# Stress axis : x y z
#
# Youngs Moduli (GPa) = 23.32816 10.22375 -108.25220
#
# Poissons Ratio (x) = 0.56782 0.56553
# Poissons Ratio (y) = 1.29562 1.66414
# Poissons Ratio (z) = -0.12187 -0.15717
#
# Static dielectric constant tensor:
#      x y z
#    x 1.709270 0.000000 0.000000 
#    y 0.000000 1.632160 0.000000 
#    z 0.000000 0.000000 1.579290 
# 
# From -- ./inp_files/33795.got.cif
#   From: 2010.05.17/outbox.ucp.g08.bks.cvg/sg51_17_cif.got.tgz:33795.got - 2010.06.11 16:27:58.
