data_PCOD9407979
_publ_section_title
;
Structure prediction by ZEFSAII (Michael W. Deem and Ramdas Pophale) SiO2 
 PCOD9407979
Probable space group: P N N A
;
_chemical_formula_sum "Si O2"
_cell_formula_units_Z 48
_cell_length_a 14.777077
_cell_length_b 9.052811
_cell_length_c 17.679888
_cell_angle_alpha 90.000000
_cell_angle_beta 90.000000
_cell_angle_gamma 90.000000
_cell_volume 2365.110844
_symmetry_space_group_name_H-M "P N N A"
_symmetry_group_IT_number 52
_symmetry_cell_setting 'orthorhombic'
loop_
_space_group_symop_operation_xyz
x,y,z
1/2-x,-y,z
x,1/2-y,1/2-z
1/2-x,1/2+y,1/2-z
-x,-y,-z
1/2+x,y,-z
-x,1/2+y,1/2+z
1/2+x,1/2-y,1/2+z
loop_
_atom_site_type_symbol
_atom_site_label
_atom_site_fract_x
_atom_site_fract_y
_atom_site_fract_z
Si Si1 0.935358 0.250000 0.750000
Si Si2 0.988733 0.716344 0.837868
Si Si3 0.450730 0.975506 0.855884
Si Si4 0.595086 0.308476 0.082434
Si Si5 0.597762 0.928137 0.604362
Si Si6 0.750000 0.000000 0.498662
Si Si7 0.854981 0.496380 0.208176
O O1 0.888094 0.155572 0.683758
O O2 0.983977 0.122441 0.801432
O O3 0.963760 0.750000 0.750000
O O4 0.921377 0.600438 0.876370
O O5 0.085476 0.630433 0.832094
O O6 0.001390 0.872651 0.878727
O O7 0.411980 0.867509 0.919538
O O8 0.372368 0.019437 0.796745
O O9 0.495080 0.370785 0.064861
O O10 0.606825 0.353885 0.171228
O O11 0.679067 0.392298 0.044473
O O12 0.682565 0.906630 0.550858
O O13 0.750000 0.500000 0.193075
#
# Coordination Sequence:
#
# PCOD9407979 Si02
#       7
#     4   8   8   8   8   4   8
#     4  10  16  36  60  86 110 142 208 258 302 350
#     4   9  17  33  57  87 118 147 191 257 329 359
#     4  10  17  32  57  90 115 154 193 258 320 349
#     4  10  20  37  60  81 122 161 208 247 291 384
#     4  10  21  39  62  88 116 159 210 259 307 372
#     4  12  24  40  60  88 120 178 210 236 312 386
#     4  10  17  30  52  89 121 150 195 251 305 364
#
# _framework density 20.295031000000002
#
# number of rings (size 3 to 8) (size 9 to 14) (size 15 to 20)
#    0.000    2.000    7.500    0.500    0.000    4.000 
#    1.500    0.833    0.000   11.000    0.000    0.000 
#    0.000    0.000    0.000    0.000    0.000    0.000 
#
# Total GULP energy -267283.179948 kJ/mol
# GULP energy per Si atom -5568.399582 kJ/mol
# Density = 2.024884 g / cm^3
# Si number density = 20.295031 Si / 1000 Ang^3
#
#
#
# Elastic Constant Matrix: (Units=GPa)
#
#
# Indices 1 2 3 4 5 6 
#
# 1 85.3333 17.7479 35.7580 0.0000 0.0000 0.0000
# 2 17.7479 131.8751 31.0027 0.0000 0.0000 0.0000
# 3 35.7580 31.0027 58.2057 0.0000 0.0000 0.0000
# 4 0.0000 0.0000 0.0000 15.9384 0.0000 0.0000
# 5 0.0000 0.0000 0.0000 0.0000 23.5447 0.0000
# 6 0.0000 0.0000 0.0000 0.0000 0.0000 1.8156
#
#
#
# Elastic Compliance Matrix: (Units=1/GPa)
#
#
# Indices 1 2 3 4 5 6 
#
# 1 0.015785 0.000178 -0.009792 0.000000 0.000000 0.000000
# 2 0.000178 0.008670 -0.004727 0.000000 0.000000 0.000000
# 3 -0.009792 -0.004727 0.025714 0.000000 0.000000 0.000000
# 4 0.000000 0.000000 0.000000 0.062742 0.000000 0.000000
# 5 0.000000 0.000000 0.000000 0.000000 0.042472 0.000000
# 6 0.000000 0.000000 0.000000 0.000000 0.000000 0.550773
#
#
# Mechanical properties :
#
#
# Convention : Reuss Voigt Hill
#
# Bulk Modulus (GPa) = 46.54170 49.38124 47.96147
# Shear Modulus (GPa) = 6.73853 20.98678 13.86266
#
# Velocity S-wave (km/s) = 1.82414 3.21921 2.61637
# Velocity P-wave (km/s) = 5.23632 6.18080 5.72806
#
# Compressibility (1/GPa) = 0.02148611
#
# Stress axis : x y z
#
# Youngs Moduli (GPa) = 63.35124 115.33526 38.88934
#
# Poissons Ratio (x) = -0.02049 0.38080
# Poissons Ratio (y) = -0.01125 0.18384
# Poissons Ratio (z) = 0.62033 0.54523
#
# Static dielectric constant tensor:
#      x y z
#    x 1.742360 0.000000 0.000000 
#    y 0.000000 1.779600 0.000000 
#    z 0.000000 0.000000 1.788490 
# 
# From -- ./inp_files/37236.got.cif
#   From: 2010.05.17/outbox.cif.g08.bks.cpg/sg52_19_cif.got.tgz:37236.got - 2010.06.03 12:15:38.
