data_PCOD9407351
_publ_section_title
;
Structure prediction by ZEFSAII (Michael W. Deem and Ramdas Pophale) SiO2 
 PCOD9407351
Probable space group: P M M A
;
_chemical_formula_sum "Si O2"
_cell_formula_units_Z 64
_cell_length_a 14.337597
_cell_length_b 7.560975
_cell_length_c 31.997951
_cell_angle_alpha 90.000000
_cell_angle_beta 90.000000
_cell_angle_gamma 90.000000
_cell_volume 3468.776675
_symmetry_space_group_name_H-M "P M M A"
_symmetry_group_IT_number 51
_symmetry_cell_setting 'orthorhombic'
loop_
_space_group_symop_operation_xyz
x,y,z
1/2-x,-y,z
1/2+x,-y,-z
-x,y,-z
-x,-y,-z
1/2+x,y,-z
1/2-x,y,z
x,-y,z
loop_
_atom_site_type_symbol
_atom_site_label
_atom_site_fract_x
_atom_site_fract_y
_atom_site_fract_z
Si Si1 0.035377 0.789019 0.564025
Si Si2 0.854126 0.711726 0.354144
Si Si3 0.856133 0.788224 0.877786
Si Si4 0.143914 0.714663 0.895693
Si Si5 0.354779 0.783538 0.482562
Si Si6 0.977448 0.712102 0.182804
Si Si7 0.980169 0.203711 0.954691
Si Si8 0.857332 0.716220 0.259354
O O1 0.072203 0.751770 0.610004
O O2 0.107216 0.726794 0.528127
O O3 0.932608 0.725357 0.550868
O O4 0.032575 0.000000 0.559704
O O5 0.750000 0.776905 0.365917
O O6 0.849040 0.500000 0.351510
O O7 0.875028 0.774320 0.307077
O O8 0.750000 0.722467 0.873636
O O9 0.908229 0.719718 0.919998
O O10 0.922460 0.757027 0.837549
O O11 0.852252 0.000000 0.882292
O O12 0.250000 0.770007 0.898926
O O13 0.139954 0.500000 0.898058
O O14 0.097867 0.767916 0.851952
O O15 0.078689 0.791283 0.931293
O O16 0.250000 0.722428 0.474940
O O17 0.352880 0.000000 0.482366
O O18 0.976402 0.500000 0.185003
O O19 0.936529 0.777181 0.226922
O O20 0.950215 0.000000 0.961983
O O21 0.000000 0.286459 0.000000
O O22 0.750000 0.766524 0.248110
O O23 0.857966 0.500000 0.258803
#
# Coordination Sequence:
#
# PCOD9407351 Si02
#       8
#     8   8   8   8   8   8   8   8
#     4   9  16  26  43  64  83 109 145 181 214 249
#     4   9  17  28  42  62  89 117 140 166 208 259
#     4   9  18  32  47  63  87 117 144 175 218 257
#     4   9  17  28  43  65  90 112 134 166 211 254
#     4   8  14  25  41  61  84 110 142 179 217 255
#     4   9  16  28  48  69  86 107 141 180 208 241
#     4   9  18  31  46  64  85 112 147 179 205 243
#     4   8  14  26  45  67  89 114 140 165 204 260
#
# _framework density 18.450308
#
# number of rings (size 3 to 8) (size 9 to 14) (size 15 to 20)
#    0.000    3.250    0.000    2.250    0.000    3.500 
#    0.000    3.125    0.000    3.750    0.000    3.500 
#    0.000    0.000    0.000    0.000    0.000    0.000 
#
# Total GULP energy -356433.698621 kJ/mol
# GULP energy per Si atom -5569.276541 kJ/mol
# Density = 1.840831 g / cm^3
# Si number density = 18.450308 Si / 1000 Ang^3
#
#
#
# Elastic Constant Matrix: (Units=GPa)
#
#
# Indices 1 2 3 4 5 6 
#
# 1 168.7791 5.5073 97.0912 0.0000 0.0000 0.0000
# 2 5.5073 38.7011 5.4669 0.0000 0.0000 0.0000
# 3 97.0912 5.4669 142.4227 0.0000 0.0000 0.0000
# 4 0.0000 0.0000 0.0000 40.0826 0.0000 0.0000
# 5 0.0000 0.0000 0.0000 0.0000 12.6354 0.0000
# 6 0.0000 0.0000 0.0000 0.0000 0.0000 14.0202
#
#
#
# Elastic Compliance Matrix: (Units=1/GPa)
#
#
# Indices 1 2 3 4 5 6 
#
# 1 0.009755 -0.000451 -0.006633 0.000000 0.000000 0.000000
# 2 -0.000451 0.026001 -0.000690 0.000000 0.000000 0.000000
# 3 -0.006633 -0.000690 0.011570 0.000000 0.000000 0.000000
# 4 0.000000 0.000000 0.000000 0.024948 0.000000 0.000000
# 5 0.000000 0.000000 0.000000 0.000000 0.079143 0.000000
# 6 0.000000 0.000000 0.000000 0.000000 0.000000 0.071326
#
#
# Mechanical properties :
#
#
# Convention : Reuss Voigt Hill
#
# Bulk Modulus (GPa) = 31.46987 62.89263 47.18125
# Shear Modulus (GPa) = 20.08967 29.47013 24.77990
#
# Velocity S-wave (km/s) = 3.30336 4.00092 3.66876
# Velocity P-wave (km/s) = 5.62522 7.45015 6.60106
#
# Compressibility (1/GPa) = 0.03177642
#
# Stress axis : x y z
#
# Youngs Moduli (GPa) = 102.50855 38.46038 86.43320
#
# Poissons Ratio (x) = 0.01735 0.57331
# Poissons Ratio (y) = 0.04626 0.05968
# Poissons Ratio (z) = 0.67994 0.02655
#
# Static dielectric constant tensor:
#      x y z
#    x 1.633010 0.000000 0.000000 
#    y 0.000000 1.710940 0.000000 
#    z 0.000000 0.000000 1.644440 
# 
# From -- ./inp_files/37799.got.cif
#   From: 2010.05.17/outbox.cif.g08.bks.cpg/sg51_19_cif.got.tgz:37799.got - 2010.06.03 11:52:47.
