data_PCOD9407869
_publ_section_title
;
Structure prediction by ZEFSAII (Michael W. Deem and Ramdas Pophale) SiO2 
 PCOD9407869
Probable space group: P N N A
;
_chemical_formula_sum "Si O2"
_cell_formula_units_Z 48
_cell_length_a 7.178851
_cell_length_b 14.627906
_cell_length_c 18.767423
_cell_angle_alpha 90.000000
_cell_angle_beta 90.000000
_cell_angle_gamma 90.000000
_cell_volume 1970.796322
_symmetry_space_group_name_H-M "P N N A"
_symmetry_group_IT_number 52
_symmetry_cell_setting 'orthorhombic'
loop_
_space_group_symop_operation_xyz
x,y,z
1/2-x,-y,z
x,1/2-y,1/2-z
1/2-x,1/2+y,1/2-z
-x,-y,-z
1/2+x,y,-z
-x,1/2+y,1/2+z
1/2+x,1/2-y,1/2+z
loop_
_atom_site_type_symbol
_atom_site_label
_atom_site_fract_x
_atom_site_fract_y
_atom_site_fract_z
Si Si1 0.422670 0.347252 0.772184
Si Si2 0.568111 0.608350 0.627683
Si Si3 0.021379 0.585226 0.622275
Si Si4 0.052434 0.788265 0.579805
Si Si5 0.663435 0.898985 0.715921
Si Si6 0.111734 0.802808 0.420739
O O1 0.341868 0.250000 0.750000
O O2 0.400737 0.412017 0.703795
O O3 0.371764 0.351428 0.855591
O O4 0.648949 0.340682 0.773523
O O5 0.794016 0.595828 0.621769
O O6 0.462076 0.519826 0.596517
O O7 0.542056 0.612133 0.713256
O O8 0.518343 0.704351 0.592571
O O9 0.097862 0.678687 0.586417
O O10 0.831185 0.789119 0.587265
O O11 0.088719 0.828786 0.502415
O O12 0.562456 0.870580 0.643497
O O13 0.750000 0.000000 0.710510
#
# Coordination Sequence:
#
# PCOD9407869 Si02
#       6
#     8   8   8   8   8   8
#     4   8  13  25  44  63  86 111 155 192 223 263
#     4   9  14  26  47  71  93 110 158 211 242 260
#     4   8  13  25  47  70  86 115 157 202 230 265
#     4   9  18  30  45  68  98 125 153 189 235 292
#     4  10  15  26  47  70  91 116 156 207 238 261
#     4  10  20  30  45  70 100 126 151 189 244 291
#
# _framework density 24.355637000000002
#
# number of rings (size 3 to 8) (size 9 to 14) (size 15 to 20)
#    0.000    3.000    3.333    3.500    0.000    0.667 
#    0.000    3.333    0.000    6.000    0.000    0.000 
#    0.000    0.000    0.000    0.000    0.000    0.000 
#
# Total GULP energy -267361.162387 kJ/mol
# GULP energy per Si atom -5570.024216 kJ/mol
# Density = 2.430020 g / cm^3
# Si number density = 24.355637 Si / 1000 Ang^3
#
#
#
# Elastic Constant Matrix: (Units=GPa)
#
#
# Indices 1 2 3 4 5 6 
#
# 1 84.3213 4.1837 -1.8554 0.0000 0.0000 0.0000
# 2 4.1837 39.2305 -7.7194 0.0000 0.0000 0.0000
# 3 -1.8554 -7.7194 52.8096 0.0000 0.0000 0.0000
# 4 0.0000 0.0000 0.0000 13.2772 0.0000 0.0000
# 5 0.0000 0.0000 0.0000 0.0000 -11.5678 0.0000
# 6 0.0000 0.0000 0.0000 0.0000 0.0000 7.5647
#
#
#
# Elastic Compliance Matrix: (Units=1/GPa)
#
#
# Indices 1 2 3 4 5 6 
#
# 1 0.011925 -0.001225 0.000240 0.000000 0.000000 0.000000
# 2 -0.001225 0.026371 0.003812 0.000000 0.000000 0.000000
# 3 0.000240 0.003812 0.019502 0.000000 0.000000 0.000000
# 4 0.000000 0.000000 0.000000 0.075317 0.000000 0.000000
# 5 0.000000 0.000000 0.000000 0.000000 -0.086447 0.000000
# 6 0.000000 0.000000 0.000000 0.000000 0.000000 0.132193
#
#
# Mechanical properties :
#
#
# Convention : Reuss Voigt Hill
#
# Bulk Modulus (GPa) = 15.75988 18.39770 17.07879
# Shear Modulus (GPa) = 25.72569 13.97164 19.84867
#
# Velocity S-wave (km/s) = 3.25353 2.39770 2.85783
# Velocity P-wave (km/s) = 4.53858 3.90326 4.23286
#
# Compressibility (1/GPa) = 0.06345227
#
# Stress axis : x y z
#
# Youngs Moduli (GPa) = 83.85437 37.92047 51.27795
#
# Poissons Ratio (x) = 0.04644 -0.01231
# Poissons Ratio (y) = 0.10269 -0.19546
# Poissons Ratio (z) = -0.02012 -0.14454
#
# Static dielectric constant tensor:
#      x y z
#    x 2.000270 0.000000 0.000000 
#    y 0.000000 1.995110 0.000000 
#    z 0.000000 0.000000 2.013640 
# 
# From -- ./inp_files/26236.got.cif
#   From: 2010.05.17/outbox.cif.g08.bks.cpg/sg52_14_cif.got.tgz:26236.got - 2010.06.03 12:15:38.
