data_PCOD9407304
_publ_section_title
;
Structure prediction by ZEFSAII (Michael W. Deem and Ramdas Pophale) SiO2 
 PCOD9407304
Probable space group: P M M A
;
_chemical_formula_sum "Si O2"
_cell_formula_units_Z 48
_cell_length_a 19.243342
_cell_length_b 7.406901
_cell_length_c 16.833883
_cell_angle_alpha 90.000000
_cell_angle_beta 90.000000
_cell_angle_gamma 90.000000
_cell_volume 2399.392752
_symmetry_space_group_name_H-M "P M M A"
_symmetry_group_IT_number 51
_symmetry_cell_setting 'orthorhombic'
loop_
_space_group_symop_operation_xyz
x,y,z
1/2-x,-y,z
1/2+x,-y,-z
-x,y,-z
-x,-y,-z
1/2+x,y,-z
1/2-x,y,z
x,-y,z
loop_
_atom_site_type_symbol
_atom_site_label
_atom_site_fract_x
_atom_site_fract_y
_atom_site_fract_z
Si Si1 0.405349 0.214605 0.830663
Si Si2 0.539780 0.218984 0.738672
Si Si3 0.828072 0.717186 0.331554
Si Si4 0.963580 0.710589 0.421962
Si Si5 0.669791 0.779907 0.013726
Si Si6 0.170841 0.220124 0.165562
O O1 0.479017 0.282707 0.798363
O O2 0.350960 0.242890 0.758933
O O3 0.377597 0.285904 0.914237
O O4 0.413351 0.000000 0.840663
O O5 0.516855 0.278116 0.651464
O O6 0.614123 0.279163 0.770835
O O7 0.538975 0.000000 0.738242
O O8 0.750000 0.783107 0.347681
O O9 0.827272 0.500000 0.338641
O O10 0.890262 0.785956 0.388571
O O11 0.949660 0.500000 0.439464
O O12 0.000000 0.789870 0.500000
O O13 0.750000 0.727908 0.027476
O O14 0.668232 0.000000 0.014542
O O15 0.650629 0.725115 0.924242
O O16 0.250000 0.277984 0.180661
O O17 0.171194 0.000000 0.165955
#
# Coordination Sequence:
#
# PCOD9407304 Si02
#       6
#     8   8   8   8   8   8
#     4   9  16  25  40  64  90 113 140 176 213 246
#     4   9  17  28  44  66  87 109 140 177 215 252
#     4   9  17  29  45  64  86 112 140 169 205 253
#     4   9  18  33  50  65  84 111 139 169 210 258
#     4   8  13  21  35  57  85 116 146 174 205 241
#     4   8  14  25  40  59  86 118 148 177 209 245
#
# _framework density 20.005061999999999
#
# number of rings (size 3 to 8) (size 9 to 14) (size 15 to 20)
#    0.000    3.333    0.000    1.500    0.000    2.000 
#    0.000    4.167    0.000    2.500    0.000    7.000 
#    0.000    0.000    0.000    0.000    0.000    0.000 
#
# Total GULP energy -267605.834063 kJ/mol
# GULP energy per Si atom -5575.121543 kJ/mol
# Density = 1.995953 g / cm^3
# Si number density = 20.005062 Si / 1000 Ang^3
#
#
#
# Elastic Constant Matrix: (Units=GPa)
#
#
# Indices 1 2 3 4 5 6 
#
# 1 133.5273 -7.4102 89.8346 0.0000 0.0000 0.0000
# 2 -7.4102 62.2680 -12.3996 0.0000 0.0000 0.0000
# 3 89.8346 -12.3996 101.5790 0.0000 0.0000 0.0000
# 4 0.0000 0.0000 0.0000 6.5349 0.0000 0.0000
# 5 0.0000 0.0000 0.0000 0.0000 25.5171 0.0000
# 6 0.0000 0.0000 0.0000 0.0000 0.0000 20.3105
#
#
#
# Elastic Compliance Matrix: (Units=1/GPa)
#
#
# Indices 1 2 3 4 5 6 
#
# 1 0.018563 -0.001086 -0.016549 0.000000 0.000000 0.000000
# 2 -0.001086 0.016523 0.002978 0.000000 0.000000 0.000000
# 3 -0.016549 0.002978 0.024844 0.000000 0.000000 0.000000
# 4 0.000000 0.000000 0.000000 0.153024 0.000000 0.000000
# 5 0.000000 0.000000 0.000000 0.000000 0.039189 0.000000
# 6 0.000000 0.000000 0.000000 0.000000 0.000000 0.049236
#
#
# Mechanical properties :
#
#
# Convention : Reuss Voigt Hill
#
# Bulk Modulus (GPa) = 32.66450 48.60265 40.63357
# Shear Modulus (GPa) = 14.66706 25.62913 20.14810
#
# Velocity S-wave (km/s) = 2.71064 3.58317 3.17701
# Velocity P-wave (km/s) = 5.11472 6.43947 5.81494
#
# Compressibility (1/GPa) = 0.03061428
#
# Stress axis : x y z
#
# Youngs Moduli (GPa) = 53.87123 60.52059 40.25142
#
# Poissons Ratio (x) = 0.06575 0.66613
# Poissons Ratio (y) = 0.05853 -0.11986
# Poissons Ratio (z) = 0.89153 -0.18022
#
# Static dielectric constant tensor:
#      x y z
#    x 1.706620 0.000000 0.000000 
#    y 0.000000 1.769930 0.000000 
#    z 0.000000 0.000000 1.673810 
# 
# From -- ./inp_files/30040.got.cif
#   From: 2010.05.17/outbox.cif.g08.bks.cpg/sg51_16_cif.got.tgz:30040.got - 2010.06.03 11:52:47.
