data_PCOD9407644
_publ_section_title
;
Structure prediction by ZEFSAII (Michael W. Deem and Ramdas Pophale) SiO2 
 PCOD9407644
Probable space group: P M M A
;
_chemical_formula_sum "Si O2"
_cell_formula_units_Z 56
_cell_length_a 15.000000
_cell_length_b 9.000000
_cell_length_c 21.000000
_cell_angle_alpha 90.000000
_cell_angle_beta 90.000000
_cell_angle_gamma 90.000000
_cell_volume 2835.000000
_symmetry_space_group_name_H-M "P M M A"
_symmetry_group_IT_number 51
_symmetry_cell_setting 'orthorhombic'
loop_
_space_group_symop_operation_xyz
x,y,z
1/2-x,-y,z
1/2+x,-y,-z
-x,y,-z
-x,-y,-z
1/2+x,y,-z
1/2-x,y,z
x,-y,z
loop_
_atom_site_type_symbol
_atom_site_label
_atom_site_fract_x
_atom_site_fract_y
_atom_site_fract_z
Si Si1 0.644588 0.822803 0.838650
Si Si2 0.356408 0.827149 0.769282
Si Si3 0.148489 0.333995 0.893028
Si Si4 0.028463 0.676090 0.273011
Si Si5 0.464139 0.820757 0.403827
Si Si6 0.852713 0.820133 0.470317
Si Si7 0.901068 0.672094 0.970952
O O1 0.750000 0.787662 0.830695
O O2 0.584194 0.745147 0.785309
O O3 0.614891 0.766968 0.908558
O O4 0.633900 0.000000 0.834261
O O5 0.250000 0.803595 0.758226
O O6 0.383403 0.785240 0.842194
O O7 0.424818 0.726547 0.730728
O O8 0.373886 0.000000 0.756711
O O9 0.250000 0.355488 0.873585
O O10 0.104486 0.500000 0.889496
O O11 0.150869 0.282387 0.965555
O O12 0.034452 0.500000 0.270530
O O13 0.063276 0.742573 0.339042
O O14 0.394507 0.785056 0.460316
O O15 0.565673 0.775080 0.423609
O O16 0.464676 0.000000 0.396617
O O17 0.750000 0.767103 0.460782
O O18 0.848945 0.000000 0.465948
O O19 0.878985 0.500000 0.956219
O O20 0.000000 0.678453 0.000000
#
# Coordination Sequence:
#
# PCOD9407644 Si02
#       7
#     8   8   8   8   8   8   8
#     4  11  25  43  62  85 114 152 202 257 305 350
#     4  10  21  37  58  84 114 150 195 248 302 355
#     4   9  17  30  49  74 106 142 178 221 279 346
#     4  12  25  40  59  83 118 161 200 241 291 350
#     4   9  18  34  57  86 117 149 192 238 277 330
#     4   8  15  31  58  89 118 149 185 229 280 331
#     4  10  20  34  55  83 112 144 183 230 291 358
#
# _framework density 19.753086
#
# number of rings (size 3 to 8) (size 9 to 14) (size 15 to 20)
#    0.000    2.143    0.000    4.286    0.000    5.714 
#    0.000    5.714    0.000    0.857    0.000    0.000 
#    0.000    0.000    0.000    0.000    0.000    0.000 
#
# Total GULP energy -312151.807116 kJ/mol
# GULP energy per Si atom -5574.139413 kJ/mol
# Density = 1.970813 g / cm^3
# Si number density = 19.753086 Si / 1000 Ang^3
#
#
#
# Elastic Constant Matrix: (Units=GPa)
#
#
# Indices 1 2 3 4 5 6 
#
# 1 67.0050 14.6743 5.4052 0.0000 0.0000 0.0000
# 2 14.6743 55.5050 30.6875 0.0000 0.0000 0.0000
# 3 5.4052 30.6875 73.8899 0.0000 0.0000 0.0000
# 4 0.0000 0.0000 0.0000 42.7520 0.0000 0.0000
# 5 0.0000 0.0000 0.0000 0.0000 10.0785 0.0000
# 6 0.0000 0.0000 0.0000 0.0000 0.0000 12.1030
#
#
#
# Elastic Compliance Matrix: (Units=1/GPa)
#
#
# Indices 1 2 3 4 5 6 
#
# 1 0.015874 -0.004614 0.000755 0.000000 0.000000 0.000000
# 2 -0.004614 0.024728 -0.009932 0.000000 0.000000 0.000000
# 3 0.000755 -0.009932 0.017603 0.000000 0.000000 0.000000
# 4 0.000000 0.000000 0.000000 0.023391 0.000000 0.000000
# 5 0.000000 0.000000 0.000000 0.000000 0.099221 0.000000
# 6 0.000000 0.000000 0.000000 0.000000 0.000000 0.082624
#
#
# Mechanical properties :
#
#
# Convention : Reuss Voigt Hill
#
# Bulk Modulus (GPa) = 32.65590 33.10378 32.87984
# Shear Modulus (GPa) = 16.59858 22.69556 19.64707
#
# Velocity S-wave (km/s) = 2.90194 3.39331 3.15720
# Velocity P-wave (km/s) = 5.27222 5.66991 5.47468
#
# Compressibility (1/GPa) = 0.03062233
#
# Stress axis : x y z
#
# Youngs Moduli (GPa) = 62.99663 40.44069 56.80725
#
# Poissons Ratio (x) = 0.18660 -0.04290
# Poissons Ratio (y) = 0.29068 0.56422
# Poissons Ratio (z) = -0.04757 0.40166
#
# Static dielectric constant tensor:
#      x y z
#    x 1.652820 0.000000 0.000000 
#    y 0.000000 1.676650 0.000000 
#    z 0.000000 0.000000 1.712210 
# 
# From -- ./inp_files/33341.got.cif
#   From: 2010.05.17/outbox.ucp.g08.bks.cvg/sg51_17_cif.got.tgz:33341.got - 2010.06.11 16:27:58.
