data_PCOD9407164
_publ_section_title
;
Structure prediction by ZEFSAII (Michael W. Deem and Ramdas Pophale) SiO2 
 PCOD9407164
Probable space group: P M M A
;
_chemical_formula_sum "Si O2"
_cell_formula_units_Z 48
_cell_length_a 14.967974
_cell_length_b 13.798665
_cell_length_c 11.510651
_cell_angle_alpha 90.000000
_cell_angle_beta 90.000000
_cell_angle_gamma 90.000000
_cell_volume 2377.387515
_symmetry_space_group_name_H-M "P M M A"
_symmetry_group_IT_number 51
_symmetry_cell_setting 'orthorhombic'
loop_
_space_group_symop_operation_xyz
x,y,z
1/2-x,-y,z
1/2+x,-y,-z
-x,y,-z
-x,-y,-z
1/2+x,y,-z
1/2-x,y,z
x,-y,z
loop_
_atom_site_type_symbol
_atom_site_label
_atom_site_fract_x
_atom_site_fract_y
_atom_site_fract_z
Si Si1 0.014049 0.773966 0.636635
Si Si2 0.100353 0.183535 0.019132
Si Si3 0.646323 0.610996 0.269396
Si Si4 0.351830 0.111382 0.261113
Si Si5 0.144500 0.605496 0.010405
Si Si6 0.150698 0.890166 0.776406
O O1 0.068106 0.679265 0.681540
O O2 0.080338 0.857834 0.681477
O O3 0.000000 0.768272 0.500000
O O4 0.919798 0.807762 0.691266
O O5 0.144985 0.123869 0.121547
O O6 0.099152 0.296900 0.054621
O O7 0.145268 0.173029 0.893546
O O8 0.000000 0.148736 0.000000
O O9 0.750000 0.642574 0.294910
O O10 0.637428 0.500000 0.311260
O O11 0.638242 0.607491 0.129478
O O12 0.250000 0.126722 0.300631
O O13 0.377831 0.000000 0.290249
O O14 0.250000 0.611478 0.039255
O O15 0.110430 0.500000 0.050996
O O16 0.250000 0.883186 0.727944
O O17 0.133716 0.000000 0.813816
#
# Coordination Sequence:
#
# PCOD9407164 Si02
#       6
#     8   8   8   8   8   8
#     4  12  25  41  63  89 123 163 210 267 311 360
#     4  12  21  35  62  91 123 159 198 254 316 379
#     4   9  18  37  66  96 125 158 200 253 311 372
#     4  11  25  43  61  86 125 172 214 256 315 379
#     4   9  17  31  55  87 121 155 194 242 299 365
#     4  11  23  39  62  91 120 154 203 261 314 372
#
# _framework density 20.190231000000001
#
# number of rings (size 3 to 8) (size 9 to 14) (size 15 to 20)
#    0.000    1.333    3.333    4.000    0.000    5.333 
#    0.000    2.500    0.000    1.500    0.000    0.000 
#    0.000    0.000    0.000    0.000    0.000    0.000 
#
# Total GULP energy -267901.017762 kJ/mol
# GULP energy per Si atom -5581.271203 kJ/mol
# Density = 2.014428 g / cm^3
# Si number density = 20.190231 Si / 1000 Ang^3
#
#
#
# Elastic Constant Matrix: (Units=GPa)
#
#
# Indices 1 2 3 4 5 6 
#
# 1 116.2334 37.2593 17.3044 0.0000 0.0000 0.0000
# 2 37.2593 124.5012 8.9827 0.0000 0.0000 0.0000
# 3 17.3044 8.9827 40.2713 0.0000 0.0000 0.0000
# 4 0.0000 0.0000 0.0000 5.1413 0.0000 0.0000
# 5 0.0000 0.0000 0.0000 0.0000 585.5039 0.0000
# 6 0.0000 0.0000 0.0000 0.0000 0.0000 37.0102
#
#
#
# Elastic Compliance Matrix: (Units=1/GPa)
#
#
# Indices 1 2 3 4 5 6 
#
# 1 0.010031 -0.002735 -0.003700 0.000000 0.000000 0.000000
# 2 -0.002735 0.008909 -0.000812 0.000000 0.000000 0.000000
# 3 -0.003700 -0.000812 0.026603 0.000000 0.000000 0.000000
# 4 0.000000 0.000000 0.000000 0.194505 0.000000 0.000000
# 5 0.000000 0.000000 0.000000 0.000000 0.001708 0.000000
# 6 0.000000 0.000000 0.000000 0.000000 0.000000 0.027020
#
#
# Mechanical properties :
#
#
# Convention : Reuss Voigt Hill
#
# Bulk Modulus (GPa) = 32.20785 45.34430 38.77607
# Shear Modulus (GPa) = 17.02886 140.02839 78.52862
#
# Velocity S-wave (km/s) = 2.90732 8.33697 6.24330
# Velocity P-wave (km/s) = 5.22081 10.73223 8.43912
#
# Compressibility (1/GPa) = 0.03104834
#
# Stress axis : x y z
#
# Youngs Moduli (GPa) = 99.69130 112.24439 37.59026
#
# Poissons Ratio (x) = 0.30699 0.13909
# Poissons Ratio (y) = 0.27265 0.03052
# Poissons Ratio (z) = 0.36888 0.09114
#
# Static dielectric constant tensor:
#      x y z
#    x 1.607140 0.000000 0.000000 
#    y 0.000000 1.764770 0.000000 
#    z 0.000000 0.000000 1.672750 
# 
# From -- ./inp_files/16441.got.cif
#   From: 2010.05.17/outbox.cif.g08.bks.cpg/sg51_9_cif.got.tgz:16441.got - 2010.06.03 11:52:47.
