data_PCOD9407669
_publ_section_title
;
Structure prediction by ZEFSAII (Michael W. Deem and Ramdas Pophale) SiO2 
 PCOD9407669
Probable space group: P M M A
;
_chemical_formula_sum "Si O2"
_cell_formula_units_Z 64
_cell_length_a 15.000000
_cell_length_b 9.000000
_cell_length_c 24.000000
_cell_angle_alpha 90.000000
_cell_angle_beta 90.000000
_cell_angle_gamma 90.000000
_cell_volume 3240.000000
_symmetry_space_group_name_H-M "P M M A"
_symmetry_group_IT_number 51
_symmetry_cell_setting 'orthorhombic'
loop_
_space_group_symop_operation_xyz
x,y,z
1/2-x,-y,z
1/2+x,-y,-z
-x,y,-z
-x,-y,-z
1/2+x,y,-z
1/2-x,y,z
x,-y,z
loop_
_atom_site_type_symbol
_atom_site_label
_atom_site_fract_x
_atom_site_fract_y
_atom_site_fract_z
Si Si1 0.604441 0.324161 0.940928
Si Si2 0.645983 0.667014 0.432376
Si Si3 0.647873 0.174589 0.549001
Si Si4 0.844086 0.178077 0.172868
Si Si5 0.390034 0.675436 0.939745
Si Si6 0.149567 0.330781 0.178772
Si Si7 0.494624 0.822278 0.244825
Si Si8 0.501406 0.822763 0.366987
O O1 0.624818 0.500000 0.943681
O O2 0.497568 0.310638 0.936974
O O3 0.645006 0.269739 0.884012
O O4 0.636244 0.263211 0.999787
O O5 0.750000 0.667006 0.418955
O O6 0.610876 0.500000 0.427019
O O7 0.636373 0.726474 0.494777
O O8 0.593306 0.778799 0.394221
O O9 0.750000 0.183509 0.567959
O O10 0.579582 0.228025 0.594980
O O11 0.630103 0.000000 0.535338
O O12 0.750000 0.218676 0.199478
O O13 0.849089 0.239037 0.111050
O O14 0.926315 0.238880 0.207131
O O15 0.849881 0.000000 0.170730
O O16 0.369310 0.500000 0.935847
O O17 0.250000 0.340881 0.197155
O O18 0.111551 0.500000 0.178441
O O19 0.096170 0.222144 0.217042
O O20 0.497818 0.758432 0.305964
O O21 0.504160 0.000000 0.247074
O O22 0.493451 0.000000 0.363965
#
# Coordination Sequence:
#
# PCOD9407669 Si02
#       8
#     8   8   8   8   8   8   8   8
#     4   8  15  29  51  79 106 130 164 214 266 317
#     4  10  21  36  55  83 117 147 175 213 264 318
#     4   9  18  34  56  82 112 143 176 218 265 313
#     4  10  21  36  52  73 104 139 175 219 272 324
#     4   9  16  30  54  79 101 131 171 216 265 320
#     4  10  20  35  56  79 105 139 176 218 269 321
#     4  10  22  39  56  76 105 142 182 225 268 310
#     4  10  21  36  57  82 106 141 188 227 262 308
#
# _framework density 19.753086
#
# number of rings (size 3 to 8) (size 9 to 14) (size 15 to 20)
#    0.000    2.500    1.250    1.500    0.000    5.250 
#    0.000    5.625    0.000    1.500    0.000    0.000 
#    0.000    0.000    0.000    0.000    0.000    0.000 
#
# Total GULP energy -356409.711883 kJ/mol
# GULP energy per Si atom -5568.901748 kJ/mol
# Density = 1.970813 g / cm^3
# Si number density = 19.753086 Si / 1000 Ang^3
#
#
#
# Elastic Constant Matrix: (Units=GPa)
#
#
# Indices 1 2 3 4 5 6 
#
# 1 44.6355 7.0390 67.6023 0.0000 0.0000 0.0000
# 2 7.0390 -34.8928 -13.8856 0.0000 0.0000 0.0000
# 3 67.6023 -13.8856 58.3758 0.0000 0.0000 0.0000
# 4 0.0000 0.0000 0.0000 25.0663 0.0000 0.0000
# 5 0.0000 0.0000 0.0000 0.0000 50.4273 0.0000
# 6 0.0000 0.0000 0.0000 0.0000 0.0000 19.9197
#
#
#
# Elastic Compliance Matrix: (Units=1/GPa)
#
#
# Indices 1 2 3 4 5 6 
#
# 1 -0.050870 -0.030791 0.051586 0.000000 0.000000 0.000000
# 2 -0.030791 -0.044818 0.024997 0.000000 0.000000 0.000000
# 3 0.051586 0.024997 -0.036663 0.000000 0.000000 0.000000
# 4 0.000000 0.000000 0.000000 0.039894 0.000000 0.000000
# 5 0.000000 0.000000 0.000000 0.000000 0.019831 0.000000
# 6 0.000000 0.000000 0.000000 0.000000 0.000000 0.050202
#
#
# Mechanical properties :
#
#
# Convention : Reuss Voigt Hill
#
# Bulk Modulus (GPa) = -24.52957 21.06998 -1.72980
# Shear Modulus (GPa) = -39.18569 19.57351 -9.80609
#
# Velocity S-wave (km/s) = -4.45879 3.15129 -2.23050
# Velocity P-wave (km/s) = 6.24122 4.89189 2.74064
#
# Compressibility (1/GPa) = -0.04076712
#
# Stress axis : x y z
#
# Youngs Moduli (GPa) = -19.65801 -22.31248 -27.27533
#
# Poissons Ratio (x) = -0.68702 1.40703
# Poissons Ratio (y) = -0.60528 0.68179
# Poissons Ratio (z) = 1.01408 0.55774
#
# Static dielectric constant tensor:
#      x y z
#    x 1.732950 0.000000 0.000000 
#    y 0.000000 1.664480 0.000000 
#    z 0.000000 0.000000 1.697600 
# 
# From -- ./inp_files/35721.got.cif
#   From: 2010.05.17/outbox.ucp.g08.bks.cvg/sg51_18_cif.got.tgz:35721.got - 2010.06.11 16:27:58.
