data_PCOD9407043
_publ_section_title
;
Structure prediction by ZEFSAII (Michael W. Deem and Ramdas Pophale) SiO2 
 PCOD9407043
Probable space group: P M M A
;
_chemical_formula_sum "Si O2"
_cell_formula_units_Z 48
_cell_length_a 14.392174
_cell_length_b 8.461558
_cell_length_c 22.450753
_cell_angle_alpha 90.000000
_cell_angle_beta 90.000000
_cell_angle_gamma 90.000000
_cell_volume 2734.057528
_symmetry_space_group_name_H-M "P M M A"
_symmetry_group_IT_number 51
_symmetry_cell_setting 'orthorhombic'
loop_
_space_group_symop_operation_xyz
x,y,z
1/2-x,-y,z
1/2+x,-y,-z
-x,y,-z
-x,-y,-z
1/2+x,y,-z
1/2-x,y,z
x,-y,z
loop_
_atom_site_type_symbol
_atom_site_label
_atom_site_fract_x
_atom_site_fract_y
_atom_site_fract_z
Si Si1 0.949394 0.191148 0.411030
Si Si2 0.857660 0.311282 0.290074
Si Si3 0.143887 0.807783 0.463295
Si Si4 0.448942 0.311487 0.061547
Si Si5 0.750000 0.808190 0.105819
Si Si6 0.565100 0.189368 0.170652
Si Si7 0.250000 0.190130 0.031065
O O1 0.057396 0.241298 0.421000
O O2 0.900025 0.258058 0.352919
O O3 0.890625 0.235230 0.470132
O O4 0.948917 0.000000 0.407805
O O5 0.750000 0.252526 0.282968
O O6 0.854686 0.500000 0.287424
O O7 0.925212 0.250353 0.237673
O O8 0.250000 0.753184 0.451438
O O9 0.145963 0.000000 0.461131
O O10 0.457435 0.500000 0.061691
O O11 0.489547 0.246529 0.123338
O O12 0.343146 0.257756 0.058419
O O13 0.500000 0.253211 0.000000
O O14 0.840108 0.752891 0.139744
O O15 0.750000 0.000000 0.106450
O O16 0.750000 0.758584 0.037905
O O17 0.562777 0.000000 0.172380
O O18 0.250000 0.000000 0.033796
#
# Coordination Sequence:
#
# PCOD9407043 Si02
#       7
#     8   8   8   8   4   8   4
#     4   9  17  30  52  80 106 138 178 218 260 312
#     4  11  23  36  51  76 110 143 173 216 273 327
#     4   8  14  27  50  80 110 137 172 219 265 307
#     4  11  23  37  55  83 115 145 175 218 277 332
#     4   9  18  31  53  83 109 133 172 223 268 311
#     4  11  21  37  58  81 106 140 182 224 269 322
#     4  11  21  37  59  83 109 141 182 227 268 317
#
# _framework density 17.556325000000001
#
# number of rings (size 3 to 8) (size 9 to 14) (size 15 to 20)
#    0.000    2.000    2.500    3.250    0.000    2.333 
#    0.000    1.667    1.833    1.500    0.000    0.000 
#    0.000    0.000    0.000    0.000    0.000    0.000 
#
# Total GULP energy -267616.451934 kJ/mol
# GULP energy per Si atom -5575.342749 kJ/mol
# Density = 1.751637 g / cm^3
# Si number density = 17.556325 Si / 1000 Ang^3
#
#
#
# Elastic Constant Matrix: (Units=GPa)
#
#
# Indices 1 2 3 4 5 6 
#
# 1 113.2722 15.1177 46.1667 0.0000 0.0000 0.0000
# 2 15.1177 35.3586 26.9187 0.0000 0.0000 0.0000
# 3 46.1667 26.9187 114.7183 0.0000 0.0000 0.0000
# 4 0.0000 0.0000 0.0000 18.3797 0.0000 0.0000
# 5 0.0000 0.0000 0.0000 0.0000 29.4252 0.0000
# 6 0.0000 0.0000 0.0000 0.0000 0.0000 3.6409
#
#
#
# Elastic Compliance Matrix: (Units=1/GPa)
#
#
# Indices 1 2 3 4 5 6 
#
# 1 0.010631 -0.001568 -0.003910 0.000000 0.000000 0.000000
# 2 -0.001568 0.034664 -0.007503 0.000000 0.000000 0.000000
# 3 -0.003910 -0.007503 0.012051 0.000000 0.000000 0.000000
# 4 0.000000 0.000000 0.000000 0.054408 0.000000 0.000000
# 5 0.000000 0.000000 0.000000 0.000000 0.033984 0.000000
# 6 0.000000 0.000000 0.000000 0.000000 0.000000 0.274661
#
#
# Mechanical properties :
#
#
# Convention : Reuss Voigt Hill
#
# Bulk Modulus (GPa) = 31.86388 48.86170 40.36279
# Shear Modulus (GPa) = 10.94513 21.96556 16.45534
#
# Velocity S-wave (km/s) = 2.49957 3.54099 3.06484
# Velocity P-wave (km/s) = 5.14969 6.67907 5.96361
#
# Compressibility (1/GPa) = 0.03138350
#
# Stress axis : x y z
#
# Youngs Moduli (GPa) = 94.06098 28.84827 82.97921
#
# Poissons Ratio (x) = 0.04525 0.32448
# Poissons Ratio (y) = 0.14753 0.62257
# Poissons Ratio (z) = 0.36782 0.21644
#
# Static dielectric constant tensor:
#      x y z
#    x 1.605590 0.000000 0.000000 
#    y 0.000000 1.595850 0.000000 
#    z 0.000000 0.000000 1.596790 
# 
# From -- ./inp_files/29611.got.cif
#   From: 2010.05.17/outbox.cif.g08.bks.cpg/sg51_15_cif.got.tgz:29611.got - 2010.06.03 11:52:47.
