data_PCOD9407130
_publ_section_title
;
Structure prediction by ZEFSAII (Michael W. Deem and Ramdas Pophale) SiO2 
 PCOD9407130
Probable space group: P M M A
;
_chemical_formula_sum "Si O2"
_cell_formula_units_Z 34
_cell_length_a 14.253877
_cell_length_b 11.327464
_cell_length_c 8.633111
_cell_angle_alpha 90.000000
_cell_angle_beta 90.000000
_cell_angle_gamma 90.000000
_cell_volume 1393.904507
_symmetry_space_group_name_H-M "P M M A"
_symmetry_group_IT_number 51
_symmetry_cell_setting 'orthorhombic'
loop_
_space_group_symop_operation_xyz
x,y,z
1/2-x,-y,z
1/2+x,-y,-z
-x,y,-z
-x,-y,-z
1/2+x,y,-z
1/2-x,y,z
x,-y,z
loop_
_atom_site_type_symbol
_atom_site_label
_atom_site_fract_x
_atom_site_fract_y
_atom_site_fract_z
Si Si1 0.450418 0.859765 0.669500
Si Si2 0.750000 0.239017 0.408301
Si Si3 0.488023 0.500000 0.319747
Si Si4 0.619029 0.500000 0.055792
Si Si5 0.086498 0.717932 0.142893
Si Si6 0.250000 0.863336 0.256309
Si Si7 0.250000 0.500000 0.705945
O O1 0.500000 0.831010 0.500000
O O2 0.343435 0.820470 0.655320
O O3 0.491685 0.790375 0.817982
O O4 0.460545 0.000000 0.688129
O O5 0.750000 0.214004 0.589447
O O6 0.750000 0.378546 0.376108
O O7 0.500000 0.500000 0.500000
O O8 0.428786 0.385162 0.272803
O O9 0.596388 0.500000 0.245751
O O10 0.750000 0.500000 0.111300
O O11 0.626408 0.365383 0.991930
O O12 0.500000 0.500000 0.000000
O O13 0.159766 0.821747 0.166172
O O14 0.250000 0.000000 0.296680
#
# Coordination Sequence:
#
# PCOD9407130 Si02
#       7
#     8   4   4   4   8   4   2
#     4  11  22  41  70 108 153 201 248 307 370 443
#     4  12  26  43  69 111 149 193 256 314 385 448
#     4  11  25  43  71 108 143 185 241 305 373 444
#     4  11  26  49  75 108 155 194 246 315 380 454
#     4  11  23  42  74 107 146 195 247 305 376 443
#     4  12  25  43  70 108 152 198 254 309 362 448
#     4  12  28  46  74 102 154 202 240 320 394 446
#
# _framework density 24.391914
#
# number of rings (size 3 to 8) (size 9 to 14) (size 15 to 20)
#    0.000    0.706    2.353    6.000    3.294    3.294 
#    0.000    0.588    0.000   42.353    0.000    0.000 
#    0.000    0.000    0.000    0.000    0.000    0.000 
#
# Total GULP energy -189425.580667 kJ/mol
# GULP energy per Si atom -5571.340608 kJ/mol
# Density = 2.433640 g / cm^3
# Si number density = 24.391914 Si / 1000 Ang^3
#
#
#
# Elastic Constant Matrix: (Units=GPa)
#
#
# Indices 1 2 3 4 5 6 
#
# 1 143.1650 30.4819 29.9776 0.0000 0.0000 0.0000
# 2 30.4819 187.5460 57.1286 0.0000 0.0000 0.0000
# 3 29.9776 57.1286 102.7880 0.0000 0.0000 0.0000
# 4 0.0000 0.0000 0.0000 33.1421 0.0000 0.0000
# 5 0.0000 0.0000 0.0000 0.0000 17.4136 0.0000
# 6 0.0000 0.0000 0.0000 0.0000 0.0000 40.5464
#
#
#
# Elastic Compliance Matrix: (Units=1/GPa)
#
#
# Indices 1 2 3 4 5 6 
#
# 1 0.007508 -0.000666 -0.001819 0.000000 0.000000 0.000000
# 2 -0.000666 0.006478 -0.003406 0.000000 0.000000 0.000000
# 3 -0.001819 -0.003406 0.012152 0.000000 0.000000 0.000000
# 4 0.000000 0.000000 0.000000 0.030173 0.000000 0.000000
# 5 0.000000 0.000000 0.000000 0.000000 0.057427 0.000000
# 6 0.000000 0.000000 0.000000 0.000000 0.000000 0.024663
#
#
# Mechanical properties :
#
#
# Convention : Reuss Voigt Hill
#
# Bulk Modulus (GPa) = 69.66229 74.29723 71.97976
# Shear Modulus (GPa) = 32.26459 39.28115 35.77287
#
# Velocity S-wave (km/s) = 3.64092 4.01735 3.83376
# Velocity P-wave (km/s) = 6.80416 7.21420 7.01218
#
# Compressibility (1/GPa) = 0.01435497
#
# Stress axis : x y z
#
# Youngs Moduli (GPa) = 133.19618 154.37353 82.28797
#
# Poissons Ratio (x) = 0.10281 0.14972
# Poissons Ratio (y) = 0.08871 0.28028
# Poissons Ratio (z) = 0.24234 0.52580
#
# Static dielectric constant tensor:
#      x y z
#    x 2.369170 0.000000 0.000000 
#    y 0.000000 1.900930 0.000000 
#    z 0.000000 0.000000 2.306120 
# 
# From -- ./inp_files/15198.got.cif
#   From: 2010.05.17/outbox.cif.g08.bks.cpg/sg51_8_cif.got.tgz:15198.got - 2010.06.03 11:52:47.
