data_PCOD9407169
_publ_section_title
;
Structure prediction by ZEFSAII (Michael W. Deem and Ramdas Pophale) SiO2 
 PCOD9407169
Probable space group: P M M A
;
_chemical_formula_sum "Si O2"
_cell_formula_units_Z 48
_cell_length_a 17.922287
_cell_length_b 8.830678
_cell_length_c 16.239641
_cell_angle_alpha 90.000000
_cell_angle_beta 90.000000
_cell_angle_gamma 90.000000
_cell_volume 2570.182138
_symmetry_space_group_name_H-M "P M M A"
_symmetry_group_IT_number 51
_symmetry_cell_setting 'orthorhombic'
loop_
_space_group_symop_operation_xyz
x,y,z
1/2-x,-y,z
1/2+x,-y,-z
-x,y,-z
-x,-y,-z
1/2+x,y,-z
1/2-x,y,z
x,-y,z
loop_
_atom_site_type_symbol
_atom_site_label
_atom_site_fract_x
_atom_site_fract_y
_atom_site_fract_z
Si Si1 0.250000 0.179327 0.200251
Si Si2 0.750000 0.674218 0.624008
Si Si3 0.837838 0.818607 0.064643
Si Si4 0.048914 0.319712 0.811222
Si Si5 0.883407 0.822190 0.533377
Si Si6 0.037216 0.822602 0.633889
Si Si7 0.109042 0.318065 0.105663
O O1 0.250000 0.219555 0.296137
O O2 0.176296 0.250775 0.159738
O O3 0.250000 0.000000 0.186154
O O4 0.750000 0.500000 0.650630
O O5 0.821272 0.714700 0.569668
O O6 0.750000 0.776165 0.065225
O O7 0.882259 0.762136 0.144400
O O8 0.841963 0.000000 0.058107
O O9 0.877985 0.744349 0.985869
O O10 0.057205 0.500000 0.820006
O O11 0.043911 0.274498 0.715742
O O12 0.971165 0.275321 0.856220
O O13 0.904937 0.786609 0.439275
O O14 0.956866 0.806919 0.590039
O O15 0.860913 0.000000 0.536972
O O16 0.046193 0.000000 0.655556
O O17 0.113813 0.500000 0.105177
#
# Coordination Sequence:
#
# PCOD9407169 Si02
#       7
#     4   4   8   8   8   8   8
#     4  12  24  38  60  89 122 161 202 246 298 353
#     4  12  24  36  54  87 122 155 194 238 294 353
#     4  11  24  42  63  88 118 158 206 250 298 352
#     4  11  24  39  60  91 122 158 201 244 299 359
#     4   9  19  38  62  86 116 154 195 242 297 352
#     4   9  19  38  63  88 114 151 199 246 293 347
#     4  11  23  40  62  90 124 158 195 245 303 359
#
# _framework density 18.675719999999998
#
# number of rings (size 3 to 8) (size 9 to 14) (size 15 to 20)
#    0.000    1.500    0.833    5.500    0.000    9.667 
#    1.500    1.667    0.000    0.000    0.000    0.000 
#    0.000    0.000    0.000    0.000    0.000    0.000 
#
# Total GULP energy -268300.642940 kJ/mol
# GULP energy per Si atom -5589.596728 kJ/mol
# Density = 1.863321 g / cm^3
# Si number density = 18.675720 Si / 1000 Ang^3
#
#
#
# Elastic Constant Matrix: (Units=GPa)
#
#
# Indices 1 2 3 4 5 6 
#
# 1 29.0667 15.3093 35.0260 0.0000 0.0000 0.0000
# 2 15.3093 48.1066 33.0219 0.0000 0.0000 0.0000
# 3 35.0260 33.0219 98.2190 0.0000 0.0000 0.0000
# 4 0.0000 0.0000 0.0000 52.6380 0.0000 0.0000
# 5 0.0000 0.0000 0.0000 0.0000 17.6008 0.0000
# 6 0.0000 0.0000 0.0000 0.0000 0.0000 14.1688
#
#
#
# Elastic Compliance Matrix: (Units=1/GPa)
#
#
# Indices 1 2 3 4 5 6 
#
# 1 0.061582 -0.005880 -0.019984 0.000000 0.000000 0.000000
# 2 -0.005880 0.027585 -0.007178 0.000000 0.000000 0.000000
# 3 -0.019984 -0.007178 0.019721 0.000000 0.000000 0.000000
# 4 0.000000 0.000000 0.000000 0.018998 0.000000 0.000000
# 5 0.000000 0.000000 0.000000 0.000000 0.056815 0.000000
# 6 0.000000 0.000000 0.000000 0.000000 0.000000 0.070577
#
#
# Mechanical properties :
#
#
# Convention : Reuss Voigt Hill
#
# Bulk Modulus (GPa) = 23.36166 38.01186 30.68676
# Shear Modulus (GPa) = 14.89739 23.01721 18.95730
#
# Velocity S-wave (km/s) = 2.82740 3.51446 3.18948
# Velocity P-wave (km/s) = 4.81614 6.07177 5.48003
#
# Compressibility (1/GPa) = 0.04280518
#
# Stress axis : x y z
#
# Youngs Moduli (GPa) = 16.23864 36.25122 50.70757
#
# Poissons Ratio (x) = 0.21316 1.01333
# Poissons Ratio (y) = 0.09548 0.36395
# Poissons Ratio (z) = 0.32451 0.26019
#
# Static dielectric constant tensor:
#      x y z
#    x 1.643260 0.000000 0.000000 
#    y 0.000000 1.629630 0.000000 
#    z 0.000000 0.000000 1.626440 
# 
# From -- ./inp_files/24950.got.cif
#   From: 2010.05.17/outbox.cif.g08.bks.cpg/sg51_13_cif.got.tgz:24950.got - 2010.06.03 11:52:47.
