data_PCOD9407642
_publ_section_title
;
Structure prediction by ZEFSAII (Michael W. Deem and Ramdas Pophale) SiO2 
 PCOD9407642
Probable space group: P M M A
;
_chemical_formula_sum "Si O2"
_cell_formula_units_Z 64
_cell_length_a 18.000000
_cell_length_b 15.000000
_cell_length_c 12.000000
_cell_angle_alpha 90.000000
_cell_angle_beta 90.000000
_cell_angle_gamma 90.000000
_cell_volume 3240.000000
_symmetry_space_group_name_H-M "P M M A"
_symmetry_group_IT_number 51
_symmetry_cell_setting 'orthorhombic'
loop_
_space_group_symop_operation_xyz
x,y,z
1/2-x,-y,z
1/2+x,-y,-z
-x,y,-z
-x,-y,-z
1/2+x,y,-z
1/2-x,y,z
x,-y,z
loop_
_atom_site_type_symbol
_atom_site_label
_atom_site_fract_x
_atom_site_fract_y
_atom_site_fract_z
Si Si1 0.088665 0.097269 0.997808
Si Si2 0.902110 0.902595 0.739477
Si Si3 0.159763 0.598435 0.439994
Si Si4 0.660887 0.259607 0.372422
Si Si5 0.160519 0.275282 0.998333
Si Si6 0.839122 0.719452 0.748387
Si Si7 0.840040 0.401395 0.188188
Si Si8 0.451652 0.898192 0.611358
O O1 0.107327 0.000000 0.947940
O O2 0.112283 0.094628 0.128210
O O3 0.126473 0.184661 0.947930
O O4 0.000000 0.106275 0.000000
O O5 0.862554 0.814115 0.695754
O O6 0.989168 0.892641 0.712350
O O7 0.879463 0.000000 0.693093
O O8 0.250000 0.593460 0.440875
O O9 0.132089 0.500000 0.468508
O O10 0.141464 0.677068 0.523920
O O11 0.134762 0.634511 0.320630
O O12 0.750000 0.244768 0.370119
O O13 0.638242 0.322284 0.269777
O O14 0.614666 0.170000 0.375950
O O15 0.250000 0.265986 0.996317
O O16 0.134197 0.283035 0.125114
O O17 0.140866 0.364537 0.932973
O O18 0.750000 0.717567 0.750025
O O19 0.750000 0.406121 0.196613
O O20 0.868585 0.500000 0.213464
O O21 0.500000 0.879397 0.500000
O O22 0.425577 0.000000 0.603614
#
# Coordination Sequence:
#
# PCOD9407642 Si02
#       8
#     8   8   8   8   8   8   8   8
#     4   9  18  31  49  72  97 133 176 209 250 309
#     4   9  18  32  49  71  99 134 170 202 246 307
#     4   9  17  30  50  75 100 126 162 209 255 300
#     4  10  20  34  55  81 104 133 173 213 254 299
#     4   9  18  31  49  77 106 134 171 217 266 307
#     4   9  17  30  50  77 104 131 169 216 263 304
#     4   9  18  33  53  77 105 138 176 215 258 311
#     4  10  21  36  54  77 106 139 171 204 253 313
#
# _framework density 19.753086
#
# number of rings (size 3 to 8) (size 9 to 14) (size 15 to 20)
#    0.000    2.750    0.000    1.125    1.750    2.750 
#    0.000    5.000    0.000   13.875    0.000    0.000 
#    0.000    0.000    0.000    0.000    0.000    0.000 
#
# Total GULP energy -356429.271400 kJ/mol
# GULP energy per Si atom -5569.207366 kJ/mol
# Density = 1.970813 g / cm^3
# Si number density = 19.753086 Si / 1000 Ang^3
#
#
#
# Elastic Constant Matrix: (Units=GPa)
#
#
# Indices 1 2 3 4 5 6 
#
# 1 6.3882 31.0499 10.2007 0.0000 0.0000 0.0000
# 2 31.0499 115.7687 39.9450 0.0000 0.0000 0.0000
# 3 10.2007 39.9450 43.7921 0.0000 0.0000 0.0000
# 4 0.0000 0.0000 0.0000 165.9148 0.0000 0.0000
# 5 0.0000 0.0000 0.0000 0.0000 13.1955 0.0000
# 6 0.0000 0.0000 0.0000 0.0000 0.0000 74.5217
#
#
#
# Elastic Compliance Matrix: (Units=1/GPa)
#
#
# Indices 1 2 3 4 5 6 
#
# 1 -0.513243 0.140681 -0.008770 0.000000 0.000000 0.000000
# 2 0.140681 -0.025956 -0.009094 0.000000 0.000000 0.000000
# 3 -0.008770 -0.009094 0.033173 0.000000 0.000000 0.000000
# 4 0.000000 0.000000 0.000000 0.006027 0.000000 0.000000
# 5 0.000000 0.000000 0.000000 0.000000 0.075784 0.000000
# 6 0.000000 0.000000 0.000000 0.000000 0.000000 0.013419
#
#
# Mechanical properties :
#
#
# Convention : Reuss Voigt Hill
#
# Bulk Modulus (GPa) = -3.84037 36.48224 16.32093
# Shear Modulus (GPa) = -6.72742 56.37663 24.82460
#
# Velocity S-wave (km/s) = -1.84747 5.34814 3.54891
# Velocity P-wave (km/s) = 2.54937 7.52636 5.00733
#
# Compressibility (1/GPa) = -0.26039147
#
# Stress axis : x y z
#
# Youngs Moduli (GPa) = -1.94840 -38.52677 30.14504
#
# Poissons Ratio (x) = 5.41999 0.26438
# Poissons Ratio (y) = 0.27410 0.27413
# Poissons Ratio (z) = -0.01709 -0.35035
#
# Static dielectric constant tensor:
#      x y z
#    x 1.652510 0.000000 0.000000 
#    y 0.000000 1.710030 0.000000 
#    z 0.000000 0.000000 1.798810 
# 
# From -- ./inp_files/17586.got.cif
#   From: 2010.05.17/outbox.ucp.g08.bks.cvg/sg51_9_cif.got.tgz:17586.got - 2010.06.11 16:27:58.
