data_PCOD9407823
_publ_section_title
;
Structure prediction by ZEFSAII (Michael W. Deem and Ramdas Pophale) SiO2 
 PCOD9407823
Probable space group: P M M A
;
_chemical_formula_sum "Si O2"
_cell_formula_units_Z 64
_cell_length_a 9.000000
_cell_length_b 15.000000
_cell_length_c 24.000000
_cell_angle_alpha 90.000000
_cell_angle_beta 90.000000
_cell_angle_gamma 90.000000
_cell_volume 3240.000000
_symmetry_space_group_name_H-M "P M M A"
_symmetry_group_IT_number 51
_symmetry_cell_setting 'orthorhombic'
loop_
_space_group_symop_operation_xyz
x,y,z
1/2-x,-y,z
1/2+x,-y,-z
-x,y,-z
-x,-y,-z
1/2+x,y,-z
1/2-x,y,z
x,-y,z
loop_
_atom_site_type_symbol
_atom_site_label
_atom_site_fract_x
_atom_site_fract_y
_atom_site_fract_z
Si Si1 0.076922 0.599653 0.643374
Si Si2 0.080662 0.601568 0.125545
Si Si3 0.920512 0.897620 0.638937
Si Si4 0.924191 0.750103 0.059169
Si Si5 0.578232 0.335509 0.751110
Si Si6 0.573783 0.853126 0.245568
Si Si7 0.426669 0.758020 0.559798
Si Si8 0.078860 0.899096 0.131478
O O1 0.250000 0.614075 0.660018
O O2 0.063495 0.500000 0.621374
O O3 0.039758 0.671289 0.596791
O O4 0.974384 0.612285 0.696940
O O5 0.250000 0.630521 0.111317
O O6 0.062267 0.500000 0.107929
O O7 0.067440 0.609234 0.192128
O O8 0.964100 0.665723 0.097080
O O9 0.750000 0.866579 0.644537
O O10 0.001238 0.889813 0.698233
O O11 0.006794 0.839433 0.594414
O O12 0.919354 0.000000 0.621588
O O13 0.750000 0.761876 0.053157
O O14 0.995629 0.834232 0.089942
O O15 0.000000 0.737410 0.000000
O O16 0.750000 0.306597 0.745323
O O17 0.471904 0.250455 0.756376
O O18 0.750000 0.864968 0.245951
O O19 0.501010 0.895339 0.191042
O O20 0.500000 0.752070 0.500000
O O21 0.250000 0.766724 0.554719
O O22 0.250000 0.870176 0.138654
O O23 0.077184 0.000000 0.110615
#
# Coordination Sequence:
#
# PCOD9407823 Si02
#       8
#     8   8   8   8   8   8   8   8
#     4  10  22  40  62  91 127 164 205 256 311 368
#     4  10  22  41  65  94 129 167 209 258 311 370
#     4  11  24  42  65  93 125 163 206 255 311 370
#     4  12  26  44  67  92 124 166 212 262 315 370
#     4  11  21  36  63  94 128 167 207 251 306 370
#     4  12  23  37  62  96 131 167 204 250 310 371
#     4  11  24  42  64  89 122 164 210 260 311 366
#     4  11  24  43  67  95 128 166 208 256 310 370
#
# _framework density 19.753086
#
# number of rings (size 3 to 8) (size 9 to 14) (size 15 to 20)
#    0.000    1.000    2.500    4.500    0.000    6.500 
#    0.000    0.000    0.000    0.000    0.000    0.000 
#    0.000    0.000    0.000    0.000    0.000    0.000 
#
# Total GULP energy -357818.750830 kJ/mol
# GULP energy per Si atom -5590.917982 kJ/mol
# Density = 1.970813 g / cm^3
# Si number density = 19.753086 Si / 1000 Ang^3
#
#
#
# Elastic Constant Matrix: (Units=GPa)
#
#
# Indices 1 2 3 4 5 6 
#
# 1 115.6326 37.9085 69.6337 0.0000 0.0000 0.0000
# 2 37.9085 81.2654 30.0724 0.0000 0.0000 0.0000
# 3 69.6337 30.0724 112.3910 0.0000 0.0000 0.0000
# 4 0.0000 0.0000 0.0000 -364.2219 0.0000 0.0000
# 5 0.0000 0.0000 0.0000 0.0000 36.9268 0.0000
# 6 0.0000 0.0000 0.0000 0.0000 0.0000 12.0253
#
#
#
# Elastic Compliance Matrix: (Units=1/GPa)
#
#
# Indices 1 2 3 4 5 6 
#
# 1 0.014834 -0.003905 -0.008145 0.000000 0.000000 0.000000
# 2 -0.003905 0.014686 -0.001510 0.000000 0.000000 0.000000
# 3 -0.008145 -0.001510 0.014348 0.000000 0.000000 0.000000
# 4 0.000000 0.000000 0.000000 -0.002746 0.000000 0.000000
# 5 0.000000 0.000000 0.000000 0.000000 0.027081 0.000000
# 6 0.000000 0.000000 0.000000 0.000000 0.000000 0.083158
#
#
# Mechanical properties :
#
#
# Convention : Reuss Voigt Hill
#
# Bulk Modulus (GPa) = 59.71468 64.94645 62.33057
# Shear Modulus (GPa) = 27.16445 -51.60901 -12.22228
#
# Velocity S-wave (km/s) = 3.71239 -5.11701 -2.49017
# Velocity P-wave (km/s) = 6.97653 1.40043 4.83274
#
# Compressibility (1/GPa) = 0.01674630
#
# Stress axis : x y z
#
# Youngs Moduli (GPa) = 67.41485 68.09286 69.69547
#
# Poissons Ratio (x) = 0.26592 0.56770
# Poissons Ratio (y) = 0.26327 0.10523
# Poissons Ratio (z) = 0.54912 0.10281
#
# Static dielectric constant tensor:
#      x y z
#    x 1.671290 0.000000 0.000000 
#    y 0.000000 1.713990 0.000000 
#    z 0.000000 0.000000 1.650830 
# 
# From -- ./inp_files/34987.got.cif
#   From: 2010.05.17/outbox.ucp.g08.bks.cvg/sg51_18_cif.got.tgz:34987.got - 2010.06.11 16:27:58.
