data_PCOD9407140
_publ_section_title
;
Structure prediction by ZEFSAII (Michael W. Deem and Ramdas Pophale) SiO2 
 PCOD9407140
Probable space group: P M M A
;
_chemical_formula_sum "Si O2"
_cell_formula_units_Z 64
_cell_length_a 7.891372
_cell_length_b 15.130627
_cell_length_c 29.640867
_cell_angle_alpha 90.000000
_cell_angle_beta 90.000000
_cell_angle_gamma 90.000000
_cell_volume 3539.161202
_symmetry_space_group_name_H-M "P M M A"
_symmetry_group_IT_number 51
_symmetry_cell_setting 'orthorhombic'
loop_
_space_group_symop_operation_xyz
x,y,z
1/2-x,-y,z
1/2+x,-y,-z
-x,y,-z
-x,-y,-z
1/2+x,y,-z
1/2-x,y,z
x,-y,z
loop_
_atom_site_type_symbol
_atom_site_label
_atom_site_fract_x
_atom_site_fract_y
_atom_site_fract_z
Si Si1 0.952518 0.398480 0.646049
Si Si2 0.954995 0.102225 0.132316
Si Si3 0.458295 0.720600 0.271038
Si Si4 0.954226 0.401064 0.914663
Si Si5 0.951532 0.399022 0.452012
Si Si6 0.047953 0.099197 0.234403
Si Si7 0.949610 0.782751 0.049303
Si Si8 0.543849 0.600729 0.811949
O O1 0.750000 0.404291 0.651399
O O2 0.019235 0.500000 0.649462
O O3 0.015814 0.334016 0.685299
O O4 0.987905 0.362480 0.595827
O O5 0.750000 0.106806 0.133822
O O6 0.021996 0.163967 0.092153
O O7 0.018971 0.125677 0.182179
O O8 0.002082 0.000000 0.123788
O O9 0.250000 0.720864 0.271406
O O10 0.515928 0.821764 0.265942
O O11 0.512983 0.668050 0.226137
O O12 0.750000 0.403414 0.914022
O O13 0.013260 0.500000 0.927208
O O14 0.012789 0.381753 0.863194
O O15 0.007286 0.320362 0.945538
O O16 0.750000 0.403210 0.450397
O O17 0.022478 0.500000 0.452984
O O18 0.000000 0.357031 0.500000
O O19 0.250000 0.093904 0.240996
O O20 0.977083 0.000000 0.240764
O O21 0.750000 0.792086 0.052410
O O22 0.000000 0.815897 0.000000
O O23 0.750000 0.603402 0.812534
O O24 0.495869 0.500000 0.800336
#
# Coordination Sequence:
#
# PCOD9407140 Si02
#       8
#     8   8   8   8   8   8   8   8
#     4   9  16  25  38  58  85 118 154 186 217 255
#     4   9  19  36  54  71  92 116 142 175 219 270
#     4   9  15  23  38  61  90 118 142 175 215 252
#     4   9  18  33  52  71  91 117 149 183 216 252
#     4   9  16  26  40  57  80 113 152 191 226 259
#     4   9  17  29  47  70  91 114 147 182 214 253
#     4  11  23  36  51  70  91 115 142 176 219 265
#     4   8  13  22  39  63  86 109 140 174 206 243
#
# _framework density 18.083380999999999
#
# number of rings (size 3 to 8) (size 9 to 14) (size 15 to 20)
#    0.000    2.875    0.000    2.625    0.000    5.750 
#    0.000    0.625    0.000    0.750    0.000    1.750 
#    0.000    0.500    0.000    0.875    0.000    1.250 
#
# Total GULP energy -356746.750958 kJ/mol
# GULP energy per Si atom -5574.167984 kJ/mol
# Density = 1.804222 g / cm^3
# Si number density = 18.083381 Si / 1000 Ang^3
#
#
#
# Elastic Constant Matrix: (Units=GPa)
#
#
# Indices 1 2 3 4 5 6 
#
# 1 18.1728 5.1282 2.8581 0.0000 0.0000 0.0000
# 2 5.1282 80.6518 65.3419 0.0000 0.0000 0.0000
# 3 2.8581 65.3419 89.2356 0.0000 0.0000 0.0000
# 4 0.0000 0.0000 0.0000 16.9166 0.0000 0.0000
# 5 0.0000 0.0000 0.0000 0.0000 16.7235 0.0000
# 6 0.0000 0.0000 0.0000 0.0000 0.0000 8.3173
#
#
#
# Elastic Compliance Matrix: (Units=1/GPa)
#
#
# Indices 1 2 3 4 5 6 
#
# 1 0.056178 -0.005198 0.002007 0.000000 0.000000 0.000000
# 2 -0.005198 0.030963 -0.022506 0.000000 0.000000 0.000000
# 3 0.002007 -0.022506 0.027622 0.000000 0.000000 0.000000
# 4 0.000000 0.000000 0.000000 0.059113 0.000000 0.000000
# 5 0.000000 0.000000 0.000000 0.000000 0.059796 0.000000
# 6 0.000000 0.000000 0.000000 0.000000 0.000000 0.120231
#
#
# Mechanical properties :
#
#
# Convention : Reuss Voigt Hill
#
# Bulk Modulus (GPa) = 15.78056 37.19075 26.48565
# Shear Modulus (GPa) = 11.72549 16.04031 13.88290
#
# Velocity S-wave (km/s) = 2.54916 2.98152 2.77377
# Velocity P-wave (km/s) = 4.17250 5.69768 4.99366
#
# Compressibility (1/GPa) = 0.06336911
#
# Stress axis : x y z
#
# Youngs Moduli (GPa) = 17.80045 32.29621 36.20313
#
# Poissons Ratio (x) = 0.16787 -0.07265
# Poissons Ratio (y) = 0.09253 0.81479
# Poissons Ratio (z) = -0.03572 0.72686
#
# Static dielectric constant tensor:
#      x y z
#    x 1.652840 0.000000 0.000000 
#    y 0.000000 1.640400 0.000000 
#    z 0.000000 0.000000 1.634050 
# 
# From -- ./inp_files/37600.got.cif
#   From: 2010.05.17/outbox.cif.g08.bks.cpg/sg51_19_cif.got.tgz:37600.got - 2010.06.03 11:52:47.
