data_PCOD9407161
_publ_section_title
;
Structure prediction by ZEFSAII (Michael W. Deem and Ramdas Pophale) SiO2 
 PCOD9407161
Probable space group: P M M A
;
_chemical_formula_sum "Si O2"
_cell_formula_units_Z 38
_cell_length_a 8.853450
_cell_length_b 25.557730
_cell_length_c 9.107876
_cell_angle_alpha 90.000000
_cell_angle_beta 90.000000
_cell_angle_gamma 90.000000
_cell_volume 2060.876305
_symmetry_space_group_name_H-M "P M M A"
_symmetry_group_IT_number 51
_symmetry_cell_setting 'orthorhombic'
loop_
_space_group_symop_operation_xyz
x,y,z
1/2-x,-y,z
1/2+x,-y,-z
-x,y,-z
-x,-y,-z
1/2+x,y,-z
1/2-x,y,z
x,-y,z
loop_
_atom_site_type_symbol
_atom_site_label
_atom_site_fract_x
_atom_site_fract_y
_atom_site_fract_z
Si Si1 0.070156 0.097168 0.661789
Si Si2 0.068908 0.000000 0.162870
Si Si3 0.067859 0.301574 0.337773
Si Si4 0.584207 0.600500 0.848652
Si Si5 0.750000 0.500000 0.750774
Si Si6 0.070296 0.795173 0.838905
O O1 0.250000 0.087181 0.652583
O O2 0.047312 0.151708 0.746907
O O3 0.000000 0.100286 0.500000
O O4 0.990703 0.050771 0.750975
O O5 0.250000 0.000000 0.156107
O O6 0.000000 0.000000 0.000000
O O7 0.250000 0.300969 0.347712
O O8 0.017525 0.354952 0.255363
O O9 0.000000 0.299475 0.500000
O O10 0.008990 0.252662 0.244430
O O11 0.750000 0.621456 0.894112
O O12 0.620452 0.546687 0.764453
O O13 0.500000 0.590106 0.000000
O O14 0.250000 0.785648 0.849569
O O15 0.000000 0.800837 0.000000
#
# Coordination Sequence:
#
# PCOD9407161 Si02
#       6
#     8   4   8   8   2   8
#     4  11  24  42  64  92 126 165 206 253 307 364
#     4  12  25  42  65  92 126 166 212 260 307 360
#     4  11  23  39  59  85 120 158 198 247 303 362
#     4   9  19  34  59  83 113 148 191 242 291 350
#     4   8  18  36  60  82 120 144 200 236 302 340
#     4  11  24  41  64  92 123 158 202 251 304 362
#
# _framework density 18.438756999999999
#
# number of rings (size 3 to 8) (size 9 to 14) (size 15 to 20)
#    0.632    0.842    0.000    5.368    0.000   10.105 
#    0.000    0.526    0.000    0.000    0.000    0.000 
#    0.000    0.000    0.000    0.000    0.000    0.000 
#
# Total GULP energy -211584.989599 kJ/mol
# GULP energy per Si atom -5568.026042 kJ/mol
# Density = 1.839679 g / cm^3
# Si number density = 18.438757 Si / 1000 Ang^3
#
#
#
# Elastic Constant Matrix: (Units=GPa)
#
#
# Indices 1 2 3 4 5 6 
#
# 1 84.1988 67.4792 40.9988 0.0000 0.0000 0.0000
# 2 67.4792 153.1523 67.6743 0.0000 0.0000 0.0000
# 3 40.9988 67.6743 105.5448 0.0000 0.0000 0.0000
# 4 0.0000 0.0000 0.0000 19.2491 0.0000 0.0000
# 5 0.0000 0.0000 0.0000 0.0000 27.7147 0.0000
# 6 0.0000 0.0000 0.0000 0.0000 0.0000 53.3887
#
#
#
# Elastic Compliance Matrix: (Units=1/GPa)
#
#
# Indices 1 2 3 4 5 6 
#
# 1 0.018934 -0.007106 -0.002799 0.000000 0.000000 0.000000
# 2 -0.007106 0.011777 -0.004791 0.000000 0.000000 0.000000
# 3 -0.002799 -0.004791 0.013634 0.000000 0.000000 0.000000
# 4 0.000000 0.000000 0.000000 0.051951 0.000000 0.000000
# 5 0.000000 0.000000 0.000000 0.000000 0.036082 0.000000
# 6 0.000000 0.000000 0.000000 0.000000 0.000000 0.018731
#
#
# Mechanical properties :
#
#
# Convention : Reuss Voigt Hill
#
# Bulk Modulus (GPa) = 66.87264 77.24451 72.05858
# Shear Modulus (GPa) = 26.95632 31.18672 29.07152
#
# Velocity S-wave (km/s) = 3.82768 4.11709 3.97502
# Velocity P-wave (km/s) = 7.47536 8.03641 7.76096
#
# Compressibility (1/GPa) = 0.01495380
#
# Stress axis : x y z
#
# Youngs Moduli (GPa) = 52.81449 84.90820 73.34575
#
# Poissons Ratio (x) = 0.60333 0.20529
# Poissons Ratio (y) = 0.37528 0.35143
# Poissons Ratio (z) = 0.14782 0.40683
#
# Static dielectric constant tensor:
#      x y z
#    x 1.641380 0.000000 0.000000 
#    y 0.000000 1.616370 0.000000 
#    z 0.000000 0.000000 1.607990 
# 
# From -- ./inp_files/5320.got.cif
#   From: 2010.05.17/outbox.cif.g08.bks.cpg/sg51_3_cif.got.tgz:5320.got - 2010.06.03 11:52:47.
