data_PCOD9407779
_publ_section_title
;
Structure prediction by ZEFSAII (Michael W. Deem and Ramdas Pophale) SiO2 
 PCOD9407779
Probable space group: P M M A
;
_chemical_formula_sum "Si O2"
_cell_formula_units_Z 48
_cell_length_a 18.000000
_cell_length_b 15.000000
_cell_length_c 9.000000
_cell_angle_alpha 90.000000
_cell_angle_beta 90.000000
_cell_angle_gamma 90.000000
_cell_volume 2430.000000
_symmetry_space_group_name_H-M "P M M A"
_symmetry_group_IT_number 51
_symmetry_cell_setting 'orthorhombic'
loop_
_space_group_symop_operation_xyz
x,y,z
1/2-x,-y,z
1/2+x,-y,-z
-x,y,-z
-x,-y,-z
1/2+x,y,-z
1/2-x,y,z
x,-y,z
loop_
_atom_site_type_symbol
_atom_site_label
_atom_site_fract_x
_atom_site_fract_y
_atom_site_fract_z
Si Si1 0.337857 0.752632 0.426281
Si Si2 0.837368 0.754287 0.899541
Si Si3 0.337923 0.605299 0.648792
Si Si4 0.417503 0.393967 0.954052
Si Si5 0.079984 0.097354 0.925115
Si Si6 0.075891 0.101535 0.574337
O O1 0.250000 0.743770 0.408634
O O2 0.369661 0.770680 0.264009
O O3 0.362575 0.663055 0.508297
O O4 0.357725 0.835300 0.528241
O O5 0.750000 0.766657 0.901338
O O6 0.858944 0.654415 0.941528
O O7 0.872353 0.821739 0.015647
O O8 0.250000 0.625127 0.682644
O O9 0.342475 0.500000 0.620677
O O10 0.390650 0.627488 0.787549
O O11 0.415014 0.500000 0.970388
O O12 0.500000 0.362983 0.000000
O O13 0.069095 0.101857 0.750036
O O14 0.113519 0.000000 0.962207
O O15 0.000000 0.101947 0.000000
O O16 0.000000 0.134988 0.500000
O O17 0.087475 0.000000 0.522365
#
# Coordination Sequence:
#
# PCOD9407779 Si02
#       6
#     8   8   8   8   8   8
#     4  10  22  37  54  80 112 146 184 227 273 322
#     4  11  23  37  56  83 114 149 187 228 276 329
#     4   9  18  35  58  81 108 145 186 227 275 332
#     4  10  21  37  57  82 111 143 183 231 280 331
#     4  10  21  38  60  84 112 146 184 229 278 329
#     4  10  21  37  58  82 108 143 185 226 273 328
#
# _framework density 19.753086
#
# number of rings (size 3 to 8) (size 9 to 14) (size 15 to 20)
#    0.000    2.000    0.000    3.000    0.000    7.667 
#    0.000    5.000    0.000    3.500    0.000    0.000 
#    0.000    0.000    0.000    0.000    0.000    0.000 
#
# Total GULP energy -267667.447612 kJ/mol
# GULP energy per Si atom -5576.405159 kJ/mol
# Density = 1.970813 g / cm^3
# Si number density = 19.753086 Si / 1000 Ang^3
#
#
#
# Elastic Constant Matrix: (Units=GPa)
#
#
# Indices 1 2 3 4 5 6 
#
# 1 25.6391 26.8716 24.0233 0.0000 0.0000 0.0000
# 2 26.8716 31.6149 36.4030 0.0000 0.0000 0.0000
# 3 24.0233 36.4030 66.0628 0.0000 0.0000 0.0000
# 4 0.0000 0.0000 0.0000 194.7026 0.0000 0.0000
# 5 0.0000 0.0000 0.0000 0.0000 25.3738 0.0000
# 6 0.0000 0.0000 0.0000 0.0000 0.0000 12.6626
#
#
#
# Elastic Compliance Matrix: (Units=1/GPa)
#
#
# Indices 1 2 3 4 5 6 
#
# 1 1.223603 -1.443670 0.350559 0.000000 0.000000 0.000000
# 2 -1.443670 1.789855 -0.461293 0.000000 0.000000 0.000000
# 3 0.350559 -0.461293 0.141848 0.000000 0.000000 0.000000
# 4 0.000000 0.000000 0.000000 0.005136 0.000000 0.000000
# 5 0.000000 0.000000 0.000000 0.000000 0.039411 0.000000
# 6 0.000000 0.000000 0.000000 0.000000 0.000000 0.078973
#
#
# Mechanical properties :
#
#
# Convention : Reuss Voigt Hill
#
# Bulk Modulus (GPa) = 21.50678 33.10140 27.30409
# Shear Modulus (GPa) = 0.78087 48.94907 24.86497
#
# Velocity S-wave (km/s) = 0.62942 4.98340 3.55179
# Velocity P-wave (km/s) = 3.38226 7.06444 5.53832
#
# Compressibility (1/GPa) = 0.04649696
#
# Stress axis : x y z
#
# Youngs Moduli (GPa) = 0.81726 0.55870 7.04980
#
# Poissons Ratio (x) = 0.80659 -2.47137
# Poissons Ratio (y) = 1.17985 3.25203
# Poissons Ratio (z) = -0.28650 0.25773
#
# Static dielectric constant tensor:
#      x y z
#    x 1.681060 0.000000 0.000000 
#    y 0.000000 1.683750 0.000000 
#    z 0.000000 0.000000 1.720040 
# 
# From -- ./inp_files/9608.got.cif
#   From: 2010.05.17/outbox.ucp.g08.bks.cvg/sg51_5_cif.got.tgz:9608.got - 2010.06.11 16:27:58.
