data_PCOD9407249
_publ_section_title
;
Structure prediction by ZEFSAII (Michael W. Deem and Ramdas Pophale) SiO2 
 PCOD9407249
Probable space group: P M M A
;
_chemical_formula_sum "Si O2"
_cell_formula_units_Z 64
_cell_length_a 13.910693
_cell_length_b 7.477716
_cell_length_c 23.004817
_cell_angle_alpha 90.000000
_cell_angle_beta 90.000000
_cell_angle_gamma 90.000000
_cell_volume 2392.965933
_symmetry_space_group_name_H-M "P M M A"
_symmetry_group_IT_number 51
_symmetry_cell_setting 'orthorhombic'
loop_
_space_group_symop_operation_xyz
x,y,z
1/2-x,-y,z
1/2+x,-y,-z
-x,y,-z
-x,-y,-z
1/2+x,y,-z
1/2-x,y,z
x,-y,z
loop_
_atom_site_type_symbol
_atom_site_label
_atom_site_fract_x
_atom_site_fract_y
_atom_site_fract_z
Si Si1 0.139245 0.202124 0.597174
Si Si2 0.365389 0.216468 0.221924
Si Si3 0.366364 0.788464 0.347787
Si Si4 0.362737 0.713209 0.722124
Si Si5 0.394033 0.797658 0.476102
Si Si6 0.860656 0.786357 0.028364
Si Si7 0.632500 0.212975 0.903452
Si Si8 0.862537 0.285796 0.154360
O O1 0.250000 0.200260 0.613416
O O2 0.091856 0.248861 0.658847
O O3 0.144364 0.296109 0.534326
O O4 0.106966 0.000000 0.585619
O O5 0.250000 0.248669 0.221552
O O6 0.399753 0.285440 0.285016
O O7 0.400574 0.286742 0.159237
O O8 0.376347 0.000000 0.222667
O O9 0.250000 0.775350 0.347546
O O10 0.394544 0.716068 0.411738
O O11 0.391291 0.000000 0.348064
O O12 0.250000 0.771748 0.724833
O O13 0.360590 0.500000 0.724263
O O14 0.404891 0.780231 0.783765
O O15 0.500000 0.813280 0.500000
O O16 0.352479 0.000000 0.469348
O O17 0.750000 0.718756 0.032699
O O18 0.906407 0.759791 0.091782
O O19 0.856762 0.000000 0.021331
O O20 0.900416 0.717443 0.966670
O O21 0.750000 0.230387 0.904681
O O22 0.612567 0.000000 0.901420
O O23 0.750000 0.224249 0.152523
O O24 0.860940 0.500000 0.156518
#
# Coordination Sequence:
#
# PCOD9407249 Si02
#       8
#     8   8   8   8   8   8   8   8
#     4   9  16  25  38  55  72  92 121 153 179 208
#     4   7   9  13  22  36  54  77 105 137 170 200
#     4   8  12  18  29  44  62  87 119 150 177 209
#     4   8  14  24  36  49  66  89 117 149 182 211
#     4   9  16  24  33  47  70  97 119 143 181 222
#     4   8  12  16  23  36  55  81 110 136 163 198
#     4   7   9  13  20  32  52  76 101 129 161 195
#     4   8  13  20  28  39  58  84 112 140 169 202
#
# _framework density 26.745051
#
# number of rings (size 3 to 8) (size 9 to 14) (size 15 to 20)
#    0.000    4.000    0.000    3.375    0.000    2.000 
#    0.000    2.500    0.000    0.375    0.000    0.000 
#    0.000    1.000    0.000   11.625    0.000   38.875 
#
# Total GULP energy -356338.517043 kJ/mol
# GULP energy per Si atom -5567.789329 kJ/mol
# Density = 2.668418 g / cm^3
# Si number density = 26.745051 Si / 1000 Ang^3
#
#
#
# Elastic Constant Matrix: (Units=GPa)
#
#
# Indices 1 2 3 4 5 6 
#
# 1 64.1091 -4.3000 36.8080 0.0000 0.0000 0.0000
# 2 -4.3000 65.8118 22.6017 0.0000 0.0000 0.0000
# 3 36.8080 22.6017 429.2770 0.0000 0.0000 0.0000
# 4 0.0000 0.0000 0.0000 37.8323 0.0000 0.0000
# 5 0.0000 0.0000 0.0000 0.0000 40.8166 0.0000
# 6 0.0000 0.0000 0.0000 0.0000 0.0000 -8.3487
#
#
#
# Elastic Compliance Matrix: (Units=1/GPa)
#
#
# Indices 1 2 3 4 5 6 
#
# 1 0.016570 0.001599 -0.001505 0.000000 0.000000 0.000000
# 2 0.001599 0.015629 -0.000960 0.000000 0.000000 0.000000
# 3 -0.001505 -0.000960 0.002509 0.000000 0.000000 0.000000
# 4 0.000000 0.000000 0.000000 0.026432 0.000000 0.000000
# 5 0.000000 0.000000 0.000000 0.000000 0.024500 0.000000
# 6 0.000000 0.000000 0.000000 0.000000 0.000000 -0.119779
#
#
# Mechanical properties :
#
#
# Convention : Reuss Voigt Hill
#
# Bulk Modulus (GPa) = 30.32428 74.37969 52.35198
# Shear Modulus (GPa) = -233.48045 47.66590 -92.90727
#
# Velocity S-wave (km/s) = -9.35351 4.22623 -5.90030
# Velocity P-wave (km/s) = 10.26099 7.18928 5.17698
#
# Compressibility (1/GPa) = 0.03297687
#
# Stress axis : x y z
#
# Youngs Moduli (GPa) = 60.35085 63.98338 398.55133
#
# Poissons Ratio (x) = -0.10234 0.59981
# Poissons Ratio (y) = -0.09653 0.38262
# Poissons Ratio (z) = 0.09083 0.06143
#
# Static dielectric constant tensor:
#      x y z
#    x 1.924160 0.000000 0.000000 
#    y 0.000000 2.084950 0.000000 
#    z 0.000000 0.000000 2.664840 
# 
# From -- ./inp_files/30710.got.cif
#   From: 2010.05.17/outbox.cif.g08.bks.cpg/sg51_16_cif.got.tgz:30710.got - 2010.06.03 11:52:47.
