data_PCOD9407324
_publ_section_title
;
Structure prediction by ZEFSAII (Michael W. Deem and Ramdas Pophale) SiO2 
 PCOD9407324
Probable space group: P M M A
;
_chemical_formula_sum "Si O2"
_cell_formula_units_Z 40
_cell_length_a 27.636409
_cell_length_b 7.467360
_cell_length_c 9.453057
_cell_angle_alpha 90.000000
_cell_angle_beta 90.000000
_cell_angle_gamma 90.000000
_cell_volume 1950.836969
_symmetry_space_group_name_H-M "P M M A"
_symmetry_group_IT_number 51
_symmetry_cell_setting 'orthorhombic'
loop_
_space_group_symop_operation_xyz
x,y,z
1/2-x,-y,z
1/2+x,-y,-z
-x,y,-z
-x,-y,-z
1/2+x,y,-z
1/2-x,y,z
x,-y,z
loop_
_atom_site_type_symbol
_atom_site_label
_atom_site_fract_x
_atom_site_fract_y
_atom_site_fract_z
Si Si1 0.001582 0.280803 0.338046
Si Si2 0.302040 0.786172 0.139938
Si Si3 0.406554 0.719834 0.832911
Si Si4 0.697770 0.706948 0.191922
Si Si5 0.092207 0.287834 0.157614
O O1 0.002096 0.500000 0.338070
O O2 0.049797 0.218389 0.257285
O O3 0.000000 0.222879 0.500000
O O4 0.953371 0.226430 0.254628
O O5 0.250000 0.730237 0.203220
O O6 0.352835 0.737981 0.210766
O O7 0.301582 0.000000 0.126769
O O8 0.303410 0.710320 0.980074
O O9 0.404892 0.500000 0.834227
O O10 0.354903 0.782068 0.769822
O O11 0.410698 0.780862 0.996160
O O12 0.750000 0.787638 0.233100
O O13 0.698547 0.500000 0.237609
O O14 0.084447 0.500000 0.146785
#
# Coordination Sequence:
#
# PCOD9407324 Si02
#       5
#     8   8   8   8   8
#     4   9  16  25  39  60  84 109 138 172 207 240
#     4   9  16  25  39  61  86 108 131 164 205 244
#     4   8  13  22  38  59  82 107 134 163 197 241
#     4   8  13  22  38  60  83 106 132 163 200 241
#     4   9  16  26  42  62  83 108 137 168 201 240
#
# _framework density 20.504020000000001
#
# number of rings (size 3 to 8) (size 9 to 14) (size 15 to 20)
#    0.000    3.400    0.000    2.400    0.000    3.600 
#    0.000    0.000    0.000   11.400    0.000    5.600 
#    0.000   12.800    0.000    0.000    0.000    0.000 
#
# Total GULP energy -222729.789901 kJ/mol
# GULP energy per Si atom -5568.244748 kJ/mol
# Density = 2.045735 g / cm^3
# Si number density = 20.504020 Si / 1000 Ang^3
#
#
#
# Elastic Constant Matrix: (Units=GPa)
#
#
# Indices 1 2 3 4 5 6 
#
# 1 264.9722 -2.8908 84.0641 0.0000 0.0000 0.0000
# 2 -2.8908 58.5523 3.9831 0.0000 0.0000 0.0000
# 3 84.0641 3.9831 62.6243 0.0000 0.0000 0.0000
# 4 0.0000 0.0000 0.0000 -40.8443 0.0000 0.0000
# 5 0.0000 0.0000 0.0000 0.0000 -12.4042 0.0000
# 6 0.0000 0.0000 0.0000 0.0000 0.0000 -40.5632
#
#
#
# Elastic Compliance Matrix: (Units=1/GPa)
#
#
# Indices 1 2 3 4 5 6 
#
# 1 0.006624 0.000936 -0.008951 0.000000 0.000000 0.000000
# 2 0.000936 0.017285 -0.002356 0.000000 0.000000 0.000000
# 3 -0.008951 -0.002356 0.028134 0.000000 0.000000 0.000000
# 4 0.000000 0.000000 0.000000 -0.024483 0.000000 0.000000
# 5 0.000000 0.000000 0.000000 0.000000 -0.080618 0.000000
# 6 0.000000 0.000000 0.000000 0.000000 0.000000 -0.024653
#
#
# Mechanical properties :
#
#
# Convention : Reuss Voigt Hill
#
# Bulk Modulus (GPa) = 31.94797 61.82905 46.88851
# Shear Modulus (GPa) = -107.44731 1.30382 -53.07174
#
# Velocity S-wave (km/s) = -7.24685 0.79829 -5.09311
# Velocity P-wave (km/s) = 7.37613 5.57402 3.41596
#
# Compressibility (1/GPa) = 0.03130089
#
# Stress axis : x y z
#
# Youngs Moduli (GPa) = 150.96437 57.85287 35.54412
#
# Poissons Ratio (x) = -0.05415 0.31817
# Poissons Ratio (y) = -0.14130 0.08373
# Poissons Ratio (z) = 1.35134 0.13629
#
# Static dielectric constant tensor:
#      x y z
#    x 1.805710 0.000000 0.000000 
#    y 0.000000 1.809820 0.000000 
#    z 0.000000 0.000000 1.661130 
# 
# From -- ./inp_files/12104.got.cif
#   From: 2010.05.17/outbox.cif.g08.bks.cpg/sg51_7_cif.got.tgz:12104.got - 2010.06.03 11:52:47.
