data_PCOD9407782
_publ_section_title
;
Structure prediction by ZEFSAII (Michael W. Deem and Ramdas Pophale) SiO2 
 PCOD9407782
Probable space group: P M M A
;
_chemical_formula_sum "Si O2"
_cell_formula_units_Z 64
_cell_length_a 30.000000
_cell_length_b 9.000000
_cell_length_c 12.000000
_cell_angle_alpha 90.000000
_cell_angle_beta 90.000000
_cell_angle_gamma 90.000000
_cell_volume 3240.000000
_symmetry_space_group_name_H-M "P M M A"
_symmetry_group_IT_number 51
_symmetry_cell_setting 'orthorhombic'
loop_
_space_group_symop_operation_xyz
x,y,z
1/2-x,-y,z
1/2+x,-y,-z
-x,y,-z
-x,-y,-z
1/2+x,y,-z
1/2-x,y,z
x,-y,z
loop_
_atom_site_type_symbol
_atom_site_label
_atom_site_fract_x
_atom_site_fract_y
_atom_site_fract_z
Si Si1 0.700545 0.667472 0.543833
Si Si2 0.323636 0.675075 0.210273
Si Si3 0.417409 0.823596 0.210577
Si Si4 0.041719 0.181077 0.431273
Si Si5 0.875600 0.823365 0.424485
Si Si6 0.947133 0.669434 0.009553
Si Si7 0.700673 0.821325 0.021981
Si Si8 0.884525 0.819783 0.171353
O O1 0.750000 0.668937 0.497924
O O2 0.681914 0.500000 0.533086
O O3 0.702153 0.700103 0.675163
O O4 0.670365 0.780943 0.479563
O O5 0.324356 0.500000 0.186994
O O6 0.372405 0.737427 0.236619
O O7 0.305700 0.756970 0.101440
O O8 0.454302 0.780247 0.301830
O O9 0.430227 0.775026 0.088197
O O10 0.409779 0.000000 0.216874
O O11 0.085506 0.233489 0.495526
O O12 0.000000 0.236935 0.500000
O O13 0.040544 0.000000 0.434354
O O14 0.878739 0.771467 0.298230
O O15 0.880427 0.000000 0.420696
O O16 0.930650 0.500000 0.995731
O O17 0.927545 0.740509 0.120690
O O18 0.000000 0.667102 0.000000
O O19 0.750000 0.778017 0.064138
O O20 0.699323 0.000000 0.015498
O O21 0.659016 0.776765 0.098945
O O22 0.889098 0.000000 0.165665
#
# Coordination Sequence:
#
# PCOD9407782 Si02
#       8
#     8   8   8   8   8   8   8   8
#     4  10  22  39  58  83 118 158 197 238 288 349
#     4  11  21  36  59  86 120 154 193 241 293 348
#     4  11  21  36  63  91 119 152 193 242 294 346
#     4   9  19  35  57  87 120 150 187 238 289 340
#     4  10  21  38  60  86 116 151 196 245 290 341
#     4  11  25  42  60  86 122 158 195 240 290 347
#     4  10  21  37  57  84 117 151 192 243 295 347
#     4  10  22  39  61  87 117 154 197 243 292 346
#
# _framework density 19.753086
#
# number of rings (size 3 to 8) (size 9 to 14) (size 15 to 20)
#    0.000    1.750    2.500    1.500    1.750    3.500 
#    0.000    1.250    0.000    1.875    0.000    0.000 
#    0.000    0.000    0.000    0.000    0.000    0.000 
#
# Total GULP energy -356955.168282 kJ/mol
# GULP energy per Si atom -5577.424504 kJ/mol
# Density = 1.970813 g / cm^3
# Si number density = 19.753086 Si / 1000 Ang^3
#
#
#
# Elastic Constant Matrix: (Units=GPa)
#
#
# Indices 1 2 3 4 5 6 
#
# 1 32.1897 9.0054 -10.0175 0.0000 0.0000 0.0000
# 2 9.0054 -62.9982 33.0595 0.0000 0.0000 0.0000
# 3 -10.0175 33.0595 50.0952 0.0000 0.0000 0.0000
# 4 0.0000 0.0000 0.0000 12.1367 0.0000 0.0000
# 5 0.0000 0.0000 0.0000 0.0000 -7.4907 0.0000
# 6 0.0000 0.0000 0.0000 0.0000 0.0000 -4.1387
#
#
#
# Elastic Compliance Matrix: (Units=1/GPa)
#
#
# Indices 1 2 3 4 5 6 
#
# 1 0.030246 0.005569 0.002373 0.000000 0.000000 0.000000
# 2 0.005569 -0.010765 0.008218 0.000000 0.000000 0.000000
# 3 0.002373 0.008218 0.015013 0.000000 0.000000 0.000000
# 4 0.000000 0.000000 0.000000 0.082395 0.000000 0.000000
# 5 0.000000 0.000000 0.000000 0.000000 -0.133499 0.000000
# 6 0.000000 0.000000 0.000000 0.000000 0.000000 -0.241622
#
#
# Mechanical properties :
#
#
# Convention : Reuss Voigt Hill
#
# Bulk Modulus (GPa) = 14.96676 9.26462 12.11569
# Shear Modulus (GPa) = -18.63732 -0.74926 -9.69329
#
# Velocity S-wave (km/s) = -3.07500 -0.61655 -2.21763
# Velocity P-wave (km/s) = 2.23922 2.04781 0.64054
#
# Compressibility (1/GPa) = 0.06681474
#
# Stress axis : x y z
#
# Youngs Moduli (GPa) = 33.06179 -92.89397 66.60733
#
# Poissons Ratio (x) = 0.51733 -0.15807
# Poissons Ratio (y) = -0.18412 -0.54737
# Poissons Ratio (z) = -0.07846 0.76338
#
# Static dielectric constant tensor:
#      x y z
#    x 1.725720 0.000000 0.000000 
#    y 0.000000 1.672110 0.000000 
#    z 0.000000 0.000000 1.184380 
# 
# From -- ./inp_files/19492.got.cif
#   From: 2010.05.17/outbox.ucp.g08.bks.cvg/sg51_10_cif.got.tgz:19492.got - 2010.06.11 16:27:58.
