data_PCOD9407411
_publ_section_title
;
Structure prediction by ZEFSAII (Michael W. Deem and Ramdas Pophale) SiO2 
 PCOD9407411
Probable space group: P M M A
;
_chemical_formula_sum "Si O2"
_cell_formula_units_Z 64
_cell_length_a 9.000000
_cell_length_b 15.000000
_cell_length_c 30.000000
_cell_angle_alpha 90.000000
_cell_angle_beta 90.000000
_cell_angle_gamma 90.000000
_cell_volume 4050.000000
_symmetry_space_group_name_H-M "P M M A"
_symmetry_group_IT_number 51
_symmetry_cell_setting 'orthorhombic'
loop_
_space_group_symop_operation_xyz
x,y,z
1/2-x,-y,z
1/2+x,-y,-z
-x,y,-z
-x,-y,-z
1/2+x,y,-z
1/2-x,y,z
x,-y,z
loop_
_atom_site_type_symbol
_atom_site_label
_atom_site_fract_x
_atom_site_fract_y
_atom_site_fract_z
Si Si1 0.574150 0.105912 0.191615
Si Si2 0.931484 0.896702 0.643440
Si Si3 0.579140 0.108423 0.544986
Si Si4 0.928350 0.101906 0.903486
Si Si5 0.071068 0.275931 0.046661
Si Si6 0.069715 0.397015 0.129227
Si Si7 0.930916 0.398299 0.769637
Si Si8 0.929932 0.783265 0.728731
O O1 0.750000 0.123393 0.191655
O O2 0.505226 0.125927 0.143228
O O3 0.493536 0.160943 0.229986
O O4 0.551225 0.000000 0.199336
O O5 0.750000 0.897079 0.641942
O O6 0.982994 0.868145 0.593918
O O7 0.977745 0.830960 0.682940
O O8 0.975995 0.000000 0.651905
O O9 0.500000 0.139284 0.500000
O O10 0.750000 0.137008 0.543060
O O11 0.577183 0.000000 0.544591
O O12 0.750000 0.106175 0.896851
O O13 0.967470 0.174103 0.940670
O O14 0.968150 0.000000 0.914853
O O15 0.250000 0.283220 0.043506
O O16 0.019754 0.335062 0.088817
O O17 0.000000 0.302658 0.000000
O O18 0.250000 0.391980 0.129714
O O19 0.029260 0.500000 0.121286
O O20 0.021708 0.373819 0.179648
O O21 0.750000 0.400173 0.769885
O O22 0.979628 0.500000 0.760061
O O23 0.975763 0.319637 0.736244
O O24 0.750000 0.786819 0.730215
#
# Coordination Sequence:
#
# PCOD9407411 Si02
#       8
#     8   8   8   8   8   8   8   8
#     4  10  20  31  43  63  90 115 139 172 211 244
#     4   8  14  23  35  55  83 112 143 177 209 245
#     4   8  13  22  35  50  71 102 140 179 214 246
#     4   9  18  33  50  64  79 105 142 173 194 232
#     4  10  20  32  46  65  85 104 129 161 198 240
#     4   8  14  26  43  61  82 106 129 156 193 237
#     4   8  14  25  43  67  88 105 134 176 212 241
#     4  10  17  26  44  65  86 116 147 172 205 254
#
# _framework density 15.802469
#
# number of rings (size 3 to 8) (size 9 to 14) (size 15 to 20)
#    0.000    3.125    0.000    3.000    0.000    4.250 
#    0.000    0.625    0.000    2.625    0.000    1.750 
#    0.000    0.500    0.000    0.375    0.000    0.750 
#
# Total GULP energy -356351.736287 kJ/mol
# GULP energy per Si atom -5567.995879 kJ/mol
# Density = 1.576650 g / cm^3
# Si number density = 15.802469 Si / 1000 Ang^3
#
#
#
# Elastic Constant Matrix: (Units=GPa)
#
#
# Indices 1 2 3 4 5 6 
#
# 1 2.5067 12.4280 12.1564 0.0000 0.0000 0.0000
# 2 12.4280 71.8696 67.5395 0.0000 0.0000 0.0000
# 3 12.1564 67.5395 105.3527 0.0000 0.0000 0.0000
# 4 0.0000 0.0000 0.0000 18.9380 0.0000 0.0000
# 5 0.0000 0.0000 0.0000 0.0000 16.7226 0.0000
# 6 0.0000 0.0000 0.0000 0.0000 0.0000 5.8278
#
#
#
# Elastic Compliance Matrix: (Units=1/GPa)
#
#
# Indices 1 2 3 4 5 6 
#
# 1 2.839362 -0.460595 -0.032350 0.000000 0.000000 0.000000
# 2 -0.460595 0.109717 -0.017190 0.000000 0.000000 0.000000
# 3 -0.032350 -0.017190 0.024245 0.000000 0.000000 0.000000
# 4 0.000000 0.000000 0.000000 0.052804 0.000000 0.000000
# 5 0.000000 0.000000 0.000000 0.000000 0.059799 0.000000
# 6 0.000000 0.000000 0.000000 0.000000 0.000000 0.171590
#
#
# Mechanical properties :
#
#
# Convention : Reuss Voigt Hill
#
# Bulk Modulus (GPa) = 0.51202 40.44189 20.47695
# Shear Modulus (GPa) = 1.01444 14.13802 7.57623
#
# Velocity S-wave (km/s) = 0.80209 2.99435 2.19197
# Velocity P-wave (km/s) = 1.08743 6.13209 4.40369
#
# Compressibility (1/GPa) = 1.95305432
#
# Stress axis : x y z
#
# Youngs Moduli (GPa) = 0.35219 9.11439 41.24569
#
# Poissons Ratio (x) = 4.19804 1.33429
# Poissons Ratio (y) = 0.16222 0.70902
# Poissons Ratio (z) = 0.01139 0.15668
#
# Static dielectric constant tensor:
#      x y z
#    x 1.532110 0.000000 0.000000 
#    y 0.000000 1.540010 0.000000 
#    z 0.000000 0.000000 1.527080 
# 
# From -- ./inp_files/37597.got.cif
#   From: 2010.05.17/outbox.ucp.g08.bks.cvg/sg51_19_cif.got.tgz:37597.got - 2010.06.11 16:27:58.
