data_PCOD9407626
_publ_section_title
;
Structure prediction by ZEFSAII (Michael W. Deem and Ramdas Pophale) SiO2 
 PCOD9407626
Probable space group: P M M A
;
_chemical_formula_sum "Si O2"
_cell_formula_units_Z 56
_cell_length_a 9.000000
_cell_length_b 21.000000
_cell_length_c 15.000000
_cell_angle_alpha 90.000000
_cell_angle_beta 90.000000
_cell_angle_gamma 90.000000
_cell_volume 2835.000000
_symmetry_space_group_name_H-M "P M M A"
_symmetry_group_IT_number 51
_symmetry_cell_setting 'orthorhombic'
loop_
_space_group_symop_operation_xyz
x,y,z
1/2-x,-y,z
1/2+x,-y,-z
-x,y,-z
-x,-y,-z
1/2+x,y,-z
1/2-x,y,z
x,-y,z
loop_
_atom_site_type_symbol
_atom_site_label
_atom_site_fract_x
_atom_site_fract_y
_atom_site_fract_z
Si Si1 0.581221 0.621207 0.151797
Si Si2 0.079236 0.153996 0.762641
Si Si3 0.930456 0.229365 0.409017
Si Si4 0.077192 0.500000 0.095351
Si Si5 0.584851 0.075705 0.907376
Si Si6 0.080618 0.747708 0.920147
Si Si7 0.927087 0.500000 0.596633
Si Si8 0.581531 0.369130 0.356379
O O1 0.750000 0.604930 0.121917
O O2 0.479137 0.560950 0.147020
O O3 0.513502 0.678554 0.096207
O O4 0.593951 0.644978 0.252028
O O5 0.250000 0.133110 0.750444
O O6 0.021488 0.182872 0.670672
O O7 0.078335 0.213237 0.830435
O O8 0.990988 0.102136 0.818505
O O9 0.750000 0.230450 0.408959
O O10 0.978022 0.303459 0.397131
O O11 0.000000 0.205812 0.500000
O O12 0.250000 0.500000 0.084108
O O13 0.000000 0.500000 0.000000
O O14 0.750000 0.103193 0.915223
O O15 0.593002 0.000000 0.898564
O O16 0.500000 0.086685 0.000000
O O17 0.250000 0.737910 0.945386
O O18 0.000000 0.781425 0.000000
O O19 0.750000 0.500000 0.596476
O O20 0.000000 0.500000 0.500000
O O21 0.987098 0.566657 0.635805
O O22 0.750000 0.381733 0.391033
#
# Coordination Sequence:
#
# PCOD9407626 Si02
#       8
#     8   8   8   4   8   8   4   8
#     4  10  20  37  57  75 101 139 178 221 279 341
#     4  10  20  37  59  85 119 155 195 238 285 338
#     4  10  21  38  60  86 116 152 194 244 296 354
#     4  12  25  38  51  71  99 135 183 235 282 337
#     4  10  21  37  59  91 129 166 202 238 279 331
#     4  10  20  34  53  79 110 144 181 225 273 330
#     4  12  25  38  53  77 105 135 179 235 294 355
#     4  10  20  38  60  80 107 143 182 229 293 358
#
# _framework density 19.753086
#
# number of rings (size 3 to 8) (size 9 to 14) (size 15 to 20)
#    0.000    1.714    1.429    3.429    0.000    8.857 
#    0.000    0.000    0.000    0.429    0.000    0.000 
#    0.000    0.000    0.000    0.000    0.000    0.000 
#
# Total GULP energy -312058.071122 kJ/mol
# GULP energy per Si atom -5572.465556 kJ/mol
# Density = 1.970813 g / cm^3
# Si number density = 19.753086 Si / 1000 Ang^3
#
#
#
# Elastic Constant Matrix: (Units=GPa)
#
#
# Indices 1 2 3 4 5 6 
#
# 1 57.9635 42.0980 39.1973 0.0000 0.0000 0.0000
# 2 42.0980 90.9377 38.8059 0.0000 0.0000 0.0000
# 3 39.1973 38.8059 128.1169 0.0000 0.0000 0.0000
# 4 0.0000 0.0000 0.0000 29.2509 0.0000 0.0000
# 5 0.0000 0.0000 0.0000 0.0000 25.6987 0.0000
# 6 0.0000 0.0000 0.0000 0.0000 0.0000 13.2525
#
#
#
# Elastic Compliance Matrix: (Units=1/GPa)
#
#
# Indices 1 2 3 4 5 6 
#
# 1 0.029041 -0.011085 -0.005527 0.000000 0.000000 0.000000
# 2 -0.011085 0.016860 -0.001715 0.000000 0.000000 0.000000
# 3 -0.005527 -0.001715 0.010016 0.000000 0.000000 0.000000
# 4 0.000000 0.000000 0.000000 0.034187 0.000000 0.000000
# 5 0.000000 0.000000 0.000000 0.000000 0.038913 0.000000
# 6 0.000000 0.000000 0.000000 0.000000 0.000000 0.075458
#
#
# Mechanical properties :
#
#
# Convention : Reuss Voigt Hill
#
# Bulk Modulus (GPa) = 51.91764 57.46895 54.69330
# Shear Modulus (GPa) = 20.19781 24.10154 22.14967
#
# Velocity S-wave (km/s) = 3.20115 3.49684 3.35226
# Velocity P-wave (km/s) = 6.32483 6.74245 6.53698
#
# Compressibility (1/GPa) = 0.01926128
#
# Stress axis : x y z
#
# Youngs Moduli (GPa) = 34.43373 59.31094 99.83963
#
# Poissons Ratio (x) = 0.65749 0.55186
# Poissons Ratio (y) = 0.38171 0.17126
# Poissons Ratio (z) = 0.19033 0.10174
#
# Static dielectric constant tensor:
#      x y z
#    x 1.713620 0.000000 0.000000 
#    y 0.000000 1.757000 0.000000 
#    z 0.000000 0.000000 2.799940 
# 
# From -- ./inp_files/21924.got.cif
#   From: 2010.05.17/outbox.ucp.g08.bks.cvg/sg51_11_cif.got.tgz:21924.got - 2010.06.11 16:27:58.
