data_PCOD9407581
_publ_section_title
;
Structure prediction by ZEFSAII (Michael W. Deem and Ramdas Pophale) SiO2 
 PCOD9407581
Probable space group: P M M A
;
_chemical_formula_sum "Si O2"
_cell_formula_units_Z 48
_cell_length_a 9.000000
_cell_length_b 15.000000
_cell_length_c 18.000000
_cell_angle_alpha 90.000000
_cell_angle_beta 90.000000
_cell_angle_gamma 90.000000
_cell_volume 2430.000000
_symmetry_space_group_name_H-M "P M M A"
_symmetry_group_IT_number 51
_symmetry_cell_setting 'orthorhombic'
loop_
_space_group_symop_operation_xyz
x,y,z
1/2-x,-y,z
1/2+x,-y,-z
-x,y,-z
-x,-y,-z
1/2+x,y,-z
1/2-x,y,z
x,-y,z
loop_
_atom_site_type_symbol
_atom_site_label
_atom_site_fract_x
_atom_site_fract_y
_atom_site_fract_z
Si Si1 0.428582 0.401755 0.124893
Si Si2 0.430428 0.902136 0.626057
Si Si3 0.573310 0.786987 0.926973
Si Si4 0.422917 0.104618 0.799412
Si Si5 0.929096 0.286202 0.426468
Si Si6 0.078128 0.603711 0.717335
O O1 0.250000 0.403092 0.121822
O O2 0.484145 0.500000 0.101208
O O3 0.480737 0.315327 0.080963
O O4 0.480270 0.387334 0.209480
O O5 0.250000 0.904007 0.622192
O O6 0.465689 0.887815 0.713003
O O7 0.481507 0.815996 0.582096
O O8 0.485274 0.000000 0.602692
O O9 0.750000 0.788286 0.933671
O O10 0.522291 0.838203 0.853753
O O11 0.500000 0.827888 0.000000
O O12 0.250000 0.132179 0.806181
O O13 0.432112 0.000000 0.818427
O O14 0.750000 0.288480 0.431516
O O15 0.971194 0.336994 0.351412
O O16 0.000000 0.326275 0.500000
O O17 0.250000 0.627034 0.735477
O O18 0.075415 0.500000 0.695174
#
# Coordination Sequence:
#
# PCOD9407581 Si02
#       6
#     8   8   8   8   8   8
#     4   9  19  36  56  78 103 131 167 212 258 301
#     4   8  15  30  52  74  95 124 163 204 246 293
#     4  11  23  36  52  76 107 140 170 205 251 302
#     4   9  18  35  59  81 100 129 171 215 257 302
#     4  10  20  32  47  70 101 133 164 201 244 293
#     4   9  18  33  53  75  97 126 167 210 250 296
#
# _framework density 19.753086
#
# number of rings (size 3 to 8) (size 9 to 14) (size 15 to 20)
#    0.000    2.667    0.000    2.500    0.000    5.000 
#    0.000    0.833    0.000    1.000    0.000    0.000 
#    0.000    0.000    0.000    0.000    0.000    0.000 
#
# Total GULP energy -267680.257025 kJ/mol
# GULP energy per Si atom -5576.672021 kJ/mol
# Density = 1.970813 g / cm^3
# Si number density = 19.753086 Si / 1000 Ang^3
#
#
#
# Elastic Constant Matrix: (Units=GPa)
#
#
# Indices 1 2 3 4 5 6 
#
# 1 2.4231 13.2176 3.7349 0.0000 0.0000 0.0000
# 2 13.2176 46.0175 37.6319 0.0000 0.0000 0.0000
# 3 3.7349 37.6319 50.7727 0.0000 0.0000 0.0000
# 4 0.0000 0.0000 0.0000 -62.9824 0.0000 0.0000
# 5 0.0000 0.0000 0.0000 0.0000 16.4275 0.0000
# 6 0.0000 0.0000 0.0000 0.0000 0.0000 18.7607
#
#
#
# Elastic Compliance Matrix: (Units=1/GPa)
#
#
# Indices 1 2 3 4 5 6 
#
# 1 -0.258009 0.148745 -0.091268 0.000000 0.000000 0.000000
# 2 0.148745 -0.030581 0.011725 0.000000 0.000000 0.000000
# 3 -0.091268 0.011725 0.017719 0.000000 0.000000 0.000000
# 4 0.000000 0.000000 0.000000 -0.015877 0.000000 0.000000
# 5 0.000000 0.000000 0.000000 0.000000 0.060874 0.000000
# 6 0.000000 0.000000 0.000000 0.000000 0.000000 0.053303
#
#
# Mechanical properties :
#
#
# Convention : Reuss Voigt Hill
#
# Bulk Modulus (GPa) = -7.54898 23.15357 7.80230
# Shear Modulus (GPa) = -14.07933 -2.58360 -8.33146
#
# Velocity S-wave (km/s) = -2.67266 -1.14490 -2.05596
# Velocity P-wave (km/s) = 3.65433 3.16216 1.29517
#
# Compressibility (1/GPa) = -0.13246831
#
# Stress axis : x y z
#
# Youngs Moduli (GPa) = -3.87584 -32.69966 56.43610
#
# Poissons Ratio (x) = 4.86390 5.15082
# Poissons Ratio (y) = 0.57651 -0.66170
# Poissons Ratio (z) = -0.35374 0.38339
#
# Static dielectric constant tensor:
#      x y z
#    x 1.652790 0.000000 0.000000 
#    y 0.000000 1.738520 0.000000 
#    z 0.000000 0.000000 1.659930 
# 
# From -- ./inp_files/27520.got.cif
#   From: 2010.05.17/outbox.ucp.g08.bks.cvg/sg51_14_cif.got.tgz:27520.got - 2010.06.11 16:27:58.
