data_PCOD9407924
_publ_section_title
;
Structure prediction by ZEFSAII (Michael W. Deem and Ramdas Pophale) SiO2 
 PCOD9407924
Probable space group: P N N A
;
_chemical_formula_sum "Si O2"
_cell_formula_units_Z 52
_cell_length_a 14.976679
_cell_length_b 9.135142
_cell_length_c 17.141872
_cell_angle_alpha 90.000000
_cell_angle_beta 90.000000
_cell_angle_gamma 90.000000
_cell_volume 2345.249607
_symmetry_space_group_name_H-M "P N N A"
_symmetry_group_IT_number 52
_symmetry_cell_setting 'orthorhombic'
loop_
_space_group_symop_operation_xyz
x,y,z
1/2-x,-y,z
x,1/2-y,1/2-z
1/2-x,1/2+y,1/2-z
-x,-y,-z
1/2+x,y,-z
-x,1/2+y,1/2+z
1/2+x,1/2-y,1/2+z
loop_
_atom_site_type_symbol
_atom_site_label
_atom_site_fract_x
_atom_site_fract_y
_atom_site_fract_z
Si Si1 0.908118 0.722539 0.490134
Si Si2 0.064698 0.558968 0.780148
Si Si3 0.716333 0.760220 0.070751
Si Si4 0.964089 0.140866 0.124801
Si Si5 0.486477 0.208871 0.341612
Si Si6 0.649426 0.962302 0.556285
Si Si7 0.750000 0.500000 0.190973
O O1 0.805482 0.681874 0.471317
O O2 0.961414 0.641346 0.558916
O O3 0.968397 0.700231 0.412229
O O4 0.899390 0.891688 0.523080
O O5 0.042018 0.701177 0.830050
O O6 0.011035 0.544358 0.700123
O O7 0.167207 0.544204 0.755767
O O8 0.056086 0.424081 0.836515
O O9 0.637567 0.872276 0.093810
O O10 0.752513 0.646947 0.137252
O O11 0.662628 0.649697 0.014402
O O12 0.475402 0.250000 0.250000
O O13 0.400329 0.127077 0.376449
O O14 0.750000 0.000000 0.581960
#
# Coordination Sequence:
#
# PCOD9407924 Si02
#       7
#     8   8   8   8   8   8   4
#     4  11  18  35  62  84 110 151 199 239 280 342
#     4  10  21  35  53  90 122 148 179 239 303 348
#     4  10  17  30  57  89 107 147 192 241 288 330
#     4  10  20  34  59  86 121 146 190 242 291 346
#     4  12  23  36  57  87 119 151 192 244 291 339
#     4  10  19  35  60  85 108 148 204 246 277 331
#     4  10  16  30  52  86 118 138 176 244 292 336
#
# _framework density 22.17248
#
# number of rings (size 3 to 8) (size 9 to 14) (size 15 to 20)
#    0.000    1.538    6.923    1.385    0.000    1.231 
#    0.000    3.846    0.000    0.000    0.000    0.000 
#    0.000    0.000    0.000    0.000    0.000    0.000 
#
# Total GULP energy -289572.402813 kJ/mol
# GULP energy per Si atom -5568.700054 kJ/mol
# Density = 2.212201 g / cm^3
# Si number density = 22.172480 Si / 1000 Ang^3
#
#
#
# Elastic Constant Matrix: (Units=GPa)
#
#
# Indices 1 2 3 4 5 6 
#
# 1 76.6521 0.5568 39.5472 0.0000 0.0000 0.0000
# 2 0.5568 34.8888 8.5713 0.0000 0.0000 0.0000
# 3 39.5472 8.5713 103.5819 0.0000 0.0000 0.0000
# 4 0.0000 0.0000 0.0000 -15.4177 0.0000 0.0000
# 5 0.0000 0.0000 0.0000 0.0000 23.7659 0.0000
# 6 0.0000 0.0000 0.0000 0.0000 0.0000 8.8105
#
#
#
# Elastic Compliance Matrix: (Units=1/GPa)
#
#
# Indices 1 2 3 4 5 6 
#
# 1 0.016303 0.001295 -0.006332 0.000000 0.000000 0.000000
# 2 0.001295 0.029360 -0.002924 0.000000 0.000000 0.000000
# 3 -0.006332 -0.002924 0.012314 0.000000 0.000000 0.000000
# 4 0.000000 0.000000 0.000000 -0.064860 0.000000 0.000000
# 5 0.000000 0.000000 0.000000 0.000000 0.042077 0.000000
# 6 0.000000 0.000000 0.000000 0.000000 0.000000 0.113501
#
#
# Mechanical properties :
#
#
# Convention : Reuss Voigt Hill
#
# Bulk Modulus (GPa) = 23.77772 34.71925 29.24849
# Shear Modulus (GPa) = 27.99008 14.52822 21.25915
#
# Velocity S-wave (km/s) = 3.55685 2.56254 3.09982
# Velocity P-wave (km/s) = 5.25505 4.94451 5.10214
#
# Compressibility (1/GPa) = 0.04205618
#
# Stress axis : x y z
#
# Youngs Moduli (GPa) = 61.33740 34.05968 81.21112
#
# Poissons Ratio (x) = -0.04412 0.51421
# Poissons Ratio (y) = -0.07945 0.23747
# Poissons Ratio (z) = 0.38837 0.09959
#
# Static dielectric constant tensor:
#      x y z
#    x 1.355470 0.000000 0.000000 
#    y 0.000000 1.806740 0.000000 
#    z 0.000000 0.000000 1.858790 
# 
# From -- ./inp_files/33213.got.cif
#   From: 2010.05.17/outbox.cif.g08.bks.cpg/sg52_17_cif.got.tgz:33213.got - 2010.06.03 12:15:38.
