data_PCOD9407479
_publ_section_title
;
Structure prediction by ZEFSAII (Michael W. Deem and Ramdas Pophale) SiO2 
 PCOD9407479
Probable space group: P M M A
;
_chemical_formula_sum "Si O2"
_cell_formula_units_Z 64
_cell_length_a 9.000000
_cell_length_b 15.000000
_cell_length_c 30.000000
_cell_angle_alpha 90.000000
_cell_angle_beta 90.000000
_cell_angle_gamma 90.000000
_cell_volume 4050.000000
_symmetry_space_group_name_H-M "P M M A"
_symmetry_group_IT_number 51
_symmetry_cell_setting 'orthorhombic'
loop_
_space_group_symop_operation_xyz
x,y,z
1/2-x,-y,z
1/2+x,-y,-z
-x,y,-z
-x,-y,-z
1/2+x,y,-z
1/2-x,y,z
x,-y,z
loop_
_atom_site_type_symbol
_atom_site_label
_atom_site_fract_x
_atom_site_fract_y
_atom_site_fract_z
Si Si1 0.576109 0.895302 0.802934
Si Si2 0.073695 0.102144 0.635008
Si Si3 0.571346 0.597690 0.157136
Si Si4 0.074040 0.097955 0.048078
Si Si5 0.426778 0.784446 0.880171
Si Si6 0.919144 0.891453 0.544296
Si Si7 0.071413 0.598122 0.254588
Si Si8 0.424605 0.213125 0.289040
O O1 0.750000 0.889158 0.816893
O O2 0.475673 0.846002 0.838898
O O3 0.561123 0.841633 0.756918
O O4 0.540777 0.000000 0.797650
O O5 0.250000 0.101214 0.631810
O O6 0.005504 0.133596 0.588573
O O7 0.018604 0.163780 0.674195
O O8 0.022450 0.000000 0.643084
O O9 0.750000 0.601332 0.161749
O O10 0.531818 0.500000 0.138657
O O11 0.524983 0.683210 0.129177
O O12 0.500390 0.604835 0.205909
O O13 0.250000 0.106622 0.044034
O O14 0.005878 0.174661 0.077477
O O15 0.042972 0.000000 0.068926
O O16 0.000000 0.098706 0.000000
O O17 0.250000 0.787058 0.885362
O O18 0.750000 0.861669 0.545855
O O19 0.000000 0.859751 0.500000
O O20 0.919291 0.000000 0.542875
O O21 0.250000 0.602639 0.249537
O O22 0.033687 0.500000 0.273073
O O23 0.026856 0.684930 0.281990
O O24 0.250000 0.211814 0.301216
#
# Coordination Sequence:
#
# PCOD9407479 Si02
#       8
#     8   8   8   8   8   8   8   8
#     4  10  20  32  45  64  93 128 162 194 229 272
#     4  10  20  31  43  62  90 125 164 201 236 278
#     4   9  18  32  49  70  96 124 154 191 235 278
#     4  10  21  37  56  76  99 126 155 189 230 275
#     4  11  21  32  50  74  98 124 157 194 231 274
#     4   9  16  27  44  64  87 117 155 198 241 282
#     4   9  17  30  49  70  90 116 154 199 241 280
#     4  10  19  31  46  64  91 125 159 194 235 283
#
# _framework density 15.802469
#
# number of rings (size 3 to 8) (size 9 to 14) (size 15 to 20)
#    0.000    2.250    1.250    2.250    0.000    6.750 
#    0.000    0.000    0.000    0.375    0.000    0.000 
#    0.000    0.500    0.000    1.375    0.000    2.000 
#
# Total GULP energy -356744.020698 kJ/mol
# GULP energy per Si atom -5574.125323 kJ/mol
# Density = 1.576650 g / cm^3
# Si number density = 15.802469 Si / 1000 Ang^3
#
#
#
# Elastic Constant Matrix: (Units=GPa)
#
#
# Indices 1 2 3 4 5 6 
#
# 1 37.9941 46.0183 40.1753 0.0000 0.0000 0.0000
# 2 46.0183 115.1285 45.3537 0.0000 0.0000 0.0000
# 3 40.1753 45.3537 54.2764 0.0000 0.0000 0.0000
# 4 0.0000 0.0000 0.0000 -52.5597 0.0000 0.0000
# 5 0.0000 0.0000 0.0000 0.0000 28.0067 0.0000
# 6 0.0000 0.0000 0.0000 0.0000 0.0000 18.4382
#
#
#
# Elastic Compliance Matrix: (Units=1/GPa)
#
#
# Indices 1 2 3 4 5 6 
#
# 1 0.159994 -0.025787 -0.096880 0.000000 0.000000 0.000000
# 2 -0.025787 0.017104 0.004795 0.000000 0.000000 0.000000
# 3 -0.096880 0.004795 0.086128 0.000000 0.000000 0.000000
# 4 0.000000 0.000000 0.000000 -0.019026 0.000000 0.000000
# 5 0.000000 0.000000 0.000000 0.000000 0.035706 0.000000
# 6 0.000000 0.000000 0.000000 0.000000 0.000000 0.054235
#
#
# Mechanical properties :
#
#
# Convention : Reuss Voigt Hill
#
# Bulk Modulus (GPa) = 36.38626 52.27706 44.33166
# Shear Modulus (GPa) = 8.63490 3.83381 6.23435
#
# Velocity S-wave (km/s) = 2.34011 1.55928 1.98840
# Velocity P-wave (km/s) = 5.51155 6.03284 5.77808
#
# Compressibility (1/GPa) = 0.02748290
#
# Stress axis : x y z
#
# Youngs Moduli (GPa) = 6.25023 58.46443 11.61066
#
# Poissons Ratio (x) = 1.50762 1.12484
# Poissons Ratio (y) = 0.16117 -0.05567
# Poissons Ratio (z) = 0.60552 -0.28033
#
# Static dielectric constant tensor:
#      x y z
#    x 1.527560 0.000000 0.000000 
#    y 0.000000 1.542160 0.000000 
#    z 0.000000 0.000000 1.484660 
# 
# From -- ./inp_files/37570.got.cif
#   From: 2010.05.17/outbox.ucp.g08.bks.cvg/sg51_19_cif.got.tgz:37570.got - 2010.06.11 16:27:58.
