data_PCOD9407703
_publ_section_title
;
Structure prediction by ZEFSAII (Michael W. Deem and Ramdas Pophale) SiO2 
 PCOD9407703
Probable space group: P M M A
;
_chemical_formula_sum "Si O2"
_cell_formula_units_Z 64
_cell_length_a 18.000000
_cell_length_b 15.000000
_cell_length_c 12.000000
_cell_angle_alpha 90.000000
_cell_angle_beta 90.000000
_cell_angle_gamma 90.000000
_cell_volume 3240.000000
_symmetry_space_group_name_H-M "P M M A"
_symmetry_group_IT_number 51
_symmetry_cell_setting 'orthorhombic'
loop_
_space_group_symop_operation_xyz
x,y,z
1/2-x,-y,z
1/2+x,-y,-z
-x,y,-z
-x,-y,-z
1/2+x,y,-z
1/2-x,y,z
x,-y,z
loop_
_atom_site_type_symbol
_atom_site_label
_atom_site_fract_x
_atom_site_fract_y
_atom_site_fract_z
Si Si1 0.834697 0.715882 0.848741
Si Si2 0.337227 0.285501 0.514210
Si Si3 0.923946 0.606457 0.677719
Si Si4 0.900154 0.605296 0.287796
Si Si5 0.547452 0.103501 0.112952
Si Si6 0.399122 0.099925 0.238486
Si Si7 0.589159 0.100393 0.499986
Si Si8 0.163104 0.261075 0.888515
O O1 0.750000 0.697562 0.813035
O O2 0.889390 0.645047 0.791710
O O3 0.856358 0.816702 0.813079
O O4 0.838704 0.713914 0.981504
O O5 0.250000 0.277146 0.486007
O O6 0.384881 0.330597 0.414593
O O7 0.349753 0.353201 0.615407
O O8 0.370523 0.188194 0.547113
O O9 0.909068 0.500000 0.661506
O O10 0.013000 0.618359 0.679702
O O11 0.888117 0.500000 0.273786
O O12 0.877841 0.661778 0.180088
O O13 0.486481 0.112815 0.210827
O O14 0.615391 0.170671 0.125567
O O15 0.570888 0.000000 0.107503
O O16 0.500000 0.122885 0.000000
O O17 0.387324 0.099780 0.370258
O O18 0.379655 0.000000 0.194987
O O19 0.500000 0.111902 0.500000
O O20 0.604968 0.000000 0.453684
O O21 0.250000 0.251394 0.855308
#
# Coordination Sequence:
#
# PCOD9407703 Si02
#       8
#     8   8   8   8   8   8   8   8
#     4  11  23  39  59  92 133 165 201 260 326 383
#     4  12  25  41  66  98 132 165 202 259 323 382
#     4  11  24  42  67  95 120 157 209 266 322 377
#     4  11  26  47  69  91 121 168 223 267 313 383
#     4  10  20  36  61  91 124 165 212 258 306 369
#     4  10  20  36  60  90 124 168 213 256 310 375
#     4  10  22  39  62  94 130 170 211 252 306 375
#     4  11  25  41  63  93 129 173 214 263 325 378
#
# _framework density 19.753086
#
# number of rings (size 3 to 8) (size 9 to 14) (size 15 to 20)
#    0.000    1.250    2.500    3.000    1.750    4.750 
#    0.000    5.000    0.000    1.500    0.000    0.000 
#    0.000    0.000    0.000    0.000    0.000    0.000 
#
# Total GULP energy -357704.765928 kJ/mol
# GULP energy per Si atom -5589.136968 kJ/mol
# Density = 1.970813 g / cm^3
# Si number density = 19.753086 Si / 1000 Ang^3
#
#
#
# Elastic Constant Matrix: (Units=GPa)
#
#
# Indices 1 2 3 4 5 6 
#
# 1 86.5421 62.4063 7.7196 0.0000 0.0000 0.0000
# 2 62.4063 146.5961 18.8449 0.0000 0.0000 0.0000
# 3 7.7196 18.8449 38.9100 0.0000 0.0000 0.0000
# 4 0.0000 0.0000 0.0000 28.3245 0.0000 0.0000
# 5 0.0000 0.0000 0.0000 0.0000 27.0463 0.0000
# 6 0.0000 0.0000 0.0000 0.0000 0.0000 17.3548
#
#
#
# Elastic Compliance Matrix: (Units=1/GPa)
#
#
# Indices 1 2 3 4 5 6 
#
# 1 0.016674 -0.007116 0.000138 0.000000 0.000000 0.000000
# 2 -0.007116 0.010311 -0.003582 0.000000 0.000000 0.000000
# 3 0.000138 -0.003582 0.027408 0.000000 0.000000 0.000000
# 4 0.000000 0.000000 0.000000 0.035305 0.000000 0.000000
# 5 0.000000 0.000000 0.000000 0.000000 0.036974 0.000000
# 6 0.000000 0.000000 0.000000 0.000000 0.000000 0.057621
#
#
# Mechanical properties :
#
#
# Convention : Reuss Voigt Hill
#
# Bulk Modulus (GPa) = 30.05391 49.99886 40.02638
# Shear Modulus (GPa) = 23.09428 26.75027 24.92227
#
# Velocity S-wave (km/s) = 3.42299 3.68398 3.55588
# Velocity P-wave (km/s) = 5.55610 6.59261 6.09643
#
# Compressibility (1/GPa) = 0.03327354
#
# Stress axis : x y z
#
# Youngs Moduli (GPa) = 59.97310 96.98148 36.48596
#
# Poissons Ratio (x) = 0.69012 -0.00505
# Poissons Ratio (y) = 0.42677 0.13070
# Poissons Ratio (z) = -0.00830 0.34740
#
# Static dielectric constant tensor:
#      x y z
#    x 1.673860 0.000000 0.000000 
#    y 0.000000 1.678630 0.000000 
#    z 0.000000 0.000000 1.746000 
# 
# From -- ./inp_files/17594.got.cif
#   From: 2010.05.17/outbox.ucp.g08.bks.cvg/sg51_9_cif.got.tgz:17594.got - 2010.06.11 16:27:58.
