data_PCOD9407844
_publ_section_title
;
Structure prediction by ZEFSAII (Michael W. Deem and Ramdas Pophale) SiO2 
 PCOD9407844
Probable space group: P M M A
;
_chemical_formula_sum "Si O2"
_cell_formula_units_Z 56
_cell_length_a 21.000000
_cell_length_b 15.000000
_cell_length_c 9.000000
_cell_angle_alpha 90.000000
_cell_angle_beta 90.000000
_cell_angle_gamma 90.000000
_cell_volume 2835.000000
_symmetry_space_group_name_H-M "P M M A"
_symmetry_group_IT_number 51
_symmetry_cell_setting 'orthorhombic'
loop_
_space_group_symop_operation_xyz
x,y,z
1/2-x,-y,z
1/2+x,-y,-z
-x,y,-z
-x,-y,-z
1/2+x,y,-z
1/2-x,y,z
x,-y,z
loop_
_atom_site_type_symbol
_atom_site_label
_atom_site_fract_x
_atom_site_fract_y
_atom_site_fract_z
Si Si1 0.555805 0.896679 0.377913
Si Si2 0.959863 0.262773 0.149025
Si Si3 0.963132 0.598241 0.655805
Si Si4 0.826775 0.906204 0.907836
Si Si5 0.674811 0.714327 0.030894
Si Si6 0.823710 0.143348 0.577685
Si Si7 0.678837 0.654083 0.688488
O O1 0.500000 0.879373 0.500000
O O2 0.549012 0.826166 0.246044
O O3 0.624749 0.881853 0.455226
O O4 0.550107 0.000000 0.332220
O O5 0.006499 0.327807 0.239872
O O6 0.889786 0.309248 0.121458
O O7 0.000000 0.243189 0.000000
O O8 0.975520 0.500000 0.718611
O O9 0.886699 0.608243 0.639765
O O10 0.000000 0.605471 0.500000
O O11 0.750000 0.907954 0.901314
O O12 0.840170 0.818525 0.999854
O O13 0.846193 0.896452 0.736110
O O14 0.850355 0.000000 0.969900
O O15 0.750000 0.705857 0.085242
O O16 0.674596 0.669175 0.867401
O O17 0.750000 0.115928 0.546888
O O18 0.822298 0.249122 0.609790
O O19 0.750000 0.615429 0.658975
#
# Coordination Sequence:
#
# PCOD9407844 Si02
#       7
#     8   8   8   8   8   8   8
#     4  11  25  40  56  83 123 168 213 259 309 365
#     4  12  24  41  63  87 122 163 203 255 314 376
#     4  11  24  43  68  96 124 159 203 252 312 384
#     4   8  14  26  49  80 111 148 197 250 298 349
#     4   9  19  35  56  85 119 156 201 248 302 364
#     4   9  17  32  57  84 114 156 204 253 304 357
#     4   9  17  35  62  92 123 159 203 251 302 363
#
# _framework density 19.753086
#
# number of rings (size 3 to 8) (size 9 to 14) (size 15 to 20)
#    0.000    2.143    1.429    4.286    2.000    2.857 
#    0.000    0.714    0.000    1.286    0.000    0.000 
#    0.000    0.000    0.000    0.000    0.000    0.000 
#
# Total GULP energy -312247.313889 kJ/mol
# GULP energy per Si atom -5575.844891 kJ/mol
# Density = 1.970813 g / cm^3
# Si number density = 19.753086 Si / 1000 Ang^3
#
#
#
# Elastic Constant Matrix: (Units=GPa)
#
#
# Indices 1 2 3 4 5 6 
#
# 1 152.8443 25.3119 40.0608 0.0000 0.0000 0.0000
# 2 25.3119 61.1120 26.7333 0.0000 0.0000 0.0000
# 3 40.0608 26.7333 44.7968 0.0000 0.0000 0.0000
# 4 0.0000 0.0000 0.0000 -6.1456 0.0000 0.0000
# 5 0.0000 0.0000 0.0000 0.0000 32.7856 0.0000
# 6 0.0000 0.0000 0.0000 0.0000 0.0000 -144.9047
#
#
#
# Elastic Compliance Matrix: (Units=1/GPa)
#
#
# Indices 1 2 3 4 5 6 
#
# 1 0.008549 -0.000266 -0.007486 0.000000 0.000000 0.000000
# 2 -0.000266 0.022153 -0.012982 0.000000 0.000000 0.000000
# 3 -0.007486 -0.012982 0.036765 0.000000 0.000000 0.000000
# 4 0.000000 0.000000 0.000000 -0.162719 0.000000 0.000000
# 5 0.000000 0.000000 0.000000 0.000000 0.030501 0.000000
# 6 0.000000 0.000000 0.000000 0.000000 0.000000 -0.006901
#
#
# Mechanical properties :
#
#
# Convention : Reuss Voigt Hill
#
# Bulk Modulus (GPa) = 38.46478 49.21836 43.84157
# Shear Modulus (GPa) = -232.37228 -12.54314 -122.45771
#
# Velocity S-wave (km/s) = -10.85789 -2.52265 -7.88218
# Velocity P-wave (km/s) = 11.73357 4.06028 7.78431
#
# Compressibility (1/GPa) = 0.02599781
#
# Stress axis : x y z
#
# Youngs Moduli (GPa) = 116.97502 45.14157 27.19962
#
# Poissons Ratio (x) = 0.01201 0.20363
# Poissons Ratio (y) = 0.03111 0.35311
# Poissons Ratio (z) = 0.87571 0.58603
#
# Static dielectric constant tensor:
#      x y z
#    x 1.710980 0.000000 0.000000 
#    y 0.000000 1.728740 0.000000 
#    z 0.000000 0.000000 1.689830 
# 
# From -- ./inp_files/10992.got.cif
#   From: 2010.05.17/outbox.ucp.g08.bks.cvg/sg51_6_cif.got.tgz:10992.got - 2010.06.11 16:27:58.
