data_PCOD9407555
_publ_section_title
;
Structure prediction by ZEFSAII (Michael W. Deem and Ramdas Pophale) SiO2 
 PCOD9407555
Probable space group: P M M A
;
_chemical_formula_sum "Si O2"
_cell_formula_units_Z 48
_cell_length_a 30.000000
_cell_length_b 9.000000
_cell_length_c 9.000000
_cell_angle_alpha 90.000000
_cell_angle_beta 90.000000
_cell_angle_gamma 90.000000
_cell_volume 2430.000000
_symmetry_space_group_name_H-M "P M M A"
_symmetry_group_IT_number 51
_symmetry_cell_setting 'orthorhombic'
loop_
_space_group_symop_operation_xyz
x,y,z
1/2-x,-y,z
1/2+x,-y,-z
-x,y,-z
-x,-y,-z
1/2+x,y,-z
1/2-x,y,z
x,-y,z
loop_
_atom_site_type_symbol
_atom_site_label
_atom_site_fract_x
_atom_site_fract_y
_atom_site_fract_z
Si Si1 0.506250 0.662678 0.826105
Si Si2 0.339543 0.181191 0.152847
Si Si3 0.750000 0.818464 0.344274
Si Si4 0.083431 0.332496 0.642738
Si Si5 0.750000 0.181573 0.685937
Si Si6 0.339539 0.821333 0.816258
Si Si7 0.075826 0.172611 0.342269
O O1 0.526771 0.500000 0.788758
O O2 0.458551 0.667706 0.750346
O O3 0.535821 0.796367 0.768812
O O4 0.500000 0.670446 0.000000
O O5 0.293536 0.229791 0.225659
O O6 0.379700 0.223874 0.259236
O O7 0.339320 0.000000 0.148543
O O8 0.345197 0.233695 0.984501
O O9 0.750000 0.769899 0.515134
O O10 0.706536 0.770181 0.255749
O O11 0.750000 0.000000 0.346225
O O12 0.100216 0.500000 0.626781
O O13 0.121182 0.230636 0.711525
O O14 0.067952 0.268352 0.487027
O O15 0.750000 0.000000 0.684508
O O16 0.338695 0.000000 0.821015
O O17 0.079981 0.000000 0.380934
#
# Coordination Sequence:
#
# PCOD9407555 Si02
#       7
#     8   8   4   8   4   8   8
#     4  10  22  40  59  79 107 144 183 223 273 333
#     4   9  18  31  51  80 111 141 175 219 267 316
#     4   9  17  29  52  83 112 143 178 220 268 319
#     4  11  23  38  56  79 108 143 181 222 271 326
#     4   9  15  27  47  75 112 145 172 208 262 321
#     4  10  19  34  56  82 110 141 180 223 268 317
#     4  11  22  36  56  83 112 142 181 229 275 321
#
# _framework density 19.753086
#
# number of rings (size 3 to 8) (size 9 to 14) (size 15 to 20)
#    0.000    2.000    0.000    4.000    0.000    8.333 
#    0.000    1.250    0.000    0.000    0.000    4.083 
#    0.000    0.000    0.000    0.000    0.000    0.000 
#
# Total GULP energy -267807.864156 kJ/mol
# GULP energy per Si atom -5579.330503 kJ/mol
# Density = 1.970813 g / cm^3
# Si number density = 19.753086 Si / 1000 Ang^3
#
#
#
# Elastic Constant Matrix: (Units=GPa)
#
#
# Indices 1 2 3 4 5 6 
#
# 1 58.3797 13.4186 10.5534 0.0000 0.0000 0.0000
# 2 13.4186 -2.2814 21.5182 0.0000 0.0000 0.0000
# 3 10.5534 21.5182 83.9932 0.0000 0.0000 0.0000
# 4 0.0000 0.0000 0.0000 -31.7983 0.0000 0.0000
# 5 0.0000 0.0000 0.0000 0.0000 29.6890 0.0000
# 6 0.0000 0.0000 0.0000 0.0000 0.0000 -51.3147
#
#
#
# Elastic Compliance Matrix: (Units=1/GPa)
#
#
# Indices 1 2 3 4 5 6 
#
# 1 0.013931 0.019151 -0.006657 0.000000 0.000000 0.000000
# 2 0.019151 -0.101973 0.023718 0.000000 0.000000 0.000000
# 3 -0.006657 0.023718 0.006666 0.000000 0.000000 0.000000
# 4 0.000000 0.000000 0.000000 -0.031448 0.000000 0.000000
# 5 0.000000 0.000000 0.000000 0.000000 0.033682 0.000000
# 6 0.000000 0.000000 0.000000 0.000000 0.000000 -0.019488
#
#
# Mechanical properties :
#
#
# Convention : Reuss Voigt Hill
#
# Bulk Modulus (GPa) = -111.71370 25.67466 -43.01952
# Shear Modulus (GPa) = -28.72912 -4.37804 -16.55358
#
# Velocity S-wave (km/s) = -3.81781 -1.49037 -2.89801
# Velocity P-wave (km/s) = 8.72422 3.17245 5.74664
#
# Compressibility (1/GPa) = -0.00895145
#
# Stress axis : x y z
#
# Youngs Moduli (GPa) = 71.78394 -9.80649 150.02133
#
# Poissons Ratio (x) = 0.18780 0.99864
# Poissons Ratio (y) = -1.37474 -3.55825
# Poissons Ratio (z) = 0.47784 0.23259
#
# Static dielectric constant tensor:
#      x y z
#    x 1.661800 0.000000 0.000000 
#    y 0.000000 1.708520 0.000000 
#    z 0.000000 0.000000 1.680540 
# 
# From -- ./inp_files/12928.got.cif
#   From: 2010.05.17/outbox.ucp.g08.bks.cvg/sg51_7_cif.got.tgz:12928.got - 2010.06.11 16:27:58.
