data_PCOD9407264
_publ_section_title
;
Structure prediction by ZEFSAII (Michael W. Deem and Ramdas Pophale) SiO2 
 PCOD9407264
Probable space group: P M M A
;
_chemical_formula_sum "Si O2"
_cell_formula_units_Z 40
_cell_length_a 14.677862
_cell_length_b 14.357532
_cell_length_c 7.112453
_cell_angle_alpha 90.000000
_cell_angle_beta 90.000000
_cell_angle_gamma 90.000000
_cell_volume 1498.863220
_symmetry_space_group_name_H-M "P M M A"
_symmetry_group_IT_number 51
_symmetry_cell_setting 'orthorhombic'
loop_
_space_group_symop_operation_xyz
x,y,z
1/2-x,-y,z
1/2+x,-y,-z
-x,y,-z
-x,-y,-z
1/2+x,y,-z
1/2-x,y,z
x,-y,z
loop_
_atom_site_type_symbol
_atom_site_label
_atom_site_fract_x
_atom_site_fract_y
_atom_site_fract_z
Si Si1 0.640550 0.000000 0.476259
Si Si2 0.609684 0.398640 0.956919
Si Si3 0.391706 0.599262 0.488273
Si Si4 0.104059 0.199168 0.062987
Si Si5 0.142603 0.802176 0.499672
Si Si6 0.104580 0.000000 0.074019
O O1 0.606603 0.101792 0.406965
O O2 0.615751 0.000000 0.698961
O O3 0.750000 0.000000 0.451285
O O4 0.641533 0.500000 0.027099
O O5 0.629645 0.399570 0.733352
O O6 0.644796 0.296081 0.011081
O O7 0.500000 0.397631 0.000000
O O8 0.500000 0.595573 0.500000
O O9 0.356415 0.500000 0.562367
O O10 0.368357 0.698305 0.579156
O O11 0.102040 0.203325 0.289981
O O12 0.145902 0.099017 0.012280
O O13 0.000000 0.197701 0.000000
O O14 0.250000 0.815002 0.474180
O O15 0.000000 0.000000 0.000000
#
# Coordination Sequence:
#
# PCOD9407264 Si02
#       6
#     4   8   8   8   8   4
#     4   8  14  24  37  55  82 111 137 174 226 270
#     4   8  13  22  37  56  76 101 133 164 195 238
#     4   9  17  28  41  60  86 113 140 174 217 259
#     4   8  13  21  34  54  79 106 135 170 210 252
#     4   9  16  26  41  61  84 111 145 184 223 264
#     4   8  12  18  30  49  74 103 134 166 204 248
#
# _framework density 26.686889999999998
#
# number of rings (size 3 to 8) (size 9 to 14) (size 15 to 20)
#    0.000    3.600    0.000    0.000    0.000    0.400 
#    0.000    0.500    0.000    0.000    0.000   22.400 
#    0.000   54.400    0.000  143.000    0.000    6.800 
#
# Total GULP energy -222960.316898 kJ/mol
# GULP energy per Si atom -5574.007922 kJ/mol
# Density = 2.662615 g / cm^3
# Si number density = 26.686890 Si / 1000 Ang^3
#
#
#
# Elastic Constant Matrix: (Units=GPa)
#
#
# Indices 1 2 3 4 5 6 
#
# 1 86.0571 13.7635 -17.0966 0.0000 0.0000 0.0000
# 2 13.7635 433.0155 15.7672 0.0000 0.0000 0.0000
# 3 -17.0966 15.7672 130.2714 0.0000 0.0000 0.0000
# 4 0.0000 0.0000 0.0000 -13.9217 0.0000 0.0000
# 5 0.0000 0.0000 0.0000 0.0000 717.6274 0.0000
# 6 0.0000 0.0000 0.0000 0.0000 0.0000 15.5555
#
#
#
# Elastic Compliance Matrix: (Units=1/GPa)
#
#
# Indices 1 2 3 4 5 6 
#
# 1 0.012015 -0.000441 0.001630 0.000000 0.000000 0.000000
# 2 -0.000441 0.002336 -0.000341 0.000000 0.000000 0.000000
# 3 0.001630 -0.000341 0.007931 0.000000 0.000000 0.000000
# 4 0.000000 0.000000 0.000000 -0.071830 0.000000 0.000000
# 5 0.000000 0.000000 0.000000 0.000000 0.001393 0.000000
# 6 0.000000 0.000000 0.000000 0.000000 0.000000 0.064286
#
#
# Mechanical properties :
#
#
# Convention : Reuss Voigt Hill
#
# Bulk Modulus (GPa) = 41.70398 74.91247 58.30823
# Shear Modulus (GPa) = 222.94451 186.31290 204.62870
#
# Velocity S-wave (km/s) = 9.14998 8.36457 8.76608
# Velocity P-wave (km/s) = 11.28232 11.01906 11.15147
#
# Compressibility (1/GPa) = 0.02397853
#
# Stress axis : x y z
#
# Youngs Moduli (GPa) = 83.23188 428.11621 126.08037
#
# Poissons Ratio (x) = 0.18891 -0.20553
# Poissons Ratio (y) = 0.03673 0.04295
# Poissons Ratio (z) = -0.13568 0.14583
#
# Static dielectric constant tensor:
#      x y z
#    x 2.011540 0.000000 0.000000 
#    y 0.000000 2.237390 0.000000 
#    z 0.000000 0.000000 2.003420 
# 
# From -- ./inp_files/8038.got.cif
#   From: 2010.05.17/outbox.cif.g08.bks.cpg/sg51_5_cif.got.tgz:8038.got - 2010.06.03 11:52:47.
