data_PCOD9407895
_publ_section_title
;
Structure prediction by ZEFSAII (Michael W. Deem and Ramdas Pophale) SiO2 
 PCOD9407895
Probable space group: P N N A
;
_chemical_formula_sum "Si O2"
_cell_formula_units_Z 44
_cell_length_a 11.698190
_cell_length_b 20.007983
_cell_length_c 6.823381
_cell_angle_alpha 90.000000
_cell_angle_beta 90.000000
_cell_angle_gamma 90.000000
_cell_volume 1597.061360
_symmetry_space_group_name_H-M "P N N A"
_symmetry_group_IT_number 52
_symmetry_cell_setting 'orthorhombic'
loop_
_space_group_symop_operation_xyz
x,y,z
1/2-x,-y,z
x,1/2-y,1/2-z
1/2-x,1/2+y,1/2-z
-x,-y,-z
1/2+x,y,-z
-x,1/2+y,1/2+z
1/2+x,1/2-y,1/2+z
loop_
_atom_site_type_symbol
_atom_site_label
_atom_site_fract_x
_atom_site_fract_y
_atom_site_fract_z
Si Si1 0.247602 0.814892 0.635513
Si Si2 0.071911 0.091048 0.667061
Si Si3 0.538838 0.750000 0.250000
Si Si4 0.107770 0.946160 0.773217
Si Si5 0.106083 0.127088 0.124232
Si Si6 0.827004 0.438440 0.720195
O O1 0.299268 0.750000 0.750000
O O2 0.358903 0.852408 0.547835
O O3 0.186116 0.882156 0.724631
O O4 0.128157 0.776735 0.582376
O O5 0.934700 0.084172 0.651508
O O6 0.121191 0.015897 0.661966
O O7 0.093033 0.112529 0.893530
O O8 0.457616 0.804515 0.159965
O O9 0.974495 0.925983 0.761702
O O10 0.130026 0.959170 0.003936
O O11 0.237974 0.121478 0.181996
O O12 0.750000 0.500000 0.790619
#
# Coordination Sequence:
#
# PCOD9407895 Si02
#       6
#     8   8   4   8   8   8
#     4   9  18  30  42  60  97 133 159 190 230 282
#     4  11  18  26  48  70  96 124 162 193 236 285
#     4   8  20  32  42  54  98 136 160 186 234 296
#     4  10  16  27  46  71  95 125 153 191 230 286
#     4  10  17  29  43  66  94 132 157 182 238 288
#     4  11  16  24  42  69  95 116 151 189 230 280
#
# _framework density 27.550599999999999
#
# number of rings (size 3 to 8) (size 9 to 14) (size 15 to 20)
#    0.545    1.455    5.455    1.636    0.000    0.000 
#    1.636    0.000    0.000    0.000    0.000    0.000 
#    0.000   16.000    0.000    0.182    0.000    0.000 
#
# Total GULP energy -245776.271026 kJ/mol
# GULP energy per Si atom -5585.824342 kJ/mol
# Density = 2.748789 g / cm^3
# Si number density = 27.550600 Si / 1000 Ang^3
#
#
#
# Elastic Constant Matrix: (Units=GPa)
#
#
# Indices 1 2 3 4 5 6 
#
# 1 237.1467 87.3546 40.3153 0.0000 0.0000 0.0000
# 2 87.3546 198.8944 31.3412 0.0000 0.0000 0.0000
# 3 40.3153 31.3412 77.2550 0.0000 0.0000 0.0000
# 4 0.0000 0.0000 0.0000 22.5959 0.0000 0.0000
# 5 0.0000 0.0000 0.0000 0.0000 28.3225 0.0000
# 6 0.0000 0.0000 0.0000 0.0000 0.0000 79.8277
#
#
#
# Elastic Compliance Matrix: (Units=1/GPa)
#
#
# Indices 1 2 3 4 5 6 
#
# 1 0.005290 -0.002017 -0.001942 0.000000 0.000000 0.000000
# 2 -0.002017 0.006140 -0.001438 0.000000 0.000000 0.000000
# 3 -0.001942 -0.001438 0.014541 0.000000 0.000000 0.000000
# 4 0.000000 0.000000 0.000000 0.044256 0.000000 0.000000
# 5 0.000000 0.000000 0.000000 0.000000 0.035308 0.000000
# 6 0.000000 0.000000 0.000000 0.000000 0.000000 0.012527
#
#
# Mechanical properties :
#
#
# Convention : Reuss Voigt Hill
#
# Bulk Modulus (GPa) = 65.89378 92.36869 79.13124
# Shear Modulus (GPa) = 37.33670 49.76823 43.55246
#
# Velocity S-wave (km/s) = 3.68530 4.25482 3.98026
# Velocity P-wave (km/s) = 6.48675 7.59853 7.06455
#
# Compressibility (1/GPa) = 0.01517594
#
# Stress axis : x y z
#
# Youngs Moduli (GPa) = 189.03286 162.85389 68.77013
#
# Poissons Ratio (x) = 0.32854 0.13357
# Poissons Ratio (y) = 0.38135 0.09892
# Poissons Ratio (z) = 0.36714 0.23424
#
# Static dielectric constant tensor:
#      x y z
#    x 2.195240 0.000000 0.000000 
#    y 0.000000 2.145350 0.000000 
#    z 0.000000 0.000000 2.221470 
# 
# From -- ./inp_files/18142.got.cif
#   From: 2010.05.17/outbox.cif.g08.bks.cpg/sg52_10_cif.got.tgz:18142.got - 2010.06.03 12:15:38.
