data_PCOD9407349
_publ_section_title
;
Structure prediction by ZEFSAII (Michael W. Deem and Ramdas Pophale) SiO2 
 PCOD9407349
Probable space group: P M M A
;
_chemical_formula_sum "Si O2"
_cell_formula_units_Z 56
_cell_length_a 14.790328
_cell_length_b 9.567847
_cell_length_c 18.938715
_cell_angle_alpha 90.000000
_cell_angle_beta 90.000000
_cell_angle_gamma 90.000000
_cell_volume 2680.047774
_symmetry_space_group_name_H-M "P M M A"
_symmetry_group_IT_number 51
_symmetry_cell_setting 'orthorhombic'
loop_
_space_group_symop_operation_xyz
x,y,z
1/2-x,-y,z
1/2+x,-y,-z
-x,y,-z
-x,-y,-z
1/2+x,y,-z
1/2-x,y,z
x,-y,z
loop_
_atom_site_type_symbol
_atom_site_label
_atom_site_fract_x
_atom_site_fract_y
_atom_site_fract_z
Si Si1 0.885482 0.338291 0.064883
Si Si2 0.139754 0.162285 0.381890
Si Si3 0.145072 0.341601 0.781223
Si Si4 0.860742 0.159646 0.347825
Si Si5 0.139504 0.339318 0.515880
Si Si6 0.359011 0.840978 0.223916
Si Si7 0.899331 0.660977 0.913103
O O1 0.854304 0.500000 0.064090
O O2 0.855405 0.278917 0.139881
O O3 0.993501 0.340961 0.073152
O O4 0.860630 0.280319 0.987685
O O5 0.250000 0.164626 0.383224
O O6 0.108874 0.263464 0.444213
O O7 0.111783 0.204709 0.302564
O O8 0.114128 0.000000 0.393909
O O9 0.250000 0.358385 0.762093
O O10 0.104921 0.500000 0.782062
O O11 0.106519 0.239277 0.722390
O O12 0.750000 0.154959 0.346940
O O13 0.887089 0.248206 0.416368
O O14 0.892185 0.000000 0.350814
O O15 0.250000 0.340355 0.515139
O O16 0.110209 0.500000 0.520795
O O17 0.250000 0.845108 0.226068
O O18 0.383324 0.745643 0.157788
O O19 0.391523 0.000000 0.212868
O O20 0.869052 0.500000 0.904710
#
# Coordination Sequence:
#
# PCOD9407349 Si02
#       7
#     8   8   8   8   8   8   8
#     4   8  16  31  48  67  91 117 147 187 230 267
#     4   8  14  25  39  55  81 117 148 175 215 262
#     4   9  16  27  44  64  87 116 149 184 223 266
#     4   9  16  25  37  56  85 117 146 178 218 262
#     4   9  15  22  35  57  84 113 146 181 214 253
#     4   9  18  31  45  65  95 124 149 184 229 269
#     4   9  17  31  50  68  88 117 153 188 222 268
#
# _framework density 20.895149
#
# number of rings (size 3 to 8) (size 9 to 14) (size 15 to 20)
#    0.000    3.286    0.000    2.571    0.000    4.857 
#    0.000    5.714    0.000    1.714    0.000    1.000 
#    0.000    8.000    0.000    0.000    0.000    0.000 
#
# Total GULP energy -312117.161405 kJ/mol
# GULP energy per Si atom -5573.520739 kJ/mol
# Density = 2.084759 g / cm^3
# Si number density = 20.895149 Si / 1000 Ang^3
#
#
#
# Elastic Constant Matrix: (Units=GPa)
#
#
# Indices 1 2 3 4 5 6 
#
# 1 38.6374 0.1859 -6.2259 0.0000 0.0000 0.0000
# 2 0.1859 122.9329 125.1623 0.0000 0.0000 0.0000
# 3 -6.2259 125.1623 238.9501 0.0000 0.0000 0.0000
# 4 0.0000 0.0000 0.0000 42.5074 0.0000 0.0000
# 5 0.0000 0.0000 0.0000 0.0000 36.5278 0.0000
# 6 0.0000 0.0000 0.0000 0.0000 0.0000 2.9910
#
#
#
# Elastic Compliance Matrix: (Units=1/GPa)
#
#
# Indices 1 2 3 4 5 6 
#
# 1 0.026131 -0.001570 0.001503 0.000000 0.000000 0.000000
# 2 -0.001570 0.017524 -0.009220 0.000000 0.000000 0.000000
# 3 0.001503 -0.009220 0.009054 0.000000 0.000000 0.000000
# 4 0.000000 0.000000 0.000000 0.023525 0.000000 0.000000
# 5 0.000000 0.000000 0.000000 0.000000 0.027376 0.000000
# 6 0.000000 0.000000 0.000000 0.000000 0.000000 0.334339
#
#
# Mechanical properties :
#
#
# Convention : Reuss Voigt Hill
#
# Bulk Modulus (GPa) = 29.29498 70.97390 50.13444
# Shear Modulus (GPa) = 10.68600 35.16510 22.92555
#
# Velocity S-wave (km/s) = 2.26389 4.10680 3.31595
# Velocity P-wave (km/s) = 4.56991 7.51853 6.22143
#
# Compressibility (1/GPa) = 0.03413554
#
# Stress axis : x y z
#
# Youngs Moduli (GPa) = 38.26805 57.06393 110.45275
#
# Poissons Ratio (x) = 0.08959 -0.16604
# Poissons Ratio (y) = 0.06008 1.01839
# Poissons Ratio (z) = -0.05753 0.52614
#
# Static dielectric constant tensor:
#      x y z
#    x 1.805370 0.000000 0.000000 
#    y 0.000000 1.720580 0.000000 
#    z 0.000000 0.000000 1.766060 
# 
# From -- ./inp_files/30419.got.cif
#   From: 2010.05.17/outbox.cif.g08.bks.cpg/sg51_16_cif.got.tgz:30419.got - 2010.06.03 11:52:47.
