data_PCOD9407942
_publ_section_title
;
Structure prediction by ZEFSAII (Michael W. Deem and Ramdas Pophale) SiO2 
 PCOD9407942
Probable space group: P N N A
;
_chemical_formula_sum "Si O2"
_cell_formula_units_Z 40
_cell_length_a 21.794596
_cell_length_b 5.276027
_cell_length_c 14.662527
_cell_angle_alpha 90.000000
_cell_angle_beta 90.000000
_cell_angle_gamma 90.000000
_cell_volume 1686.027513
_symmetry_space_group_name_H-M "P N N A"
_symmetry_group_IT_number 52
_symmetry_cell_setting 'orthorhombic'
loop_
_space_group_symop_operation_xyz
x,y,z
1/2-x,-y,z
x,1/2-y,1/2-z
1/2-x,1/2+y,1/2-z
-x,-y,-z
1/2+x,y,-z
-x,1/2+y,1/2+z
1/2+x,1/2-y,1/2+z
loop_
_atom_site_type_symbol
_atom_site_label
_atom_site_fract_x
_atom_site_fract_y
_atom_site_fract_z
Si Si1 0.750000 0.000000 0.304984
Si Si2 0.395730 0.250000 0.250000
Si Si3 0.665126 0.364222 0.850893
Si Si4 0.580787 0.788109 0.040256
Si Si5 0.961118 0.914636 0.870214
Si Si6 0.661794 0.288357 0.041511
O O1 0.774772 0.250000 0.250000
O O2 0.702000 0.137232 0.371918
O O3 0.349332 0.342685 0.171277
O O4 0.443227 0.032661 0.225749
O O5 0.683015 0.250000 0.750000
O O6 0.598960 0.255537 0.881154
O O7 0.699554 0.299783 0.944473
O O8 0.613078 0.519403 0.038431
O O9 0.526733 0.796453 0.114763
O O10 0.629429 0.016014 0.054426
O O11 0.546458 0.860283 0.945218
#
# Coordination Sequence:
#
# PCOD9407942 Si02
#       6
#     4   4   8   8   8   8
#     4  12  28  54  74  92 120 164 232 298 350 376
#     4  10  16  32  50  86 134 168 200 234 306 380
#     4   9  19  34  60  94 133 170 202 241 316 404
#     4  10  21  36  62  92 124 169 217 249 315 384
#     4   9  19  31  53  89 135 172 202 250 296 384
#     4  11  23  44  69  90 122 170 214 278 333 379
#
# _framework density 23.724405999999998
#
# number of rings (size 3 to 8) (size 9 to 14) (size 15 to 20)
#    0.000    2.000    2.000    1.200    2.800    2.400 
#    5.400    0.000    2.200    0.000    0.000    0.000 
#    0.000    0.000    0.000    0.000    0.000    0.000 
#
# Total GULP energy -222768.538390 kJ/mol
# GULP energy per Si atom -5569.213460 kJ/mol
# Density = 2.367041 g / cm^3
# Si number density = 23.724406 Si / 1000 Ang^3
#
#
#
# Elastic Constant Matrix: (Units=GPa)
#
#
# Indices 1 2 3 4 5 6 
#
# 1 24.8348 2.3229 13.6229 0.0000 0.0000 0.0000
# 2 2.3229 90.6217 14.7640 0.0000 0.0000 0.0000
# 3 13.6229 14.7640 96.8042 0.0000 0.0000 0.0000
# 4 0.0000 0.0000 0.0000 22.0997 0.0000 0.0000
# 5 0.0000 0.0000 0.0000 0.0000 -19.4348 0.0000
# 6 0.0000 0.0000 0.0000 0.0000 0.0000 28.6367
#
#
#
# Elastic Compliance Matrix: (Units=1/GPa)
#
#
# Indices 1 2 3 4 5 6 
#
# 1 0.043636 -0.000121 -0.006122 0.000000 0.000000 0.000000
# 2 -0.000121 0.011316 -0.001709 0.000000 0.000000 0.000000
# 3 -0.006122 -0.001709 0.011452 0.000000 0.000000 0.000000
# 4 0.000000 0.000000 0.000000 0.045249 0.000000 0.000000
# 5 0.000000 0.000000 0.000000 0.000000 -0.051454 0.000000
# 6 0.000000 0.000000 0.000000 0.000000 0.000000 0.034920
#
#
# Mechanical properties :
#
#
# Convention : Reuss Voigt Hill
#
# Bulk Modulus (GPa) = 19.80198 30.40894 25.10546
# Shear Modulus (GPa) = 39.10596 18.36371 28.73484
#
# Velocity S-wave (km/s) = 4.06438 2.78518 3.48400
# Velocity P-wave (km/s) = 5.51275 4.81543 5.17585
#
# Compressibility (1/GPa) = 0.05050001
#
# Stress axis : x y z
#
# Youngs Moduli (GPa) = 22.91703 88.36739 87.31861
#
# Poissons Ratio (x) = 0.01070 0.53458
# Poissons Ratio (y) = 0.00278 0.14922
# Poissons Ratio (z) = 0.14030 0.15101
#
# Static dielectric constant tensor:
#      x y z
#    x 1.944530 0.000000 0.000000 
#    y 0.000000 1.354120 0.000000 
#    z 0.000000 0.000000 2.133560 
# 
# From -- ./inp_files/29060.got.cif
#   From: 2010.05.17/outbox.cif.g08.bks.cpg/sg52_15_cif.got.tgz:29060.got - 2010.06.03 12:15:38.
