data_PCOD9407248
_publ_section_title
;
Structure prediction by ZEFSAII (Michael W. Deem and Ramdas Pophale) SiO2 
 PCOD9407248
Probable space group: P M M A
;
_chemical_formula_sum "Si O2"
_cell_formula_units_Z 56
_cell_length_a 19.067932
_cell_length_b 7.569499
_cell_length_c 19.948395
_cell_angle_alpha 90.000000
_cell_angle_beta 90.000000
_cell_angle_gamma 90.000000
_cell_volume 2879.245452
_symmetry_space_group_name_H-M "P M M A"
_symmetry_group_IT_number 51
_symmetry_cell_setting 'orthorhombic'
loop_
_space_group_symop_operation_xyz
x,y,z
1/2-x,-y,z
1/2+x,-y,-z
-x,y,-z
-x,-y,-z
1/2+x,y,-z
1/2-x,y,z
x,-y,z
loop_
_atom_site_type_symbol
_atom_site_label
_atom_site_fract_x
_atom_site_fract_y
_atom_site_fract_z
Si Si1 0.664401 0.704063 0.440468
Si Si2 0.028920 0.215972 0.071426
Si Si3 0.828947 0.711571 0.295468
Si Si4 0.902268 0.787965 0.723199
Si Si5 0.541368 0.211799 0.207350
Si Si6 0.828638 0.215603 0.858956
Si Si7 0.329515 0.288594 0.415102
O O1 0.750000 0.703462 0.440882
O O2 0.640097 0.500000 0.440036
O O3 0.645177 0.782573 0.368116
O O4 0.644160 0.781954 0.512727
O O5 0.978996 0.272882 0.132896
O O6 0.108074 0.269891 0.091802
O O7 0.029165 0.000000 0.070257
O O8 0.000000 0.276276 0.000000
O O9 0.750000 0.777314 0.282471
O O10 0.824159 0.500000 0.303396
O O11 0.883353 0.744963 0.236758
O O12 0.850862 0.729066 0.783541
O O13 0.876255 0.742426 0.649636
O O14 0.979778 0.723503 0.742953
O O15 0.903065 0.000000 0.726722
O O16 0.536482 0.000000 0.205454
O O17 0.750000 0.274993 0.875391
O O18 0.828127 0.000000 0.859508
O O19 0.250000 0.222337 0.402866
O O20 0.324635 0.500000 0.423452
#
# Coordination Sequence:
#
# PCOD9407248 Si02
#       7
#     8   8   8   8   8   8   8
#     4   7  12  25  43  61  82 109 143 183 222 256
#     4   8  14  26  43  62  88 119 145 173 213 258
#     4   9  17  31  51  69  84 110 149 186 219 261
#     4   9  17  28  41  59  87 120 147 173 213 265
#     4   9  18  31  46  66  91 116 142 177 223 267
#     4   8  13  22  38  59  81 109 146 180 206 241
#     4   9  16  26  42  64  87 111 144 187 226 255
#
# _framework density 19.449539999999999
#
# number of rings (size 3 to 8) (size 9 to 14) (size 15 to 20)
#    0.000    3.571    0.000    3.857    0.000    1.714 
#    0.000    2.143    0.000    9.857    0.000    0.000 
#    0.000    9.143    0.000    0.000    0.000    0.000 
#
# Total GULP energy -311818.931951 kJ/mol
# GULP energy per Si atom -5568.195213 kJ/mol
# Density = 1.940527 g / cm^3
# Si number density = 19.449540 Si / 1000 Ang^3
#
#
#
# Elastic Constant Matrix: (Units=GPa)
#
#
# Indices 1 2 3 4 5 6 
#
# 1 122.3006 3.5624 106.2699 0.0000 0.0000 0.0000
# 2 3.5624 41.7595 6.1270 0.0000 0.0000 0.0000
# 3 106.2699 6.1270 171.0651 0.0000 0.0000 0.0000
# 4 0.0000 0.0000 0.0000 15.2295 0.0000 0.0000
# 5 0.0000 0.0000 0.0000 0.0000 25.8694 0.0000
# 6 0.0000 0.0000 0.0000 0.0000 0.0000 13.3031
#
#
#
# Elastic Compliance Matrix: (Units=1/GPa)
#
#
# Indices 1 2 3 4 5 6 
#
# 1 0.017768 0.000104 -0.011042 0.000000 0.000000 0.000000
# 2 0.000104 0.024074 -0.000927 0.000000 0.000000 0.000000
# 3 -0.011042 -0.000927 0.012738 0.000000 0.000000 0.000000
# 4 0.000000 0.000000 0.000000 0.065662 0.000000 0.000000
# 5 0.000000 0.000000 0.000000 0.000000 0.038656 0.000000
# 6 0.000000 0.000000 0.000000 0.000000 0.000000 0.075171
#
#
# Mechanical properties :
#
#
# Convention : Reuss Voigt Hill
#
# Bulk Modulus (GPa) = 32.41362 63.00487 47.70925
# Shear Modulus (GPa) = 18.65111 25.49144 22.07128
#
# Velocity S-wave (km/s) = 3.10005 3.62421 3.37233
# Velocity P-wave (km/s) = 5.43281 7.06948 6.30448
#
# Compressibility (1/GPa) = 0.03085123
#
# Stress axis : x y z
#
# Youngs Moduli (GPa) = 56.28169 41.53899 78.50407
#
# Poissons Ratio (x) = -0.00433 0.86680
# Poissons Ratio (y) = -0.00587 0.07278
# Poissons Ratio (z) = 0.62144 0.03851
#
# Static dielectric constant tensor:
#      x y z
#    x 1.675750 0.000000 0.000000 
#    y 0.000000 1.758330 0.000000 
#    z 0.000000 0.000000 1.695210 
# 
# From -- ./inp_files/33698.got.cif
#   From: 2010.05.17/outbox.cif.g08.bks.cpg/sg51_17_cif.got.tgz:33698.got - 2010.06.03 11:52:47.
