data_PCOD9407394
_publ_section_title
;
Structure prediction by ZEFSAII (Michael W. Deem and Ramdas Pophale) SiO2 
 PCOD9407394
Probable space group: P M M A
;
_chemical_formula_sum "Si O2"
_cell_formula_units_Z 40
_cell_length_a 9.727337
_cell_length_b 7.554414
_cell_length_c 26.678580
_cell_angle_alpha 90.000000
_cell_angle_beta 90.000000
_cell_angle_gamma 90.000000
_cell_volume 1960.457598
_symmetry_space_group_name_H-M "P M M A"
_symmetry_group_IT_number 51
_symmetry_cell_setting 'orthorhombic'
loop_
_space_group_symop_operation_xyz
x,y,z
1/2-x,-y,z
1/2+x,-y,-z
-x,y,-z
-x,-y,-z
1/2+x,y,-z
1/2-x,y,z
x,-y,z
loop_
_atom_site_type_symbol
_atom_site_label
_atom_site_fract_x
_atom_site_fract_y
_atom_site_fract_z
Si Si1 0.906432 0.287570 0.656653
Si Si2 0.906598 0.212308 0.545199
Si Si3 0.091329 0.783472 0.047736
Si Si4 0.092730 0.211699 0.859988
Si Si5 0.093824 0.712763 0.746932
O O1 0.750000 0.218845 0.659085
O O2 0.900045 0.500000 0.661359
O O3 0.961465 0.249523 0.600969
O O4 0.998317 0.219706 0.702275
O O5 0.750000 0.281118 0.542610
O O6 0.000000 0.280550 0.500000
O O7 0.899843 0.000000 0.540219
O O8 0.250000 0.725572 0.044981
O O9 0.012142 0.723607 0.097841
O O10 0.093978 0.000000 0.047927
O O11 0.000000 0.730246 0.000000
O O12 0.250000 0.280247 0.865601
O O13 0.045565 0.247395 0.803264
O O14 0.100524 0.000000 0.866025
O O15 0.250000 0.780382 0.742539
O O16 0.098935 0.500000 0.742562
#
# Coordination Sequence:
#
# PCOD9407394 Si02
#       5
#     8   8   8   8   8
#     4   9  18  32  48  66  89 117 149 184 221 262
#     4   9  18  32  48  67  92 120 148 180 221 266
#     4   9  16  26  42  65  92 120 149 183 224 267
#     4   9  17  29  45  66  91 117 147 184 223 263
#     4   9  18  32  48  66  90 120 151 183 222 266
#
# _framework density 20.403397999999999
#
# number of rings (size 3 to 8) (size 9 to 14) (size 15 to 20)
#    0.000    3.000    0.000    0.600    0.000    5.200 
#    0.000    0.000    0.000    0.600    0.000    0.000 
#    0.000    0.000    0.000    0.000    0.000    0.000 
#
# Total GULP energy -223143.370256 kJ/mol
# GULP energy per Si atom -5578.584256 kJ/mol
# Density = 2.035696 g / cm^3
# Si number density = 20.403398 Si / 1000 Ang^3
#
#
#
# Elastic Constant Matrix: (Units=GPa)
#
#
# Indices 1 2 3 4 5 6 
#
# 1 118.0717 4.4134 131.7535 0.0000 0.0000 0.0000
# 2 4.4134 48.0647 -2.1849 0.0000 0.0000 0.0000
# 3 131.7535 -2.1849 235.3929 0.0000 0.0000 0.0000
# 4 0.0000 0.0000 0.0000 25.4118 0.0000 0.0000
# 5 0.0000 0.0000 0.0000 0.0000 37.8086 0.0000
# 6 0.0000 0.0000 0.0000 0.0000 0.0000 266.8047
#
#
#
# Elastic Compliance Matrix: (Units=1/GPa)
#
#
# Indices 1 2 3 4 5 6 
#
# 1 0.022901 -0.002687 -0.012843 0.000000 0.000000 0.000000
# 2 -0.002687 0.021129 0.001700 0.000000 0.000000 0.000000
# 3 -0.012843 0.001700 0.011453 0.000000 0.000000 0.000000
# 4 0.000000 0.000000 0.000000 0.039352 0.000000 0.000000
# 5 0.000000 0.000000 0.000000 0.000000 0.026449 0.000000
# 6 0.000000 0.000000 0.000000 0.000000 0.000000 0.003748
#
#
# Mechanical properties :
#
#
# Convention : Reuss Voigt Hill
#
# Bulk Modulus (GPa) = 35.94128 74.38815 55.16472
# Shear Modulus (GPa) = 30.87065 83.84151 57.35608
#
# Velocity S-wave (km/s) = 3.89397 6.41725 5.30774
# Velocity P-wave (km/s) = 6.15393 9.56274 8.04105
#
# Compressibility (1/GPa) = 0.02782316
#
# Stress axis : x y z
#
# Youngs Moduli (GPa) = 43.66578 47.32775 87.31693
#
# Poissons Ratio (x) = 0.12715 1.12142
# Poissons Ratio (y) = 0.11732 -0.14843
# Poissons Ratio (z) = 0.56081 -0.08045
#
# Static dielectric constant tensor:
#      x y z
#    x 1.716790 0.000000 0.000000 
#    y 0.000000 1.760600 0.000000 
#    z 0.000000 0.000000 1.701230 
# 
# From -- ./inp_files/27035.got.cif
#   From: 2010.05.17/outbox.cif.g08.bks.cpg/sg51_14_cif.got.tgz:27035.got - 2010.06.03 11:52:47.
