data_PCOD9407400
_publ_section_title
;
Structure prediction by ZEFSAII (Michael W. Deem and Ramdas Pophale) SiO2 
 PCOD9407400
Probable space group: P M M A
;
_chemical_formula_sum "Si O2"
_cell_formula_units_Z 56
_cell_length_a 19.087567
_cell_length_b 9.105205
_cell_length_c 19.494690
_cell_angle_alpha 90.000000
_cell_angle_beta 90.000000
_cell_angle_gamma 90.000000
_cell_volume 3388.103247
_symmetry_space_group_name_H-M "P M M A"
_symmetry_group_IT_number 51
_symmetry_cell_setting 'orthorhombic'
loop_
_space_group_symop_operation_xyz
x,y,z
1/2-x,-y,z
1/2+x,-y,-z
-x,y,-z
-x,-y,-z
1/2+x,y,-z
1/2-x,y,z
x,-y,z
loop_
_atom_site_type_symbol
_atom_site_label
_atom_site_fract_x
_atom_site_fract_y
_atom_site_fract_z
Si Si1 0.905397 0.823374 0.394920
Si Si2 0.525711 0.332088 0.789393
Si Si3 0.824653 0.823825 0.125053
Si Si4 0.562818 0.823220 0.653237
Si Si5 0.830879 0.821122 0.536011
Si Si6 0.863864 0.332595 0.261127
Si Si7 0.977133 0.177267 0.076407
O O1 0.874059 0.777688 0.468040
O O2 0.862457 0.748264 0.333694
O O3 0.987677 0.787699 0.382766
O O4 0.899448 0.000000 0.389360
O O5 0.549201 0.500000 0.797271
O O6 0.565675 0.249236 0.728193
O O7 0.445402 0.334245 0.762177
O O8 0.521656 0.249845 0.862285
O O9 0.750000 0.782986 0.092224
O O10 0.827135 0.755803 0.200700
O O11 0.895820 0.778468 0.087298
O O12 0.827278 0.000000 0.130613
O O13 0.625439 0.776201 0.603102
O O14 0.564417 0.000000 0.660781
O O15 0.750000 0.772047 0.534802
O O16 0.830150 0.000000 0.536107
O O17 0.839378 0.500000 0.265673
O O18 0.982121 0.000000 0.082986
O O19 0.000000 0.218410 0.000000
#
# Coordination Sequence:
#
# PCOD9407400 Si02
#       7
#     8   8   8   8   8   8   8
#     4   9  16  27  44  65  88 115 148 185 226 272
#     4   9  17  29  46  68  91 115 145 180 218 262
#     4   9  17  29  45  65  90 120 150 178 213 260
#     4   9  16  28  47  66  85 113 150 189 226 266
#     4   9  17  28  43  64  87 112 148 194 237 272
#     4   9  17  28  42  63  90 117 146 180 217 260
#     4   9  17  30  49  72  95 118 146 181 219 259
#
# _framework density 16.528421000000002
#
# number of rings (size 3 to 8) (size 9 to 14) (size 15 to 20)
#    0.000    3.000    0.000    1.286    0.000    6.286 
#    0.000    2.143    0.000    5.571    0.000    4.000 
#    0.000    0.000    0.000    0.000    0.000    0.000 
#
# Total GULP energy -311834.590844 kJ/mol
# GULP energy per Si atom -5568.474836 kJ/mol
# Density = 1.649080 g / cm^3
# Si number density = 16.528421 Si / 1000 Ang^3
#
#
#
# Elastic Constant Matrix: (Units=GPa)
#
#
# Indices 1 2 3 4 5 6 
#
# 1 69.7484 21.4622 60.1012 0.0000 0.0000 0.0000
# 2 21.4622 19.6316 40.0860 0.0000 0.0000 0.0000
# 3 60.1012 40.0860 156.7502 0.0000 0.0000 0.0000
# 4 0.0000 0.0000 0.0000 -0.5392 0.0000 0.0000
# 5 0.0000 0.0000 0.0000 0.0000 8.5391 0.0000
# 6 0.0000 0.0000 0.0000 0.0000 0.0000 4.0318
#
#
#
# Elastic Compliance Matrix: (Units=1/GPa)
#
#
# Indices 1 2 3 4 5 6 
#
# 1 0.023393 -0.015194 -0.005084 0.000000 0.000000 0.000000
# 2 -0.015194 0.116474 -0.023960 0.000000 0.000000 0.000000
# 3 -0.005084 -0.023960 0.014456 0.000000 0.000000 0.000000
# 4 0.000000 0.000000 0.000000 -1.854739 0.000000 0.000000
# 5 0.000000 0.000000 0.000000 0.000000 0.117108 0.000000
# 6 0.000000 0.000000 0.000000 0.000000 0.000000 0.248030
#
#
# Mechanical properties :
#
#
# Convention : Reuss Voigt Hill
#
# Bulk Modulus (GPa) = 15.18668 54.38099 34.78384
# Shear Modulus (GPa) = -4.08212 10.70506 3.31147
#
# Velocity S-wave (km/s) = -1.57325 2.54771 1.41699
# Velocity P-wave (km/s) = 2.43064 6.45193 4.87521
#
# Compressibility (1/GPa) = 0.06584716
#
# Stress axis : x y z
#
# Youngs Moduli (GPa) = 42.74737 8.58563 69.17398
#
# Poissons Ratio (x) = 0.13045 0.35168
# Poissons Ratio (y) = 0.64949 1.65744
# Poissons Ratio (z) = 0.21733 0.20572
#
# Static dielectric constant tensor:
#      x y z
#    x 1.579230 0.000000 0.000000 
#    y 0.000000 1.552540 0.000000 
#    z 0.000000 0.000000 1.531250 
# 
# From -- ./inp_files/30431.got.cif
#   From: 2010.05.17/outbox.cif.g08.bks.cpg/sg51_16_cif.got.tgz:30431.got - 2010.06.03 11:52:47.
