data_PCOD9407922
_publ_section_title
;
Structure prediction by ZEFSAII (Michael W. Deem and Ramdas Pophale) SiO2 
 PCOD9407922
Probable space group: P N N A
;
_chemical_formula_sum "Si O2"
_cell_formula_units_Z 32
_cell_length_a 8.841590
_cell_length_b 7.883245
_cell_length_c 22.229111
_cell_angle_alpha 90.000000
_cell_angle_beta 90.000000
_cell_angle_gamma 90.000000
_cell_volume 1549.378376
_symmetry_space_group_name_H-M "P N N A"
_symmetry_group_IT_number 52
_symmetry_cell_setting 'orthorhombic'
loop_
_space_group_symop_operation_xyz
x,y,z
1/2-x,-y,z
x,1/2-y,1/2-z
1/2-x,1/2+y,1/2-z
-x,-y,-z
1/2+x,y,-z
-x,1/2+y,1/2+z
1/2+x,1/2-y,1/2+z
loop_
_atom_site_type_symbol
_atom_site_label
_atom_site_fract_x
_atom_site_fract_y
_atom_site_fract_z
Si Si1 0.750000 0.500000 0.680100
Si Si2 0.122680 0.628597 0.528461
Si Si3 0.507759 0.384917 0.873301
Si Si4 0.032504 0.250000 0.250000
Si Si5 0.150404 0.721503 0.099587
O O1 0.857072 0.609179 0.722340
O O2 0.863257 0.394856 0.636840
O O3 0.250000 0.500000 0.551850
O O4 0.172620 0.738204 0.470438
O O5 0.000000 0.500000 0.500000
O O6 0.067918 0.762310 0.577878
O O7 0.449622 0.336156 0.806865
O O8 0.686703 0.340142 0.876185
O O9 0.517663 0.585033 0.889179
#
# Coordination Sequence:
#
# PCOD9407922 Si02
#       5
#     4   8   8   4   8
#     4  10  16  30  52  82 120 154 194 258 308 358
#     4  12  21  38  59  85 119 154 198 248 304 362
#     4  10  21  34  57  86 121 156 198 253 303 369
#     4  10  18  32  52  84 116 154 198 238 302 362
#     4  10  19  35  55  89 117 152 201 252 311 357
#
# _framework density 20.653442999999999
#
# number of rings (size 3 to 8) (size 9 to 14) (size 15 to 20)
#    0.000    1.500    3.750    5.250    0.000    0.000 
#    0.000    0.000    0.000    3.000    0.000    0.000 
#    0.000    0.000    0.000    0.000    0.000    0.000 
#
# Total GULP energy -178366.573442 kJ/mol
# GULP energy per Si atom -5573.955420 kJ/mol
# Density = 2.060644 g / cm^3
# Si number density = 20.653443 Si / 1000 Ang^3
#
#
#
# Elastic Constant Matrix: (Units=GPa)
#
#
# Indices 1 2 3 4 5 6 
#
# 1 28.5290 22.7682 9.3393 0.0000 0.0000 0.0000
# 2 22.7682 135.6119 70.0909 0.0000 0.0000 0.0000
# 3 9.3393 70.0909 159.8292 0.0000 0.0000 0.0000
# 4 0.0000 0.0000 0.0000 30.2734 0.0000 0.0000
# 5 0.0000 0.0000 0.0000 0.0000 18.0058 0.0000
# 6 0.0000 0.0000 0.0000 0.0000 0.0000 23.7382
#
#
#
# Elastic Compliance Matrix: (Units=1/GPa)
#
#
# Indices 1 2 3 4 5 6 
#
# 1 0.040554 -0.007220 0.000797 0.000000 0.000000 0.000000
# 2 -0.007220 0.010821 -0.004323 0.000000 0.000000 0.000000
# 3 0.000797 -0.004323 0.008106 0.000000 0.000000 0.000000
# 4 0.000000 0.000000 0.000000 0.033032 0.000000 0.000000
# 5 0.000000 0.000000 0.000000 0.000000 0.055538 0.000000
# 6 0.000000 0.000000 0.000000 0.000000 0.000000 0.042126
#
#
# Mechanical properties :
#
#
# Convention : Reuss Voigt Hill
#
# Bulk Modulus (GPa) = 26.32525 58.70744 42.51635
# Shear Modulus (GPa) = 22.28830 29.18826 25.73828
#
# Velocity S-wave (km/s) = 3.28862 3.76339 3.53398
# Velocity P-wave (km/s) = 5.21477 6.88265 6.10593
#
# Compressibility (1/GPa) = 0.03798634
#
# Stress axis : x y z
#
# Youngs Moduli (GPa) = 24.65870 92.41470 123.36401
#
# Poissons Ratio (x) = 0.66728 -0.09829
# Poissons Ratio (y) = 0.17805 0.53335
# Poissons Ratio (z) = -0.01965 0.39955
#
# Static dielectric constant tensor:
#      x y z
#    x 1.759730 0.000000 0.000000 
#    y 0.000000 1.925990 0.000000 
#    z 0.000000 0.000000 1.776500 
# 
# From -- ./inp_files/35480.got.cif
#   From: 2010.05.17/outbox.cif.g08.bks.cpg/sg52_18_cif.got.tgz:35480.got - 2010.06.03 12:15:38.
