data_PCOD9407162
_publ_section_title
;
Structure prediction by ZEFSAII (Michael W. Deem and Ramdas Pophale) SiO2 
 PCOD9407162
Probable space group: P M M A
;
_chemical_formula_sum "Si O2"
_cell_formula_units_Z 48
_cell_length_a 9.715573
_cell_length_b 14.307643
_cell_length_c 18.315367
_cell_angle_alpha 90.000000
_cell_angle_beta 90.000000
_cell_angle_gamma 90.000000
_cell_volume 2545.963305
_symmetry_space_group_name_H-M "P M M A"
_symmetry_group_IT_number 51
_symmetry_cell_setting 'orthorhombic'
loop_
_space_group_symop_operation_xyz
x,y,z
1/2-x,-y,z
1/2+x,-y,-z
-x,y,-z
-x,-y,-z
1/2+x,y,-z
1/2-x,y,z
x,-y,z
loop_
_atom_site_type_symbol
_atom_site_label
_atom_site_fract_x
_atom_site_fract_y
_atom_site_fract_z
Si Si1 0.902826 0.390909 0.193903
Si Si2 0.250000 0.390860 0.380332
Si Si3 0.583483 0.302794 0.928481
Si Si4 0.914592 0.107041 0.695097
Si Si5 0.584425 0.102396 0.868555
Si Si6 0.750000 0.388983 0.445074
Si Si7 0.030772 0.295585 0.656627
O O1 0.750000 0.379020 0.159705
O O2 0.916893 0.500000 0.214174
O O3 0.907467 0.328459 0.266438
O O4 0.023422 0.360697 0.139532
O O5 0.250000 0.500000 0.363680
O O6 0.250000 0.380071 0.468021
O O7 0.382761 0.342846 0.347761
O O8 0.750000 0.309912 0.934704
O O9 0.542527 0.194543 0.911802
O O10 0.500000 0.333288 0.000000
O O11 0.750000 0.123955 0.685287
O O12 0.943264 0.114724 0.782124
O O13 0.004951 0.184875 0.655312
O O14 0.942132 0.000000 0.673363
O O15 0.750000 0.098730 0.874706
O O16 0.529793 0.000000 0.891478
O O17 0.750000 0.500000 0.427111
O O18 0.879523 0.338238 0.408358
#
# Coordination Sequence:
#
# PCOD9407162 Si02
#       7
#     8   4   8   8   8   4   8
#     4  11  24  41  61  86 119 158 200 247 301 357
#     4  11  24  38  61  93 126 162 210 249 295 373
#     4  11  23  39  60  86 119 157 200 250 302 355
#     4   9  17  33  59  91 121 153 199 254 307 357
#     4   8  15  30  53  82 115 149 188 236 294 353
#     4  11  24  42  59  87 132 172 196 243 315 367
#     4  12  21  38  64  92 122 162 205 252 304 361
#
# _framework density 18.853376000000001
#
# number of rings (size 3 to 8) (size 9 to 14) (size 15 to 20)
#    0.000    1.667    3.333    3.500    1.167    2.333 
#    0.000    0.417    0.000    5.500    0.000    0.000 
#    0.000    0.000    0.000    0.000    0.000    0.000 
#
# Total GULP energy -267846.919081 kJ/mol
# GULP energy per Si atom -5580.144148 kJ/mol
# Density = 1.881046 g / cm^3
# Si number density = 18.853376 Si / 1000 Ang^3
#
#
#
# Elastic Constant Matrix: (Units=GPa)
#
#
# Indices 1 2 3 4 5 6 
#
# 1 90.4764 31.4815 13.9236 0.0000 0.0000 0.0000
# 2 31.4815 108.6109 22.1619 0.0000 0.0000 0.0000
# 3 13.9236 22.1619 30.0412 0.0000 0.0000 0.0000
# 4 0.0000 0.0000 0.0000 23.2807 0.0000 0.0000
# 5 0.0000 0.0000 0.0000 0.0000 26.9804 0.0000
# 6 0.0000 0.0000 0.0000 0.0000 0.0000 31.9691
#
#
#
# Elastic Compliance Matrix: (Units=1/GPa)
#
#
# Indices 1 2 3 4 5 6 
#
# 1 0.012635 -0.002905 -0.003713 0.000000 0.000000 0.000000
# 2 -0.002905 0.011506 -0.007142 0.000000 0.000000 0.000000
# 3 -0.003713 -0.007142 0.040278 0.000000 0.000000 0.000000
# 4 0.000000 0.000000 0.000000 0.042954 0.000000 0.000000
# 5 0.000000 0.000000 0.000000 0.000000 0.037064 0.000000
# 6 0.000000 0.000000 0.000000 0.000000 0.000000 0.031280
#
#
# Mechanical properties :
#
#
# Convention : Reuss Voigt Hill
#
# Bulk Modulus (GPa) = 27.10127 40.47360 33.78744
# Shear Modulus (GPa) = 23.19790 27.21680 25.20735
#
# Velocity S-wave (km/s) = 3.51156 3.80360 3.66050
# Velocity P-wave (km/s) = 5.55404 6.38780 5.98546
#
# Compressibility (1/GPa) = 0.03689864
#
# Stress axis : x y z
#
# Youngs Moduli (GPa) = 79.14721 86.90765 24.82765
#
# Poissons Ratio (x) = 0.25243 0.09219
# Poissons Ratio (y) = 0.22989 0.17733
# Poissons Ratio (z) = 0.29389 0.62072
#
# Static dielectric constant tensor:
#      x y z
#    x 1.603780 0.000000 0.000000 
#    y 0.000000 1.670220 0.000000 
#    z 0.000000 0.000000 1.632470 
# 
# From -- ./inp_files/27663.got.cif
#   From: 2010.05.17/outbox.cif.g08.bks.cpg/sg51_14_cif.got.tgz:27663.got - 2010.06.03 11:52:47.
