data_PCOD9407475
_publ_section_title
;
Structure prediction by ZEFSAII (Michael W. Deem and Ramdas Pophale) SiO2 
 PCOD9407475
Probable space group: P M M A
;
_chemical_formula_sum "Si O2"
_cell_formula_units_Z 64
_cell_length_a 18.000000
_cell_length_b 9.000000
_cell_length_c 21.000000
_cell_angle_alpha 90.000000
_cell_angle_beta 90.000000
_cell_angle_gamma 90.000000
_cell_volume 3402.000000
_symmetry_space_group_name_H-M "P M M A"
_symmetry_group_IT_number 51
_symmetry_cell_setting 'orthorhombic'
loop_
_space_group_symop_operation_xyz
x,y,z
1/2-x,-y,z
1/2+x,-y,-z
-x,y,-z
-x,-y,-z
1/2+x,y,-z
1/2-x,y,z
x,-y,z
loop_
_atom_site_type_symbol
_atom_site_label
_atom_site_fract_x
_atom_site_fract_y
_atom_site_fract_z
Si Si1 0.836652 0.679209 0.737833
Si Si2 0.669444 0.180920 0.988814
Si Si3 0.436825 0.818880 0.902494
Si Si4 0.664547 0.178543 0.214805
Si Si5 0.159218 0.169485 0.529222
Si Si6 0.599940 0.820924 0.861369
Si Si7 0.659363 0.671534 0.597871
Si Si8 0.340611 0.330991 0.656251
O O1 0.750000 0.722799 0.745280
O O2 0.839326 0.500000 0.739098
O O3 0.882809 0.747937 0.794549
O O4 0.863351 0.726246 0.667602
O O5 0.750000 0.227719 0.013570
O O6 0.602350 0.232817 0.033037
O O7 0.667809 0.000000 0.990576
O O8 0.658664 0.222566 0.915632
O O9 0.385775 0.772525 0.843526
O O10 0.520497 0.774417 0.889286
O O11 0.437326 0.000000 0.904720
O O12 0.750000 0.226808 0.205760
O O13 0.636761 0.238113 0.282263
O O14 0.664252 0.000000 0.216270
O O15 0.250000 0.174533 0.528652
O O16 0.133909 0.234272 0.462020
O O17 0.133939 0.263947 0.589569
O O18 0.137109 0.000000 0.537232
O O19 0.600794 0.000000 0.854691
O O20 0.750000 0.672933 0.598658
O O21 0.637281 0.500000 0.589684
O O22 0.250000 0.327299 0.654939
O O23 0.364302 0.500000 0.663045
#
# Coordination Sequence:
#
# PCOD9407475 Si02
#       8
#     8   8   8   8   8   8   8   8
#     4   9  18  32  48  66  92 127 162 194 232 280
#     4   9  16  27  46  72  98 124 157 195 233 276
#     4   9  17  29  45  67  96 126 154 191 240 284
#     4   9  16  27  44  64  86 117 159 200 234 275
#     4   9  15  22  35  59  90 120 150 187 231 277
#     4  10  19  30  47  72  98 122 153 195 238 280
#     4   8  14  25  40  58  83 117 154 189 227 272
#     4   9  16  25  38  58  87 121 153 189 235 282
#
# _framework density 18.812463000000001
#
# number of rings (size 3 to 8) (size 9 to 14) (size 15 to 20)
#    0.000    3.000    0.000    2.625    0.000    7.250 
#    0.000    1.875    0.000    2.250    0.000    2.625 
#    0.000    7.000    0.000    0.000    0.000    0.000 
#
# Total GULP energy -356515.692215 kJ/mol
# GULP energy per Si atom -5570.557691 kJ/mol
# Density = 1.876965 g / cm^3
# Si number density = 18.812463 Si / 1000 Ang^3
#
#
#
# Elastic Constant Matrix: (Units=GPa)
#
#
# Indices 1 2 3 4 5 6 
#
# 1 33.8256 8.3606 21.0020 0.0000 0.0000 0.0000
# 2 8.3606 6.4059 17.1341 0.0000 0.0000 0.0000
# 3 21.0020 17.1341 105.1253 0.0000 0.0000 0.0000
# 4 0.0000 0.0000 0.0000 57.5831 0.0000 0.0000
# 5 0.0000 0.0000 0.0000 0.0000 -19.6602 0.0000
# 6 0.0000 0.0000 0.0000 0.0000 0.0000 4.9129
#
#
#
# Elastic Compliance Matrix: (Units=1/GPa)
#
#
# Indices 1 2 3 4 5 6 
#
# 1 0.043701 -0.059719 0.001003 0.000000 0.000000 0.000000
# 2 -0.059719 0.358369 -0.046479 0.000000 0.000000 0.000000
# 3 0.001003 -0.046479 0.016888 0.000000 0.000000 0.000000
# 4 0.000000 0.000000 0.000000 0.017366 0.000000 0.000000
# 5 0.000000 0.000000 0.000000 0.000000 -0.050864 0.000000
# 6 0.000000 0.000000 0.000000 0.000000 0.000000 0.203546
#
#
# Mechanical properties :
#
#
# Convention : Reuss Voigt Hill
#
# Bulk Modulus (GPa) = 4.79461 26.48334 15.63897
# Shear Modulus (GPa) = 5.75428 15.15783 10.45605
#
# Velocity S-wave (km/s) = 1.75083 2.84162 2.36011
# Velocity P-wave (km/s) = 2.57708 4.98744 3.96963
#
# Compressibility (1/GPa) = 0.20856775
#
# Stress axis : x y z
#
# Youngs Moduli (GPa) = 22.88256 2.79042 59.21495
#
# Poissons Ratio (x) = 0.16664 -0.05938
# Poissons Ratio (y) = 1.36652 2.75225
# Poissons Ratio (z) = -0.02295 0.12970
#
# Static dielectric constant tensor:
#      x y z
#    x 1.666350 0.000000 0.000000 
#    y 0.000000 1.641290 0.000000 
#    z 0.000000 0.000000 1.647400 
# 
# From -- ./inp_files/33898.got.cif
#   From: 2010.05.17/outbox.ucp.g08.bks.cvg/sg51_17_cif.got.tgz:33898.got - 2010.06.11 16:27:58.
