data_PCOD9407680
_publ_section_title
;
Structure prediction by ZEFSAII (Michael W. Deem and Ramdas Pophale) SiO2 
 PCOD9407680
Probable space group: P M M A
;
_chemical_formula_sum "Si O2"
_cell_formula_units_Z 64
_cell_length_a 15.000000
_cell_length_b 9.000000
_cell_length_c 24.000000
_cell_angle_alpha 90.000000
_cell_angle_beta 90.000000
_cell_angle_gamma 90.000000
_cell_volume 3240.000000
_symmetry_space_group_name_H-M "P M M A"
_symmetry_group_IT_number 51
_symmetry_cell_setting 'orthorhombic'
loop_
_space_group_symop_operation_xyz
x,y,z
1/2-x,-y,z
1/2+x,-y,-z
-x,y,-z
-x,-y,-z
1/2+x,y,-z
1/2-x,y,z
x,-y,z
loop_
_atom_site_type_symbol
_atom_site_label
_atom_site_fract_x
_atom_site_fract_y
_atom_site_fract_z
Si Si1 0.966821 0.677911 0.082298
Si Si2 0.650875 0.177887 0.744476
Si Si3 0.851945 0.323236 0.968877
Si Si4 0.487007 0.832113 0.565447
Si Si5 0.033648 0.325007 0.741171
Si Si6 0.852891 0.321084 0.365273
Si Si7 0.651476 0.675591 0.622823
Si Si8 0.852396 0.171388 0.173656
O O1 0.965605 0.500000 0.096807
O O2 0.919261 0.784296 0.125291
O O3 0.069802 0.725642 0.073364
O O4 0.904357 0.692512 0.027435
O O5 0.750000 0.220684 0.768469
O O6 0.556049 0.246015 0.763864
O O7 0.652452 0.237054 0.681130
O O8 0.645422 0.000000 0.746957
O O9 0.750000 0.262497 0.967446
O O10 0.843734 0.500000 0.960168
O O11 0.500000 0.839938 0.500000
O O12 0.392996 0.756415 0.580484
O O13 0.569453 0.736576 0.588224
O O14 0.489922 0.000000 0.588822
O O15 0.016575 0.500000 0.741267
O O16 0.071394 0.280146 0.680611
O O17 0.118318 0.282730 0.778354
O O18 0.750000 0.277870 0.352704
O O19 0.854027 0.500000 0.369677
O O20 0.750000 0.696248 0.596807
O O21 0.640099 0.500000 0.634034
O O22 0.750000 0.193119 0.156734
O O23 0.863227 0.000000 0.191089
#
# Coordination Sequence:
#
# PCOD9407680 Si02
#       8
#     8   8   8   8   8   8   8   8
#     4   9  17  31  54  82 111 148 193 240 288 339
#     4  10  20  35  58  87 116 144 175 217 270 325
#     4   8  14  27  51  83 115 147 188 238 291 345
#     4  11  24  39  56  81 113 148 184 224 276 337
#     4  11  22  38  62  88 113 146 190 235 279 333
#     4  10  22  40  61  85 112 143 182 229 281 336
#     4  10  20  35  57  83 108 139 180 222 265 317
#     4  11  24  39  55  79 113 152 192 237 291 346
#
# _framework density 19.753086
#
# number of rings (size 3 to 8) (size 9 to 14) (size 15 to 20)
#    0.000    2.000    1.250    3.375    0.000    5.750 
#    0.000    4.375    0.000    3.375    0.000    0.000 
#    0.000    0.000    0.000    0.000    0.000    0.000 
#
# Total GULP energy -356465.658214 kJ/mol
# GULP energy per Si atom -5569.775910 kJ/mol
# Density = 1.970813 g / cm^3
# Si number density = 19.753086 Si / 1000 Ang^3
#
#
#
# Elastic Constant Matrix: (Units=GPa)
#
#
# Indices 1 2 3 4 5 6 
#
# 1 156.2638 29.3773 16.1194 0.0000 0.0000 0.0000
# 2 29.3773 21.6385 -2.8769 0.0000 0.0000 0.0000
# 3 16.1194 -2.8769 20.2865 0.0000 0.0000 0.0000
# 4 0.0000 0.0000 0.0000 17.9133 0.0000 0.0000
# 5 0.0000 0.0000 0.0000 0.0000 15.3030 0.0000
# 6 0.0000 0.0000 0.0000 0.0000 0.0000 32.6532
#
#
#
# Elastic Compliance Matrix: (Units=1/GPa)
#
#
# Indices 1 2 3 4 5 6 
#
# 1 0.010391 -0.015498 -0.010455 0.000000 0.000000 0.000000
# 2 -0.015498 0.070215 0.022272 0.000000 0.000000 0.000000
# 3 -0.010455 0.022272 0.060759 0.000000 0.000000 0.000000
# 4 0.000000 0.000000 0.000000 0.055824 0.000000 0.000000
# 5 0.000000 0.000000 0.000000 0.000000 0.065347 0.000000
# 6 0.000000 0.000000 0.000000 0.000000 0.000000 0.030625
#
#
# Mechanical properties :
#
#
# Convention : Reuss Voigt Hill
#
# Bulk Modulus (GPa) = 7.46242 31.49204 19.47723
# Shear Modulus (GPa) = 14.48470 23.54517 19.01494
#
# Velocity S-wave (km/s) = 2.71087 3.45624 3.10600
# Velocity P-wave (km/s) = 3.68571 5.64845 4.76914
#
# Compressibility (1/GPa) = 0.13400471
#
# Stress axis : x y z
#
# Youngs Moduli (GPa) = 96.23302 14.24188 16.45838
#
# Poissons Ratio (x) = 0.22072 0.17207
# Poissons Ratio (y) = 1.49140 -0.36656
# Poissons Ratio (z) = 1.00608 -0.31719
#
# Static dielectric constant tensor:
#      x y z
#    x 1.718780 0.000000 0.000000 
#    y 0.000000 1.668610 0.000000 
#    z 0.000000 0.000000 1.934090 
# 
# From -- ./inp_files/35668.got.cif
#   From: 2010.05.17/outbox.ucp.g08.bks.cvg/sg51_18_cif.got.tgz:35668.got - 2010.06.11 16:27:58.
