data_PCOD9407943
_publ_section_title
;
Structure prediction by ZEFSAII (Michael W. Deem and Ramdas Pophale) SiO2 
 PCOD9407943
Probable space group: P N N A
;
_chemical_formula_sum "Si O2"
_cell_formula_units_Z 44
_cell_length_a 8.009264
_cell_length_b 12.177789
_cell_length_c 25.332841
_cell_angle_alpha 90.000000
_cell_angle_beta 90.000000
_cell_angle_gamma 90.000000
_cell_volume 2470.841865
_symmetry_space_group_name_H-M "P N N A"
_symmetry_group_IT_number 52
_symmetry_cell_setting 'orthorhombic'
loop_
_space_group_symop_operation_xyz
x,y,z
1/2-x,-y,z
x,1/2-y,1/2-z
1/2-x,1/2+y,1/2-z
-x,-y,-z
1/2+x,y,-z
-x,1/2+y,1/2+z
1/2+x,1/2-y,1/2+z
loop_
_atom_site_type_symbol
_atom_site_label
_atom_site_fract_x
_atom_site_fract_y
_atom_site_fract_z
Si Si1 0.439443 0.988032 0.231907
Si Si2 0.282262 0.259702 0.634898
Si Si3 0.439443 0.250000 0.750000
Si Si4 0.750000 0.500000 0.997115
Si Si5 0.980729 0.600905 0.923224
Si Si6 0.250000 0.000000 0.848204
Si Si7 0.927534 0.936201 0.337210
O O1 0.458745 0.862915 0.252709
O O2 0.584118 0.003536 0.188557
O O3 0.250000 0.000000 0.212857
O O4 0.482392 0.068455 0.280903
O O5 0.331228 0.257836 0.696954
O O6 0.435785 0.208379 0.601906
O O7 0.251404 0.385562 0.620559
O O8 0.125545 0.176239 0.633942
O O9 0.684121 0.403488 0.958534
O O10 0.885050 0.449642 0.036291
O O11 0.967686 0.513923 0.875658
O O12 0.750000 0.000000 0.328412
#
# Coordination Sequence:
#
# PCOD9407943 Si02
#       7
#     8   8   4   4   8   4   8
#     4  11  21  32  51  78 109 147 191 223 274 324
#     4  10  18  34  57  75 109 151 187 220 280 337
#     4  10  18  32  50  74 112 140 184 232 252 332
#     4  10  20  33  54  86 114 132 177 242 302 334
#     4  10  19  33  55  84 108 138 178 233 292 343
#     4  10  22  37  52  74 110 158 183 228 262 328
#     4  10  16  32  51  76 102 140 176 222 276 327
#
# _framework density 17.807697000000001
#
# number of rings (size 3 to 8) (size 9 to 14) (size 15 to 20)
#    0.000    1.818    7.273    1.091    1.273    1.455 
#    0.000    1.818    0.000    1.091    0.000    0.000 
#    0.000    0.000    0.000    0.000    0.000    0.000 
#
# Total GULP energy -245062.927302 kJ/mol
# GULP energy per Si atom -5569.611984 kJ/mol
# Density = 1.776717 g / cm^3
# Si number density = 17.807697 Si / 1000 Ang^3
#
#
#
# Elastic Constant Matrix: (Units=GPa)
#
#
# Indices 1 2 3 4 5 6 
#
# 1 48.1572 -5.5734 -0.0479 0.0000 0.0000 0.0000
# 2 -5.5734 110.4419 -2.6914 0.0000 0.0000 0.0000
# 3 -0.0479 -2.6914 44.2569 0.0000 0.0000 0.0000
# 4 0.0000 0.0000 0.0000 13.0890 0.0000 0.0000
# 5 0.0000 0.0000 0.0000 0.0000 -7.0375 0.0000
# 6 0.0000 0.0000 0.0000 0.0000 0.0000 11.3935
#
#
#
# Elastic Compliance Matrix: (Units=1/GPa)
#
#
# Indices 1 2 3 4 5 6 
#
# 1 0.020888 0.001056 0.000087 0.000000 0.000000 0.000000
# 2 0.001056 0.009121 0.000556 0.000000 0.000000 0.000000
# 3 0.000087 0.000556 0.022629 0.000000 0.000000 0.000000
# 4 0.000000 0.000000 0.000000 0.076400 0.000000 0.000000
# 5 0.000000 0.000000 0.000000 0.000000 -0.142096 0.000000
# 6 0.000000 0.000000 0.000000 0.000000 0.000000 0.087769
#
#
# Mechanical properties :
#
#
# Convention : Reuss Voigt Hill
#
# Bulk Modulus (GPa) = 17.84567 20.69230 19.26898
# Shear Modulus (GPa) = 55.56002 17.56691 36.56346
#
# Velocity S-wave (km/s) = 5.59176 3.14423 4.53618
# Velocity P-wave (km/s) = 7.19259 4.98264 6.18709
#
# Compressibility (1/GPa) = 0.05603601
#
# Stress axis : x y z
#
# Youngs Moduli (GPa) = 47.87520 109.63253 44.19061
#
# Poissons Ratio (x) = -0.11579 -0.00384
# Poissons Ratio (y) = -0.05057 -0.02456
# Poissons Ratio (z) = -0.00416 -0.06094
#
# Static dielectric constant tensor:
#      x y z
#    x 1.665180 0.000000 0.000000 
#    y 0.000000 1.662470 0.000000 
#    z 0.000000 0.000000 1.609580 
# 
# From -- ./inp_files/39402.got.cif
#   From: 2010.05.17/outbox.cif.g08.bks.cpg/sg52_20_cif.got.tgz:39402.got - 2010.06.03 12:15:38.
