data_PCOD9407759
_publ_section_title
;
Structure prediction by ZEFSAII (Michael W. Deem and Ramdas Pophale) SiO2 
 PCOD9407759
Probable space group: P M M A
;
_chemical_formula_sum "Si O2"
_cell_formula_units_Z 64
_cell_length_a 9.000000
_cell_length_b 18.000000
_cell_length_c 21.000000
_cell_angle_alpha 90.000000
_cell_angle_beta 90.000000
_cell_angle_gamma 90.000000
_cell_volume 3402.000000
_symmetry_space_group_name_H-M "P M M A"
_symmetry_group_IT_number 51
_symmetry_cell_setting 'orthorhombic'
loop_
_space_group_symop_operation_xyz
x,y,z
1/2-x,-y,z
1/2+x,-y,-z
-x,y,-z
-x,-y,-z
1/2+x,y,-z
1/2-x,y,z
x,-y,z
loop_
_atom_site_type_symbol
_atom_site_label
_atom_site_fract_x
_atom_site_fract_y
_atom_site_fract_z
Si Si1 0.586459 0.087198 0.439676
Si Si2 0.428900 0.701961 0.429338
Si Si3 0.079855 0.410842 0.936466
Si Si4 0.927569 0.838164 0.665846
Si Si5 0.426991 0.910686 0.931408
Si Si6 0.428117 0.587548 0.321949
Si Si7 0.069973 0.821113 0.186620
Si Si8 0.070237 0.340740 0.804254
O O1 0.500000 0.120201 0.500000
O O2 0.750000 0.120823 0.434716
O O3 0.497389 0.096447 0.375046
O O4 0.602156 0.000000 0.452077
O O5 0.500000 0.705023 0.500000
O O6 0.250000 0.706495 0.437148
O O7 0.472094 0.766673 0.377894
O O8 0.465840 0.627621 0.388799
O O9 0.250000 0.385866 0.940259
O O10 0.075784 0.500000 0.938973
O O11 0.024792 0.387815 0.866765
O O12 0.000000 0.382111 0.000000
O O13 0.750000 0.839997 0.664391
O O14 0.970316 0.842668 0.740000
O O15 0.250000 0.894683 0.932624
O O16 0.502560 0.870513 0.870633
O O17 0.445864 0.000000 0.924700
O O18 0.500000 0.889701 0.000000
O O19 0.250000 0.597537 0.313094
O O20 0.461152 0.500000 0.323417
O O21 0.508097 0.625392 0.261503
O O22 0.250000 0.820483 0.181832
O O23 0.001163 0.739185 0.182862
O O24 0.250000 0.337416 0.800533
#
# Coordination Sequence:
#
# PCOD9407759 Si02
#       8
#     8   8   8   8   8   8   8   8
#     4  10  21  36  55  81 113 148 189 235 284 344
#     4  10  21  38  57  83 114 148 194 242 297 359
#     4   9  19  35  54  79 111 146 186 232 281 338
#     4  10  21  38  58  81 114 153 194 242 292 351
#     4  10  22  42  67  95 127 163 205 251 299 352
#     4  10  21  39  61  83 113 154 197 244 303 369
#     4  11  23  40  62  88 121 158 199 244 293 351
#     4  11  22  37  58  85 119 154 194 247 300 353
#
# _framework density 18.812463000000001
#
# number of rings (size 3 to 8) (size 9 to 14) (size 15 to 20)
#    0.000    1.875    1.250    2.250    0.000    7.500 
#    0.000    5.000    0.000    0.000    0.000    0.000 
#    0.000    0.000    0.000    0.000    0.000    0.000 
#
# Total GULP energy -356861.881989 kJ/mol
# GULP energy per Si atom -5575.966906 kJ/mol
# Density = 1.876965 g / cm^3
# Si number density = 18.812463 Si / 1000 Ang^3
#
#
#
# Elastic Constant Matrix: (Units=GPa)
#
#
# Indices 1 2 3 4 5 6 
#
# 1 49.3823 42.8892 73.0405 0.0000 0.0000 0.0000
# 2 42.8892 62.3397 53.8608 0.0000 0.0000 0.0000
# 3 73.0405 53.8608 201.3792 0.0000 0.0000 0.0000
# 4 0.0000 0.0000 0.0000 76.0249 0.0000 0.0000
# 5 0.0000 0.0000 0.0000 0.0000 39.8623 0.0000
# 6 0.0000 0.0000 0.0000 0.0000 0.0000 20.7071
#
#
#
# Elastic Compliance Matrix: (Units=1/GPa)
#
#
# Indices 1 2 3 4 5 6 
#
# 1 0.086864 -0.042320 -0.020186 0.000000 0.000000 0.000000
# 2 -0.042320 0.041481 0.004255 0.000000 0.000000 0.000000
# 3 -0.020186 0.004255 0.011149 0.000000 0.000000 0.000000
# 4 0.000000 0.000000 0.000000 0.013154 0.000000 0.000000
# 5 0.000000 0.000000 0.000000 0.000000 0.025086 0.000000
# 6 0.000000 0.000000 0.000000 0.000000 0.000000 0.048293
#
#
# Mechanical properties :
#
#
# Convention : Reuss Voigt Hill
#
# Bulk Modulus (GPa) = 43.49680 72.52025 58.00853
# Shear Modulus (GPa) = 14.27784 36.87293 25.57539
#
# Velocity S-wave (km/s) = 2.75791 4.43202 3.69113
# Velocity P-wave (km/s) = 5.77173 8.05128 7.00486
#
# Compressibility (1/GPa) = 0.02299019
#
# Stress axis : x y z
#
# Youngs Moduli (GPa) = 11.51231 24.10755 89.69160
#
# Poissons Ratio (x) = 1.02024 1.81056
# Poissons Ratio (y) = 0.48721 -0.38166
# Poissons Ratio (z) = 0.23239 -0.10258
#
# Static dielectric constant tensor:
#      x y z
#    x 1.633210 0.000000 0.000000 
#    y 0.000000 1.694460 0.000000 
#    z 0.000000 0.000000 1.617120 
# 
# From -- ./inp_files/32446.got.cif
#   From: 2010.05.17/outbox.ucp.g08.bks.cvg/sg51_17_cif.got.tgz:32446.got - 2010.06.11 16:27:58.
