data_PCOD9407243
_publ_section_title
;
Structure prediction by ZEFSAII (Michael W. Deem and Ramdas Pophale) SiO2 
 PCOD9407243
Probable space group: P M M A
;
_chemical_formula_sum "Si O2"
_cell_formula_units_Z 56
_cell_length_a 19.004014
_cell_length_b 7.402691
_cell_length_c 19.903060
_cell_angle_alpha 90.000000
_cell_angle_beta 90.000000
_cell_angle_gamma 90.000000
_cell_volume 2799.979267
_symmetry_space_group_name_H-M "P M M A"
_symmetry_group_IT_number 51
_symmetry_cell_setting 'orthorhombic'
loop_
_space_group_symop_operation_xyz
x,y,z
1/2-x,-y,z
1/2+x,-y,-z
-x,y,-z
-x,-y,-z
1/2+x,y,-z
1/2-x,y,z
x,-y,z
loop_
_atom_site_type_symbol
_atom_site_label
_atom_site_fract_x
_atom_site_fract_y
_atom_site_fract_z
Si Si1 0.033775 0.288895 0.567498
Si Si2 0.171610 0.282739 0.642954
Si Si3 0.958762 0.781286 0.703589
Si Si4 0.669354 0.221248 0.791337
Si Si5 0.096011 0.785485 0.780502
Si Si6 0.664350 0.790465 0.938588
Si Si7 0.331899 0.778503 0.915141
O O1 0.047782 0.500000 0.553706
O O2 0.107535 0.213266 0.596498
O O3 0.000000 0.210168 0.500000
O O4 0.978851 0.276703 0.628822
O O5 0.250000 0.216497 0.627122
O O6 0.172132 0.500000 0.636966
O O7 0.151304 0.242677 0.720137
O O8 0.884661 0.722725 0.734024
O O9 0.021878 0.716586 0.752124
O O10 0.959861 0.000000 0.703481
O O11 0.750000 0.277043 0.780404
O O12 0.644779 0.284085 0.865595
O O13 0.669599 0.000000 0.793515
O O14 0.123529 0.715403 0.851516
O O15 0.087706 0.000000 0.789151
O O16 0.750000 0.787786 0.939201
O O17 0.641895 0.000000 0.938228
O O18 0.642964 0.715475 0.011126
O O19 0.250000 0.727915 0.906364
O O20 0.332995 0.000000 0.916545
#
# Coordination Sequence:
#
# PCOD9407243 Si02
#       7
#     8   8   8   8   8   8   8
#     4   9  18  33  50  65  84 111 137 161 198 247
#     4   9  17  29  45  64  84 108 139 169 195 233
#     4   9  17  28  43  64  86 107 135 170 207 247
#     4   8  13  23  39  57  80 111 143 174 208 245
#     4   9  16  25  38  59  87 113 136 168 209 246
#     4   7  10  17  30  49  74 106 141 171 201 239
#     4   8  12  18  30  50  77 108 139 169 202 239
#
# _framework density 20.000149
#
# number of rings (size 3 to 8) (size 9 to 14) (size 15 to 20)
#    0.000    3.571    0.000    2.143    0.000    1.143 
#    0.000    1.429    0.000    5.571    0.000    1.000 
#    0.000    8.000    0.000    0.000    0.000    0.000 
#
# Total GULP energy -311966.729509 kJ/mol
# GULP energy per Si atom -5570.834456 kJ/mol
# Density = 1.995463 g / cm^3
# Si number density = 20.000149 Si / 1000 Ang^3
#
#
#
# Elastic Constant Matrix: (Units=GPa)
#
#
# Indices 1 2 3 4 5 6 
#
# 1 97.0005 -5.7132 84.2658 0.0000 0.0000 0.0000
# 2 -5.7132 61.7090 -10.1641 0.0000 0.0000 0.0000
# 3 84.2658 -10.1641 141.5450 0.0000 0.0000 0.0000
# 4 0.0000 0.0000 0.0000 11.2969 0.0000 0.0000
# 5 0.0000 0.0000 0.0000 0.0000 24.0584 0.0000
# 6 0.0000 0.0000 0.0000 0.0000 0.0000 28.3075
#
#
#
# Elastic Compliance Matrix: (Units=1/GPa)
#
#
# Indices 1 2 3 4 5 6 
#
# 1 0.021353 -0.000118 -0.012720 0.000000 0.000000 0.000000
# 2 -0.000118 0.016400 0.001248 0.000000 0.000000 0.000000
# 3 -0.012720 0.001248 0.014727 0.000000 0.000000 0.000000
# 4 0.000000 0.000000 0.000000 0.088520 0.000000 0.000000
# 5 0.000000 0.000000 0.000000 0.000000 0.041565 0.000000
# 6 0.000000 0.000000 0.000000 0.000000 0.000000 0.035326
#
#
# Mechanical properties :
#
#
# Convention : Reuss Voigt Hill
#
# Bulk Modulus (GPa) = 34.13143 48.55907 41.34525
# Shear Modulus (GPa) = 19.93317 28.19030 24.06174
#
# Velocity S-wave (km/s) = 3.16040 3.75841 3.47230
# Velocity P-wave (km/s) = 5.51545 6.57010 6.06574
#
# Compressibility (1/GPa) = 0.02929851
#
# Stress axis : x y z
#
# Youngs Moduli (GPa) = 46.83280 60.97666 67.90128
#
# Poissons Ratio (x) = 0.00721 0.86372
# Poissons Ratio (y) = 0.00554 -0.08474
# Poissons Ratio (z) = 0.59573 -0.07610
#
# Static dielectric constant tensor:
#      x y z
#    x 1.695280 0.000000 0.000000 
#    y 0.000000 1.771250 0.000000 
#    z 0.000000 0.000000 1.703250 
# 
# From -- ./inp_files/30368.got.cif
#   From: 2010.05.17/outbox.cif.g08.bks.cpg/sg51_16_cif.got.tgz:30368.got - 2010.06.03 11:52:47.
