data_PCOD9407167
_publ_section_title
;
Structure prediction by ZEFSAII (Michael W. Deem and Ramdas Pophale) SiO2 
 PCOD9407167
Probable space group: P M M A
;
_chemical_formula_sum "Si O2"
_cell_formula_units_Z 64
_cell_length_a 18.256730
_cell_length_b 15.591971
_cell_length_c 11.728328
_cell_angle_alpha 90.000000
_cell_angle_beta 90.000000
_cell_angle_gamma 90.000000
_cell_volume 3338.567138
_symmetry_space_group_name_H-M "P M M A"
_symmetry_group_IT_number 51
_symmetry_cell_setting 'orthorhombic'
loop_
_space_group_symop_operation_xyz
x,y,z
1/2-x,-y,z
1/2+x,-y,-z
-x,y,-z
-x,-y,-z
1/2+x,y,-z
1/2-x,y,z
x,-y,z
loop_
_atom_site_type_symbol
_atom_site_label
_atom_site_fract_x
_atom_site_fract_y
_atom_site_fract_z
Si Si1 0.079612 0.598512 0.239238
Si Si2 0.834619 0.353292 0.539004
Si Si3 0.412542 0.097573 0.689601
Si Si4 0.419906 0.750000 0.058699
Si Si5 0.665381 0.146708 0.539004
Si Si6 0.912542 0.402427 0.310398
Si Si7 0.336637 0.750000 0.827009
Si Si8 0.420388 0.901488 0.239238
O O1 0.084084 0.500000 0.199737
O O2 0.138238 0.615170 0.338439
O O3 0.087592 0.666639 0.138351
O O4 0.999211 0.611732 0.294901
O O5 0.750000 0.377179 0.518131
O O6 0.839795 0.250000 0.535855
O O7 0.885919 0.389917 0.439711
O O8 0.385918 0.110083 0.560289
O O9 0.370682 0.166984 0.765500
O O10 0.499211 0.111732 0.705099
O O11 0.396519 0.000000 0.725294
O O12 0.412409 0.833361 0.138351
O O13 0.500000 0.750000 0.000000
O O14 0.361216 0.750000 0.957880
O O15 0.750000 0.122821 0.518131
O O16 0.638238 0.115170 0.661560
O O17 0.896519 0.500000 0.274706
O O18 0.870683 0.333016 0.234500
O O19 0.250000 0.750000 0.813079
O O20 0.415916 0.000000 0.199738
#
# Coordination Sequence:
#
# PCOD9407167 Si02
#       8
#     8   8   8   8   8   8   8   8
#     4  11  24  42  69  97 125 168 220 262 316 383
#     4  11  23  39  64  98 136 172 208 257 322 386
#     4  11  23  41  67  98 130 167 212 262 316 384
#     4  12  24  45  67  90 123 170 212 272 315 364
#     4  11  23  39  64  98 136 172 208 257 322 386
#     4  11  23  41  67  98 130 167 212 262 316 384
#     4  12  26  43  65  95 127 168 216 264 323 379
#     4  11  24  42  69  97 125 168 220 262 316 383
#
# _framework density 19.169900999999999
#
# number of rings (size 3 to 8) (size 9 to 14) (size 15 to 20)
#    0.000    0.750    5.000    2.250    0.000    9.000 
#    0.000    0.000    0.000    0.000    0.000    0.000 
#    0.000    0.000    0.000    0.000    0.000    0.000 
#
# Total GULP energy -358068.409631 kJ/mol
# GULP energy per Si atom -5594.818900 kJ/mol
# Density = 1.912627 g / cm^3
# Si number density = 19.169901 Si / 1000 Ang^3
#
#
#
# Elastic Constant Matrix: (Units=GPa)
#
#
# Indices 1 2 3 4 5 6 
#
# 1 28.2503 14.8483 -7.6181 0.0000 0.0000 0.0000
# 2 14.8483 103.5251 36.0901 0.0000 0.0000 0.0000
# 3 -7.6181 36.0901 97.7016 0.0000 0.0000 0.0000
# 4 0.0000 0.0000 0.0000 -8.8747 0.0000 0.0000
# 5 0.0000 0.0000 0.0000 0.0000 198.7082 0.0000
# 6 0.0000 0.0000 0.0000 0.0000 0.0000 16.3381
#
#
#
# Elastic Compliance Matrix: (Units=1/GPa)
#
#
# Indices 1 2 3 4 5 6 
#
# 1 0.041327 -0.008093 0.006212 0.000000 0.000000 0.000000
# 2 -0.008093 0.012672 -0.005312 0.000000 0.000000 0.000000
# 3 0.006212 -0.005312 0.012682 0.000000 0.000000 0.000000
# 4 0.000000 0.000000 0.000000 -0.112680 0.000000 0.000000
# 5 0.000000 0.000000 0.000000 0.000000 0.005033 0.000000
# 6 0.000000 0.000000 0.000000 0.000000 0.000000 0.061207
#
#
# Mechanical properties :
#
#
# Convention : Reuss Voigt Hill
#
# Bulk Modulus (GPa) = 19.12249 35.12418 27.12334
# Shear Modulus (GPa) = 96.04842 53.64475 74.84659
#
# Velocity S-wave (km/s) = 7.08608 5.29571 6.25528
# Velocity P-wave (km/s) = 8.77194 7.46694 8.14562
#
# Compressibility (1/GPa) = 0.05229444
#
# Stress axis : x y z
#
# Youngs Moduli (GPa) = 24.19745 78.91374 78.85308
#
# Poissons Ratio (x) = 0.63864 -0.48982
# Poissons Ratio (y) = 0.19583 0.41887
# Poissons Ratio (z) = -0.15031 0.41919
#
# Static dielectric constant tensor:
#      x y z
#    x 1.648020 0.000000 0.000000 
#    y 0.000000 1.666870 0.000000 
#    z 0.000000 0.000000 1.630420 
# 
# From -- ./inp_files/17527.got.cif
#   From: 2010.05.17/outbox.cif.g08.bks.cpg/sg51_9_cif.got.tgz:17527.got - 2010.06.03 11:52:47.
