data_PCOD9407938
_publ_section_title
;
Structure prediction by ZEFSAII (Michael W. Deem and Ramdas Pophale) SiO2 
 PCOD9407938
Probable space group: P N N A
;
_chemical_formula_sum "Si O2"
_cell_formula_units_Z 36
_cell_length_a 5.855222
_cell_length_b 13.554135
_cell_length_c 19.231532
_cell_angle_alpha 90.000000
_cell_angle_beta 90.000000
_cell_angle_gamma 90.000000
_cell_volume 1526.261871
_symmetry_space_group_name_H-M "P N N A"
_symmetry_group_IT_number 52
_symmetry_cell_setting 'orthorhombic'
loop_
_space_group_symop_operation_xyz
x,y,z
1/2-x,-y,z
x,1/2-y,1/2-z
1/2-x,1/2+y,1/2-z
-x,-y,-z
1/2+x,y,-z
-x,1/2+y,1/2+z
1/2+x,1/2-y,1/2+z
loop_
_atom_site_type_symbol
_atom_site_label
_atom_site_fract_x
_atom_site_fract_y
_atom_site_fract_z
Si Si1 0.002183 0.237638 0.503175
Si Si2 0.629224 0.250000 0.250000
Si Si3 0.000226 0.463581 0.920435
Si Si4 0.510902 0.281927 0.847921
Si Si5 0.756510 0.612350 0.726537
O O1 0.252326 0.289470 0.501775
O O2 0.997899 0.155276 0.564323
O O3 0.006825 0.186222 0.426709
O O4 0.480835 0.348380 0.243420
O O5 0.774261 0.239688 0.180385
O O6 0.250000 0.500000 0.890671
O O7 0.750000 0.500000 0.891347
O O8 0.000000 0.500000 0.000000
O O9 0.569891 0.362775 0.789253
O O10 0.683041 0.190429 0.834012
O O11 0.750000 0.500000 0.705967
#
# Coordination Sequence:
#
# PCOD9407938 Si02
#       5
#     8   4   8   8   8
#     4  12  23  35  55  81 124 167 197 238 304 364
#     4   8  18  40  60  82 122 138 204 256 302 364
#     4  10  16  32  44  67 103 154 197 228 264 348
#     4   9  22  36  57  93 115 158 203 250 304 368
#     4   9  19  40  64  88 114 151 203 261 315 354
#
# _framework density 23.587042
#
# number of rings (size 3 to 8) (size 9 to 14) (size 15 to 20)
#    0.000    2.667    4.444    0.000    6.222    4.444 
#    4.000    0.000    0.000    1.333    0.000    0.000 
#    0.000    0.000    0.000    0.000    0.000    0.000 
#
# Total GULP energy -200479.864615 kJ/mol
# GULP energy per Si atom -5568.885128 kJ/mol
# Density = 2.353336 g / cm^3
# Si number density = 23.587042 Si / 1000 Ang^3
#
#
#
# Elastic Constant Matrix: (Units=GPa)
#
#
# Indices 1 2 3 4 5 6 
#
# 1 183.2422 15.1804 4.4746 0.0000 0.0000 0.0000
# 2 15.1804 100.1884 11.4011 0.0000 0.0000 0.0000
# 3 4.4746 11.4011 82.3554 0.0000 0.0000 0.0000
# 4 0.0000 0.0000 0.0000 26.2660 0.0000 0.0000
# 5 0.0000 0.0000 0.0000 0.0000 23.5386 0.0000
# 6 0.0000 0.0000 0.0000 0.0000 0.0000 11.9808
#
#
#
# Elastic Compliance Matrix: (Units=1/GPa)
#
#
# Indices 1 2 3 4 5 6 
#
# 1 0.005529 -0.000816 -0.000187 0.000000 0.000000 0.000000
# 2 -0.000816 0.010262 -0.001376 0.000000 0.000000 0.000000
# 3 -0.000187 -0.001376 0.012343 0.000000 0.000000 0.000000
# 4 0.000000 0.000000 0.000000 0.038072 0.000000 0.000000
# 5 0.000000 0.000000 0.000000 0.000000 0.042483 0.000000
# 6 0.000000 0.000000 0.000000 0.000000 0.000000 0.083467
#
#
# Mechanical properties :
#
#
# Convention : Reuss Voigt Hill
#
# Bulk Modulus (GPa) = 42.78262 47.54423 45.16343
# Shear Modulus (GPa) = 24.42502 34.67240 29.54871
#
# Velocity S-wave (km/s) = 3.22145 3.83819 3.54326
# Velocity P-wave (km/s) = 5.65814 6.31213 5.99406
#
# Compressibility (1/GPa) = 0.02337398
#
# Stress axis : x y z
#
# Youngs Moduli (GPa) = 180.84902 97.45150 81.01625
#
# Poissons Ratio (x) = 0.07957 0.01518
# Poissons Ratio (y) = 0.14766 0.11150
# Poissons Ratio (z) = 0.03389 0.13411
#
# Static dielectric constant tensor:
#      x y z
#    x 2.098500 0.000000 0.000000 
#    y 0.000000 1.919850 0.000000 
#    z 0.000000 0.000000 1.892170 
# 
# From -- ./inp_files/34952.got.cif
#   From: 2010.05.17/outbox.cif.g08.bks.cpg/sg52_18_cif.got.tgz:34952.got - 2010.06.03 12:15:38.
