data_PCOD9407345
_publ_section_title
;
Structure prediction by ZEFSAII (Michael W. Deem and Ramdas Pophale) SiO2 
 PCOD9407345
Probable space group: P M M A
;
_chemical_formula_sum "Si O2"
_cell_formula_units_Z 44
_cell_length_a 7.565493
_cell_length_b 17.111418
_cell_length_c 13.539639
_cell_angle_alpha 90.000000
_cell_angle_beta 90.000000
_cell_angle_gamma 90.000000
_cell_volume 1752.791746
_symmetry_space_group_name_H-M "P M M A"
_symmetry_group_IT_number 51
_symmetry_cell_setting 'orthorhombic'
loop_
_space_group_symop_operation_xyz
x,y,z
1/2-x,-y,z
1/2+x,-y,-z
-x,y,-z
-x,-y,-z
1/2+x,y,-z
1/2-x,y,z
x,-y,z
loop_
_atom_site_type_symbol
_atom_site_label
_atom_site_fract_x
_atom_site_fract_y
_atom_site_fract_z
Si Si1 0.966760 0.250709 0.195211
Si Si2 0.461313 0.827829 0.614480
Si Si3 0.950011 0.413625 0.173201
Si Si4 0.538434 0.915781 0.115883
Si Si5 0.552880 0.593604 0.607484
Si Si6 0.537883 0.000000 0.382290
O O1 0.750000 0.253803 0.189347
O O2 0.018980 0.238928 0.310260
O O3 0.032519 0.330323 0.144038
O O4 0.027296 0.168512 0.150163
O O5 0.500000 0.815374 0.500000
O O6 0.250000 0.831453 0.622909
O O7 0.528507 0.913953 0.647839
O O8 0.750000 0.417200 0.134322
O O9 0.031005 0.500000 0.155590
O O10 0.941059 0.401060 0.292462
O O11 0.750000 0.915173 0.133188
O O12 0.474029 0.000000 0.157398
O O13 0.500000 0.918716 0.000000
O O14 0.500000 0.626612 0.500000
O O15 0.750000 0.619653 0.631138
O O16 0.560146 0.500000 0.592903
O O17 0.500000 0.000000 0.500000
O O18 0.750000 0.000000 0.365761
#
# Coordination Sequence:
#
# PCOD9407345 Si02
#       6
#     8   8   8   8   8   4
#     4   9  18  31  50  75  98 127 167 203 240 292
#     4   9  17  29  44  64  93 126 162 199 234 277
#     4   9  17  30  46  64  90 124 162 203 243 285
#     4   9  18  34  57  81 104 128 156 196 246 297
#     4   9  16  26  41  61  86 120 164 211 255 295
#     4   8  14  24  40  58  79 112 150 186 225 266
#
# _framework density 25.102809000000001
#
# number of rings (size 3 to 8) (size 9 to 14) (size 15 to 20)
#    0.000    3.091    0.000    0.545    1.273    2.909 
#    0.000    4.545    0.000    0.545    0.000    0.000 
#    0.000    0.000    0.000    0.000    0.000    0.000 
#
# Total GULP energy -245240.044019 kJ/mol
# GULP energy per Si atom -5573.637364 kJ/mol
# Density = 2.504567 g / cm^3
# Si number density = 25.102809 Si / 1000 Ang^3
#
#
#
# Elastic Constant Matrix: (Units=GPa)
#
#
# Indices 1 2 3 4 5 6 
#
# 1 66.7314 4.9882 -9.7088 0.0000 0.0000 0.0000
# 2 4.9882 280.2396 30.4060 0.0000 0.0000 0.0000
# 3 -9.7088 30.4060 28.4008 0.0000 0.0000 0.0000
# 4 0.0000 0.0000 0.0000 9.8703 0.0000 0.0000
# 5 0.0000 0.0000 0.0000 0.0000 5.2311 0.0000
# 6 0.0000 0.0000 0.0000 0.0000 0.0000 4.8791
#
#
#
# Elastic Compliance Matrix: (Units=1/GPa)
#
#
# Indices 1 2 3 4 5 6 
#
# 1 0.016011 -0.000994 0.006538 0.000000 0.000000 0.000000
# 2 -0.000994 0.004099 -0.004728 0.000000 0.000000 0.000000
# 3 0.006538 -0.004728 0.042508 0.000000 0.000000 0.000000
# 4 0.000000 0.000000 0.000000 0.101314 0.000000 0.000000
# 5 0.000000 0.000000 0.000000 0.000000 0.191165 0.000000
# 6 0.000000 0.000000 0.000000 0.000000 0.000000 0.204955
#
#
# Mechanical properties :
#
#
# Convention : Reuss Voigt Hill
#
# Bulk Modulus (GPa) = 15.56473 47.41586 31.49030
# Shear Modulus (GPa) = 8.62312 27.30854 17.96583
#
# Velocity S-wave (km/s) = 1.85542 3.30186 2.67814
# Velocity P-wave (km/s) = 3.28694 5.78499 4.70479
#
# Compressibility (1/GPa) = 0.06424780
#
# Stress axis : x y z
#
# Youngs Moduli (GPa) = 62.45716 243.95533 23.52525
#
# Poissons Ratio (x) = 0.24258 -0.15381
# Poissons Ratio (y) = 0.06210 0.11124
# Poissons Ratio (z) = -0.40834 1.15353
#
# Static dielectric constant tensor:
#      x y z
#    x 1.970670 0.000000 0.000000 
#    y 0.000000 2.087750 0.000000 
#    z 0.000000 0.000000 2.009910 
# 
# From -- ./inp_files/20924.got.cif
#   From: 2010.05.17/outbox.cif.g08.bks.cpg/sg51_11_cif.got.tgz:20924.got - 2010.06.03 11:52:47.
