data_PCOD9407190
_publ_section_title
;
Structure prediction by ZEFSAII (Michael W. Deem and Ramdas Pophale) SiO2 
 PCOD9407190
Probable space group: P M M A
;
_chemical_formula_sum "Si O2"
_cell_formula_units_Z 64
_cell_length_a 19.916779
_cell_length_b 20.365596
_cell_length_c 8.713283
_cell_angle_alpha 90.000000
_cell_angle_beta 90.000000
_cell_angle_gamma 90.000000
_cell_volume 3534.256362
_symmetry_space_group_name_H-M "P M M A"
_symmetry_group_IT_number 51
_symmetry_cell_setting 'orthorhombic'
loop_
_space_group_symop_operation_xyz
x,y,z
1/2-x,-y,z
1/2+x,-y,-z
-x,y,-z
-x,-y,-z
1/2+x,y,-z
1/2-x,y,z
x,-y,z
loop_
_atom_site_type_symbol
_atom_site_label
_atom_site_fract_x
_atom_site_fract_y
_atom_site_fract_z
Si Si1 0.069333 0.075324 0.406588
Si Si2 0.464215 0.426460 0.835330
Si Si3 0.674545 0.306441 0.540003
Si Si4 0.031716 0.305774 0.334497
Si Si5 0.326184 0.363708 0.800701
Si Si6 0.949388 0.821568 0.862773
Si Si7 0.827714 0.839854 0.402597
Si Si8 0.171309 0.217045 0.928523
O O1 0.059810 0.119942 0.256893
O O2 0.124855 0.108868 0.514580
O O3 0.000000 0.076279 0.500000
O O4 0.086313 0.000000 0.369647
O O5 0.475511 0.500000 0.774634
O O6 0.494278 0.369063 0.730854
O O7 0.384963 0.412278 0.848079
O O8 0.500000 0.421569 0.000000
O O9 0.750000 0.316371 0.603594
O O10 0.610881 0.320671 0.645485
O O11 0.669355 0.347360 0.381431
O O12 0.668152 0.230122 0.490277
O O13 0.023463 0.243064 0.225025
O O14 0.000000 0.289401 0.500000
O O15 0.250000 0.385709 0.832386
O O16 0.336950 0.293637 0.884419
O O17 0.877959 0.802931 0.936762
O O18 0.000000 0.838195 0.000000
O O19 0.750000 0.860553 0.406479
O O20 0.845472 0.823825 0.226063
O O21 0.250000 0.206662 0.963526
#
# Coordination Sequence:
#
# PCOD9407190 Si02
#       8
#     8   8   8   8   8   8   8   8
#     4  11  24  40  58  82 114 155 202 248 293 347
#     4  11  24  40  57  83 120 159 201 247 299 361
#     4   9  18  33  58  89 115 141 186 244 289 338
#     4  12  22  36  61  88 116 151 198 244 301 351
#     4   9  17  35  59  84 114 150 194 242 293 348
#     4  12  24  35  58  86 119 154 194 240 297 356
#     4   9  18  37  62  85 113 148 191 240 291 345
#     4   9  19  35  59  88 117 147 187 242 297 352
#
# _framework density 18.108478000000002
#
# number of rings (size 3 to 8) (size 9 to 14) (size 15 to 20)
#    0.000    1.750    2.500    4.500    1.750    2.000 
#    0.000    1.250    0.000    1.875    0.000    0.000 
#    0.000    0.000    0.000    0.000    0.000    0.000 
#
# Total GULP energy -357515.972846 kJ/mol
# GULP energy per Si atom -5586.187076 kJ/mol
# Density = 1.806726 g / cm^3
# Si number density = 18.108478 Si / 1000 Ang^3
#
#
#
# Elastic Constant Matrix: (Units=GPa)
#
#
# Indices 1 2 3 4 5 6 
#
# 1 93.0669 46.0574 33.6669 0.0000 0.0000 0.0000
# 2 46.0574 100.9177 49.2875 0.0000 0.0000 0.0000
# 3 33.6669 49.2875 68.2790 0.0000 0.0000 0.0000
# 4 0.0000 0.0000 0.0000 17.3470 0.0000 0.0000
# 5 0.0000 0.0000 0.0000 0.0000 37.9514 0.0000
# 6 0.0000 0.0000 0.0000 0.0000 0.0000 9.8884
#
#
#
# Elastic Compliance Matrix: (Units=1/GPa)
#
#
# Indices 1 2 3 4 5 6 
#
# 1 0.014446 -0.004810 -0.003651 0.000000 0.000000 0.000000
# 2 -0.004810 0.016906 -0.009832 0.000000 0.000000 0.000000
# 3 -0.003651 -0.009832 0.023543 0.000000 0.000000 0.000000
# 4 0.000000 0.000000 0.000000 0.057647 0.000000 0.000000
# 5 0.000000 0.000000 0.000000 0.000000 0.026349 0.000000
# 6 0.000000 0.000000 0.000000 0.000000 0.000000 0.101128
#
#
# Mechanical properties :
#
#
# Convention : Reuss Voigt Hill
#
# Bulk Modulus (GPa) = 54.61625 57.80970 56.21298
# Shear Modulus (GPa) = 17.68600 21.92083 19.80341
#
# Velocity S-wave (km/s) = 3.12856 3.48304 3.31055
# Velocity P-wave (km/s) = 6.57850 6.94038 6.76186
#
# Compressibility (1/GPa) = 0.01830957
#
# Stress axis : x y z
#
# Youngs Moduli (GPa) = 69.22314 59.15003 42.47471
#
# Poissons Ratio (x) = 0.28450 0.15508
# Poissons Ratio (y) = 0.33295 0.41762
# Poissons Ratio (z) = 0.25274 0.58157
#
# Static dielectric constant tensor:
#      x y z
#    x 1.645820 0.000000 0.000000 
#    y 0.000000 1.587420 0.000000 
#    z 0.000000 0.000000 1.614150 
# 
# From -- ./inp_files/11171.got.cif
#   From: 2010.05.17/outbox.cif.g08.bks.cpg/sg51_6_cif.got.tgz:11171.got - 2010.06.03 11:52:47.
