data_PCOD9407568
_publ_section_title
;
Structure prediction by ZEFSAII (Michael W. Deem and Ramdas Pophale) SiO2 
 PCOD9407568
Probable space group: P M M A
;
_chemical_formula_sum "Si O2"
_cell_formula_units_Z 48
_cell_length_a 18.000000
_cell_length_b 9.000000
_cell_length_c 15.000000
_cell_angle_alpha 90.000000
_cell_angle_beta 90.000000
_cell_angle_gamma 90.000000
_cell_volume 2430.000000
_symmetry_space_group_name_H-M "P M M A"
_symmetry_group_IT_number 51
_symmetry_cell_setting 'orthorhombic'
loop_
_space_group_symop_operation_xyz
x,y,z
1/2-x,-y,z
1/2+x,-y,-z
-x,y,-z
-x,-y,-z
1/2+x,y,-z
1/2-x,y,z
x,-y,z
loop_
_atom_site_type_symbol
_atom_site_label
_atom_site_fract_x
_atom_site_fract_y
_atom_site_fract_z
Si Si1 0.164740 0.339119 0.083062
Si Si2 0.118509 0.167563 0.247868
Si Si3 0.055489 0.831405 0.758213
Si Si4 0.072446 0.823481 0.948504
Si Si5 0.162573 0.830512 0.444549
Si Si6 0.562907 0.674783 0.430494
O O1 0.250000 0.354694 0.063779
O O2 0.127339 0.500000 0.070115
O O3 0.155737 0.284311 0.183670
O O4 0.135450 0.214316 0.017577
O O5 0.125054 0.209136 0.350887
O O6 0.032451 0.161368 0.221942
O O7 0.149762 0.000000 0.238498
O O8 0.087499 0.763683 0.849373
O O9 0.062786 0.745078 0.666660
O O10 0.083169 0.000000 0.744410
O O11 0.062903 0.000000 0.936828
O O12 0.000000 0.764849 0.000000
O O13 0.250000 0.829374 0.430077
O O14 0.138440 0.719162 0.520680
O O15 0.139875 0.000000 0.467961
O O16 0.500000 0.733145 0.500000
O O17 0.552455 0.500000 0.422306
#
# Coordination Sequence:
#
# PCOD9407568 Si02
#       6
#     8   8   8   8   8   8
#     4  11  24  38  54  83 121 157 190 228 282 344
#     4  10  19  35  60  87 116 148 186 237 287 334
#     4  10  20  36  61  88 113 144 188 240 284 329
#     4  10  20  38  61  86 112 144 191 238 281 334
#     4  10  21  37  59  86 114 149 193 236 283 338
#     4  11  23  37  56  84 118 154 190 229 280 342
#
# _framework density 19.753086
#
# number of rings (size 3 to 8) (size 9 to 14) (size 15 to 20)
#    0.000    1.667    3.333    1.500    0.000    5.333 
#    0.000    0.833    0.000    1.000    0.000    0.000 
#    0.000    0.000    0.000    0.000    0.000    0.000 
#
# Total GULP energy -267394.715900 kJ/mol
# GULP energy per Si atom -5570.723248 kJ/mol
# Density = 1.970813 g / cm^3
# Si number density = 19.753086 Si / 1000 Ang^3
#
#
#
# Elastic Constant Matrix: (Units=GPa)
#
#
# Indices 1 2 3 4 5 6 
#
# 1 19.6552 1.5476 -3.6847 0.0000 0.0000 0.0000
# 2 1.5476 14.4956 40.1257 0.0000 0.0000 0.0000
# 3 -3.6847 40.1257 97.3993 0.0000 0.0000 0.0000
# 4 0.0000 0.0000 0.0000 40.6563 0.0000 0.0000
# 5 0.0000 0.0000 0.0000 0.0000 -13.7926 0.0000
# 6 0.0000 0.0000 0.0000 0.0000 0.0000 13.9886
#
#
#
# Elastic Compliance Matrix: (Units=1/GPa)
#
#
# Indices 1 2 3 4 5 6 
#
# 1 0.041436 0.062418 -0.024147 0.000000 0.000000 0.000000
# 2 0.062418 -0.397364 0.166064 0.000000 0.000000 0.000000
# 3 -0.024147 0.166064 -0.059060 0.000000 0.000000 0.000000
# 4 0.000000 0.000000 0.000000 0.024596 0.000000 0.000000
# 5 0.000000 0.000000 0.000000 0.000000 -0.072503 0.000000
# 6 0.000000 0.000000 0.000000 0.000000 0.000000 0.071487
#
#
# Mechanical properties :
#
#
# Convention : Reuss Voigt Hill
#
# Bulk Modulus (GPa) = -158.27503 23.05856 -67.60823
# Shear Modulus (GPa) = -6.23299 14.40789 4.08745
#
# Velocity S-wave (km/s) = -1.77829 2.70367 1.44006
# Velocity P-wave (km/s) = 9.19332 4.63089 5.61569
#
# Compressibility (1/GPa) = -0.00631812
#
# Stress axis : x y z
#
# Youngs Moduli (GPa) = 24.13376 -2.51658 -16.93197
#
# Poissons Ratio (x) = 0.15708 -0.40885
# Poissons Ratio (y) = -1.50639 2.81178
# Poissons Ratio (z) = 0.58276 0.41791
#
# Static dielectric constant tensor:
#      x y z
#    x 1.720930 0.000000 0.000000 
#    y 0.000000 1.706610 0.000000 
#    z 0.000000 0.000000 1.037400 
# 
# From -- ./inp_files/24761.got.cif
#   From: 2010.05.17/outbox.ucp.g08.bks.cvg/sg51_13_cif.got.tgz:24761.got - 2010.06.11 16:27:58.
