data_PCOD9407462
_publ_section_title
;
Structure prediction by ZEFSAII (Michael W. Deem and Ramdas Pophale) SiO2 
 PCOD9407462
Probable space group: P M M A
;
_chemical_formula_sum "Si O2"
_cell_formula_units_Z 48
_cell_length_a 15.000000
_cell_length_b 9.000000
_cell_length_c 21.000000
_cell_angle_alpha 90.000000
_cell_angle_beta 90.000000
_cell_angle_gamma 90.000000
_cell_volume 2835.000000
_symmetry_space_group_name_H-M "P M M A"
_symmetry_group_IT_number 51
_symmetry_cell_setting 'orthorhombic'
loop_
_space_group_symop_operation_xyz
x,y,z
1/2-x,-y,z
1/2+x,-y,-z
-x,y,-z
-x,-y,-z
1/2+x,y,-z
1/2-x,y,z
x,-y,z
loop_
_atom_site_type_symbol
_atom_site_label
_atom_site_fract_x
_atom_site_fract_y
_atom_site_fract_z
Si Si1 0.540184 0.179367 0.151097
Si Si2 0.355150 0.324522 0.965426
Si Si3 0.851333 0.178935 0.896475
Si Si4 0.645634 0.181229 0.278756
Si Si5 0.460496 0.180647 0.594784
Si Si6 0.354379 0.819338 0.466084
O O1 0.586310 0.248783 0.089001
O O2 0.434665 0.218081 0.148931
O O3 0.594218 0.226382 0.214183
O O4 0.546508 0.000000 0.147214
O O5 0.250000 0.305193 0.950016
O O6 0.374097 0.500000 0.969003
O O7 0.369136 0.250793 0.034473
O O8 0.750000 0.222087 0.876622
O O9 0.851699 0.000000 0.903337
O O10 0.750000 0.228475 0.280505
O O11 0.587546 0.229337 0.340107
O O12 0.646923 0.000000 0.279678
O O13 0.564006 0.227094 0.581670
O O14 0.396219 0.221350 0.535212
O O15 0.462775 0.000000 0.595476
O O16 0.250000 0.770111 0.457492
O O17 0.351265 0.000000 0.463592
#
# Coordination Sequence:
#
# PCOD9407462 Si02
#       6
#     8   8   8   8   8   8
#     4  10  19  30  45  64  85 112 145 176 209 253
#     4  10  20  32  47  68  90 110 136 174 218 258
#     4   9  18  32  47  62  83 111 141 174 214 258
#     4   9  16  25  37  53  74 101 134 170 204 242
#     4   8  13  20  30  46  68  96 131 166 199 237
#     4   8  12  18  29  45  67  96 129 164 201 240
#
# _framework density 16.931217
#
# number of rings (size 3 to 8) (size 9 to 14) (size 15 to 20)
#    0.000    3.000    0.000    3.000    0.000    6.333 
#    0.000    0.833    0.000    5.000    0.000    0.000 
#    0.000    0.000    0.000    3.000    0.000    8.667 
#
# Total GULP energy -267243.495524 kJ/mol
# GULP energy per Si atom -5567.572823 kJ/mol
# Density = 1.689268 g / cm^3
# Si number density = 16.931217 Si / 1000 Ang^3
#
#
#
# Elastic Constant Matrix: (Units=GPa)
#
#
# Indices 1 2 3 4 5 6 
#
# 1 188.8492 14.9971 84.0426 0.0000 0.0000 0.0000
# 2 14.9971 2.0620 7.3485 0.0000 0.0000 0.0000
# 3 84.0426 7.3485 84.9722 0.0000 0.0000 0.0000
# 4 0.0000 0.0000 0.0000 -0.4614 0.0000 0.0000
# 5 0.0000 0.0000 0.0000 0.0000 31.7853 0.0000
# 6 0.0000 0.0000 0.0000 0.0000 0.0000 12.2963
#
#
#
# Elastic Compliance Matrix: (Units=1/GPa)
#
#
# Indices 1 2 3 4 5 6 
#
# 1 0.015662 -0.084861 -0.008152 0.000000 0.000000 0.000000
# 2 -0.084861 1.160831 -0.016457 0.000000 0.000000 0.000000
# 3 -0.008152 -0.016457 0.021254 0.000000 0.000000 0.000000
# 4 0.000000 0.000000 0.000000 -2.167128 0.000000 0.000000
# 5 0.000000 0.000000 0.000000 0.000000 0.031461 0.000000
# 6 0.000000 0.000000 0.000000 0.000000 0.000000 0.081325
#
#
# Mechanical properties :
#
#
# Convention : Reuss Voigt Hill
#
# Bulk Modulus (GPa) = 1.02165 54.29552 27.65859
# Shear Modulus (GPa) = -16.05730 20.02372 1.98321
#
# Velocity S-wave (km/s) = -3.08293 3.44270 1.08346
# Velocity P-wave (km/s) = 3.47388 6.92393 4.23515
#
# Compressibility (1/GPa) = 0.97880735
#
# Stress axis : x y z
#
# Youngs Moduli (GPa) = 63.84841 0.86145 47.04901
#
# Poissons Ratio (x) = 0.07310 0.38354
# Poissons Ratio (y) = 5.41826 0.77428
# Poissons Ratio (z) = 0.52048 0.01418
#
# Static dielectric constant tensor:
#      x y z
#    x 1.606890 0.000000 0.000000 
#    y 0.000000 1.546990 0.000000 
#    z 0.000000 0.000000 1.564750 
# 
# From -- ./inp_files/33192.got.cif
#   From: 2010.05.17/outbox.ucp.g08.bks.cvg/sg51_17_cif.got.tgz:33192.got - 2010.06.11 16:27:58.
