data_PCOD9407236
_publ_section_title
;
Structure prediction by ZEFSAII (Michael W. Deem and Ramdas Pophale) SiO2 
 PCOD9407236
Probable space group: P M M A
;
_chemical_formula_sum "Si O2"
_cell_formula_units_Z 40
_cell_length_a 10.009289
_cell_length_b 7.388509
_cell_length_c 27.125489
_cell_angle_alpha 90.000000
_cell_angle_beta 90.000000
_cell_angle_gamma 90.000000
_cell_volume 2006.030869
_symmetry_space_group_name_H-M "P M M A"
_symmetry_group_IT_number 51
_symmetry_cell_setting 'orthorhombic'
loop_
_space_group_symop_operation_xyz
x,y,z
1/2-x,-y,z
1/2+x,-y,-z
-x,y,-z
-x,-y,-z
1/2+x,y,-z
1/2-x,y,z
x,-y,z
loop_
_atom_site_type_symbol
_atom_site_label
_atom_site_fract_x
_atom_site_fract_y
_atom_site_fract_z
Si Si1 0.595428 0.278095 0.759883
Si Si2 0.902113 0.716435 0.153559
Si Si3 0.404643 0.278456 0.455734
Si Si4 0.087611 0.710004 0.347944
Si Si5 0.598332 0.783827 0.042037
O O1 0.750000 0.225091 0.767251
O O2 0.594773 0.500000 0.758772
O O3 0.500715 0.216963 0.804021
O O4 0.548690 0.215387 0.705486
O O5 0.750000 0.786253 0.157886
O O6 0.895898 0.500000 0.159097
O O7 0.949548 0.751968 0.097861
O O8 0.500000 0.221169 0.500000
O O9 0.250000 0.225448 0.463244
O O10 0.405659 0.500000 0.454460
O O11 0.451017 0.214941 0.401369
O O12 0.250000 0.713022 0.347907
O O13 0.045289 0.500000 0.347985
O O14 0.750000 0.712520 0.038193
O O15 0.605972 0.000000 0.035667
O O16 0.500000 0.712848 0.000000
#
# Coordination Sequence:
#
# PCOD9407236 Si02
#       5
#     8   8   8   8   8
#     4   8  13  22  36  52  69  92 123 154 184 223
#     4   9  17  28  41  59  82 102 121 153 194 225
#     4   8  12  17  24  34  50  74 106 144 181 213
#     4   7  10  17  28  40  56  81 112 145 180 216
#     4   9  18  32  47  61  79 104 130 153 181 221
#
# _framework density 19.939872000000001
#
# number of rings (size 3 to 8) (size 9 to 14) (size 15 to 20)
#    0.000    3.800    0.000    2.400    0.000    1.200 
#    0.000    1.000    0.000    6.000    0.000    0.000 
#    0.000    0.000    0.000    0.000    0.000    1.000 
#
# Total GULP energy -222779.028828 kJ/mol
# GULP energy per Si atom -5569.475721 kJ/mol
# Density = 1.989449 g / cm^3
# Si number density = 19.939872 Si / 1000 Ang^3
#
#
#
# Elastic Constant Matrix: (Units=GPa)
#
#
# Indices 1 2 3 4 5 6 
#
# 1 74.1801 4.0032 114.2243 0.0000 0.0000 0.0000
# 2 4.0032 68.5572 5.1219 0.0000 0.0000 0.0000
# 3 114.2243 5.1219 258.7611 0.0000 0.0000 0.0000
# 4 0.0000 0.0000 0.0000 52.1563 0.0000 0.0000
# 5 0.0000 0.0000 0.0000 0.0000 33.5924 0.0000
# 6 0.0000 0.0000 0.0000 0.0000 0.0000 -10.7305
#
#
#
# Elastic Compliance Matrix: (Units=1/GPa)
#
#
# Indices 1 2 3 4 5 6 
#
# 1 0.042169 -0.001073 -0.018593 0.000000 0.000000 0.000000
# 2 -0.001073 0.014635 0.000184 0.000000 0.000000 0.000000
# 3 -0.018593 0.000184 0.012069 0.000000 0.000000 0.000000
# 4 0.000000 0.000000 0.000000 0.019173 0.000000 0.000000
# 5 0.000000 0.000000 0.000000 0.000000 0.029769 0.000000
# 6 0.000000 0.000000 0.000000 0.000000 0.000000 -0.093193
#
#
# Mechanical properties :
#
#
# Convention : Reuss Voigt Hill
#
# Bulk Modulus (GPa) = 33.43594 72.02191 52.72893
# Shear Modulus (GPa) = 67.97451 33.54690 50.76071
#
# Velocity S-wave (km/s) = 5.84498 4.10616 5.05096
# Velocity P-wave (km/s) = 7.89661 7.66020 7.77930
#
# Compressibility (1/GPa) = 0.02990794
#
# Stress axis : x y z
#
# Youngs Moduli (GPa) = 23.71394 68.32804 82.85968
#
# Poissons Ratio (x) = 0.07333 1.54065
# Poissons Ratio (y) = 0.02545 -0.01525
# Poissons Ratio (z) = 0.44092 -0.01258
#
# Static dielectric constant tensor:
#      x y z
#    x 1.668160 0.000000 0.000000 
#    y 0.000000 1.766910 0.000000 
#    z 0.000000 0.000000 1.718520 
# 
# From -- ./inp_files/32787.got.cif
#   From: 2010.05.17/outbox.cif.g08.bks.cpg/sg51_17_cif.got.tgz:32787.got - 2010.06.03 11:52:47.
