data_PCOD9407848
_publ_section_title
;
Structure prediction by ZEFSAII (Michael W. Deem and Ramdas Pophale) SiO2 
 PCOD9407848
Probable space group: P N N A
;
_chemical_formula_sum "Si O2"
_cell_formula_units_Z 28
_cell_length_a 14.908512
_cell_length_b 9.400690
_cell_length_c 6.967984
_cell_angle_alpha 90.000000
_cell_angle_beta 90.000000
_cell_angle_gamma 90.000000
_cell_volume 976.565046
_symmetry_space_group_name_H-M "P N N A"
_symmetry_group_IT_number 52
_symmetry_cell_setting 'orthorhombic'
loop_
_space_group_symop_operation_xyz
x,y,z
1/2-x,-y,z
x,1/2-y,1/2-z
1/2-x,1/2+y,1/2-z
-x,-y,-z
1/2+x,y,-z
-x,1/2+y,1/2+z
1/2+x,1/2-y,1/2+z
loop_
_atom_site_type_symbol
_atom_site_label
_atom_site_fract_x
_atom_site_fract_y
_atom_site_fract_z
Si Si1 0.175979 0.790614 0.968631
Si Si2 0.080041 0.111883 0.501355
Si Si3 0.376027 0.910982 0.945539
Si Si4 0.250000 0.500000 0.143335
O O1 0.156563 0.750000 0.750000
O O2 0.274234 0.861477 0.984288
O O3 0.191020 0.643219 0.078072
O O4 0.113355 0.926654 0.015712
O O5 0.123520 0.086405 0.711557
O O6 0.059225 0.280442 0.497140
O O7 0.155587 0.087282 0.341136
O O8 0.000000 0.000000 0.500000
#
# Coordination Sequence:
#
# PCOD9407848 Si02
#       4
#     8   8   8   4
#     4  10  12  24  47  64  87 118 149 196 254 300
#     4  10  17  27  42  64  93 119 155 200 242 299
#     4   9  16  26  41  67  90 120 156 192 254 310
#     4  10  16  26  44  70  88 116 148 190 254 296
#
# _framework density 28.671925999999999
#
# number of rings (size 3 to 8) (size 9 to 14) (size 15 to 20)
#    0.000    2.286    8.571    0.000    0.000    0.000 
#    0.000    1.429    0.000    0.000    0.000    8.000 
#    0.000    2.286    0.000    0.000    0.000    0.000 
#
# Total GULP energy -155877.037016 kJ/mol
# GULP energy per Si atom -5567.037036 kJ/mol
# Density = 2.860667 g / cm^3
# Si number density = 28.671926 Si / 1000 Ang^3
#
#
#
# Elastic Constant Matrix: (Units=GPa)
#
#
# Indices 1 2 3 4 5 6 
#
# 1 123.8893 61.2622 18.0187 0.0000 0.0000 0.0000
# 2 61.2622 349.9183 54.1043 0.0000 0.0000 0.0000
# 3 18.0187 54.1043 92.5299 0.0000 0.0000 0.0000
# 4 0.0000 0.0000 0.0000 40.5290 0.0000 0.0000
# 5 0.0000 0.0000 0.0000 0.0000 -16.1156 0.0000
# 6 0.0000 0.0000 0.0000 0.0000 0.0000 89.7396
#
#
#
# Elastic Compliance Matrix: (Units=1/GPa)
#
#
# Indices 1 2 3 4 5 6 
#
# 1 0.008905 -0.001419 -0.000904 0.000000 0.000000 0.000000
# 2 -0.001419 0.003368 -0.001693 0.000000 0.000000 0.000000
# 3 -0.000904 -0.001693 0.011973 0.000000 0.000000 0.000000
# 4 0.000000 0.000000 0.000000 0.024674 0.000000 0.000000
# 5 0.000000 0.000000 0.000000 0.000000 -0.062052 0.000000
# 6 0.000000 0.000000 0.000000 0.000000 0.000000 0.011143
#
#
# Mechanical properties :
#
#
# Convention : Reuss Voigt Hill
#
# Bulk Modulus (GPa) = 61.67720 92.56756 77.12238
# Shear Modulus (GPa) = 436.71643 51.69410 244.20527
#
# Velocity S-wave (km/s) = 12.35499 4.25072 9.23889
# Velocity P-wave (km/s) = 15.00285 7.51310 11.86449
#
# Compressibility (1/GPa) = 0.01621345
#
# Stress axis : x y z
#
# Youngs Moduli (GPa) = 112.29591 296.90715 83.51888
#
# Poissons Ratio (x) = 0.42138 0.07552
# Poissons Ratio (y) = 0.15938 0.14140
# Poissons Ratio (z) = 0.10154 0.50266
#
# Static dielectric constant tensor:
#      x y z
#    x 3.642440 0.000000 0.000000 
#    y 0.000000 2.182370 0.000000 
#    z 0.000000 0.000000 2.151510 
# 
# From -- ./inp_files/18765.got.cif
#   From: 2010.05.17/outbox.cif.g08.bks.cpg/sg52_10_cif.got.tgz:18765.got - 2010.06.03 12:15:38.
