data_PCOD9407975
_publ_section_title
;
Structure prediction by ZEFSAII (Michael W. Deem and Ramdas Pophale) SiO2 
 PCOD9407975
Probable space group: P N N A
;
_chemical_formula_sum "Si O2"
_cell_formula_units_Z 40
_cell_length_a 9.849543
_cell_length_b 12.927099
_cell_length_c 11.701018
_cell_angle_alpha 90.000000
_cell_angle_beta 90.000000
_cell_angle_gamma 90.000000
_cell_volume 1489.844022
_symmetry_space_group_name_H-M "P N N A"
_symmetry_group_IT_number 52
_symmetry_cell_setting 'orthorhombic'
loop_
_space_group_symop_operation_xyz
x,y,z
1/2-x,-y,z
x,1/2-y,1/2-z
1/2-x,1/2+y,1/2-z
-x,-y,-z
1/2+x,y,-z
-x,1/2+y,1/2+z
1/2+x,1/2-y,1/2+z
loop_
_atom_site_type_symbol
_atom_site_label
_atom_site_fract_x
_atom_site_fract_y
_atom_site_fract_z
Si Si1 0.107866 0.558257 0.919639
Si Si2 0.289935 0.683918 0.633143
Si Si3 0.576264 0.772129 0.585458
Si Si4 0.071103 0.541220 0.658096
Si Si5 0.849552 0.081503 0.789801
O O1 0.250000 0.500000 0.914909
O O2 0.055644 0.571915 0.791359
O O3 0.135119 0.668271 0.977702
O O4 0.000000 0.500000 0.000000
O O5 0.274331 0.750000 0.750000
O O6 0.420052 0.735436 0.570168
O O7 0.142074 0.637032 0.598122
O O8 0.352193 0.568952 0.659653
O O9 0.572607 0.858900 0.687316
O O10 0.676089 0.682209 0.632653
O O11 0.922611 0.501010 0.624092
O O12 0.750000 0.000000 0.730393
#
# Coordination Sequence:
#
# PCOD9407975 Si02
#       5
#     8   8   8   8   8
#     4  12  22  35  59  96 136 160 202 272 343 379
#     4  10  16  35  54  84 122 152 205 257 307 367
#     4  10  20  34  58  84 128 165 196 264 333 364
#     4  10  20  33  60  91 116 157 213 260 310 378
#     4  10  19  37  56  84 128 165 207 250 316 394
#
# _framework density 26.848445000000002
#
# number of rings (size 3 to 8) (size 9 to 14) (size 15 to 20)
#    0.000    1.600    8.000    0.600    0.000    0.000 
#    3.600    0.000    0.000    0.000    5.200    9.800 
#    0.000    0.000    0.000    0.000    0.000    0.000 
#
# Total GULP energy -223100.936361 kJ/mol
# GULP energy per Si atom -5577.523409 kJ/mol
# Density = 2.678734 g / cm^3
# Si number density = 26.848445 Si / 1000 Ang^3
#
#
#
# Elastic Constant Matrix: (Units=GPa)
#
#
# Indices 1 2 3 4 5 6 
#
# 1 81.0193 42.1909 -9.6324 0.0000 0.0000 0.0000
# 2 42.1909 177.6169 20.9835 0.0000 0.0000 0.0000
# 3 -9.6324 20.9835 84.8799 0.0000 0.0000 0.0000
# 4 0.0000 0.0000 0.0000 41.8235 0.0000 0.0000
# 5 0.0000 0.0000 0.0000 0.0000 12.1675 0.0000
# 6 0.0000 0.0000 0.0000 0.0000 0.0000 63.7204
#
#
#
# Elastic Compliance Matrix: (Units=1/GPa)
#
#
# Indices 1 2 3 4 5 6 
#
# 1 0.014619 -0.003779 0.002593 0.000000 0.000000 0.000000
# 2 -0.003779 0.006776 -0.002104 0.000000 0.000000 0.000000
# 3 0.002593 -0.002104 0.012596 0.000000 0.000000 0.000000
# 4 0.000000 0.000000 0.000000 0.023910 0.000000 0.000000
# 5 0.000000 0.000000 0.000000 0.000000 0.082186 0.000000
# 6 0.000000 0.000000 0.000000 0.000000 0.000000 0.015694
#
#
# Mechanical properties :
#
#
# Convention : Reuss Voigt Hill
#
# Bulk Modulus (GPa) = 36.48105 50.06667 43.27386
# Shear Modulus (GPa) = 29.15492 42.87387 36.01440
#
# Velocity S-wave (km/s) = 3.29889 4.00044 3.66648
# Velocity P-wave (km/s) = 5.30353 6.32664 5.83754
#
# Compressibility (1/GPa) = 0.02741149
#
# Stress axis : x y z
#
# Youngs Moduli (GPa) = 68.40449 147.57303 79.39161
#
# Poissons Ratio (x) = 0.55767 -0.20588
# Poissons Ratio (y) = 0.25850 0.16704
# Poissons Ratio (z) = -0.17739 0.31050
#
# Static dielectric constant tensor:
#      x y z
#    x 2.844130 0.000000 0.000000 
#    y 0.000000 2.156220 0.000000 
#    z 0.000000 0.000000 2.138660 
# 
# From -- ./inp_files/25823.got.cif
#   From: 2010.05.17/outbox.cif.g08.bks.cpg/sg52_13_cif.got.tgz:25823.got - 2010.06.03 12:15:38.
