data_PCOD9407582
_publ_section_title
;
Structure prediction by ZEFSAII (Michael W. Deem and Ramdas Pophale) SiO2 
 PCOD9407582
Probable space group: P M M A
;
_chemical_formula_sum "Si O2"
_cell_formula_units_Z 64
_cell_length_a 21.000000
_cell_length_b 9.000000
_cell_length_c 21.000000
_cell_angle_alpha 90.000000
_cell_angle_beta 90.000000
_cell_angle_gamma 90.000000
_cell_volume 3969.000000
_symmetry_space_group_name_H-M "P M M A"
_symmetry_group_IT_number 51
_symmetry_cell_setting 'orthorhombic'
loop_
_space_group_symop_operation_xyz
x,y,z
1/2-x,-y,z
1/2+x,-y,-z
-x,y,-z
-x,-y,-z
1/2+x,y,-z
1/2-x,y,z
x,-y,z
loop_
_atom_site_type_symbol
_atom_site_label
_atom_site_fract_x
_atom_site_fract_y
_atom_site_fract_z
Si Si1 0.037216 0.679207 0.564572
Si Si2 0.588766 0.677908 0.137819
Si Si3 0.177427 0.822275 0.964477
Si Si4 0.490194 0.831010 0.309630
Si Si5 0.676949 0.821793 0.883913
Si Si6 0.554038 0.321338 0.816414
Si Si7 0.321471 0.320885 0.609964
Si Si8 0.863773 0.168754 0.261990
O O1 0.035946 0.500000 0.568983
O O2 0.112873 0.722820 0.572145
O O3 0.000000 0.722059 0.500000
O O4 0.998075 0.747624 0.623506
O O5 0.591302 0.500000 0.138344
O O6 0.622272 0.741810 0.074956
O O7 0.513758 0.719679 0.148715
O O8 0.630772 0.742189 0.196283
O O9 0.250000 0.777872 0.945525
O O10 0.172310 0.000000 0.954500
O O11 0.171594 0.794805 0.040114
O O12 0.452210 0.743304 0.255131
O O13 0.562789 0.838887 0.284529
O O14 0.466582 0.000000 0.316902
O O15 0.750000 0.777683 0.865098
O O16 0.617581 0.743297 0.849294
O O17 0.672183 0.000000 0.874017
O O18 0.556943 0.500000 0.815006
O O19 0.250000 0.281178 0.584827
O O20 0.323432 0.500000 0.614730
O O21 0.328170 0.250787 0.680434
O O22 0.840338 0.000000 0.252770
#
# Coordination Sequence:
#
# PCOD9407582 Si02
#       8
#     8   8   8   8   8   8   8   8
#     4   9  17  30  49  72  98 129 162 195 235 284
#     4  10  20  32  47  70  99 129 161 198 241 289
#     4   9  19  35  51  67  91 125 164 204 245 293
#     4   9  17  30  49  72  96 122 155 194 234 278
#     4   9  19  36  55  73  94 123 161 204 251 301
#     4  10  20  33  51  75 101 127 158 200 246 291
#     4   9  17  29  45  66  93 124 158 195 233 275
#     4   9  17  29  45  65  90 121 156 192 231 277
#
# _framework density 16.124969
#
# number of rings (size 3 to 8) (size 9 to 14) (size 15 to 20)
#    0.000    2.750    0.000    2.250    0.000    7.000 
#    0.000    3.750    0.000    0.750    0.000    1.750 
#    0.000    0.000    0.000    0.000    0.000    0.000 
#
# Total GULP energy -356385.015801 kJ/mol
# GULP energy per Si atom -5568.515872 kJ/mol
# Density = 1.608827 g / cm^3
# Si number density = 16.124969 Si / 1000 Ang^3
#
#
#
# Elastic Constant Matrix: (Units=GPa)
#
#
# Indices 1 2 3 4 5 6 
#
# 1 125.9129 44.2100 67.5375 0.0000 0.0000 0.0000
# 2 44.2100 48.9739 40.4229 0.0000 0.0000 0.0000
# 3 67.5375 40.4229 92.8112 0.0000 0.0000 0.0000
# 4 0.0000 0.0000 0.0000 21.6902 0.0000 0.0000
# 5 0.0000 0.0000 0.0000 0.0000 25.9477 0.0000
# 6 0.0000 0.0000 0.0000 0.0000 0.0000 26.5436
#
#
#
# Elastic Compliance Matrix: (Units=1/GPa)
#
#
# Indices 1 2 3 4 5 6 
#
# 1 0.014329 -0.006758 -0.007484 0.000000 0.000000 0.000000
# 2 -0.006758 0.035067 -0.010355 0.000000 0.000000 0.000000
# 3 -0.007484 -0.010355 0.020730 0.000000 0.000000 0.000000
# 4 0.000000 0.000000 0.000000 0.046104 0.000000 0.000000
# 5 0.000000 0.000000 0.000000 0.000000 0.038539 0.000000
# 6 0.000000 0.000000 0.000000 0.000000 0.000000 0.037674
#
#
# Mechanical properties :
#
#
# Convention : Reuss Voigt Hill
#
# Bulk Modulus (GPa) = 47.77283 63.55985 55.66634
# Shear Modulus (GPa) = 20.11150 22.53816 21.32483
#
# Velocity S-wave (km/s) = 3.53544 3.74266 3.64053
# Velocity P-wave (km/s) = 6.80858 7.62754 7.22966
#
# Compressibility (1/GPa) = 0.02093240
#
# Stress axis : x y z
#
# Youngs Moduli (GPa) = 69.78878 28.51689 48.23856
#
# Poissons Ratio (x) = 0.19272 0.36099
# Poissons Ratio (y) = 0.47165 0.49952
# Poissons Ratio (z) = 0.52227 0.29530
#
# Static dielectric constant tensor:
#      x y z
#    x 1.546840 0.000000 0.000000 
#    y 0.000000 1.549100 0.000000 
#    z 0.000000 0.000000 1.530340 
# 
# From -- ./inp_files/30631.got.cif
#   From: 2010.05.17/outbox.ucp.g08.bks.cvg/sg51_16_cif.got.tgz:30631.got - 2010.06.11 16:27:58.
