data_PCOD9407709
_publ_section_title
;
Structure prediction by ZEFSAII (Michael W. Deem and Ramdas Pophale) SiO2 
 PCOD9407709
Probable space group: P M M A
;
_chemical_formula_sum "Si O2"
_cell_formula_units_Z 40
_cell_length_a 18.000000
_cell_length_b 9.000000
_cell_length_c 12.000000
_cell_angle_alpha 90.000000
_cell_angle_beta 90.000000
_cell_angle_gamma 90.000000
_cell_volume 1944.000000
_symmetry_space_group_name_H-M "P M M A"
_symmetry_group_IT_number 51
_symmetry_cell_setting 'orthorhombic'
loop_
_space_group_symop_operation_xyz
x,y,z
1/2-x,-y,z
1/2+x,-y,-z
-x,y,-z
-x,-y,-z
1/2+x,y,-z
1/2-x,y,z
x,-y,z
loop_
_atom_site_type_symbol
_atom_site_label
_atom_site_fract_x
_atom_site_fract_y
_atom_site_fract_z
Si Si1 0.397474 0.824168 0.778364
Si Si2 0.419618 0.328632 0.550687
Si Si3 0.330869 0.676230 0.977192
Si Si4 0.563304 0.825390 0.850386
Si Si5 0.836698 0.670140 0.676694
O O1 0.396627 0.775396 0.651045
O O2 0.479245 0.781643 0.824220
O O3 0.388127 0.000000 0.790535
O O4 0.338934 0.738228 0.853300
O O5 0.500000 0.287183 0.500000
O O6 0.426490 0.500000 0.590438
O O7 0.360670 0.324156 0.451428
O O8 0.250000 0.720204 0.024405
O O9 0.335260 0.500000 0.977488
O O10 0.397226 0.742838 0.048819
O O11 0.612741 0.782759 0.744220
O O12 0.564439 0.000000 0.872878
O O13 0.750000 0.699282 0.690581
O O14 0.851678 0.500000 0.716316
#
# Coordination Sequence:
#
# PCOD9407709 Si02
#       5
#     8   8   8   8   8
#     4  11  24  40  62  91 123 158 200 248 300 360
#     4  10  20  37  61  87 118 159 203 246 296 351
#     4  11  25  43  63  88 119 157 202 250 300 358
#     4  11  23  39  61  90 123 157 197 246 300 360
#     4  10  21  37  59  88 120 156 202 252 300 354
#
# _framework density 20.576132000000001
#
# number of rings (size 3 to 8) (size 9 to 14) (size 15 to 20)
#    0.000    1.400    2.000    3.000    0.000   11.200 
#    0.000    2.000    0.000    0.000    0.000    0.000 
#    0.000    0.000    0.000    0.000    0.000    0.000 
#
# Total GULP energy -223581.790929 kJ/mol
# GULP energy per Si atom -5589.544773 kJ/mol
# Density = 2.052930 g / cm^3
# Si number density = 20.576132 Si / 1000 Ang^3
#
#
#
# Elastic Constant Matrix: (Units=GPa)
#
#
# Indices 1 2 3 4 5 6 
#
# 1 55.8304 28.6135 20.4257 0.0000 0.0000 0.0000
# 2 28.6135 16.9705 23.9829 0.0000 0.0000 0.0000
# 3 20.4257 23.9829 72.2675 0.0000 0.0000 0.0000
# 4 0.0000 0.0000 0.0000 43.3735 0.0000 0.0000
# 5 0.0000 0.0000 0.0000 0.0000 32.6246 0.0000
# 6 0.0000 0.0000 0.0000 0.0000 0.0000 28.5190
#
#
#
# Elastic Compliance Matrix: (Units=1/GPa)
#
#
# Indices 1 2 3 4 5 6 
#
# 1 -0.350920 0.850291 -0.182996 0.000000 0.000000 0.000000
# 2 0.850291 -1.949312 0.406578 0.000000 0.000000 0.000000
# 3 -0.182996 0.406578 -0.069369 0.000000 0.000000 0.000000
# 4 0.000000 0.000000 0.000000 0.023056 0.000000 0.000000
# 5 0.000000 0.000000 0.000000 0.000000 0.030652 0.000000
# 6 0.000000 0.000000 0.000000 0.000000 0.000000 0.035064
#
#
# Mechanical properties :
#
#
# Convention : Reuss Voigt Hill
#
# Bulk Modulus (GPa) = -4.50746 32.34585 13.91920
# Shear Modulus (GPa) = -1.11049 25.70650 12.29800
#
# Velocity S-wave (km/s) = -0.73544 3.53843 2.44741
# Velocity P-wave (km/s) = 1.70779 5.69633 3.84263
#
# Compressibility (1/GPa) = -0.22185465
#
# Stress axis : x y z
#
# Youngs Moduli (GPa) = -2.84965 -0.51300 -14.41570
#
# Poissons Ratio (x) = 0.43620 -2.63801
# Poissons Ratio (y) = 2.42303 5.86111
# Poissons Ratio (z) = -0.52147 0.20858
#
# Static dielectric constant tensor:
#      x y z
#    x 1.736630 0.000000 0.000000 
#    y 0.000000 1.699520 0.000000 
#    z 0.000000 0.000000 1.764900 
# 
# From -- ./inp_files/17054.got.cif
#   From: 2010.05.17/outbox.ucp.g08.bks.cvg/sg51_9_cif.got.tgz:17054.got - 2010.06.11 16:27:58.
