data_PCOD9407645
_publ_section_title
;
Structure prediction by ZEFSAII (Michael W. Deem and Ramdas Pophale) SiO2 
 PCOD9407645
Probable space group: P M M A
;
_chemical_formula_sum "Si O2"
_cell_formula_units_Z 64
_cell_length_a 30.000000
_cell_length_b 9.000000
_cell_length_c 12.000000
_cell_angle_alpha 90.000000
_cell_angle_beta 90.000000
_cell_angle_gamma 90.000000
_cell_volume 3240.000000
_symmetry_space_group_name_H-M "P M M A"
_symmetry_group_IT_number 51
_symmetry_cell_setting 'orthorhombic'
loop_
_space_group_symop_operation_xyz
x,y,z
1/2-x,-y,z
1/2+x,-y,-z
-x,y,-z
-x,-y,-z
1/2+x,y,-z
1/2-x,y,z
x,-y,z
loop_
_atom_site_type_symbol
_atom_site_label
_atom_site_fract_x
_atom_site_fract_y
_atom_site_fract_z
Si Si1 0.551207 0.677086 0.017512
Si Si2 0.198585 0.330761 0.021945
Si Si3 0.121826 0.170684 0.137654
Si Si4 0.382682 0.670681 0.362061
Si Si5 0.470719 0.832557 0.388426
Si Si6 0.624047 0.677769 0.392681
Si Si7 0.797701 0.676649 0.242885
Si Si8 0.554615 0.828254 0.248634
O O1 0.553389 0.500000 0.019980
O O2 0.566006 0.739873 0.137164
O O3 0.500000 0.723530 0.000000
O O4 0.582540 0.736808 0.920317
O O5 0.250000 0.316872 0.056318
O O6 0.183642 0.500000 0.049136
O O7 0.166716 0.210460 0.073461
O O8 0.196862 0.314435 0.888953
O O9 0.129885 0.222710 0.262844
O O10 0.109996 0.000000 0.130763
O O11 0.375199 0.500000 0.331203
O O12 0.434614 0.704384 0.384262
O O13 0.361122 0.702633 0.481171
O O14 0.500000 0.824696 0.500000
O O15 0.502805 0.819357 0.281782
O O16 0.450517 0.000000 0.387044
O O17 0.617042 0.500000 0.379948
O O18 0.661236 0.737684 0.309493
O O19 0.579974 0.760439 0.354157
O O20 0.750000 0.741728 0.274275
O O21 0.796682 0.500000 0.268658
O O22 0.566250 0.000000 0.234102
#
# Coordination Sequence:
#
# PCOD9407645 Si02
#       8
#     8   8   8   8   8   8   8   8
#     4  11  24  41  60  83 114 151 193 244 298 352
#     4   9  18  36  64  93 119 150 190 239 295 355
#     4  12  25  40  60  84 116 158 199 245 303 361
#     4  11  23  37  55  81 114 153 199 244 286 337
#     4  10  20  36  55  78 111 152 192 233 284 340
#     4  10  20  34  55  83 112 144 185 231 276 330
#     4   8  15  31  57  86 112 138 171 218 276 332
#     4  11  22  35  56  83 112 145 185 231 282 342
#
# _framework density 19.753086
#
# number of rings (size 3 to 8) (size 9 to 14) (size 15 to 20)
#    0.000    1.750    1.250    4.500    0.000    6.000 
#    0.000    0.625    0.000    3.375    0.000    0.000 
#    0.000    0.000    0.000    0.000    0.000    0.000 
#
# Total GULP energy -357066.599361 kJ/mol
# GULP energy per Si atom -5579.165615 kJ/mol
# Density = 1.970813 g / cm^3
# Si number density = 19.753086 Si / 1000 Ang^3
#
#
#
# Elastic Constant Matrix: (Units=GPa)
#
#
# Indices 1 2 3 4 5 6 
#
# 1 41.7985 15.5836 19.3378 0.0000 0.0000 0.0000
# 2 15.5836 26.0633 22.7098 0.0000 0.0000 0.0000
# 3 19.3378 22.7098 19.0763 0.0000 0.0000 0.0000
# 4 0.0000 0.0000 0.0000 37.3709 0.0000 0.0000
# 5 0.0000 0.0000 0.0000 0.0000 -12.5479 0.0000
# 6 0.0000 0.0000 0.0000 0.0000 0.0000 -23.2590
#
#
#
# Elastic Compliance Matrix: (Units=1/GPa)
#
#
# Indices 1 2 3 4 5 6 
#
# 1 0.012642 -0.096726 0.102335 0.000000 0.000000 0.000000
# 2 -0.096726 -0.288660 0.441694 0.000000 0.000000 0.000000
# 3 0.102335 0.441694 -0.577141 0.000000 0.000000 0.000000
# 4 0.000000 0.000000 0.000000 0.026759 0.000000 0.000000
# 5 0.000000 0.000000 0.000000 0.000000 -0.079695 0.000000
# 6 0.000000 0.000000 0.000000 0.000000 0.000000 -0.042994
#
#
# Mechanical properties :
#
#
# Convention : Reuss Voigt Hill
#
# Bulk Modulus (GPa) = 24.12785 22.46670 23.29728
# Shear Modulus (GPa) = -2.73242 2.26659 -0.23292
#
# Velocity S-wave (km/s) = -1.17741 1.07236 -0.34376
# Velocity P-wave (km/s) = 3.22379 3.59607 3.41501
#
# Compressibility (1/GPa) = 0.04144588
#
# Stress axis : x y z
#
# Youngs Moduli (GPa) = 79.10097 -3.46428 -1.73268
#
# Poissons Ratio (x) = -0.33509 0.17731
# Poissons Ratio (y) = 7.65115 0.76531
# Poissons Ratio (z) = -8.09478 1.53015
#
# Static dielectric constant tensor:
#      x y z
#    x 1.763130 0.000000 0.000000 
#    y 0.000000 1.663800 0.000000 
#    z 0.000000 0.000000 1.733130 
# 
# From -- ./inp_files/19553.got.cif
#   From: 2010.05.17/outbox.ucp.g08.bks.cvg/sg51_10_cif.got.tgz:19553.got - 2010.06.11 16:27:58.
