data_PCOD9407388
_publ_section_title
;
Structure prediction by ZEFSAII (Michael W. Deem and Ramdas Pophale) SiO2 
 PCOD9407388
Probable space group: P M M A
;
_chemical_formula_sum "Si O2"
_cell_formula_units_Z 32
_cell_length_a 7.383636
_cell_length_b 8.048244
_cell_length_c 24.757747
_cell_angle_alpha 90.000000
_cell_angle_beta 90.000000
_cell_angle_gamma 90.000000
_cell_volume 1471.236645
_symmetry_space_group_name_H-M "P M M A"
_symmetry_group_IT_number 51
_symmetry_cell_setting 'orthorhombic'
loop_
_space_group_symop_operation_xyz
x,y,z
1/2-x,-y,z
1/2+x,-y,-z
-x,y,-z
-x,-y,-z
1/2+x,y,-z
1/2-x,y,z
x,-y,z
loop_
_atom_site_type_symbol
_atom_site_label
_atom_site_fract_x
_atom_site_fract_y
_atom_site_fract_z
Si Si1 0.528966 0.000000 0.243348
Si Si2 0.966019 0.809723 0.059369
Si Si3 0.466375 0.313467 0.563057
Si Si4 0.971936 0.000000 0.367812
Si Si5 0.028784 0.317271 0.825839
O O1 0.470508 0.835328 0.211392
O O2 0.750000 0.000000 0.242537
O O3 0.472840 0.000000 0.305499
O O4 0.750000 0.819597 0.064788
O O5 0.030421 0.714664 0.112350
O O6 0.036460 0.000000 0.059924
O O7 0.000000 0.737088 0.000000
O O8 0.500000 0.276277 0.500000
O O9 0.250000 0.319844 0.570290
O O10 0.536702 0.500000 0.574180
O O11 0.533255 0.165231 0.600775
O O12 0.750000 0.000000 0.368868
O O13 0.250000 0.315905 0.825443
O O14 0.971539 0.500000 0.807584
#
# Coordination Sequence:
#
# PCOD9407388 Si02
#       5
#     4   8   8   4   8
#     4   9  16  27  40  59  87 115 144 179 218 256
#     4   9  16  27  43  63  87 112 139 175 217 260
#     4   9  17  29  45  67  94 120 146 178 216 257
#     4   9  17  27  42  63  89 119 148 181 218 256
#     4   9  16  26  41  60  84 114 144 175 215 262
#
# _framework density 21.750408
#
# number of rings (size 3 to 8) (size 9 to 14) (size 15 to 20)
#    0.000    3.000    1.250    0.375    0.000    1.500 
#    0.000    5.000    0.000    0.000    0.000    3.500 
#    0.000    0.000    0.000    0.000    0.000    0.000 
#
# Total GULP energy -178638.581987 kJ/mol
# GULP energy per Si atom -5582.455687 kJ/mol
# Density = 2.170090 g / cm^3
# Si number density = 21.750408 Si / 1000 Ang^3
#
#
#
# Elastic Constant Matrix: (Units=GPa)
#
#
# Indices 1 2 3 4 5 6 
#
# 1 75.8440 6.5646 0.2623 0.0000 0.0000 0.0000
# 2 6.5646 205.8340 144.5116 0.0000 0.0000 0.0000
# 3 0.2623 144.5116 187.5222 0.0000 0.0000 0.0000
# 4 0.0000 0.0000 0.0000 -4.9584 0.0000 0.0000
# 5 0.0000 0.0000 0.0000 0.0000 15.2877 0.0000
# 6 0.0000 0.0000 0.0000 0.0000 0.0000 352.8785
#
#
#
# Elastic Compliance Matrix: (Units=1/GPa)
#
#
# Indices 1 2 3 4 5 6 
#
# 1 0.013260 -0.000893 0.000670 0.000000 0.000000 0.000000
# 2 -0.000893 0.010646 -0.008203 0.000000 0.000000 0.000000
# 3 0.000670 -0.008203 0.011653 0.000000 0.000000 0.000000
# 4 0.000000 0.000000 0.000000 -0.201677 0.000000 0.000000
# 5 0.000000 0.000000 0.000000 0.000000 0.065412 0.000000
# 6 0.000000 0.000000 0.000000 0.000000 0.000000 0.002834
#
#
# Mechanical properties :
#
#
# Convention : Reuss Voigt Hill
#
# Bulk Modulus (GPa) = 53.45729 85.76412 69.61071
# Shear Modulus (GPa) = -66.85915 93.83234 13.48660
#
# Velocity S-wave (km/s) = -5.55031 6.57527 2.49281
# Velocity P-wave (km/s) = 4.05508 9.85709 6.35289
#
# Compressibility (1/GPa) = 0.01870652
#
# Stress axis : x y z
#
# Youngs Moduli (GPa) = 75.41509 93.93424 85.81396
#
# Poissons Ratio (x) = 0.08389 -0.05747
# Poissons Ratio (y) = 0.06735 0.70391
# Poissons Ratio (z) = -0.05050 0.77052
#
# Static dielectric constant tensor:
#      x y z
#    x 1.856660 0.000000 0.000000 
#    y 0.000000 1.782570 0.000000 
#    z 0.000000 0.000000 1.742290 
# 
# From -- ./inp_files/28744.got.cif
#   From: 2010.05.17/outbox.cif.g08.bks.cpg/sg51_15_cif.got.tgz:28744.got - 2010.06.03 11:52:47.
