data_PCOD9407341
_publ_section_title
;
Structure prediction by ZEFSAII (Michael W. Deem and Ramdas Pophale) SiO2 
 PCOD9407341
Probable space group: P M M A
;
_chemical_formula_sum "Si O2"
_cell_formula_units_Z 52
_cell_length_a 7.384883
_cell_length_b 16.349464
_cell_length_c 20.221718
_cell_angle_alpha 90.000000
_cell_angle_beta 90.000000
_cell_angle_gamma 90.000000
_cell_volume 2441.547558
_symmetry_space_group_name_H-M "P M M A"
_symmetry_group_IT_number 51
_symmetry_cell_setting 'orthorhombic'
loop_
_space_group_symop_operation_xyz
x,y,z
1/2-x,-y,z
1/2+x,-y,-z
-x,y,-z
-x,-y,-z
1/2+x,y,-z
1/2-x,y,z
x,-y,z
loop_
_atom_site_type_symbol
_atom_site_label
_atom_site_fract_x
_atom_site_fract_y
_atom_site_fract_z
Si Si1 0.533489 0.321236 0.077383
Si Si2 0.470969 0.410701 0.715376
Si Si3 0.529045 0.753319 0.207513
Si Si4 0.465752 0.833112 0.572993
Si Si5 0.971442 0.908884 0.290997
Si Si6 0.034370 0.500000 0.921131
Si Si7 0.033943 0.645711 0.573352
O O1 0.750000 0.325955 0.083051
O O2 0.471691 0.256163 0.131361
O O3 0.500000 0.306075 0.000000
O O4 0.463328 0.411255 0.099022
O O5 0.250000 0.410615 0.717857
O O6 0.528142 0.500000 0.741220
O O7 0.527627 0.329189 0.753992
O O8 0.528384 0.401058 0.638673
O O9 0.750000 0.754422 0.210116
O O10 0.468680 0.835461 0.243571
O O11 0.500000 0.867051 0.500000
O O12 0.250000 0.826959 0.580555
O O13 0.530380 0.885675 0.634663
O O14 0.536452 0.739509 0.575142
O O15 0.750000 0.909059 0.290288
O O16 0.029958 0.000000 0.272728
O O17 0.250000 0.500000 0.907295
O O18 0.000000 0.500000 0.000000
O O19 0.250000 0.649682 0.579774
O O20 0.000000 0.611545 0.500000
#
# Coordination Sequence:
#
# PCOD9407341 Si02
#       7
#     8   8   8   8   8   4   8
#     4   9  17  28  45  67  91 117 145 176 213 257
#     4   9  16  25  40  62  86 112 146 185 220 252
#     4   9  16  27  43  64  88 113 144 181 217 257
#     4   9  16  27  43  63  87 114 143 179 221 263
#     4   9  16  27  44  65  88 113 143 182 224 259
#     4   8  14  24  38  62  90 114 139 168 204 248
#     4   9  16  27  42  60  84 114 147 183 220 256
#
# _framework density 21.297965999999999
#
# number of rings (size 3 to 8) (size 9 to 14) (size 15 to 20)
#    0.000    3.077    1.538    0.000    1.077    0.615 
#    0.000    0.000    0.000    2.308    0.000    0.000 
#    0.000    0.000    0.000    0.000    0.000    0.000 
#
# Total GULP energy -290058.896788 kJ/mol
# GULP energy per Si atom -5578.055707 kJ/mol
# Density = 2.124949 g / cm^3
# Si number density = 21.297966 Si / 1000 Ang^3
#
#
#
# Elastic Constant Matrix: (Units=GPa)
#
#
# Indices 1 2 3 4 5 6 
#
# 1 72.5409 4.2867 -1.8539 0.0000 0.0000 0.0000
# 2 4.2867 162.6757 97.7719 0.0000 0.0000 0.0000
# 3 -1.8539 97.7719 148.9296 0.0000 0.0000 0.0000
# 4 0.0000 0.0000 0.0000 17.5824 0.0000 0.0000
# 5 0.0000 0.0000 0.0000 0.0000 11.9770 0.0000
# 6 0.0000 0.0000 0.0000 0.0000 0.0000 -2.6396
#
#
#
# Elastic Compliance Matrix: (Units=1/GPa)
#
#
# Indices 1 2 3 4 5 6 
#
# 1 0.013848 -0.000774 0.000680 0.000000 0.000000 0.000000
# 2 -0.000774 0.010197 -0.006704 0.000000 0.000000 0.000000
# 3 0.000680 -0.006704 0.011124 0.000000 0.000000 0.000000
# 4 0.000000 0.000000 0.000000 0.056875 0.000000 0.000000
# 5 0.000000 0.000000 0.000000 0.000000 0.083493 0.000000
# 6 0.000000 0.000000 0.000000 0.000000 0.000000 -0.378847
#
#
# Mechanical properties :
#
#
# Convention : Reuss Voigt Hill
#
# Bulk Modulus (GPa) = 46.35031 64.95061 55.65046
# Shear Modulus (GPa) = -27.39376 24.31341 -1.54018
#
# Velocity S-wave (km/s) = -3.59027 3.38240 -0.85131
# Velocity P-wave (km/s) = 2.15018 6.76879 5.02194
#
# Compressibility (1/GPa) = 0.02157483
#
# Stress axis : x y z
#
# Youngs Moduli (GPa) = 72.21024 98.07105 89.89548
#
# Poissons Ratio (x) = 0.07590 -0.06117
# Poissons Ratio (y) = 0.05588 0.60264
# Poissons Ratio (z) = -0.04914 0.65744
#
# Static dielectric constant tensor:
#      x y z
#    x 1.828400 0.000000 0.000000 
#    y 0.000000 1.759570 0.000000 
#    z 0.000000 0.000000 1.777950 
# 
# From -- ./inp_files/29079.got.cif
#   From: 2010.05.17/outbox.cif.g08.bks.cpg/sg51_15_cif.got.tgz:29079.got - 2010.06.03 11:52:47.
