data_PCOD9407504
_publ_section_title
;
Structure prediction by ZEFSAII (Michael W. Deem and Ramdas Pophale) SiO2 
 PCOD9407504
Probable space group: P M M A
;
_chemical_formula_sum "Si O2"
_cell_formula_units_Z 56
_cell_length_a 9.000000
_cell_length_b 21.000000
_cell_length_c 15.000000
_cell_angle_alpha 90.000000
_cell_angle_beta 90.000000
_cell_angle_gamma 90.000000
_cell_volume 2835.000000
_symmetry_space_group_name_H-M "P M M A"
_symmetry_group_IT_number 51
_symmetry_cell_setting 'orthorhombic'
loop_
_space_group_symop_operation_xyz
x,y,z
1/2-x,-y,z
1/2+x,-y,-z
-x,y,-z
-x,-y,-z
1/2+x,y,-z
1/2-x,y,z
x,-y,z
loop_
_atom_site_type_symbol
_atom_site_label
_atom_site_fract_x
_atom_site_fract_y
_atom_site_fract_z
Si Si1 0.580693 0.068807 0.288108
Si Si2 0.418732 0.688937 0.410784
Si Si3 0.927436 0.792576 0.090785
Si Si4 0.427606 0.572820 0.902259
Si Si5 0.080384 0.926916 0.110984
Si Si6 0.430656 0.313548 0.210603
Si Si7 0.078828 0.842149 0.410809
O O1 0.750000 0.073491 0.252163
O O2 0.453636 0.066156 0.214598
O O3 0.535983 0.131343 0.339599
O O4 0.575431 0.000000 0.337048
O O5 0.500000 0.666914 0.500000
O O6 0.250000 0.665742 0.414302
O O7 0.479601 0.674588 0.312750
O O8 0.416451 0.766043 0.412668
O O9 0.750000 0.786116 0.091606
O O10 0.972644 0.867543 0.089985
O O11 0.001169 0.751915 0.170498
O O12 0.000000 0.765585 0.000000
O O13 0.250000 0.584630 0.906826
O O14 0.449103 0.500000 0.868290
O O15 0.507999 0.627335 0.845777
O O16 0.500000 0.574927 0.000000
O O17 0.250000 0.908705 0.090505
O O18 0.057977 0.000000 0.078844
O O19 0.250000 0.308960 0.207907
O O20 0.250000 0.864244 0.399985
O O21 0.000000 0.865546 0.500000
#
# Coordination Sequence:
#
# PCOD9407504 Si02
#       7
#     8   8   8   8   8   8   8
#     4  10  20  33  49  70  95 126 169 220 276 341
#     4   9  20  36  56  82 111 145 185 233 284 338
#     4  12  25  40  59  84 116 153 194 242 295 351
#     4  10  21  38  61  91 127 166 206 245 288 343
#     4  10  21  38  58  78 103 139 184 234 288 346
#     4  11  22  38  61  90 124 158 196 243 296 350
#     4  10  19  32  49  69  96 130 171 221 281 345
#
# _framework density 19.753086
#
# number of rings (size 3 to 8) (size 9 to 14) (size 15 to 20)
#    0.000    1.714    0.000    4.714    0.000    6.000 
#    0.000    0.000    0.000    0.429    0.000    0.000 
#    0.000    0.000    0.000    0.000    0.000    0.000 
#
# Total GULP energy -311935.849437 kJ/mol
# GULP energy per Si atom -5570.283026 kJ/mol
# Density = 1.970813 g / cm^3
# Si number density = 19.753086 Si / 1000 Ang^3
#
#
#
# Elastic Constant Matrix: (Units=GPa)
#
#
# Indices 1 2 3 4 5 6 
#
# 1 92.1610 48.5717 42.9519 0.0000 0.0000 0.0000
# 2 48.5717 57.8291 26.6741 0.0000 0.0000 0.0000
# 3 42.9519 26.6741 90.1205 0.0000 0.0000 0.0000
# 4 0.0000 0.0000 0.0000 72.1462 0.0000 0.0000
# 5 0.0000 0.0000 0.0000 0.0000 26.8287 0.0000
# 6 0.0000 0.0000 0.0000 0.0000 0.0000 25.8169
#
#
#
# Elastic Compliance Matrix: (Units=1/GPa)
#
#
# Indices 1 2 3 4 5 6 
#
# 1 0.021768 -0.015632 -0.005748 0.000000 0.000000 0.000000
# 2 -0.015632 0.031252 -0.001800 0.000000 0.000000 0.000000
# 3 -0.005748 -0.001800 0.014368 0.000000 0.000000 0.000000
# 4 0.000000 0.000000 0.000000 0.013861 0.000000 0.000000
# 5 0.000000 0.000000 0.000000 0.000000 0.037273 0.000000
# 6 0.000000 0.000000 0.000000 0.000000 0.000000 0.038734
#
#
# Mechanical properties :
#
#
# Convention : Reuss Voigt Hill
#
# Bulk Modulus (GPa) = 47.55318 52.94509 50.24913
# Shear Modulus (GPa) = 23.73874 33.08590 28.41232
#
# Velocity S-wave (km/s) = 3.47042 4.09708 3.79670
# Velocity P-wave (km/s) = 6.33912 7.01734 6.68684
#
# Compressibility (1/GPa) = 0.02102909
#
# Stress axis : x y z
#
# Youngs Moduli (GPa) = 45.93908 31.99781 69.59700
#
# Poissons Ratio (x) = 0.50019 0.40004
# Poissons Ratio (y) = 0.71812 0.12526
# Poissons Ratio (z) = 0.26405 0.05759
#
# Static dielectric constant tensor:
#      x y z
#    x 1.657160 0.000000 0.000000 
#    y 0.000000 1.690050 0.000000 
#    z 0.000000 0.000000 1.661940 
# 
# From -- ./inp_files/21863.got.cif
#   From: 2010.05.17/outbox.ucp.g08.bks.cvg/sg51_11_cif.got.tgz:21863.got - 2010.06.11 16:27:58.
