data_PCOD9407477
_publ_section_title
;
Structure prediction by ZEFSAII (Michael W. Deem and Ramdas Pophale) SiO2 
 PCOD9407477
Probable space group: P M M A
;
_chemical_formula_sum "Si O2"
_cell_formula_units_Z 64
_cell_length_a 30.000000
_cell_length_b 9.000000
_cell_length_c 12.000000
_cell_angle_alpha 90.000000
_cell_angle_beta 90.000000
_cell_angle_gamma 90.000000
_cell_volume 3240.000000
_symmetry_space_group_name_H-M "P M M A"
_symmetry_group_IT_number 51
_symmetry_cell_setting 'orthorhombic'
loop_
_space_group_symop_operation_xyz
x,y,z
1/2-x,-y,z
1/2+x,-y,-z
-x,y,-z
-x,-y,-z
1/2+x,y,-z
1/2-x,y,z
x,-y,z
loop_
_atom_site_type_symbol
_atom_site_label
_atom_site_fract_x
_atom_site_fract_y
_atom_site_fract_z
Si Si1 0.200875 0.330372 0.990220
Si Si2 0.102922 0.321404 0.245555
Si Si3 0.479631 0.819766 0.122634
Si Si4 0.299997 0.823818 0.221534
Si Si5 0.345096 0.827373 0.800704
Si Si6 0.801531 0.679618 0.412494
Si Si7 0.898337 0.677304 0.505493
Si Si8 0.056218 0.172879 0.701953
O O1 0.250000 0.327864 0.935382
O O2 0.193654 0.500000 0.029876
O O3 0.164326 0.276785 0.904935
O O4 0.202412 0.216016 0.091117
O O5 0.104095 0.500000 0.231006
O O6 0.068469 0.250021 0.156505
O O7 0.153919 0.260335 0.249882
O O8 0.086044 0.284599 0.370355
O O9 0.515857 0.775517 0.218301
O O10 0.475402 0.000000 0.123723
O O11 0.500000 0.780121 0.000000
O O12 0.250000 0.777858 0.266345
O O13 0.304584 0.000000 0.241573
O O14 0.314482 0.764036 0.701078
O O15 0.396956 0.819104 0.768739
O O16 0.334029 0.000000 0.822653
O O17 0.750000 0.716272 0.446625
O O18 0.802586 0.500000 0.397405
O O19 0.845410 0.718851 0.487810
O O20 0.899370 0.500000 0.493675
O O21 0.930750 0.744760 0.412165
O O22 0.047628 0.000000 0.676239
#
# Coordination Sequence:
#
# PCOD9407477 Si02
#       8
#     8   8   8   8   8   8   8   8
#     4  10  20  33  50  76 111 152 198 245 296 356
#     4  11  24  41  63  93 125 158 201 251 304 365
#     4  10  23  43  66  91 121 160 203 251 310 370
#     4  10  22  40  61  86 118 159 204 247 296 355
#     4  10  19  30  49  78 113 152 195 244 300 357
#     4   9  17  31  51  76 109 152 200 244 291 351
#     4   9  20  38  59  85 118 158 201 248 305 364
#     4   9  20  38  59  86 117 154 201 250 301 358
#
# _framework density 19.753086
#
# number of rings (size 3 to 8) (size 9 to 14) (size 15 to 20)
#    0.000    2.250    0.000    1.875    1.750    6.500 
#    0.000    3.750    0.000    0.000    0.000    0.000 
#    0.000    0.000    0.000    0.000    0.000    0.000 
#
# Total GULP energy -356665.548770 kJ/mol
# GULP energy per Si atom -5572.899200 kJ/mol
# Density = 1.970813 g / cm^3
# Si number density = 19.753086 Si / 1000 Ang^3
#
#
#
# Elastic Constant Matrix: (Units=GPa)
#
#
# Indices 1 2 3 4 5 6 
#
# 1 104.7459 31.1446 47.8657 0.0000 0.0000 0.0000
# 2 31.1446 36.8732 18.6948 0.0000 0.0000 0.0000
# 3 47.8657 18.6948 78.1757 0.0000 0.0000 0.0000
# 4 0.0000 0.0000 0.0000 31.1771 0.0000 0.0000
# 5 0.0000 0.0000 0.0000 0.0000 14.4254 0.0000
# 6 0.0000 0.0000 0.0000 0.0000 0.0000 25.1821
#
#
#
# Elastic Compliance Matrix: (Units=1/GPa)
#
#
# Indices 1 2 3 4 5 6 
#
# 1 0.015757 -0.009579 -0.007357 0.000000 0.000000 0.000000
# 2 -0.009579 0.036685 -0.002908 0.000000 0.000000 0.000000
# 3 -0.007357 -0.002908 0.017992 0.000000 0.000000 0.000000
# 4 0.000000 0.000000 0.000000 0.032075 0.000000 0.000000
# 5 0.000000 0.000000 0.000000 0.000000 0.069322 0.000000
# 6 0.000000 0.000000 0.000000 0.000000 0.000000 0.039711
#
#
# Mechanical properties :
#
#
# Convention : Reuss Voigt Hill
#
# Bulk Modulus (GPa) = 32.52439 46.13387 39.32913
# Shear Modulus (GPa) = 19.12208 22.29623 20.70916
#
# Velocity S-wave (km/s) = 3.11473 3.36333 3.24141
# Velocity P-wave (km/s) = 5.42555 6.20392 5.82775
#
# Compressibility (1/GPa) = 0.03074615
#
# Stress axis : x y z
#
# Youngs Moduli (GPa) = 63.46368 27.25908 55.58128
#
# Poissons Ratio (x) = 0.26111 0.40892
# Poissons Ratio (y) = 0.60792 0.16162
# Poissons Ratio (z) = 0.46691 0.07926
#
# Static dielectric constant tensor:
#      x y z
#    x 1.723300 0.000000 0.000000 
#    y 0.000000 1.670860 0.000000 
#    z 0.000000 0.000000 1.726420 
# 
# From -- ./inp_files/19512.got.cif
#   From: 2010.05.17/outbox.ucp.g08.bks.cvg/sg51_10_cif.got.tgz:19512.got - 2010.06.11 16:27:58.
