data_PCOD9407307
_publ_section_title
;
Structure prediction by ZEFSAII (Michael W. Deem and Ramdas Pophale) SiO2 
 PCOD9407307
Probable space group: P M M A
;
_chemical_formula_sum "Si O2"
_cell_formula_units_Z 48
_cell_length_a 9.366149
_cell_length_b 7.349300
_cell_length_c 32.602029
_cell_angle_alpha 90.000000
_cell_angle_beta 90.000000
_cell_angle_gamma 90.000000
_cell_volume 2244.148892
_symmetry_space_group_name_H-M "P M M A"
_symmetry_group_IT_number 51
_symmetry_cell_setting 'orthorhombic'
loop_
_space_group_symop_operation_xyz
x,y,z
1/2-x,-y,z
1/2+x,-y,-z
-x,y,-z
-x,-y,-z
1/2+x,y,-z
1/2-x,y,z
x,-y,z
loop_
_atom_site_type_symbol
_atom_site_label
_atom_site_fract_x
_atom_site_fract_y
_atom_site_fract_z
Si Si1 0.085419 0.722018 0.959522
Si Si2 0.416863 0.278345 0.798272
Si Si3 0.413826 0.777598 0.459584
Si Si4 0.585271 0.717968 0.291189
Si Si5 0.585599 0.722225 0.878613
Si Si6 0.087346 0.215093 0.618997
O O1 0.250000 0.780062 0.960151
O O2 0.085921 0.500000 0.959570
O O3 0.004249 0.779194 0.918319
O O4 0.000000 0.779370 0.000000
O O5 0.250000 0.225951 0.802411
O O6 0.418474 0.500000 0.798896
O O7 0.471534 0.220617 0.753098
O O8 0.509920 0.217640 0.836666
O O9 0.500000 0.721956 0.500000
O O10 0.250000 0.719283 0.461160
O O11 0.492545 0.714715 0.418247
O O12 0.413199 0.000000 0.459313
O O13 0.750000 0.783148 0.292735
O O14 0.588207 0.500000 0.289496
O O15 0.522034 0.763449 0.335464
O O16 0.750000 0.779136 0.881080
O O17 0.584875 0.500000 0.878487
O O18 0.250000 0.289666 0.618762
O O19 0.099760 0.000000 0.612298
#
# Coordination Sequence:
#
# PCOD9407307 Si02
#       6
#     8   8   8   8   8   8
#     4   9  15  21  28  38  54  78 109 145 185 228
#     4   8  13  22  35  48  62  85 119 153 182 217
#     4   9  16  26  41  61  84 108 133 162 196 233
#     4   8  14  25  41  59  79 105 135 164 196 236
#     4   9  15  21  29  42  60  81 108 146 189 227
#     4   9  16  26  42  64  86 106 131 164 199 234
#
# _framework density 21.388956
#
# number of rings (size 3 to 8) (size 9 to 14) (size 15 to 20)
#    0.000    3.333    0.000    2.500    0.000    6.000 
#    0.000    0.833    0.000    2.000    0.000    0.000 
#    0.000    0.000    0.000    0.000    0.000    0.833 
#
# Total GULP energy -267770.167731 kJ/mol
# GULP energy per Si atom -5578.545161 kJ/mol
# Density = 2.134027 g / cm^3
# Si number density = 21.388956 Si / 1000 Ang^3
#
#
#
# Elastic Constant Matrix: (Units=GPa)
#
#
# Indices 1 2 3 4 5 6 
#
# 1 154.2008 5.0875 135.4976 0.0000 0.0000 0.0000
# 2 5.0875 78.7817 4.4514 0.0000 0.0000 0.0000
# 3 135.4976 4.4514 275.3845 0.0000 0.0000 0.0000
# 4 0.0000 0.0000 0.0000 9.0989 0.0000 0.0000
# 5 0.0000 0.0000 0.0000 0.0000 36.5649 0.0000
# 6 0.0000 0.0000 0.0000 0.0000 0.0000 -21.3009
#
#
#
# Elastic Compliance Matrix: (Units=1/GPa)
#
#
# Indices 1 2 3 4 5 6 
#
# 1 0.011438 -0.000421 -0.005621 0.000000 0.000000 0.000000
# 2 -0.000421 0.012720 0.000002 0.000000 0.000000 0.000000
# 3 -0.005621 0.000002 0.006397 0.000000 0.000000 0.000000
# 4 0.000000 0.000000 0.000000 0.109903 0.000000 0.000000
# 5 0.000000 0.000000 0.000000 0.000000 0.027349 0.000000
# 6 0.000000 0.000000 0.000000 0.000000 0.000000 -0.046946
#
#
# Mechanical properties :
#
#
# Convention : Reuss Voigt Hill
#
# Bulk Modulus (GPa) = 54.12892 88.71556 71.42224
# Shear Modulus (GPa) = 35.94514 29.09462 32.51988
#
# Velocity S-wave (km/s) = 4.10389 3.69218 3.90347
# Velocity P-wave (km/s) = 6.91504 7.72939 7.33353
#
# Compressibility (1/GPa) = 0.01847441
#
# Stress axis : x y z
#
# Youngs Moduli (GPa) = 87.42521 78.61383 156.32160
#
# Poissons Ratio (x) = 0.03310 0.87872
# Poissons Ratio (y) = 0.03681 -0.00024
# Poissons Ratio (z) = 0.49144 -0.00012
#
# Static dielectric constant tensor:
#      x y z
#    x 1.720600 0.000000 0.000000 
#    y 0.000000 1.872220 0.000000 
#    z 0.000000 0.000000 1.769650 
# 
# From -- ./inp_files/37303.got.cif
#   From: 2010.05.17/outbox.cif.g08.bks.cpg/sg51_19_cif.got.tgz:37303.got - 2010.06.03 11:52:47.
