data_PCOD9407242
_publ_section_title
;
Structure prediction by ZEFSAII (Michael W. Deem and Ramdas Pophale) SiO2 
 PCOD9407242
Probable space group: P M M A
;
_chemical_formula_sum "Si O2"
_cell_formula_units_Z 48
_cell_length_a 7.354411
_cell_length_b 9.733725
_cell_length_c 32.529512
_cell_angle_alpha 90.000000
_cell_angle_beta 90.000000
_cell_angle_gamma 90.000000
_cell_volume 2328.651602
_symmetry_space_group_name_H-M "P M M A"
_symmetry_group_IT_number 51
_symmetry_cell_setting 'orthorhombic'
loop_
_space_group_symop_operation_xyz
x,y,z
1/2-x,-y,z
1/2+x,-y,-z
-x,y,-z
-x,-y,-z
1/2+x,y,-z
1/2-x,y,z
x,-y,z
loop_
_atom_site_type_symbol
_atom_site_label
_atom_site_fract_x
_atom_site_fract_y
_atom_site_fract_z
Si Si1 0.533054 0.843826 0.453096
Si Si2 0.038635 0.167021 0.789220
Si Si3 0.527717 0.657877 0.377965
Si Si4 0.972799 0.840971 0.121190
Si Si5 0.972326 0.840912 0.300802
Si Si6 0.032999 0.343737 0.954053
O O1 0.500000 0.799745 0.500000
O O2 0.750000 0.851553 0.447824
O O3 0.466397 0.739643 0.418533
O O4 0.462231 0.000000 0.448250
O O5 0.250000 0.209298 0.788967
O O6 0.964460 0.209367 0.833676
O O7 0.963683 0.205596 0.744560
O O8 0.034066 0.000000 0.789657
O O9 0.750000 0.657249 0.378084
O O10 0.469194 0.500000 0.377467
O O11 0.471469 0.742548 0.337641
O O12 0.750000 0.839491 0.122135
O O13 0.025653 0.000000 0.115948
O O14 0.034694 0.749598 0.083109
O O15 0.750000 0.841244 0.299742
O O16 0.025850 0.000000 0.307746
O O17 0.250000 0.350971 0.949210
O O18 0.961782 0.500000 0.952407
O O19 0.000000 0.288773 0.000000
#
# Coordination Sequence:
#
# PCOD9407242 Si02
#       6
#     8   8   8   8   8   8
#     4   9  17  29  44  60  78 102 132 163 193 227
#     4   7  10  17  30  48  69  94 123 152 183 222
#     4   9  16  24  34  51  76 103 129 158 192 227
#     4   8  13  22  36  53  73  97 125 156 189 225
#     4   8  12  19  32  48  68  97 129 155 182 223
#     4   9  17  28  40  54  74 100 128 157 189 225
#
# _framework density 20.612787999999998
#
# number of rings (size 3 to 8) (size 9 to 14) (size 15 to 20)
#    0.000    3.667    0.000    2.500    0.000    2.667 
#    0.000    0.833    0.000    5.000    0.000    0.000 
#    0.000    1.333    0.000    6.333    0.000    8.333 
#
# Total GULP energy -267530.741280 kJ/mol
# GULP energy per Si atom -5573.557110 kJ/mol
# Density = 2.056587 g / cm^3
# Si number density = 20.612788 Si / 1000 Ang^3
#
#
#
# Elastic Constant Matrix: (Units=GPa)
#
#
# Indices 1 2 3 4 5 6 
#
# 1 75.9073 5.1903 5.9374 0.0000 0.0000 0.0000
# 2 5.1903 101.1329 129.9876 0.0000 0.0000 0.0000
# 3 5.9374 129.9876 264.4598 0.0000 0.0000 0.0000
# 4 0.0000 0.0000 0.0000 -75.4326 0.0000 0.0000
# 5 0.0000 0.0000 0.0000 0.0000 5.9940 0.0000
# 6 0.0000 0.0000 0.0000 0.0000 0.0000 -10.9919
#
#
#
# Elastic Compliance Matrix: (Units=1/GPa)
#
#
# Indices 1 2 3 4 5 6 
#
# 1 0.013221 -0.000807 0.000100 0.000000 0.000000 0.000000
# 2 -0.000807 0.026901 -0.013204 0.000000 0.000000 0.000000
# 3 0.000100 -0.013204 0.010269 0.000000 0.000000 0.000000
# 4 0.000000 0.000000 0.000000 -0.013257 0.000000 0.000000
# 5 0.000000 0.000000 0.000000 0.000000 0.166833 0.000000
# 6 0.000000 0.000000 0.000000 0.000000 0.000000 -0.090976
#
#
# Mechanical properties :
#
#
# Convention : Reuss Voigt Hill
#
# Bulk Modulus (GPa) = 44.30841 80.41451 62.36146
# Shear Modulus (GPa) = 33.70688 3.93954 18.82321
#
# Velocity S-wave (km/s) = 4.04820 1.38397 3.02517
# Velocity P-wave (km/s) = 6.58732 6.45372 6.52086
#
# Compressibility (1/GPa) = 0.02256908
#
# Stress axis : x y z
#
# Youngs Moduli (GPa) = 75.63538 37.17319 97.37788
#
# Poissons Ratio (x) = 0.02998 -0.00970
# Poissons Ratio (y) = 0.06101 1.28581
# Poissons Ratio (z) = -0.00753 0.49085
#
# Static dielectric constant tensor:
#      x y z
#    x 1.883980 0.000000 0.000000 
#    y 0.000000 1.686310 0.000000 
#    z 0.000000 0.000000 1.743980 
# 
# From -- ./inp_files/36498.got.cif
#   From: 2010.05.17/outbox.cif.g08.bks.cpg/sg51_19_cif.got.tgz:36498.got - 2010.06.03 11:52:47.
