data_PCOD9407350
_publ_section_title
;
Structure prediction by ZEFSAII (Michael W. Deem and Ramdas Pophale) SiO2 
 PCOD9407350
Probable space group: P M M A
;
_chemical_formula_sum "Si O2"
_cell_formula_units_Z 40
_cell_length_a 7.665764
_cell_length_b 10.133997
_cell_length_c 26.837407
_cell_angle_alpha 90.000000
_cell_angle_beta 90.000000
_cell_angle_gamma 90.000000
_cell_volume 2084.859384
_symmetry_space_group_name_H-M "P M M A"
_symmetry_group_IT_number 51
_symmetry_cell_setting 'orthorhombic'
loop_
_space_group_symop_operation_xyz
x,y,z
1/2-x,-y,z
1/2+x,-y,-z
-x,y,-z
-x,-y,-z
1/2+x,y,-z
1/2-x,y,z
x,-y,z
loop_
_atom_site_type_symbol
_atom_site_label
_atom_site_fract_x
_atom_site_fract_y
_atom_site_fract_z
Si Si1 0.543219 0.150290 0.553362
Si Si2 0.042770 0.150542 0.661859
Si Si3 0.036753 0.651312 0.746141
Si Si4 0.459665 0.150284 0.943869
Si Si5 0.463040 0.348870 0.859194
O O1 0.500000 0.213606 0.500000
O O2 0.750000 0.141964 0.555967
O O3 0.483061 0.206765 0.606101
O O4 0.468128 0.000000 0.551883
O O5 0.250000 0.140749 0.669642
O O6 0.973386 0.246332 0.704702
O O7 0.971657 0.000000 0.663437
O O8 0.250000 0.652048 0.745268
O O9 0.983396 0.500000 0.736270
O O10 0.984642 0.686275 0.802692
O O11 0.250000 0.145377 0.939340
O O12 0.525197 0.248125 0.901197
O O13 0.526005 0.000000 0.938460
O O14 0.500000 0.195419 0.000000
O O15 0.250000 0.347657 0.859852
O O16 0.516470 0.500000 0.868979
#
# Coordination Sequence:
#
# PCOD9407350 Si02
#       5
#     8   8   8   8   8
#     4   9  16  26  41  61  86 114 141 171 208 247
#     4   9  16  25  40  64  88 107 133 170 207 244
#     4   8  14  25  41  61  85 111 137 168 208 249
#     4   9  17  28  42  61  85 111 138 170 209 250
#     4   8  14  25  41  61  83 107 138 174 208 243
#
# _framework density 19.185946999999999
#
# number of rings (size 3 to 8) (size 9 to 14) (size 15 to 20)
#    0.000    3.400    0.000    1.800    0.000    3.600 
#    0.000    4.000    0.000    2.400    0.000    8.400 
#    0.000    0.000    0.000    0.000    0.000    0.000 
#
# Total GULP energy -222782.617864 kJ/mol
# GULP energy per Si atom -5569.565447 kJ/mol
# Density = 1.914228 g / cm^3
# Si number density = 19.185947 Si / 1000 Ang^3
#
#
#
# Elastic Constant Matrix: (Units=GPa)
#
#
# Indices 1 2 3 4 5 6 
#
# 1 35.4417 5.1501 1.6065 0.0000 0.0000 0.0000
# 2 5.1501 80.1540 112.7346 0.0000 0.0000 0.0000
# 3 1.6065 112.7346 213.3086 0.0000 0.0000 0.0000
# 4 0.0000 0.0000 0.0000 16.9439 0.0000 0.0000
# 5 0.0000 0.0000 0.0000 0.0000 17.6361 0.0000
# 6 0.0000 0.0000 0.0000 0.0000 0.0000 1.2056
#
#
#
# Elastic Compliance Matrix: (Units=1/GPa)
#
#
# Indices 1 2 3 4 5 6 
#
# 1 0.028960 -0.006054 0.002982 0.000000 0.000000 0.000000
# 2 -0.006054 0.049872 -0.026312 0.000000 0.000000 0.000000
# 3 0.002982 -0.026312 0.018572 0.000000 0.000000 0.000000
# 4 0.000000 0.000000 0.000000 0.059018 0.000000 0.000000
# 5 0.000000 0.000000 0.000000 0.000000 0.056702 0.000000
# 6 0.000000 0.000000 0.000000 0.000000 0.000000 0.829429
#
#
# Mechanical properties :
#
#
# Convention : Reuss Voigt Hill
#
# Bulk Modulus (GPa) = 25.88380 63.09852 44.49116
# Shear Modulus (GPa) = 4.48752 21.11801 12.80277
#
# Velocity S-wave (km/s) = 1.53103 3.32128 2.58602
# Velocity P-wave (km/s) = 4.07991 6.90414 5.67066
#
# Compressibility (1/GPa) = 0.03863421
#
# Stress axis : x y z
#
# Youngs Moduli (GPa) = 34.53044 20.05114 53.84529
#
# Poissons Ratio (x) = 0.12140 -0.16055
# Poissons Ratio (y) = 0.20906 1.41679
# Poissons Ratio (z) = -0.10296 0.52759
#
# Static dielectric constant tensor:
#      x y z
#    x 1.721120 0.000000 0.000000 
#    y 0.000000 1.660540 0.000000 
#    z 0.000000 0.000000 1.679280 
# 
# From -- ./inp_files/27050.got.cif
#   From: 2010.05.17/outbox.cif.g08.bks.cpg/sg51_14_cif.got.tgz:27050.got - 2010.06.03 11:52:47.
