data_PCOD9407234
_publ_section_title
;
Structure prediction by ZEFSAII (Michael W. Deem and Ramdas Pophale) SiO2 
 PCOD9407234
Probable space group: P M M A
;
_chemical_formula_sum "Si O2"
_cell_formula_units_Z 40
_cell_length_a 7.397761
_cell_length_b 9.507764
_cell_length_c 27.667368
_cell_angle_alpha 90.000000
_cell_angle_beta 90.000000
_cell_angle_gamma 90.000000
_cell_volume 1946.016581
_symmetry_space_group_name_H-M "P M M A"
_symmetry_group_IT_number 51
_symmetry_cell_setting 'orthorhombic'
loop_
_space_group_symop_operation_xyz
x,y,z
1/2-x,-y,z
1/2+x,-y,-z
-x,y,-z
-x,-y,-z
1/2+x,y,-z
1/2-x,y,z
x,-y,z
loop_
_atom_site_type_symbol
_atom_site_label
_atom_site_fract_x
_atom_site_fract_y
_atom_site_fract_z
Si Si1 0.965890 0.160207 0.945787
Si Si2 0.471153 0.661328 0.145558
Si Si3 0.528933 0.836876 0.761277
Si Si4 0.966376 0.161420 0.552263
Si Si5 0.962559 0.828742 0.655655
O O1 0.750000 0.152133 0.940222
O O2 0.032524 0.257022 0.902418
O O3 0.036609 0.000000 0.942728
O O4 0.000000 0.213764 0.000000
O O5 0.250000 0.662391 0.145455
O O6 0.528438 0.500000 0.145569
O O7 0.528334 0.742754 0.193863
O O8 0.750000 0.835739 0.760222
O O9 0.464841 0.787131 0.708195
O O10 0.476521 0.000000 0.768117
O O11 0.750000 0.153547 0.556894
O O12 0.034612 0.221380 0.603536
O O13 0.000000 0.229591 0.500000
O O14 0.036237 0.000000 0.549229
O O15 0.750000 0.792291 0.656633
O O16 0.974471 0.000000 0.654575
#
# Coordination Sequence:
#
# PCOD9407234 Si02
#       5
#     8   8   8   8   8
#     4   9  17  29  44  61  81 105 131 156 183 219
#     4   9  16  24  35  54  79 102 124 155 193 226
#     4   8  12  19  32  48  67  93 123 153 186 225
#     4   8  12  17  25  39  61  87 112 139 173 212
#     4   7  10  16  26  41  60  82 110 143 177 214
#
# _framework density 20.554808999999999
#
# number of rings (size 3 to 8) (size 9 to 14) (size 15 to 20)
#    0.000    3.800    0.000    3.000    0.000    2.800 
#    0.000    0.000    0.000    0.000    0.000    1.400 
#    0.000    8.800    0.000    0.600    0.000    1.200 
#
# Total GULP energy -222686.633821 kJ/mol
# GULP energy per Si atom -5567.165846 kJ/mol
# Density = 2.050803 g / cm^3
# Si number density = 20.554809 Si / 1000 Ang^3
#
#
#
# Elastic Constant Matrix: (Units=GPa)
#
#
# Indices 1 2 3 4 5 6 
#
# 1 69.1701 3.6018 7.5929 0.0000 0.0000 0.0000
# 2 3.6018 59.8944 95.6767 0.0000 0.0000 0.0000
# 3 7.5929 95.6767 289.4305 0.0000 0.0000 0.0000
# 4 0.0000 0.0000 0.0000 -7.7286 0.0000 0.0000
# 5 0.0000 0.0000 0.0000 0.0000 11.1404 0.0000
# 6 0.0000 0.0000 0.0000 0.0000 0.0000 -8.0145
#
#
#
# Elastic Compliance Matrix: (Units=1/GPa)
#
#
# Indices 1 2 3 4 5 6 
#
# 1 0.014508 -0.000560 -0.000195 0.000000 0.000000 0.000000
# 2 -0.000560 0.035399 -0.011687 0.000000 0.000000 0.000000
# 3 -0.000195 -0.011687 0.007324 0.000000 0.000000 0.000000
# 4 0.000000 0.000000 0.000000 -0.129390 0.000000 0.000000
# 5 0.000000 0.000000 0.000000 0.000000 0.089764 0.000000
# 6 0.000000 0.000000 0.000000 0.000000 0.000000 -0.124774
#
#
# Mechanical properties :
#
#
# Convention : Reuss Voigt Hill
#
# Bulk Modulus (GPa) = 30.91703 70.24867 50.58285
# Shear Modulus (GPa) = -69.92777 19.85436 -25.03670
#
# Velocity S-wave (km/s) = -5.83901 3.11130 -3.49384
# Velocity P-wave (km/s) = 5.51224 6.86712 2.89591
#
# Compressibility (1/GPa) = 0.03234463
#
# Stress axis : x y z
#
# Youngs Moduli (GPa) = 68.92878 28.24936 136.54518
#
# Poissons Ratio (x) = 0.01583 0.02667
# Poissons Ratio (y) = 0.03863 1.59582
# Poissons Ratio (z) = 0.01347 0.33015
#
# Static dielectric constant tensor:
#      x y z
#    x 1.834290 0.000000 0.000000 
#    y 0.000000 1.666890 0.000000 
#    z 0.000000 0.000000 1.791280 
# 
# From -- ./inp_files/35984.got.cif
#   From: 2010.05.17/outbox.cif.g08.bks.cpg/sg51_18_cif.got.tgz:35984.got - 2010.06.03 11:52:47.
