data_PCOD9407985
_publ_section_title
;
Structure prediction by ZEFSAII (Michael W. Deem and Ramdas Pophale) SiO2 
 PCOD9407985
Probable space group: P N N A
;
_chemical_formula_sum "Si O2"
_cell_formula_units_Z 48
_cell_length_a 8.300725
_cell_length_b 24.554992
_cell_length_c 15.704021
_cell_angle_alpha 90.000000
_cell_angle_beta 90.000000
_cell_angle_gamma 90.000000
_cell_volume 3200.860082
_symmetry_space_group_name_H-M "P N N A"
_symmetry_group_IT_number 52
_symmetry_cell_setting 'orthorhombic'
loop_
_space_group_symop_operation_xyz
x,y,z
1/2-x,-y,z
x,1/2-y,1/2-z
1/2-x,1/2+y,1/2-z
-x,-y,-z
1/2+x,y,-z
-x,1/2+y,1/2+z
1/2+x,1/2-y,1/2+z
loop_
_atom_site_type_symbol
_atom_site_label
_atom_site_fract_x
_atom_site_fract_y
_atom_site_fract_z
Si Si1 0.618039 0.169108 0.714210
Si Si2 0.182953 0.673705 0.900484
Si Si3 0.026184 0.259632 0.962051
Si Si4 0.798817 0.556756 0.870197
Si Si5 0.724127 0.275814 0.618923
Si Si6 0.848052 0.445144 0.046868
O O1 0.433634 0.176955 0.681691
O O2 0.679684 0.109811 0.687045
O O3 0.709419 0.215626 0.660556
O O4 0.653534 0.183056 0.811818
O O5 0.344246 0.709066 0.904116
O O6 0.221587 0.610355 0.913823
O O7 0.077563 0.696651 0.981324
O O8 0.908945 0.221246 0.908405
O O9 0.120463 0.225372 0.033223
O O10 0.750000 0.500000 0.826103
O O11 0.969615 0.550639 0.919884
O O12 0.668441 0.563708 0.945493
O O13 0.750000 0.500000 0.067866
#
# Coordination Sequence:
#
# PCOD9407985 Si02
#       6
#     8   8   8   8   8   8
#     4   9  18  30  43  62  91 114 139 180 219 251
#     4   9  16  27  43  63  88 118 143 176 211 248
#     4   9  16  28  47  62  81 113 147 174 214 261
#     4  10  18  27  41  60  85 119 148 175 208 247
#     4   9  17  30  45  64  87 111 141 181 216 259
#     4  10  17  24  38  60  86 117 151 172 192 243
#
# _framework density 14.995969000000001
#
# number of rings (size 3 to 8) (size 9 to 14) (size 15 to 20)
#    0.000    2.667    0.000    6.000    0.000    1.333 
#    0.000   10.000    0.000    0.000    0.000    1.167 
#    0.000    0.000    0.000    0.000    0.000    0.000 
#
# Total GULP energy -267214.321760 kJ/mol
# GULP energy per Si atom -5566.965037 kJ/mol
# Density = 1.496184 g / cm^3
# Si number density = 14.995969 Si / 1000 Ang^3
#
#
#
# Elastic Constant Matrix: (Units=GPa)
#
#
# Indices 1 2 3 4 5 6 
#
# 1 63.8112 38.1569 38.4746 0.0000 0.0000 0.0000
# 2 38.1569 85.6048 44.4517 0.0000 0.0000 0.0000
# 3 38.4746 44.4517 65.9072 0.0000 0.0000 0.0000
# 4 0.0000 0.0000 0.0000 17.1601 0.0000 0.0000
# 5 0.0000 0.0000 0.0000 0.0000 7.6489 0.0000
# 6 0.0000 0.0000 0.0000 0.0000 0.0000 18.2257
#
#
#
# Elastic Compliance Matrix: (Units=1/GPa)
#
#
# Indices 1 2 3 4 5 6 
#
# 1 0.025859 -0.005675 -0.011268 0.000000 0.000000 0.000000
# 2 -0.005675 0.019223 -0.009652 0.000000 0.000000 0.000000
# 3 -0.011268 -0.009652 0.028261 0.000000 0.000000 0.000000
# 4 0.000000 0.000000 0.000000 0.058275 0.000000 0.000000
# 5 0.000000 0.000000 0.000000 0.000000 0.130738 0.000000
# 6 0.000000 0.000000 0.000000 0.000000 0.000000 0.054868
#
#
# Mechanical properties :
#
#
# Convention : Reuss Voigt Hill
#
# Bulk Modulus (GPa) = 49.62261 50.83218 50.22739
# Shear Modulus (GPa) = 13.25800 14.88961 14.07380
#
# Velocity S-wave (km/s) = 2.97661 3.15446 3.06683
# Velocity P-wave (km/s) = 6.70642 6.87301 6.79023
#
# Compressibility (1/GPa) = 0.02015210
#
# Stress axis : x y z
#
# Youngs Moduli (GPa) = 38.67181 52.02024 35.38461
#
# Poissons Ratio (x) = 0.29521 0.39871
# Poissons Ratio (y) = 0.21946 0.34155
# Poissons Ratio (z) = 0.43575 0.50212
#
# Static dielectric constant tensor:
#      x y z
#    x 1.542110 0.000000 0.000000 
#    y 0.000000 1.508880 0.000000 
#    z 0.000000 0.000000 1.492700 
# 
# From -- ./inp_files/25015.got.cif
#   From: 2010.05.17/outbox.cif.g08.bks.cpg/sg52_13_cif.got.tgz:25015.got - 2010.06.03 12:15:38.
