data_PCOD9407259
_publ_section_title
;
Structure prediction by ZEFSAII (Michael W. Deem and Ramdas Pophale) SiO2 
 PCOD9407259
Probable space group: P M M A
;
_chemical_formula_sum "Si O2"
_cell_formula_units_Z 36
_cell_length_a 7.221644
_cell_length_b 25.930303
_cell_length_c 7.312197
_cell_angle_alpha 90.000000
_cell_angle_beta 90.000000
_cell_angle_gamma 90.000000
_cell_volume 1369.277748
_symmetry_space_group_name_H-M "P M M A"
_symmetry_group_IT_number 51
_symmetry_cell_setting 'orthorhombic'
loop_
_space_group_symop_operation_xyz
x,y,z
1/2-x,-y,z
1/2+x,-y,-z
-x,y,-z
-x,-y,-z
1/2+x,y,-z
1/2-x,y,z
x,-y,z
loop_
_atom_site_type_symbol
_atom_site_label
_atom_site_fract_x
_atom_site_fract_y
_atom_site_fract_z
Si Si1 0.029564 0.000000 0.779676
Si Si2 0.031080 0.779459 0.785351
Si Si3 0.529291 0.110601 0.220559
Si Si4 0.029288 0.555286 0.720557
Si Si5 0.468931 0.665246 0.714689
O O1 0.956780 0.944703 0.711157
O O2 0.250000 0.000000 0.749576
O O3 0.000000 0.000000 0.000000
O O4 0.250000 0.777378 0.740555
O O5 0.957641 0.834041 0.708391
O O6 0.954196 0.722345 0.750168
O O7 0.000000 0.785245 0.000000
O O8 0.750000 0.111207 0.249190
O O9 0.500000 0.109555 0.000000
O O10 0.250000 0.555756 0.749205
O O11 0.956943 0.500000 0.789477
O O12 0.957704 0.610650 0.791613
O O13 0.000000 0.554413 0.500000
O O14 0.500000 0.659562 0.500000
O O15 0.250000 0.667270 0.759430
#
# Coordination Sequence:
#
# PCOD9407259 Si02
#       5
#     4   8   8   8   8
#     4   8  12  18  30  48  69  92 118 150 188 224
#     4   9  17  28  41  58  81 107 133 160 192 232
#     4   8  13  21  33  50  72  96 122 153 188 225
#     4   8  13  22  37  56  76  97 122 155 194 230
#     4   9  17  28  42  61  82 103 130 163 196 231
#
# _framework density 26.291233999999999
#
# number of rings (size 3 to 8) (size 9 to 14) (size 15 to 20)
#    0.000    3.556    0.000    0.000    0.000    0.889 
#    0.000    0.000    0.000    0.667    0.000    0.778 
#    0.000    0.000    0.000    0.000    0.000    0.000 
#
# Total GULP energy -200529.698426 kJ/mol
# GULP energy per Si atom -5570.269401 kJ/mol
# Density = 2.623139 g / cm^3
# Si number density = 26.291234 Si / 1000 Ang^3
#
#
#
# Elastic Constant Matrix: (Units=GPa)
#
#
# Indices 1 2 3 4 5 6 
#
# 1 148.8680 29.9249 -19.5190 0.0000 0.0000 0.0000
# 2 29.9249 441.0210 16.6567 0.0000 0.0000 0.0000
# 3 -19.5190 16.6567 70.5803 0.0000 0.0000 0.0000
# 4 0.0000 0.0000 0.0000 20.5547 0.0000 0.0000
# 5 0.0000 0.0000 0.0000 0.0000 0.6345 0.0000
# 6 0.0000 0.0000 0.0000 0.0000 0.0000 -9.2494
#
#
#
# Elastic Compliance Matrix: (Units=1/GPa)
#
#
# Indices 1 2 3 4 5 6 
#
# 1 0.007105 -0.000561 0.002097 0.000000 0.000000 0.000000
# 2 -0.000561 0.002332 -0.000706 0.000000 0.000000 0.000000
# 3 0.002097 -0.000706 0.014915 0.000000 0.000000 0.000000
# 4 0.000000 0.000000 0.000000 0.048651 0.000000 0.000000
# 5 0.000000 0.000000 0.000000 0.000000 1.575972 0.000000
# 6 0.000000 0.000000 0.000000 0.000000 0.000000 -0.108115
#
#
# Mechanical properties :
#
#
# Convention : Reuss Voigt Hill
#
# Bulk Modulus (GPa) = 38.44210 79.39938 58.92074
# Shear Modulus (GPa) = 3.23025 44.61508 23.92266
#
# Velocity S-wave (km/s) = 1.10964 4.12388 3.01974
# Velocity P-wave (km/s) = 4.03672 7.27604 5.88370
#
# Compressibility (1/GPa) = 0.02601315
#
# Stress axis : x y z
#
# Youngs Moduli (GPa) = 140.74197 428.77894 67.04737
#
# Poissons Ratio (x) = 0.24069 -0.14063
# Poissons Ratio (y) = 0.07900 0.04731
# Poissons Ratio (z) = -0.29519 0.30256
#
# Static dielectric constant tensor:
#      x y z
#    x 1.945850 0.000000 0.000000 
#    y 0.000000 2.234130 0.000000 
#    z 0.000000 0.000000 2.051240 
# 
# From -- ./inp_files/6931.got.cif
#   From: 2010.05.17/outbox.cif.g08.bks.cpg/sg51_4_cif.got.tgz:6931.got - 2010.06.03 11:52:47.
