data_PCOD9407292
_publ_section_title
;
Structure prediction by ZEFSAII (Michael W. Deem and Ramdas Pophale) SiO2 
 PCOD9407292
Probable space group: P M M A
;
_chemical_formula_sum "Si O2"
_cell_formula_units_Z 64
_cell_length_a 14.251029
_cell_length_b 9.405860
_cell_length_c 21.949211
_cell_angle_alpha 90.000000
_cell_angle_beta 90.000000
_cell_angle_gamma 90.000000
_cell_volume 2942.142121
_symmetry_space_group_name_H-M "P M M A"
_symmetry_group_IT_number 51
_symmetry_cell_setting 'orthorhombic'
loop_
_space_group_symop_operation_xyz
x,y,z
1/2-x,-y,z
1/2+x,-y,-z
-x,y,-z
-x,-y,-z
1/2+x,y,-z
1/2-x,y,z
x,-y,z
loop_
_atom_site_type_symbol
_atom_site_label
_atom_site_fract_x
_atom_site_fract_y
_atom_site_fract_z
Si Si1 0.364770 0.663781 0.908156
Si Si2 0.634890 0.663977 0.719146
Si Si3 0.135206 0.833899 0.788837
Si Si4 0.142223 0.840069 0.393104
Si Si5 0.605491 0.161580 0.478063
Si Si6 0.135671 0.334239 0.146658
Si Si7 0.364797 0.836315 0.028107
Si Si8 0.636925 0.166924 0.344711
O O1 0.250000 0.664344 0.907770
O O2 0.394445 0.500000 0.911680
O O3 0.395612 0.739066 0.845660
O O4 0.393723 0.752125 0.967598
O O5 0.750000 0.662950 0.717938
O O6 0.605989 0.500000 0.714460
O O7 0.598045 0.751374 0.661397
O O8 0.607859 0.719533 0.786110
O O9 0.250000 0.834063 0.789572
O O10 0.106834 0.777399 0.721701
O O11 0.107310 0.000000 0.795546
O O12 0.250000 0.857065 0.375167
O O13 0.146623 0.771657 0.460384
O O14 0.101461 0.000000 0.397467
O O15 0.500000 0.150930 0.500000
O O16 0.609209 0.227560 0.410953
O O17 0.645172 0.000000 0.472588
O O18 0.250000 0.331984 0.145588
O O19 0.108970 0.500000 0.140808
O O20 0.103719 0.242571 0.089485
O O21 0.250000 0.835102 0.028495
O O22 0.394088 0.000000 0.026787
O O23 0.750000 0.172350 0.345061
O O24 0.609433 0.000000 0.344572
#
# Coordination Sequence:
#
# PCOD9407292 Si02
#       8
#     8   8   8   8   8   8   8   8
#     4   9  15  21  29  42  63  92 124 157 192 229
#     4   8  14  24  37  52  71  97 129 164 200 237
#     4   8  13  21  33  48  65  87 119 158 194 227
#     4   9  16  25  39  59  80 102 131 167 202 236
#     4   9  16  25  38  58  83 107 130 160 200 243
#     4   8  13  21  31  43  62  90 124 159 193 229
#     4   9  15  20  27  41  63  93 127 159 190 227
#     4   8  13  22  37  55  74  99 132 167 201 238
#
# _framework density 21.752858
#
# number of rings (size 3 to 8) (size 9 to 14) (size 15 to 20)
#    0.000    3.500    0.000    2.625    0.000    5.000 
#    0.000    2.500    0.000    1.125    0.000    3.500 
#    0.000    0.000    0.000    1.125    0.000   25.500 
#
# Total GULP energy -356697.052805 kJ/mol
# GULP energy per Si atom -5573.391450 kJ/mol
# Density = 2.170335 g / cm^3
# Si number density = 21.752858 Si / 1000 Ang^3
#
#
#
# Elastic Constant Matrix: (Units=GPa)
#
#
# Indices 1 2 3 4 5 6 
#
# 1 47.0409 -2.1887 11.2540 0.0000 0.0000 0.0000
# 2 -2.1887 89.2294 110.2866 0.0000 0.0000 0.0000
# 3 11.2540 110.2866 283.6948 0.0000 0.0000 0.0000
# 4 0.0000 0.0000 0.0000 -271.9394 0.0000 0.0000
# 5 0.0000 0.0000 0.0000 0.0000 15.5946 0.0000
# 6 0.0000 0.0000 0.0000 0.0000 0.0000 -4.9944
#
#
#
# Elastic Compliance Matrix: (Units=1/GPa)
#
#
# Indices 1 2 3 4 5 6 
#
# 1 0.021899 0.003101 -0.002074 0.000000 0.000000 0.000000
# 2 0.003101 0.022012 -0.008680 0.000000 0.000000 0.000000
# 3 -0.002074 -0.008680 0.006982 0.000000 0.000000 0.000000
# 4 0.000000 0.000000 0.000000 -0.003677 0.000000 0.000000
# 5 0.000000 0.000000 0.000000 0.000000 0.064125 0.000000
# 6 0.000000 0.000000 0.000000 0.000000 0.000000 -0.200222
#
#
# Mechanical properties :
#
#
# Convention : Reuss Voigt Hill
#
# Bulk Modulus (GPa) = 28.10183 73.18542 50.64363
# Shear Modulus (GPa) = -81.01771 -32.22698 -56.62234
#
# Velocity S-wave (km/s) = -6.10946 -3.85321 -5.10748
# Velocity P-wave (km/s) = 6.06800 3.73106 3.38377
#
# Compressibility (1/GPa) = 0.03558487
#
# Stress axis : x y z
#
# Youngs Moduli (GPa) = 45.66506 45.43074 143.23463
#
# Poissons Ratio (x) = -0.14087 0.29708
# Poissons Ratio (y) = -0.14159 1.24328
# Poissons Ratio (z) = 0.09471 0.39434
#
# Static dielectric constant tensor:
#      x y z
#    x 2.185070 0.000000 0.000000 
#    y 0.000000 1.751990 0.000000 
#    z 0.000000 0.000000 1.829600 
# 
# From -- ./inp_files/34084.got.cif
#   From: 2010.05.17/outbox.cif.g08.bks.cpg/sg51_18_cif.got.tgz:34084.got - 2010.06.03 11:52:47.
