data_PCOD9407329
_publ_section_title
;
Structure prediction by ZEFSAII (Michael W. Deem and Ramdas Pophale) SiO2 
 PCOD9407329
Probable space group: P M M A
;
_chemical_formula_sum "Si O2"
_cell_formula_units_Z 48
_cell_length_a 9.660087
_cell_length_b 7.515773
_cell_length_c 32.557475
_cell_angle_alpha 90.000000
_cell_angle_beta 90.000000
_cell_angle_gamma 90.000000
_cell_volume 2363.771043
_symmetry_space_group_name_H-M "P M M A"
_symmetry_group_IT_number 51
_symmetry_cell_setting 'orthorhombic'
loop_
_space_group_symop_operation_xyz
x,y,z
1/2-x,-y,z
1/2+x,-y,-z
-x,y,-z
-x,-y,-z
1/2+x,y,-z
1/2-x,y,z
x,-y,z
loop_
_atom_site_type_symbol
_atom_site_label
_atom_site_fract_x
_atom_site_fract_y
_atom_site_fract_z
Si Si1 0.088530 0.782913 0.716400
Si Si2 0.091805 0.787223 0.870713
Si Si3 0.410090 0.213635 0.626480
Si Si4 0.409406 0.218012 0.205728
Si Si5 0.092616 0.711431 0.536970
Si Si6 0.592740 0.286476 0.037310
O O1 0.250000 0.730001 0.721331
O O2 0.036411 0.726787 0.671035
O O3 0.993227 0.724362 0.753841
O O4 0.088671 0.000000 0.716923
O O5 0.250000 0.717915 0.867288
O O6 0.040024 0.751354 0.916808
O O7 0.991969 0.722108 0.834791
O O8 0.099808 0.000000 0.866085
O O9 0.250000 0.275805 0.625247
O O10 0.471130 0.264117 0.582460
O O11 0.409264 0.000000 0.627450
O O12 0.250000 0.274580 0.205935
O O13 0.409407 0.000000 0.205705
O O14 0.250000 0.784460 0.536685
O O15 0.103762 0.500000 0.530836
O O16 0.000000 0.784038 0.500000
O O17 0.750000 0.217537 0.034958
O O18 0.598844 0.500000 0.033428
O O19 0.500000 0.218206 0.000000
#
# Coordination Sequence:
#
# PCOD9407329 Si02
#       6
#     8   8   8   8   8   8
#     4   8  13  23  40  59  79 107 141 172 204 246
#     4   9  17  29  45  65  88 114 144 176 209 246
#     4   8  14  25  42  63  84 107 138 174 208 243
#     4   9  16  25  39  62  90 115 139 171 210 249
#     4   9  17  29  44  61  82 109 140 172 207 249
#     4   9  18  32  48  65  86 113 144 176 211 252
#
# _framework density 20.306536000000001
#
# number of rings (size 3 to 8) (size 9 to 14) (size 15 to 20)
#    0.000    3.333    0.000    1.500    0.000    3.333 
#    0.000    0.833    0.000    2.000    0.000    4.667 
#    0.000    0.000    0.000    0.000    0.000    0.000 
#
# Total GULP energy -267485.662999 kJ/mol
# GULP energy per Si atom -5572.617979 kJ/mol
# Density = 2.026032 g / cm^3
# Si number density = 20.306536 Si / 1000 Ang^3
#
#
#
# Elastic Constant Matrix: (Units=GPa)
#
#
# Indices 1 2 3 4 5 6 
#
# 1 88.4434 4.4874 110.9874 0.0000 0.0000 0.0000
# 2 4.4874 50.6628 1.4927 0.0000 0.0000 0.0000
# 3 110.9874 1.4927 252.7809 0.0000 0.0000 0.0000
# 4 0.0000 0.0000 0.0000 31.4295 0.0000 0.0000
# 5 0.0000 0.0000 0.0000 0.0000 32.6958 0.0000
# 6 0.0000 0.0000 0.0000 0.0000 0.0000 -1.2210
#
#
#
# Elastic Compliance Matrix: (Units=1/GPa)
#
#
# Indices 1 2 3 4 5 6 
#
# 1 0.025366 -0.001919 -0.011126 0.000000 0.000000 0.000000
# 2 -0.001919 0.019887 0.000725 0.000000 0.000000 0.000000
# 3 -0.011126 0.000725 0.008837 0.000000 0.000000 0.000000
# 4 0.000000 0.000000 0.000000 0.031817 0.000000 0.000000
# 5 0.000000 0.000000 0.000000 0.000000 0.030585 0.000000
# 6 0.000000 0.000000 0.000000 0.000000 0.000000 -0.819000
#
#
# Mechanical properties :
#
#
# Convention : Reuss Voigt Hill
#
# Bulk Modulus (GPa) = 33.95581 69.53577 51.74579
# Shear Modulus (GPa) = -7.48445 30.90883 11.71219
#
# Velocity S-wave (km/s) = -1.92191 3.90566 2.40421
# Velocity P-wave (km/s) = 3.43990 7.39299 5.76581
#
# Compressibility (1/GPa) = 0.02945004
#
# Stress axis : x y z
#
# Youngs Moduli (GPa) = 39.42272 50.28424 113.16345
#
# Poissons Ratio (x) = 0.09649 1.25906
# Poissons Ratio (y) = 0.07565 -0.08206
# Poissons Ratio (z) = 0.43862 -0.03646
#
# Static dielectric constant tensor:
#      x y z
#    x 1.701670 0.000000 0.000000 
#    y 0.000000 1.763830 0.000000 
#    z 0.000000 0.000000 1.735180 
# 
# From -- ./inp_files/37064.got.cif
#   From: 2010.05.17/outbox.cif.g08.bks.cpg/sg51_19_cif.got.tgz:37064.got - 2010.06.03 11:52:47.
