data_PCOD9407163
_publ_section_title
;
Structure prediction by ZEFSAII (Michael W. Deem and Ramdas Pophale) SiO2 
 PCOD9407163
Probable space group: P M M A
;
_chemical_formula_sum "Si O2"
_cell_formula_units_Z 56
_cell_length_a 20.204098
_cell_length_b 8.893879
_cell_length_c 15.906886
_cell_angle_alpha 90.000000
_cell_angle_beta 90.000000
_cell_angle_gamma 90.000000
_cell_volume 2858.352931
_symmetry_space_group_name_H-M "P M M A"
_symmetry_group_IT_number 51
_symmetry_cell_setting 'orthorhombic'
loop_
_space_group_symop_operation_xyz
x,y,z
1/2-x,-y,z
1/2+x,-y,-z
-x,y,-z
-x,-y,-z
1/2+x,y,-z
1/2-x,y,z
x,-y,z
loop_
_atom_site_type_symbol
_atom_site_label
_atom_site_fract_x
_atom_site_fract_y
_atom_site_fract_z
Si Si1 0.583409 0.822457 0.165061
Si Si2 0.328221 0.323154 0.693034
Si Si3 0.677081 0.317552 0.828398
Si Si4 0.954544 0.178966 0.579557
Si Si5 0.674226 0.319783 0.025717
Si Si6 0.173550 0.679857 0.494887
Si Si7 0.960893 0.680064 0.755269
O O1 0.628026 0.775024 0.245185
O O2 0.513064 0.742784 0.178091
O O3 0.575044 0.000000 0.162291
O O4 0.622088 0.763333 0.083693
O O5 0.250000 0.303407 0.710436
O O6 0.343855 0.500000 0.706836
O O7 0.338072 0.290351 0.594238
O O8 0.750000 0.263725 0.801155
O O9 0.678318 0.500000 0.823031
O O10 0.668085 0.282078 0.927090
O O11 0.613469 0.266775 0.776906
O O12 0.880493 0.233495 0.558754
O O13 0.979145 0.259375 0.663528
O O14 0.000000 0.220127 0.500000
O O15 0.957047 0.000000 0.590593
O O16 0.750000 0.284282 0.051467
O O17 0.665964 0.500000 0.034387
O O18 0.250000 0.718275 0.475931
O O19 0.166171 0.500000 0.482089
O O20 0.962524 0.500000 0.755811
#
# Coordination Sequence:
#
# PCOD9407163 Si02
#       7
#     8   8   8   8   8   8   8
#     4  12  24  35  50  79 120 155 187 228 273 330
#     4   9  18  34  56  81 110 146 190 237 282 330
#     4   8  17  37  64  90 111 136 180 236 284 327
#     4  11  24  40  57  81 115 151 187 230 284 345
#     4   9  18  36  62  87 112 145 185 227 272 326
#     4   9  19  36  58  83 108 139 185 236 281 331
#     4  11  23  39  61  85 110 145 188 234 284 336
#
# _framework density 19.591702999999999
#
# number of rings (size 3 to 8) (size 9 to 14) (size 15 to 20)
#    0.000    2.143    0.000    5.143    0.000    7.714 
#    0.000    7.143    0.000    3.000    0.000    0.000 
#    0.000    0.000    0.000    0.000    0.000    0.000 
#
# Total GULP energy -312897.412608 kJ/mol
# GULP energy per Si atom -5587.453797 kJ/mol
# Density = 1.954711 g / cm^3
# Si number density = 19.591703 Si / 1000 Ang^3
#
#
#
# Elastic Constant Matrix: (Units=GPa)
#
#
# Indices 1 2 3 4 5 6 
#
# 1 84.6515 30.1297 35.5056 0.0000 0.0000 0.0000
# 2 30.1297 41.4866 26.0655 0.0000 0.0000 0.0000
# 3 35.5056 26.0655 44.2016 0.0000 0.0000 0.0000
# 4 0.0000 0.0000 0.0000 -40.5189 0.0000 0.0000
# 5 0.0000 0.0000 0.0000 0.0000 33.8670 0.0000
# 6 0.0000 0.0000 0.0000 0.0000 0.0000 1.3097
#
#
#
# Elastic Compliance Matrix: (Units=1/GPa)
#
#
# Indices 1 2 3 4 5 6 
#
# 1 0.018905 -0.006654 -0.011262 0.000000 0.000000 0.000000
# 2 -0.006654 0.040633 -0.018616 0.000000 0.000000 0.000000
# 3 -0.011262 -0.018616 0.042648 0.000000 0.000000 0.000000
# 4 0.000000 0.000000 0.000000 -0.024680 0.000000 0.000000
# 5 0.000000 0.000000 0.000000 0.000000 0.029527 0.000000
# 6 0.000000 0.000000 0.000000 0.000000 0.000000 0.763514
#
#
# Mechanical properties :
#
#
# Convention : Reuss Voigt Hill
#
# Bulk Modulus (GPa) = 34.33879 39.30460 36.82170
# Shear Modulus (GPa) = 5.24484 4.17415 4.70949
#
# Velocity S-wave (km/s) = 1.63795 1.46123 1.55211
# Velocity P-wave (km/s) = 4.59809 4.79086 4.69546
#
# Compressibility (1/GPa) = 0.02912159
#
# Stress axis : x y z
#
# Youngs Moduli (GPa) = 52.89562 24.61056 23.44786
#
# Poissons Ratio (x) = 0.16376 0.26407
# Poissons Ratio (y) = 0.35197 0.43651
# Poissons Ratio (z) = 0.59571 0.45815
#
# Static dielectric constant tensor:
#      x y z
#    x 1.697480 0.000000 0.000000 
#    y 0.000000 1.647430 0.000000 
#    z 0.000000 0.000000 1.676610 
# 
# From -- ./inp_files/25709.got.cif
#   From: 2010.05.17/outbox.cif.g08.bks.cpg/sg51_13_cif.got.tgz:25709.got - 2010.06.03 11:52:47.
