data_PCOD9407092
_publ_section_title
;
Structure prediction by ZEFSAII (Michael W. Deem and Ramdas Pophale) SiO2 
 PCOD9407092
Probable space group: P M M A
;
_chemical_formula_sum "Si O2"
_cell_formula_units_Z 48
_cell_length_a 8.213472
_cell_length_b 19.395080
_cell_length_c 13.041142
_cell_angle_alpha 90.000000
_cell_angle_beta 90.000000
_cell_angle_gamma 90.000000
_cell_volume 2077.466264
_symmetry_space_group_name_H-M "P M M A"
_symmetry_group_IT_number 51
_symmetry_cell_setting 'orthorhombic'
loop_
_space_group_symop_operation_xyz
x,y,z
1/2-x,-y,z
1/2+x,-y,-z
-x,y,-z
-x,-y,-z
1/2+x,y,-z
1/2-x,y,z
x,-y,z
loop_
_atom_site_type_symbol
_atom_site_label
_atom_site_fract_x
_atom_site_fract_y
_atom_site_fract_z
Si Si1 0.441280 0.723568 0.110872
Si Si2 0.945325 0.775662 0.328325
Si Si3 0.068579 0.918152 0.107713
Si Si4 0.947021 0.425097 0.171955
Si Si5 0.445256 0.626414 0.607728
Si Si6 0.440518 0.076607 0.668605
O O1 0.250000 0.730912 0.119978
O O2 0.521279 0.762409 0.207384
O O3 0.485276 0.642702 0.119181
O O4 0.500000 0.746839 0.000000
O O5 0.750000 0.777896 0.341352
O O6 0.008688 0.705418 0.380369
O O7 0.011297 0.849630 0.367930
O O8 0.250000 0.890130 0.129138
O O9 0.957416 0.913949 0.208234
O O10 0.086398 0.000000 0.093347
O O11 0.000000 0.892078 0.000000
O O12 0.750000 0.422450 0.165371
O O13 0.002009 0.500000 0.134275
O O14 0.993696 0.415607 0.291608
O O15 0.500000 0.596911 0.500000
O O16 0.250000 0.629640 0.609243
O O17 0.250000 0.073932 0.641144
O O18 0.511239 0.000000 0.643097
#
# Coordination Sequence:
#
# PCOD9407092 Si02
#       6
#     8   8   8   8   8   8
#     4  11  22  36  55  78 106 143 185 223 259 303
#     4   9  19  36  54  74 103 136 174 221 268 316
#     4   9  16  25  37  55  82 115 150 190 237 291
#     4   9  19  37  58  81 112 145 176 214 258 303
#     4   9  18  33  54  79 106 138 173 211 258 310
#     4   9  17  30  49  70  91 121 163 211 264 317
#
# _framework density 23.105067999999999
#
# number of rings (size 3 to 8) (size 9 to 14) (size 15 to 20)
#    0.000    2.667    0.000    3.000    0.000    7.000 
#    0.000    0.000    0.000    0.500    0.000    0.000 
#    0.000    0.000    0.000    0.000    0.000    0.333 
#
# Total GULP energy -267814.208619 kJ/mol
# GULP energy per Si atom -5579.462680 kJ/mol
# Density = 2.305248 g / cm^3
# Si number density = 23.105068 Si / 1000 Ang^3
#
#
#
# Elastic Constant Matrix: (Units=GPa)
#
#
# Indices 1 2 3 4 5 6 
#
# 1 19.0997 11.9908 -12.6938 0.0000 0.0000 0.0000
# 2 11.9908 181.5213 -7.5939 0.0000 0.0000 0.0000
# 3 -12.6938 -7.5939 59.6829 0.0000 0.0000 0.0000
# 4 0.0000 0.0000 0.0000 -10.3895 0.0000 0.0000
# 5 0.0000 0.0000 0.0000 0.0000 16.3178 0.0000
# 6 0.0000 0.0000 0.0000 0.0000 0.0000 -0.7330
#
#
#
# Elastic Compliance Matrix: (Units=1/GPa)
#
#
# Indices 1 2 3 4 5 6 
#
# 1 0.063277 -0.003636 0.012995 0.000000 0.000000 0.000000
# 2 -0.003636 0.005747 -0.000042 0.000000 0.000000 0.000000
# 3 0.012995 -0.000042 0.019514 0.000000 0.000000 0.000000
# 4 0.000000 0.000000 0.000000 -0.096251 0.000000 0.000000
# 5 0.000000 0.000000 0.000000 0.000000 0.061283 0.000000
# 6 0.000000 0.000000 0.000000 0.000000 0.000000 -1.364217
#
#
# Mechanical properties :
#
#
# Convention : Reuss Voigt Hill
#
# Bulk Modulus (GPa) = 9.33078 27.07889 18.20484
# Shear Modulus (GPa) = -3.86531 18.94579 7.54024
#
# Velocity S-wave (km/s) = -1.29482 2.86664 1.80846
# Velocity P-wave (km/s) = 1.34602 4.76468 3.50100
#
# Compressibility (1/GPa) = 0.10717223
#
# Stress axis : x y z
#
# Youngs Moduli (GPa) = 15.80363 173.99072 51.24567
#
# Poissons Ratio (x) = 0.63267 -0.66596
# Poissons Ratio (y) = 0.05747 0.00216
# Poissons Ratio (z) = -0.20538 0.00732
#
# Static dielectric constant tensor:
#      x y z
#    x 1.809320 0.000000 0.000000 
#    y 0.000000 1.945350 0.000000 
#    z 0.000000 0.000000 1.851940 
# 
# From -- ./inp_files/21379.got.cif
#   From: 2010.05.17/outbox.cif.g08.bks.cpg/sg51_11_cif.got.tgz:21379.got - 2010.06.03 11:52:47.
