data_PCOD9407520
_publ_section_title
;
Structure prediction by ZEFSAII (Michael W. Deem and Ramdas Pophale) SiO2 
 PCOD9407520
Probable space group: P M M A
;
_chemical_formula_sum "Si O2"
_cell_formula_units_Z 48
_cell_length_a 24.000000
_cell_length_b 9.000000
_cell_length_c 12.000000
_cell_angle_alpha 90.000000
_cell_angle_beta 90.000000
_cell_angle_gamma 90.000000
_cell_volume 2592.000000
_symmetry_space_group_name_H-M "P M M A"
_symmetry_group_IT_number 51
_symmetry_cell_setting 'orthorhombic'
loop_
_space_group_symop_operation_xyz
x,y,z
1/2-x,-y,z
1/2+x,-y,-z
-x,y,-z
-x,-y,-z
1/2+x,y,-z
1/2-x,y,z
x,-y,z
loop_
_atom_site_type_symbol
_atom_site_label
_atom_site_fract_x
_atom_site_fract_y
_atom_site_fract_z
Si Si1 0.482242 0.328189 0.629055
Si Si2 0.311065 0.322983 0.130794
Si Si3 0.188975 0.678409 0.482835
Si Si4 0.813027 0.830750 0.097088
Si Si5 0.099935 0.681673 0.302589
Si Si6 0.132367 0.173501 0.676327
O O1 0.500000 0.329528 0.500000
O O2 0.469988 0.500000 0.659963
O O3 0.536456 0.269793 0.693566
O O4 0.428323 0.231073 0.646278
O O5 0.250000 0.265224 0.166628
O O6 0.309744 0.500000 0.147085
O O7 0.363522 0.266991 0.199145
O O8 0.317796 0.282366 0.003073
O O9 0.250000 0.726503 0.442524
O O10 0.188333 0.500000 0.480532
O O11 0.137190 0.728838 0.407855
O O12 0.177128 0.736216 0.605241
O O13 0.750000 0.821353 0.143105
O O14 0.856031 0.803282 0.194220
O O15 0.819633 0.000000 0.054683
O O16 0.097303 0.500000 0.305535
O O17 0.138811 0.000000 0.651550
#
# Coordination Sequence:
#
# PCOD9407520 Si02
#       6
#     8   8   8   8   8   8
#     4  10  19  35  56  75 102 141 179 213 255 311
#     4   9  17  31  54  81 104 129 167 214 260 309
#     4  10  19  32  53  79 106 136 170 210 260 318
#     4   9  19  36  54  72 101 140 173 208 260 311
#     4   9  17  32  53  78 106 134 167 212 264 308
#     4  11  22  35  52  75 106 139 176 218 261 306
#
# _framework density 18.518519000000001
#
# number of rings (size 3 to 8) (size 9 to 14) (size 15 to 20)
#    0.000    2.333    1.667    1.500    0.000    4.667 
#    0.000    4.167    0.000    7.000    0.000    0.000 
#    0.000    0.000    0.000    0.000    0.000    0.000 
#
# Total GULP energy -267340.247684 kJ/mol
# GULP energy per Si atom -5569.588493 kJ/mol
# Density = 1.847637 g / cm^3
# Si number density = 18.518519 Si / 1000 Ang^3
#
#
#
# Elastic Constant Matrix: (Units=GPa)
#
#
# Indices 1 2 3 4 5 6 
#
# 1 70.8036 11.2546 25.0991 0.0000 0.0000 0.0000
# 2 11.2546 -21.5586 13.6484 0.0000 0.0000 0.0000
# 3 25.0991 13.6484 14.9809 0.0000 0.0000 0.0000
# 4 0.0000 0.0000 0.0000 23.9534 0.0000 0.0000
# 5 0.0000 0.0000 0.0000 0.0000 44.4757 0.0000
# 6 0.0000 0.0000 0.0000 0.0000 0.0000 37.5668
#
#
#
# Elastic Compliance Matrix: (Units=1/GPa)
#
#
# Indices 1 2 3 4 5 6 
#
# 1 0.030563 -0.010440 -0.041694 0.000000 0.000000 0.000000
# 2 -0.010440 -0.025851 0.041044 0.000000 0.000000 0.000000
# 3 -0.041694 0.041044 0.099213 0.000000 0.000000 0.000000
# 4 0.000000 0.000000 0.000000 0.041748 0.000000 0.000000
# 5 0.000000 0.000000 0.000000 0.000000 0.022484 0.000000
# 6 0.000000 0.000000 0.000000 0.000000 0.000000 0.026619
#
#
# Mechanical properties :
#
#
# Convention : Reuss Voigt Hill
#
# Bulk Modulus (GPa) = 12.23334 18.24777 15.24055
# Shear Modulus (GPa) = 20.47465 22.14744 21.31104
#
# Velocity S-wave (km/s) = 3.32871 3.46202 3.39602
# Velocity P-wave (km/s) = 4.62537 5.08488 4.86056
#
# Compressibility (1/GPa) = 0.08174384
#
# Stress axis : x y z
#
# Youngs Moduli (GPa) = 32.71915 -38.68273 10.07934
#
# Poissons Ratio (x) = -0.40386 0.42025
# Poissons Ratio (y) = 0.34160 -0.41370
# Poissons Ratio (z) = 1.36419 1.58769
#
# Static dielectric constant tensor:
#      x y z
#    x 1.667280 0.000000 0.000000 
#    y 0.000000 1.650250 0.000000 
#    z 0.000000 0.000000 1.655080 
# 
# From -- ./inp_files/18537.got.cif
#   From: 2010.05.17/outbox.ucp.g08.bks.cvg/sg51_10_cif.got.tgz:18537.got - 2010.06.11 16:27:58.
