data_PCOD9407261
_publ_section_title
;
Structure prediction by ZEFSAII (Michael W. Deem and Ramdas Pophale) SiO2 
 PCOD9407261
Probable space group: P M M A
;
_chemical_formula_sum "Si O2"
_cell_formula_units_Z 44
_cell_length_a 7.472688
_cell_length_b 30.502420
_cell_length_c 9.630197
_cell_angle_alpha 90.000000
_cell_angle_beta 90.000000
_cell_angle_gamma 90.000000
_cell_volume 2195.059607
_symmetry_space_group_name_H-M "P M M A"
_symmetry_group_IT_number 51
_symmetry_cell_setting 'orthorhombic'
loop_
_space_group_symop_operation_xyz
x,y,z
1/2-x,-y,z
1/2+x,-y,-z
-x,y,-z
-x,-y,-z
1/2+x,y,-z
1/2-x,y,z
x,-y,z
loop_
_atom_site_type_symbol
_atom_site_label
_atom_site_fract_x
_atom_site_fract_y
_atom_site_fract_z
Si Si1 0.535540 0.630620 0.162999
Si Si2 0.035729 0.905704 0.665673
Si Si3 0.035348 0.000000 0.666105
Si Si4 0.964819 0.189671 0.335776
Si Si5 0.535521 0.548520 0.336836
Si Si6 0.035494 0.727848 0.836855
O O1 0.750000 0.631671 0.182019
O O2 0.464714 0.589654 0.250316
O O3 0.467081 0.679222 0.201916
O O4 0.500000 0.624333 0.000000
O O5 0.250000 0.905930 0.685478
O O6 0.967287 0.858219 0.714107
O O7 0.000000 0.905700 0.500000
O O8 0.966902 0.952822 0.719605
O O9 0.000000 0.000000 0.500000
O O10 0.250000 0.000000 0.684370
O O11 0.750000 0.188752 0.318627
O O12 0.034852 0.231521 0.252349
O O13 0.000000 0.194051 0.500000
O O14 0.500000 0.554459 0.500000
O O15 0.750000 0.547545 0.317906
O O16 0.467154 0.500000 0.296677
O O17 0.250000 0.726835 0.818402
O O18 0.000000 0.734355 0.000000
#
# Coordination Sequence:
#
# PCOD9407261 Si02
#       6
#     8   8   4   8   8   8
#     4   9  18  32  48  66  88 113 143 179 215 250
#     4   8  13  21  33  51  76 103 130 162 200 242
#     4   8  12  18  30  48  71 100 130 158 194 240
#     4   9  17  28  42  62  87 111 137 172 212 252
#     4   9  18  32  48  67  92 119 145 174 209 250
#     4   9  18  32  47  63  85 113 144 177 212 251
#
# _framework density 20.045013000000001
#
# number of rings (size 3 to 8) (size 9 to 14) (size 15 to 20)
#    0.000    3.273    0.000    0.000    0.000    2.545 
#    0.000    0.000    0.000    0.000    0.000    0.636 
#    0.000    0.000    0.000    0.000    0.000    0.000 
#
# Total GULP energy -245005.393275 kJ/mol
# GULP energy per Si atom -5568.304393 kJ/mol
# Density = 1.999939 g / cm^3
# Si number density = 20.045013 Si / 1000 Ang^3
#
#
#
# Elastic Constant Matrix: (Units=GPa)
#
#
# Indices 1 2 3 4 5 6 
#
# 1 62.8640 14.4471 -2.8754 0.0000 0.0000 0.0000
# 2 14.4471 294.9175 94.1176 0.0000 0.0000 0.0000
# 3 -2.8754 94.1176 38.3430 0.0000 0.0000 0.0000
# 4 0.0000 0.0000 0.0000 32.4766 0.0000 0.0000
# 5 0.0000 0.0000 0.0000 0.0000 15.9608 0.0000
# 6 0.0000 0.0000 0.0000 0.0000 0.0000 -15.2600
#
#
#
# Elastic Compliance Matrix: (Units=1/GPa)
#
#
# Indices 1 2 3 4 5 6 
#
# 1 0.018047 -0.006074 0.016263 0.000000 0.000000 0.000000
# 2 -0.006074 0.017695 -0.043890 0.000000 0.000000 0.000000
# 3 0.016263 -0.043890 0.135034 0.000000 0.000000 0.000000
# 4 0.000000 0.000000 0.000000 0.030791 0.000000 0.000000
# 5 0.000000 0.000000 0.000000 0.000000 0.062654 0.000000
# 6 0.000000 0.000000 0.000000 0.000000 0.000000 -0.065531
#
#
# Mechanical properties :
#
#
# Convention : Reuss Voigt Hill
#
# Bulk Modulus (GPa) = 9.67368 67.50035 38.58702
# Shear Modulus (GPa) = 16.63611 25.99782 21.31697
#
# Velocity S-wave (km/s) = 2.88399 3.60526 3.26460
# Velocity P-wave (km/s) = 3.99078 7.14689 5.78810
#
# Compressibility (1/GPa) = 0.10337330
#
# Stress axis : x y z
#
# Youngs Moduli (GPa) = 55.41047 56.51274 7.40555
#
# Poissons Ratio (x) = 0.34326 -0.12044
# Poissons Ratio (y) = 0.33657 0.32503
# Poissons Ratio (z) = -0.90114 2.48036
#
# Static dielectric constant tensor:
#      x y z
#    x 1.708770 0.000000 0.000000 
#    y 0.000000 1.802830 0.000000 
#    z 0.000000 0.000000 1.639140 
# 
# From -- ./inp_files/5838.got.cif
#   From: 2010.05.17/outbox.cif.g08.bks.cpg/sg51_3_cif.got.tgz:5838.got - 2010.06.03 11:52:47.
