data_PCOD9407952
_publ_section_title
;
Structure prediction by ZEFSAII (Michael W. Deem and Ramdas Pophale) SiO2 
 PCOD9407952
Probable space group: P N N A
;
_chemical_formula_sum "Si O2"
_cell_formula_units_Z 48
_cell_length_a 12.163545
_cell_length_b 12.164313
_cell_length_c 16.540843
_cell_angle_alpha 90.000000
_cell_angle_beta 90.000000
_cell_angle_gamma 90.000000
_cell_volume 2447.402459
_symmetry_space_group_name_H-M "P N N A"
_symmetry_group_IT_number 52
_symmetry_cell_setting 'orthorhombic'
loop_
_space_group_symop_operation_xyz
x,y,z
1/2-x,-y,z
x,1/2-y,1/2-z
1/2-x,1/2+y,1/2-z
-x,-y,-z
1/2+x,y,-z
-x,1/2+y,1/2+z
1/2+x,1/2-y,1/2+z
loop_
_atom_site_type_symbol
_atom_site_label
_atom_site_fract_x
_atom_site_fract_y
_atom_site_fract_z
Si Si1 0.924514 0.690524 0.661751
Si Si2 0.522092 0.684163 0.008638
Si Si3 0.878208 0.975888 0.415655
Si Si4 0.295297 0.265350 0.101772
Si Si5 0.015634 0.511847 0.245331
Si Si6 0.958061 0.250000 0.750000
Si Si7 0.250000 0.500000 0.155611
O O1 0.917263 0.750000 0.750000
O O2 0.800832 0.681760 0.625939
O O3 0.985280 0.577030 0.683366
O O4 0.983112 0.761529 0.591945
O O5 0.581692 0.568485 0.022697
O O6 0.422352 0.643621 0.948500
O O7 0.621171 0.756303 0.971023
O O8 0.938985 0.006016 0.332031
O O9 0.750000 0.000000 0.405570
O O10 0.379218 0.271871 0.175452
O O11 0.243345 0.388802 0.102516
O O12 0.984077 0.635826 0.270209
O O13 0.141156 0.503816 0.211069
#
# Coordination Sequence:
#
# PCOD9407952 Si02
#       7
#     8   8   8   8   8   4   4
#     4  12  21  38  63  99 130 167 211 280 334 397
#     4  11  23  36  59  96 136 165 217 273 339 394
#     4  11  22  37  61  96 131 172 214 275 337 392
#     4  11  20  35  61  94 128 164 212 273 334 391
#     4  11  21  39  64  94 128 169 220 269 330 399
#     4  10  20  38  62  90 122 164 220 270 324 386
#     4  10  16  32  60  90 120 158 214 278 318 372
#
# _framework density 19.612631
#
# number of rings (size 3 to 8) (size 9 to 14) (size 15 to 20)
#    0.000    1.000    7.500    2.000    3.500    0.000 
#    0.000    2.500    0.000    0.000    0.000    0.000 
#    0.000    0.000    0.000    0.000    0.000    0.000 
#
# Total GULP energy -267246.921221 kJ/mol
# GULP energy per Si atom -5567.644192 kJ/mol
# Density = 1.956799 g / cm^3
# Si number density = 19.612631 Si / 1000 Ang^3
#
#
#
# Elastic Constant Matrix: (Units=GPa)
#
#
# Indices 1 2 3 4 5 6 
#
# 1 77.0662 14.0180 41.6097 0.0000 0.0000 0.0000
# 2 14.0180 72.7397 22.5895 0.0000 0.0000 0.0000
# 3 41.6097 22.5895 87.0115 0.0000 0.0000 0.0000
# 4 0.0000 0.0000 0.0000 24.9773 0.0000 0.0000
# 5 0.0000 0.0000 0.0000 0.0000 32.8920 0.0000
# 6 0.0000 0.0000 0.0000 0.0000 0.0000 17.6332
#
#
#
# Elastic Compliance Matrix: (Units=1/GPa)
#
#
# Indices 1 2 3 4 5 6 
#
# 1 0.017540 -0.000843 -0.008169 0.000000 0.000000 0.000000
# 2 -0.000843 0.014994 -0.003489 0.000000 0.000000 0.000000
# 3 -0.008169 -0.003489 0.016305 0.000000 0.000000 0.000000
# 4 0.000000 0.000000 0.000000 0.040036 0.000000 0.000000
# 5 0.000000 0.000000 0.000000 0.000000 0.030402 0.000000
# 6 0.000000 0.000000 0.000000 0.000000 0.000000 0.056711
#
#
# Mechanical properties :
#
#
# Convention : Reuss Voigt Hill
#
# Bulk Modulus (GPa) = 41.95385 43.69467 42.82426
# Shear Modulus (GPa) = 23.93073 25.67386 24.80229
#
# Velocity S-wave (km/s) = 3.49688 3.62200 3.55999
# Velocity P-wave (km/s) = 6.14345 6.31023 6.22740
#
# Compressibility (1/GPa) = 0.02383571
#
# Stress axis : x y z
#
# Youngs Moduli (GPa) = 57.01345 66.69420 61.33095
#
# Poissons Ratio (x) = 0.05625 0.50100
# Poissons Ratio (y) = 0.04808 0.21400
# Poissons Ratio (z) = 0.46573 0.23272
#
# Static dielectric constant tensor:
#      x y z
#    x 1.725620 0.000000 0.000000 
#    y 0.000000 1.802370 0.000000 
#    z 0.000000 0.000000 1.475180 
# 
# From -- ./inp_files/26109.got.cif
#   From: 2010.05.17/outbox.cif.g08.bks.cpg/sg52_14_cif.got.tgz:26109.got - 2010.06.03 12:15:38.
