data_PCOD9407137
_publ_section_title
;
Structure prediction by ZEFSAII (Michael W. Deem and Ramdas Pophale) SiO2 
 PCOD9407137
Probable space group: P M M A
;
_chemical_formula_sum "Si O2"
_cell_formula_units_Z 64
_cell_length_a 18.843973
_cell_length_b 14.428082
_cell_length_c 12.565736
_cell_angle_alpha 90.000000
_cell_angle_beta 90.000000
_cell_angle_gamma 90.000000
_cell_volume 3416.402306
_symmetry_space_group_name_H-M "P M M A"
_symmetry_group_IT_number 51
_symmetry_cell_setting 'orthorhombic'
loop_
_space_group_symop_operation_xyz
x,y,z
1/2-x,-y,z
1/2+x,-y,-z
-x,y,-z
-x,-y,-z
1/2+x,y,-z
1/2-x,y,z
x,-y,z
loop_
_atom_site_type_symbol
_atom_site_label
_atom_site_fract_x
_atom_site_fract_y
_atom_site_fract_z
Si Si1 0.664875 0.388679 0.022531
Si Si2 0.085275 0.696504 0.178389
Si Si3 0.334802 0.609886 0.374278
Si Si4 0.073277 0.329256 0.782753
Si Si5 0.040989 0.181076 0.602816
Si Si6 0.414765 0.105691 0.267958
Si Si7 0.327547 0.889363 0.471700
Si Si8 0.671734 0.606721 0.393001
O O1 0.750000 0.378560 0.026675
O O2 0.649671 0.500000 0.030074
O O3 0.626120 0.333801 0.117799
O O4 0.632939 0.345743 0.914822
O O5 0.119673 0.664334 0.289037
O O6 0.081285 0.809187 0.184461
O O7 0.005926 0.654024 0.174373
O O8 0.250000 0.618943 0.356935
O O9 0.352047 0.500000 0.363860
O O10 0.349662 0.648383 0.493188
O O11 0.062413 0.241519 0.704934
O O12 0.112788 0.392781 0.696721
O O13 0.112347 0.141726 0.553007
O O14 0.000000 0.225403 0.500000
O O15 0.983630 0.111205 0.654221
O O16 0.350846 0.127425 0.349819
O O17 0.408336 0.000000 0.226884
O O18 0.250000 0.848831 0.493353
O O19 0.324035 0.000000 0.481108
O O20 0.750000 0.641831 0.357891
O O21 0.681581 0.500000 0.421660
#
# Coordination Sequence:
#
# PCOD9407137 Si02
#       8
#     8   8   8   8   8   8   8   8
#     4  11  25  45  65  83 111 156 201 237 289 356
#     4  11  23  37  60  88 113 144 198 253 294 335
#     4   9  19  35  54  80 116 156 193 231 286 352
#     4  11  23  35  57  85 117 145 192 244 288 331
#     4   9  19  34  54  80 117 157 193 225 286 355
#     4   9  19  36  56  81 116 155 191 237 297 357
#     4   9  17  29  49  80 114 149 192 238 285 342
#     4   9  19  34  51  75 112 156 191 224 284 358
#
# _framework density 18.733156000000001
#
# number of rings (size 3 to 8) (size 9 to 14) (size 15 to 20)
#    0.000    2.250    0.000    3.000    5.250    8.000 
#    0.000    1.250    0.000    6.750    0.000    0.000 
#    0.000    0.000    0.000    0.000    0.000    0.000 
#
# Total GULP energy -356424.931299 kJ/mol
# GULP energy per Si atom -5569.139552 kJ/mol
# Density = 1.869052 g / cm^3
# Si number density = 18.733156 Si / 1000 Ang^3
#
#
#
# Elastic Constant Matrix: (Units=GPa)
#
#
# Indices 1 2 3 4 5 6 
#
# 1 113.0397 23.2631 34.3209 0.0000 0.0000 0.0000
# 2 23.2631 53.3640 3.2730 0.0000 0.0000 0.0000
# 3 34.3209 3.2730 55.6984 0.0000 0.0000 0.0000
# 4 0.0000 0.0000 0.0000 29.1410 0.0000 0.0000
# 5 0.0000 0.0000 0.0000 0.0000 33.6130 0.0000
# 6 0.0000 0.0000 0.0000 0.0000 0.0000 20.5494
#
#
#
# Elastic Compliance Matrix: (Units=1/GPa)
#
#
# Indices 1 2 3 4 5 6 
#
# 1 0.011990 -0.004791 -0.007107 0.000000 0.000000 0.000000
# 2 -0.004791 0.020721 0.001735 0.000000 0.000000 0.000000
# 3 -0.007107 0.001735 0.022231 0.000000 0.000000 0.000000
# 4 0.000000 0.000000 0.000000 0.034316 0.000000 0.000000
# 5 0.000000 0.000000 0.000000 0.000000 0.029750 0.000000
# 6 0.000000 0.000000 0.000000 0.000000 0.000000 0.048663
#
#
# Mechanical properties :
#
#
# Convention : Reuss Voigt Hill
#
# Bulk Modulus (GPa) = 28.88823 38.20179 33.54501
# Shear Modulus (GPa) = 25.05799 27.41035 26.23417
#
# Velocity S-wave (km/s) = 3.66133 3.82933 3.74627
# Velocity P-wave (km/s) = 5.77305 6.32365 6.05461
#
# Compressibility (1/GPa) = 0.03461617
#
# Stress axis : x y z
#
# Youngs Moduli (GPa) = 83.40185 48.25925 44.98225
#
# Poissons Ratio (x) = 0.23121 0.31967
# Poissons Ratio (y) = 0.39958 -0.07802
# Poissons Ratio (z) = 0.59271 -0.08371
#
# Static dielectric constant tensor:
#      x y z
#    x 1.686430 0.000000 0.000000 
#    y 0.000000 1.703100 0.000000 
#    z 0.000000 0.000000 1.653780 
# 
# From -- ./inp_files/17602.got.cif
#   From: 2010.05.17/outbox.cif.g08.bks.cpg/sg51_9_cif.got.tgz:17602.got - 2010.06.03 11:52:47.
