data_PCOD9407401
_publ_section_title
;
Structure prediction by ZEFSAII (Michael W. Deem and Ramdas Pophale) SiO2 
 PCOD9407401
Probable space group: P M M A
;
_chemical_formula_sum "Si O2"
_cell_formula_units_Z 48
_cell_length_a 18.926201
_cell_length_b 11.260473
_cell_length_c 10.005846
_cell_angle_alpha 90.000000
_cell_angle_beta 90.000000
_cell_angle_gamma 90.000000
_cell_volume 2132.425641
_symmetry_space_group_name_H-M "P M M A"
_symmetry_group_IT_number 51
_symmetry_cell_setting 'orthorhombic'
loop_
_space_group_symop_operation_xyz
x,y,z
1/2-x,-y,z
1/2+x,-y,-z
-x,y,-z
-x,-y,-z
1/2+x,y,-z
1/2-x,y,z
x,-y,z
loop_
_atom_site_type_symbol
_atom_site_label
_atom_site_fract_x
_atom_site_fract_y
_atom_site_fract_z
Si Si1 0.166912 0.632838 0.983115
Si Si2 0.165497 0.861676 0.796003
Si Si3 0.030759 0.125696 0.148505
Si Si4 0.419282 0.142771 0.521296
Si Si5 0.033667 0.624633 0.149072
Si Si6 0.672004 0.138277 0.723886
O O1 0.250000 0.637950 0.012309
O O2 0.154130 0.500000 0.919706
O O3 0.150338 0.749384 0.893672
O O4 0.116839 0.630888 0.113277
O O5 0.250000 0.858349 0.770075
O O6 0.121121 0.840931 0.661235
O O7 0.150845 0.000000 0.842939
O O8 0.009015 0.251472 0.209246
O O9 0.115591 0.130749 0.156054
O O10 0.010481 0.000000 0.214639
O O11 0.000000 0.122806 0.000000
O O12 0.500000 0.184308 0.500000
O O13 0.369248 0.192424 0.402263
O O14 0.422281 0.000000 0.504001
O O15 0.017072 0.500000 0.217198
O O16 0.000000 0.621486 0.000000
O O17 0.750000 0.186583 0.752196
O O18 0.681806 0.000000 0.688856
#
# Coordination Sequence:
#
# PCOD9407401 Si02
#       6
#     8   8   8   8   8   8
#     4   9  18  32  49  69  94 125 158 192 237 291
#     4   9  17  30  50  75  98 121 155 199 239 276
#     4   9  18  31  48  71  96 123 159 203 244 282
#     4   9  17  28  45  71 101 131 162 196 236 285
#     4   9  18  32  48  66  91 125 161 195 236 288
#     4   9  17  30  47  67  95 131 165 197 241 296
#
# _framework density 22.509578999999999
#
# number of rings (size 3 to 8) (size 9 to 14) (size 15 to 20)
#    0.000    3.000    0.000    0.500    0.000    6.000 
#    0.000    5.000    0.000    1.500    0.000    0.000 
#    0.000    0.000    0.000    0.000    0.000    0.000 
#
# Total GULP energy -267294.332391 kJ/mol
# GULP energy per Si atom -5568.631925 kJ/mol
# Density = 2.245835 g / cm^3
# Si number density = 22.509579 Si / 1000 Ang^3
#
#
#
# Elastic Constant Matrix: (Units=GPa)
#
#
# Indices 1 2 3 4 5 6 
#
# 1 173.8641 13.5413 39.6815 0.0000 0.0000 0.0000
# 2 13.5413 203.0274 42.5860 0.0000 0.0000 0.0000
# 3 39.6815 42.5860 83.6924 0.0000 0.0000 0.0000
# 4 0.0000 0.0000 0.0000 8.0527 0.0000 0.0000
# 5 0.0000 0.0000 0.0000 0.0000 23.9995 0.0000
# 6 0.0000 0.0000 0.0000 0.0000 0.0000 13.8963
#
#
#
# Elastic Compliance Matrix: (Units=1/GPa)
#
#
# Indices 1 2 3 4 5 6 
#
# 1 0.006460 0.000237 -0.003183 0.000000 0.000000 0.000000
# 2 0.000237 0.005523 -0.002922 0.000000 0.000000 0.000000
# 3 -0.003183 -0.002922 0.014945 0.000000 0.000000 0.000000
# 4 0.000000 0.000000 0.000000 0.124183 0.000000 0.000000
# 5 0.000000 0.000000 0.000000 0.000000 0.041668 0.000000
# 6 0.000000 0.000000 0.000000 0.000000 0.000000 0.071962
#
#
# Mechanical properties :
#
#
# Convention : Reuss Voigt Hill
#
# Bulk Modulus (GPa) = 65.83507 72.46685 69.15096
# Shear Modulus (GPa) = 17.75947 33.50802 25.63374
#
# Velocity S-wave (km/s) = 2.81191 3.86244 3.37826
# Velocity P-wave (km/s) = 6.31297 7.22184 6.78264
#
# Compressibility (1/GPa) = 0.01518947
#
# Stress axis : x y z
#
# Youngs Moduli (GPa) = 154.80586 181.07270 66.91253
#
# Poissons Ratio (x) = -0.04289 0.21300
# Poissons Ratio (y) = -0.03667 0.19555
# Poissons Ratio (z) = 0.49279 0.52918
#
# Static dielectric constant tensor:
#      x y z
#    x 2.141120 0.000000 0.000000 
#    y 0.000000 1.924780 0.000000 
#    z 0.000000 0.000000 1.831560 
# 
# From -- ./inp_files/17306.got.cif
#   From: 2010.05.17/outbox.cif.g08.bks.cpg/sg51_9_cif.got.tgz:17306.got - 2010.06.03 11:52:47.
