data_PCOD9407001
_publ_section_title
;
Structure prediction by ZEFSAII (Michael W. Deem and Ramdas Pophale) SiO2 
 PCOD9407001
Probable space group: P M M A
;
_chemical_formula_sum "Si O2"
_cell_formula_units_Z 56
_cell_length_a 14.612724
_cell_length_b 8.790132
_cell_length_c 23.583911
_cell_angle_alpha 90.000000
_cell_angle_beta 90.000000
_cell_angle_gamma 90.000000
_cell_volume 3029.300843
_symmetry_space_group_name_H-M "P M M A"
_symmetry_group_IT_number 51
_symmetry_cell_setting 'orthorhombic'
loop_
_space_group_symop_operation_xyz
x,y,z
1/2-x,-y,z
1/2+x,-y,-z
-x,y,-z
-x,-y,-z
1/2+x,y,-z
1/2-x,y,z
x,-y,z
loop_
_atom_site_type_symbol
_atom_site_label
_atom_site_fract_x
_atom_site_fract_y
_atom_site_fract_z
Si Si1 0.651806 0.817272 0.401007
Si Si2 0.393480 0.327475 0.482116
Si Si3 0.354596 0.316574 0.906596
Si Si4 0.144584 0.814393 0.249904
Si Si5 0.968436 0.181347 0.860019
Si Si6 0.140658 0.678850 0.036558
Si Si7 0.050750 0.815878 0.367410
O O1 0.750000 0.765030 0.376380
O O2 0.649802 0.765937 0.466529
O O3 0.555921 0.765404 0.373146
O O4 0.650243 0.000000 0.398604
O O5 0.500000 0.333713 0.500000
O O6 0.358817 0.500000 0.479687
O O7 0.393383 0.249071 0.420913
O O8 0.250000 0.269026 0.894839
O O9 0.356938 0.500000 0.905144
O O10 0.430487 0.249819 0.865515
O O11 0.377818 0.272299 0.971764
O O12 0.250000 0.763789 0.247304
O O13 0.087074 0.764347 0.195197
O O14 0.095840 0.768515 0.308308
O O15 0.145501 0.000000 0.249279
O O16 0.913076 0.230427 0.915979
O O17 0.974633 0.000000 0.857601
O O18 0.250000 0.692169 0.045014
O O19 0.116275 0.500000 0.041289
O O20 0.052276 0.000000 0.370780
#
# Coordination Sequence:
#
# PCOD9407001 Si02
#       7
#     8   8   8   8   8   8   8
#     4   9  17  29  47  72  98 124 159 201 242 289
#     4   9  17  29  46  70 100 129 155 191 242 291
#     4   9  19  36  55  74 100 135 171 206 248 302
#     4   9  19  35  52  71  98 132 167 203 247 296
#     4  11  21  32  50  77 106 134 166 209 259 304
#     4   9  18  33  53  76 102 135 173 208 246 298
#     4   9  17  32  52  70  92 128 171 207 239 283
#
# _framework density 18.486114000000001
#
# number of rings (size 3 to 8) (size 9 to 14) (size 15 to 20)
#    0.000    2.714    0.000    2.571    0.000    6.000 
#    0.000    5.000    0.000    4.286    0.000    0.000 
#    0.000    0.000    0.000    0.000    0.000    0.000 
#
# Total GULP energy -312247.811901 kJ/mol
# GULP energy per Si atom -5575.853784 kJ/mol
# Density = 1.844404 g / cm^3
# Si number density = 18.486114 Si / 1000 Ang^3
#
#
#
# Elastic Constant Matrix: (Units=GPa)
#
#
# Indices 1 2 3 4 5 6 
#
# 1 122.8655 17.9580 92.4359 0.0000 0.0000 0.0000
# 2 17.9580 9.8687 21.1633 0.0000 0.0000 0.0000
# 3 92.4359 21.1633 114.1182 0.0000 0.0000 0.0000
# 4 0.0000 0.0000 0.0000 -62.7420 0.0000 0.0000
# 5 0.0000 0.0000 0.0000 0.0000 19.8396 0.0000
# 6 0.0000 0.0000 0.0000 0.0000 0.0000 18.3497
#
#
#
# Elastic Compliance Matrix: (Units=1/GPa)
#
#
# Indices 1 2 3 4 5 6 
#
# 1 0.020885 -0.002866 -0.016386 0.000000 0.000000 0.000000
# 2 -0.002866 0.168632 -0.028951 0.000000 0.000000 0.000000
# 3 -0.016386 -0.028951 0.027404 0.000000 0.000000 0.000000
# 4 0.000000 0.000000 0.000000 -0.015938 0.000000 0.000000
# 5 0.000000 0.000000 0.000000 0.000000 0.050404 0.000000
# 6 0.000000 0.000000 0.000000 0.000000 0.000000 0.054497
#
#
# Mechanical properties :
#
#
# Convention : Reuss Voigt Hill
#
# Bulk Modulus (GPa) = 8.29769 56.66301 32.48035
# Shear Modulus (GPa) = 11.30037 2.77579 7.03808
#
# Velocity S-wave (km/s) = 2.47511 1.22671 1.95333
# Velocity P-wave (km/s) = 3.55901 5.72054 4.76399
#
# Compressibility (1/GPa) = 0.12051548
#
# Stress axis : x y z
#
# Youngs Moduli (GPa) = 47.88027 5.93006 36.49057
#
# Poissons Ratio (x) = 0.01700 0.59792
# Poissons Ratio (y) = 0.13723 1.05645
# Poissons Ratio (z) = 0.78455 0.17168
#
# Static dielectric constant tensor:
#      x y z
#    x 1.680650 0.000000 0.000000 
#    y 0.000000 1.628570 0.000000 
#    z 0.000000 0.000000 1.608050 
# 
# From -- ./inp_files/33293.got.cif
#   From: 2010.05.17/outbox.cif.g08.bks.cpg/sg51_17_cif.got.tgz:33293.got - 2010.06.03 11:52:47.
