data_PCOD9407921
_publ_section_title
;
Structure prediction by ZEFSAII (Michael W. Deem and Ramdas Pophale) SiO2 
 PCOD9407921
Probable space group: P N N A
;
_chemical_formula_sum "Si O2"
_cell_formula_units_Z 60
_cell_length_a 5.316965
_cell_length_b 16.853348
_cell_length_c 32.021008
_cell_angle_alpha 90.000000
_cell_angle_beta 90.000000
_cell_angle_gamma 90.000000
_cell_volume 2869.359665
_symmetry_space_group_name_H-M "P N N A"
_symmetry_group_IT_number 52
_symmetry_cell_setting 'orthorhombic'
loop_
_space_group_symop_operation_xyz
x,y,z
1/2-x,-y,z
x,1/2-y,1/2-z
1/2-x,1/2+y,1/2-z
-x,-y,-z
1/2+x,y,-z
-x,1/2+y,1/2+z
1/2+x,1/2-y,1/2+z
loop_
_atom_site_type_symbol
_atom_site_label
_atom_site_fract_x
_atom_site_fract_y
_atom_site_fract_z
Si Si1 0.899191 0.230752 0.387650
Si Si2 0.102039 0.662711 0.383116
Si Si3 0.690768 0.835016 0.239682
Si Si4 0.872575 0.414290 0.175880
Si Si5 0.379815 0.370925 0.478442
Si Si6 0.886821 0.191338 0.485535
Si Si7 0.750000 0.000000 0.730022
Si Si8 0.336893 0.389792 0.296620
O O1 0.655914 0.286570 0.380113
O O2 0.887539 0.150229 0.360490
O O3 0.896918 0.209740 0.436759
O O4 0.156936 0.278603 0.378775
O O5 0.110750 0.623578 0.428811
O O6 0.129295 0.599911 0.345702
O O7 0.579762 0.750000 0.250000
O O8 0.757670 0.873656 0.284333
O O9 0.455394 0.874640 0.215002
O O10 0.950152 0.824695 0.214333
O O11 0.750000 0.500000 0.165002
O O12 0.135505 0.436231 0.198474
O O13 0.625881 0.403187 0.501306
O O14 0.379333 0.275637 0.489108
O O15 0.633608 0.148282 0.498493
O O16 0.573501 0.958434 0.764721
#
# Coordination Sequence:
#
# PCOD9407921 Si02
#       8
#     8   8   8   8   8   8   4   8
#     4  12  23  34  60  88 119 141 194 235 283 339
#     4  12  21  35  55  96 115 142 188 244 287 337
#     4  11  22  40  59  83 114 145 187 244 300 331
#     4  11  24  41  60  80 112 159 195 236 282 346
#     4  10  16  30  52  79 120 147 171 216 298 344
#     4  10  16  33  52  80 114 151 172 222 293 337
#     4  10  24  46  58  76 112 164 202 230 288 348
#     4  11  23  37  60  80 113 150 192 237 282 347
#
# _framework density 20.910588000000001
#
# number of rings (size 3 to 8) (size 9 to 14) (size 15 to 20)
#    0.000    1.067    6.667    2.800    1.867    1.067 
#    0.000    0.000    0.000    0.800    0.000    0.933 
#    0.000    0.000    0.000    0.000    0.000    0.000 
#
# Total GULP energy -334251.868395 kJ/mol
# GULP energy per Si atom -5570.864473 kJ/mol
# Density = 2.086299 g / cm^3
# Si number density = 20.910588 Si / 1000 Ang^3
#
#
#
# Elastic Constant Matrix: (Units=GPa)
#
#
# Indices 1 2 3 4 5 6 
#
# 1 134.9578 10.2775 18.4319 0.0000 0.0000 0.0000
# 2 10.2775 27.1740 7.5275 0.0000 0.0000 0.0000
# 3 18.4319 7.5275 120.5271 0.0000 0.0000 0.0000
# 4 0.0000 0.0000 0.0000 5.8993 0.0000 0.0000
# 5 0.0000 0.0000 0.0000 0.0000 20.7770 0.0000
# 6 0.0000 0.0000 0.0000 0.0000 0.0000 9.6906
#
#
#
# Elastic Compliance Matrix: (Units=1/GPa)
#
#
# Indices 1 2 3 4 5 6 
#
# 1 0.007751 -0.002649 -0.001020 0.000000 0.000000 0.000000
# 2 -0.002649 0.038353 -0.001990 0.000000 0.000000 0.000000
# 3 -0.001020 -0.001990 0.008577 0.000000 0.000000 0.000000
# 4 0.000000 0.000000 0.000000 0.169512 0.000000 0.000000
# 5 0.000000 0.000000 0.000000 0.000000 0.048130 0.000000
# 6 0.000000 0.000000 0.000000 0.000000 0.000000 0.103193
#
#
# Mechanical properties :
#
#
# Convention : Reuss Voigt Hill
#
# Bulk Modulus (GPa) = 23.06117 39.45917 31.26017
# Shear Modulus (GPa) = 12.45987 23.70151 18.08069
#
# Velocity S-wave (km/s) = 2.44368 3.37036 2.94371
# Velocity P-wave (km/s) = 4.36056 5.83585 5.15129
#
# Compressibility (1/GPa) = 0.04336293
#
# Stress axis : x y z
#
# Youngs Moduli (GPa) = 129.02001 26.07356 116.58885
#
# Poissons Ratio (x) = 0.06907 0.11890
# Poissons Ratio (y) = 0.34176 0.23204
# Poissons Ratio (z) = 0.13158 0.05189
#
# Static dielectric constant tensor:
#      x y z
#    x 1.942540 0.000000 0.000000 
#    y 0.000000 1.984280 0.000000 
#    z 0.000000 0.000000 1.733000 
# 
# From -- ./inp_files/41810.got.cif
#   From: 2010.05.17/outbox.cif.g08.bks.cpg/sg52_21_cif.got.tgz:41810.got - 2010.06.03 12:15:38.
