data_PCOD9407068
_publ_section_title
;
Structure prediction by ZEFSAII (Michael W. Deem and Ramdas Pophale) SiO2 
 PCOD9407068
Probable space group: P M M A
;
_chemical_formula_sum "Si O2"
_cell_formula_units_Z 48
_cell_length_a 30.587249
_cell_length_b 7.821433
_cell_length_c 10.513621
_cell_angle_alpha 90.000000
_cell_angle_beta 90.000000
_cell_angle_gamma 90.000000
_cell_volume 2515.237882
_symmetry_space_group_name_H-M "P M M A"
_symmetry_group_IT_number 51
_symmetry_cell_setting 'orthorhombic'
loop_
_space_group_symop_operation_xyz
x,y,z
1/2-x,-y,z
1/2+x,-y,-z
-x,y,-z
-x,-y,-z
1/2+x,y,-z
1/2-x,y,z
x,-y,z
loop_
_atom_site_type_symbol
_atom_site_label
_atom_site_fract_x
_atom_site_fract_y
_atom_site_fract_z
Si Si1 0.030133 0.200132 0.889362
Si Si2 0.628374 0.698994 0.108762
Si Si3 0.300139 0.791119 0.387711
Si Si4 0.199974 0.793463 0.099365
Si Si5 0.366138 0.206165 0.603540
Si Si6 0.534442 0.790258 0.394990
O O1 0.081924 0.210521 0.917058
O O2 0.023428 0.270968 0.747390
O O3 0.018343 0.000000 0.880107
O O4 0.000000 0.276331 0.000000
O O5 0.618327 0.500000 0.107674
O O6 0.644097 0.746765 0.250784
O O7 0.665151 0.737103 0.004774
O O8 0.250000 0.740393 0.412165
O O9 0.311637 0.738202 0.243497
O O10 0.332540 0.729923 0.497480
O O11 0.301077 0.000000 0.388480
O O12 0.250000 0.736873 0.072815
O O13 0.200387 0.000000 0.099216
O O14 0.415823 0.262844 0.576863
O O15 0.365783 0.000000 0.597794
O O16 0.500000 0.734112 0.500000
O O17 0.534308 0.000000 0.393717
#
# Coordination Sequence:
#
# PCOD9407068 Si02
#       6
#     8   8   8   8   8   8
#     4   9  18  33  53  74  96 126 167 212 253 294
#     4  11  22  34  49  72 106 142 172 204 245 299
#     4   8  15  29  51  77  98 119 157 210 259 297
#     4   9  18  34  55  77 101 130 168 214 258 300
#     4   9  17  31  51  73  98 128 164 206 248 293
#     4   8  14  25  43  69  95 117 148 194 245 289
#
# _framework density 19.083682
#
# number of rings (size 3 to 8) (size 9 to 14) (size 15 to 20)
#    0.000    3.000    0.000    3.500    0.000    2.667 
#    0.000    7.500    0.000    9.000    0.000    0.000 
#    0.000    0.000    0.000    0.000    0.000    0.000 
#
# Total GULP energy -267588.912338 kJ/mol
# GULP energy per Si atom -5574.769007 kJ/mol
# Density = 1.904025 g / cm^3
# Si number density = 19.083682 Si / 1000 Ang^3
#
#
#
# Elastic Constant Matrix: (Units=GPa)
#
#
# Indices 1 2 3 4 5 6 
#
# 1 115.8424 -5.2232 134.8950 0.0000 0.0000 0.0000
# 2 -5.2232 20.5616 -0.4765 0.0000 0.0000 0.0000
# 3 134.8950 -0.4765 183.5245 0.0000 0.0000 0.0000
# 4 0.0000 0.0000 0.0000 -29.6054 0.0000 0.0000
# 5 0.0000 0.0000 0.0000 0.0000 45.8218 0.0000
# 6 0.0000 0.0000 0.0000 0.0000 0.0000 -26.2801
#
#
#
# Elastic Compliance Matrix: (Units=1/GPa)
#
#
# Indices 1 2 3 4 5 6 
#
# 1 0.064365 0.015255 -0.047270 0.000000 0.000000 0.000000
# 2 0.015255 0.052253 -0.011077 0.000000 0.000000 0.000000
# 3 -0.047270 -0.011077 0.040165 0.000000 0.000000 0.000000
# 4 0.000000 0.000000 0.000000 -0.033778 0.000000 0.000000
# 5 0.000000 0.000000 0.000000 0.000000 0.021824 0.000000
# 6 0.000000 0.000000 0.000000 0.000000 0.000000 -0.038052
#
#
# Mechanical properties :
#
#
# Convention : Reuss Voigt Hill
#
# Bulk Modulus (GPa) = 14.16472 64.25768 39.21120
# Shear Modulus (GPa) = 23.09524 10.70284 16.89904
#
# Velocity S-wave (km/s) = 3.48258 2.37077 2.97900
# Velocity P-wave (km/s) = 4.85898 6.42174 5.69422
#
# Compressibility (1/GPa) = 0.07059794
#
# Stress axis : x y z
#
# Youngs Moduli (GPa) = 15.53635 19.13775 24.89731
#
# Poissons Ratio (x) = -0.29195 1.17691
# Poissons Ratio (y) = -0.23701 0.27579
# Poissons Ratio (z) = 0.73441 0.21199
#
# Static dielectric constant tensor:
#      x y z
#    x 1.644060 0.000000 0.000000 
#    y 0.000000 1.676640 0.000000 
#    z 0.000000 0.000000 1.660180 
# 
# From -- ./inp_files/18600.got.cif
#   From: 2010.05.17/outbox.cif.g08.bks.cpg/sg51_10_cif.got.tgz:18600.got - 2010.06.03 11:52:47.
