data_PCOD9407898
_publ_section_title
;
Structure prediction by ZEFSAII (Michael W. Deem and Ramdas Pophale) SiO2 
 PCOD9407898
Probable space group: P N N A
;
_chemical_formula_sum "Si O2"
_cell_formula_units_Z 32
_cell_length_a 7.583826
_cell_length_b 14.725582
_cell_length_c 9.612240
_cell_angle_alpha 90.000000
_cell_angle_beta 90.000000
_cell_angle_gamma 90.000000
_cell_volume 1073.458933
_symmetry_space_group_name_H-M "P N N A"
_symmetry_group_IT_number 52
_symmetry_cell_setting 'orthorhombic'
loop_
_space_group_symop_operation_xyz
x,y,z
1/2-x,-y,z
x,1/2-y,1/2-z
1/2-x,1/2+y,1/2-z
-x,-y,-z
1/2+x,y,-z
-x,1/2+y,1/2+z
1/2+x,1/2-y,1/2+z
loop_
_atom_site_type_symbol
_atom_site_label
_atom_site_fract_x
_atom_site_fract_y
_atom_site_fract_z
Si Si1 0.220207 0.901141 0.551361
Si Si2 0.941899 0.886896 0.793522
Si Si3 0.916431 0.568218 0.321876
Si Si4 0.776593 0.198980 0.998752
O O1 0.038230 0.896314 0.643018
O O2 0.379448 0.901264 0.664955
O O3 0.227229 0.805959 0.475744
O O4 0.250000 0.000000 0.481910
O O5 0.085528 0.825196 0.877245
O O6 0.938851 0.991630 0.843026
O O7 0.756979 0.844950 0.845697
O O8 0.750000 0.500000 0.352261
O O9 0.894495 0.654928 0.418740
#
# Coordination Sequence:
#
# PCOD9407898 Si02
#       4
#     8   8   8   8
#     4   8  16  30  47  68  99 138 171 208 256 305
#     4   9  17  27  47  75  95 123 167 211 256 309
#     4   7  13  25  43  69  95 120 156 203 255 304
#     4  10  16  28  48  70  97 131 165 206 258 308
#
# _framework density 29.810176999999999
#
# number of rings (size 3 to 8) (size 9 to 14) (size 15 to 20)
#    0.000    4.500    0.000    3.750    0.000    0.000 
#    0.000    1.250    0.000   12.000    0.000   21.000 
#    0.000    0.000    0.000    2.000    0.000    0.000 
#
# Total GULP energy -178415.093187 kJ/mol
# GULP energy per Si atom -5575.471662 kJ/mol
# Density = 2.974233 g / cm^3
# Si number density = 29.810177 Si / 1000 Ang^3
#
#
#
# Elastic Constant Matrix: (Units=GPa)
#
#
# Indices 1 2 3 4 5 6 
#
# 1 79.7380 28.6350 24.2050 0.0000 0.0000 0.0000
# 2 28.6350 271.3857 61.3078 0.0000 0.0000 0.0000
# 3 24.2050 61.3078 103.2544 0.0000 0.0000 0.0000
# 4 0.0000 0.0000 0.0000 16.3456 0.0000 0.0000
# 5 0.0000 0.0000 0.0000 0.0000 35.8407 0.0000
# 6 0.0000 0.0000 0.0000 0.0000 0.0000 31.1989
#
#
#
# Elastic Compliance Matrix: (Units=1/GPa)
#
#
# Indices 1 2 3 4 5 6 
#
# 1 0.013662 -0.000829 -0.002710 0.000000 0.000000 0.000000
# 2 -0.000829 0.004306 -0.002362 0.000000 0.000000 0.000000
# 3 -0.002710 -0.002362 0.011723 0.000000 0.000000 0.000000
# 4 0.000000 0.000000 0.000000 0.061179 0.000000 0.000000
# 5 0.000000 0.000000 0.000000 0.000000 0.027901 0.000000
# 6 0.000000 0.000000 0.000000 0.000000 0.000000 0.032052
#
#
# Mechanical properties :
#
#
# Convention : Reuss Voigt Hill
#
# Bulk Modulus (GPa) = 55.90704 75.85262 65.87983
# Shear Modulus (GPa) = 29.65806 39.35905 34.50855
#
# Velocity S-wave (km/s) = 3.15762 3.63757 3.40606
# Velocity P-wave (km/s) = 5.66473 6.56833 6.13319
#
# Compressibility (1/GPa) = 0.01788684
#
# Stress axis : x y z
#
# Youngs Moduli (GPa) = 73.19804 232.23714 85.30411
#
# Poissons Ratio (x) = 0.19258 0.23119
# Poissons Ratio (y) = 0.06070 0.20151
# Poissons Ratio (z) = 0.19838 0.54861
#
# Static dielectric constant tensor:
#      x y z
#    x 2.753970 0.000000 0.000000 
#    y 0.000000 2.209440 0.000000 
#    z 0.000000 0.000000 2.348900 
# 
# From -- ./inp_files/24242.got.cif
#   From: 2010.05.17/outbox.cif.g08.bks.cpg/sg52_13_cif.got.tgz:24242.got - 2010.06.03 12:15:38.
