data_PCOD9407774
_publ_section_title
;
Structure prediction by ZEFSAII (Michael W. Deem and Ramdas Pophale) SiO2 
 PCOD9407774
Probable space group: P M M A
;
_chemical_formula_sum "Si O2"
_cell_formula_units_Z 48
_cell_length_a 9.000000
_cell_length_b 9.000000
_cell_length_c 30.000000
_cell_angle_alpha 90.000000
_cell_angle_beta 90.000000
_cell_angle_gamma 90.000000
_cell_volume 2430.000000
_symmetry_space_group_name_H-M "P M M A"
_symmetry_group_IT_number 51
_symmetry_cell_setting 'orthorhombic'
loop_
_space_group_symop_operation_xyz
x,y,z
1/2-x,-y,z
1/2+x,-y,-z
-x,y,-z
-x,-y,-z
1/2+x,y,-z
1/2-x,y,z
x,-y,z
loop_
_atom_site_type_symbol
_atom_site_label
_atom_site_fract_x
_atom_site_fract_y
_atom_site_fract_z
Si Si1 0.071503 0.836486 0.806407
Si Si2 0.572033 0.333121 0.276975
Si Si3 0.424870 0.334563 0.119430
Si Si4 0.416812 0.177394 0.957030
Si Si5 0.578941 0.821894 0.543690
Si Si6 0.078420 0.674882 0.369859
O O1 0.250000 0.836588 0.810180
O O2 0.026606 0.795295 0.756657
O O3 0.007967 0.704977 0.835688
O O4 0.018276 0.000000 0.820100
O O5 0.750000 0.336788 0.277115
O O6 0.520397 0.500000 0.263746
O O7 0.511469 0.301802 0.325352
O O8 0.250000 0.323135 0.125528
O O9 0.461208 0.500000 0.103614
O O10 0.484284 0.216917 0.084599
O O11 0.250000 0.235930 0.952193
O O12 0.406881 0.000000 0.961319
O O13 0.500000 0.238819 0.000000
O O14 0.500000 0.764699 0.500000
O O15 0.750000 0.774068 0.542854
O O16 0.511366 0.762441 0.588985
O O17 0.574673 0.000000 0.543562
O O18 0.250000 0.720652 0.362725
O O19 0.077728 0.500000 0.380149
#
# Coordination Sequence:
#
# PCOD9407774 Si02
#       6
#     8   8   8   8   8   8
#     4  10  21  37  57  81 108 139 177 220 266 316
#     4   9  18  33  52  74 102 135 169 207 254 307
#     4  11  24  39  56  81 112 146 184 224 267 316
#     4  10  21  38  61  87 114 146 183 223 269 319
#     4   9  18  32  48  67  93 125 160 199 245 296
#     4   9  18  32  49  70  97 128 162 202 248 298
#
# _framework density 19.753086
#
# number of rings (size 3 to 8) (size 9 to 14) (size 15 to 20)
#    0.000    2.333    0.000    2.000    0.000    8.000 
#    0.000    1.667    0.000    0.000    0.000    0.000 
#    0.000    0.000    0.000    0.000    0.000    0.000 
#
# Total GULP energy -267354.064260 kJ/mol
# GULP energy per Si atom -5569.876339 kJ/mol
# Density = 1.970813 g / cm^3
# Si number density = 19.753086 Si / 1000 Ang^3
#
#
#
# Elastic Constant Matrix: (Units=GPa)
#
#
# Indices 1 2 3 4 5 6 
#
# 1 -7.7284 30.7076 15.5360 0.0000 0.0000 0.0000
# 2 30.7076 -5.3393 28.3013 0.0000 0.0000 0.0000
# 3 15.5360 28.3013 55.0524 0.0000 0.0000 0.0000
# 4 0.0000 0.0000 0.0000 34.2672 0.0000 0.0000
# 5 0.0000 0.0000 0.0000 0.0000 1.3365 0.0000
# 6 0.0000 0.0000 0.0000 0.0000 0.0000 22.0439
#
#
#
# Elastic Compliance Matrix: (Units=1/GPa)
#
#
# Indices 1 2 3 4 5 6 
#
# 1 0.072234 0.082521 -0.062807 0.000000 0.000000 0.000000
# 2 0.082521 0.043993 -0.045904 0.000000 0.000000 0.000000
# 3 -0.062807 -0.045904 0.059487 0.000000 0.000000 0.000000
# 4 0.000000 0.000000 0.000000 0.029182 0.000000 0.000000
# 5 0.000000 0.000000 0.000000 0.000000 0.748223 0.000000
# 6 0.000000 0.000000 0.000000 0.000000 0.000000 0.045364
#
#
# Mechanical properties :
#
#
# Convention : Reuss Voigt Hill
#
# Bulk Modulus (GPa) = 8.10804 21.23050 14.66927
# Shear Modulus (GPa) = 4.57886 9.35884 6.96885
#
# Velocity S-wave (km/s) = 1.52417 2.17904 1.88033
# Velocity P-wave (km/s) = 2.68534 4.13548 3.48664
#
# Compressibility (1/GPa) = 0.12333443
#
# Stress axis : x y z
#
# Youngs Moduli (GPa) = 13.84395 22.73099 16.81041
#
# Poissons Ratio (x) = -1.87578 1.05581
# Poissons Ratio (y) = -1.14242 0.77166
# Poissons Ratio (z) = 0.86950 1.04343
#
# Static dielectric constant tensor:
#      x y z
#    x 1.676920 0.000000 0.000000 
#    y 0.000000 1.730040 0.000000 
#    z 0.000000 0.000000 1.697170 
# 
# From -- ./inp_files/36982.got.cif
#   From: 2010.05.17/outbox.ucp.g08.bks.cvg/sg51_19_cif.got.tgz:36982.got - 2010.06.11 16:27:58.
