data_PCOD9407889
_publ_section_title
;
Structure prediction by ZEFSAII (Michael W. Deem and Ramdas Pophale) SiO2 
 PCOD9407889
Probable space group: P N N A
;
_chemical_formula_sum "Si O2"
_cell_formula_units_Z 64
_cell_length_a 5.494665
_cell_length_b 26.622446
_cell_length_c 32.662578
_cell_angle_alpha 90.000000
_cell_angle_beta 90.000000
_cell_angle_gamma 90.000000
_cell_volume 4777.928364
_symmetry_space_group_name_H-M "P N N A"
_symmetry_group_IT_number 52
_symmetry_cell_setting 'orthorhombic'
loop_
_space_group_symop_operation_xyz
x,y,z
1/2-x,-y,z
x,1/2-y,1/2-z
1/2-x,1/2+y,1/2-z
-x,-y,-z
1/2+x,y,-z
-x,1/2+y,1/2+z
1/2+x,1/2-y,1/2+z
loop_
_atom_site_type_symbol
_atom_site_label
_atom_site_fract_x
_atom_site_fract_y
_atom_site_fract_z
Si Si1 0.832303 0.181395 0.484885
Si Si2 0.275082 0.294055 0.217104
Si Si3 0.727258 0.704284 0.105384
Si Si4 0.240617 0.558908 0.845022
Si Si5 0.344111 0.431472 0.017658
Si Si6 0.258941 0.407595 0.110751
Si Si7 0.230584 0.784698 0.377697
Si Si8 0.726677 0.655423 0.197890
O O1 0.592429 0.206226 0.504605
O O2 0.792359 0.172711 0.436411
O O3 0.861108 0.127099 0.505320
O O4 0.274047 0.250000 0.250000
O O5 0.278643 0.274372 0.170406
O O6 0.526595 0.325422 0.219099
O O7 0.021738 0.324895 0.218217
O O8 0.481926 0.736040 0.105641
O O9 0.730557 0.676016 0.149884
O O10 0.981076 0.732659 0.102726
O O11 0.250000 0.500000 0.836790
O O12 0.495015 0.574283 0.866771
O O13 0.225048 0.595690 0.806187
O O14 0.994422 0.572358 0.870378
O O15 0.280537 0.429607 0.065287
O O16 0.611022 0.451932 0.006941
O O17 0.259486 0.346071 0.114025
#
# Coordination Sequence:
#
# PCOD9407889 Si02
#       8
#     8   8   8   8   8   8   8   8
#     4  10  18  22  34  57  69  85 117 152 189 225
#     4  10  18  29  46  68  85  97 114 140 181 237
#     4  10  16  27  40  56  74  94 119 148 185 233
#     4  12  23  34  49  62  74 100 137 164 190 232
#     4  10  19  27  43  63  68  92 123 162 208 249
#     4  12  19  34  48  58  78  97 129 167 202 238
#     4  10  16  27  44  57  75  98 114 139 180 230
#     4  10  19  32  47  61  80 103 121 150 188 228
#
# _framework density 13.394926999999999
#
# number of rings (size 3 to 8) (size 9 to 14) (size 15 to 20)
#    0.000    1.500    5.000    5.250    0.000    0.000 
#    0.000    0.000    0.000    7.500    0.000    0.000 
#    0.000    0.000    0.000    0.000    0.000    0.000 
#
# Total GULP energy -356355.804581 kJ/mol
# GULP energy per Si atom -5568.059447 kJ/mol
# Density = 1.336444 g / cm^3
# Si number density = 13.394927 Si / 1000 Ang^3
#
#
#
# Elastic Constant Matrix: (Units=GPa)
#
#
# Indices 1 2 3 4 5 6 
#
# 1 156.8489 28.8997 31.2727 0.0000 0.0000 0.0000
# 2 28.8997 32.7230 34.9741 0.0000 0.0000 0.0000
# 3 31.2727 34.9741 43.1239 0.0000 0.0000 0.0000
# 4 0.0000 0.0000 0.0000 -3.3615 0.0000 0.0000
# 5 0.0000 0.0000 0.0000 0.0000 18.2795 0.0000
# 6 0.0000 0.0000 0.0000 0.0000 0.0000 8.7672
#
#
#
# Elastic Compliance Matrix: (Units=1/GPa)
#
#
# Indices 1 2 3 4 5 6 
#
# 1 0.007616 -0.006181 -0.000510 0.000000 0.000000 0.000000
# 2 -0.006181 0.234448 -0.185658 0.000000 0.000000 0.000000
# 3 -0.000510 -0.185658 0.174130 0.000000 0.000000 0.000000
# 4 0.000000 0.000000 0.000000 -0.297490 0.000000 0.000000
# 5 0.000000 0.000000 0.000000 0.000000 0.054706 0.000000
# 6 0.000000 0.000000 0.000000 0.000000 0.000000 0.114061
#
#
# Mechanical properties :
#
#
# Convention : Reuss Voigt Hill
#
# Bulk Modulus (GPa) = 31.75034 46.99878 39.37456
# Shear Modulus (GPa) = 7.32420 13.90701 10.61561
#
# Velocity S-wave (km/s) = 2.34089 3.22565 2.81821
# Velocity P-wave (km/s) = 5.57325 7.00259 6.32840
#
# Compressibility (1/GPa) = 0.03149573
#
# Stress axis : x y z
#
# Youngs Moduli (GPa) = 131.29998 4.26534 5.74283
#
# Poissons Ratio (x) = 0.02636 0.00293
# Poissons Ratio (y) = 0.81154 1.06620
# Poissons Ratio (z) = 0.06702 0.79189
#
# Static dielectric constant tensor:
#      x y z
#    x 1.551630 0.000000 0.000000 
#    y 0.000000 1.389090 0.000000 
#    z 0.000000 0.000000 1.452950 
# 
# From -- ./inp_files/41881.got.cif
#   From: 2010.05.17/outbox.cif.g08.bks.cpg/sg52_21_cif.got.tgz:41881.got - 2010.06.03 12:15:38.
