data_PCOD9407293
_publ_section_title
;
Structure prediction by ZEFSAII (Michael W. Deem and Ramdas Pophale) SiO2 
 PCOD9407293
Probable space group: P M M A
;
_chemical_formula_sum "Si O2"
_cell_formula_units_Z 48
_cell_length_a 9.303976
_cell_length_b 7.373801
_cell_length_c 33.225553
_cell_angle_alpha 90.000000
_cell_angle_beta 90.000000
_cell_angle_gamma 90.000000
_cell_volume 2279.461243
_symmetry_space_group_name_H-M "P M M A"
_symmetry_group_IT_number 51
_symmetry_cell_setting 'orthorhombic'
loop_
_space_group_symop_operation_xyz
x,y,z
1/2-x,-y,z
1/2+x,-y,-z
-x,y,-z
-x,-y,-z
1/2+x,y,-z
1/2-x,y,z
x,-y,z
loop_
_atom_site_type_symbol
_atom_site_label
_atom_site_fract_x
_atom_site_fract_y
_atom_site_fract_z
Si Si1 0.581580 0.779359 0.039455
Si Si2 0.581808 0.279182 0.301028
Si Si3 0.584943 0.783790 0.126566
Si Si4 0.585118 0.283767 0.213450
Si Si5 0.415361 0.721599 0.380304
Si Si6 0.415446 0.278636 0.539904
O O1 0.750000 0.732261 0.037491
O O2 0.524418 0.720361 0.083546
O O3 0.573671 0.000000 0.038571
O O4 0.500000 0.713069 0.000000
O O5 0.750000 0.228169 0.304670
O O6 0.578570 0.500000 0.301913
O O7 0.526948 0.220877 0.256694
O O8 0.490527 0.217570 0.339067
O O9 0.750000 0.713243 0.128730
O O10 0.514698 0.750418 0.170038
O O11 0.593752 0.000000 0.123390
O O12 0.750000 0.213342 0.211243
O O13 0.593354 0.500000 0.216459
O O14 0.250000 0.777953 0.382644
O O15 0.416746 0.500000 0.380148
O O16 0.504153 0.778709 0.419510
O O17 0.500000 0.221087 0.500000
O O18 0.250000 0.220965 0.539297
O O19 0.415605 0.500000 0.539865
#
# Coordination Sequence:
#
# PCOD9407293 Si02
#       6
#     8   8   8   8   8   8
#     4   8  13  21  34  52  72  93 118 148 180 214
#     4   8  13  21  32  45  60  79 106 140 174 207
#     4   8  13  21  34  53  74  93 116 149 185 217
#     4   8  13  21  34  51  69  90 118 150 182 218
#     4   9  15  21  29  41  57  78 106 140 176 213
#     4   9  15  21  28  38  54  77 106 141 180 219
#
# _framework density 21.057606
#
# number of rings (size 3 to 8) (size 9 to 14) (size 15 to 20)
#    0.000    3.667    0.000    3.000    0.000    4.000 
#    0.000    0.000    0.000    1.500    0.000    0.000 
#    0.000    0.000    0.000    0.000    0.000    0.833 
#
# Total GULP energy -267361.701337 kJ/mol
# GULP energy per Si atom -5570.035445 kJ/mol
# Density = 2.100968 g / cm^3
# Si number density = 21.057606 Si / 1000 Ang^3
#
#
#
# Elastic Constant Matrix: (Units=GPa)
#
#
# Indices 1 2 3 4 5 6 
#
# 1 91.1573 2.1557 104.0739 0.0000 0.0000 0.0000
# 2 2.1557 72.7968 8.0177 0.0000 0.0000 0.0000
# 3 104.0739 8.0177 298.8120 0.0000 0.0000 0.0000
# 4 0.0000 0.0000 0.0000 9.7273 0.0000 0.0000
# 5 0.0000 0.0000 0.0000 0.0000 27.8726 0.0000
# 6 0.0000 0.0000 0.0000 0.0000 0.0000 -16.2162
#
#
#
# Elastic Compliance Matrix: (Units=1/GPa)
#
#
# Indices 1 2 3 4 5 6 
#
# 1 0.018214 0.000160 -0.006348 0.000000 0.000000 0.000000
# 2 0.000160 0.013779 -0.000425 0.000000 0.000000 0.000000
# 3 -0.006348 -0.000425 0.005569 0.000000 0.000000 0.000000
# 4 0.000000 0.000000 0.000000 0.102804 0.000000 0.000000
# 5 0.000000 0.000000 0.000000 0.000000 0.035878 0.000000
# 6 0.000000 0.000000 0.000000 0.000000 0.000000 -0.061667
#
#
# Mechanical properties :
#
#
# Convention : Reuss Voigt Hill
#
# Bulk Modulus (GPa) = 41.09381 76.80674 58.95028
# Shear Modulus (GPa) = 36.78766 27.51131 32.14948
#
# Velocity S-wave (km/s) = 4.18425 3.61845 3.91159
# Velocity P-wave (km/s) = 6.54990 7.34924 6.96105
#
# Compressibility (1/GPa) = 0.02433457
#
# Stress axis : x y z
#
# Youngs Moduli (GPa) = 54.90358 72.57426 179.56686
#
# Poissons Ratio (x) = -0.01160 1.13989
# Poissons Ratio (y) = -0.00877 0.07638
# Poissons Ratio (z) = 0.34853 0.03087
#
# Static dielectric constant tensor:
#      x y z
#    x 1.702580 0.000000 0.000000 
#    y 0.000000 1.864080 0.000000 
#    z 0.000000 0.000000 1.805350 
# 
# From -- ./inp_files/37310.got.cif
#   From: 2010.05.17/outbox.cif.g08.bks.cpg/sg51_19_cif.got.tgz:37310.got - 2010.06.03 11:52:47.
