data_PCOD9407533
_publ_section_title
;
Structure prediction by ZEFSAII (Michael W. Deem and Ramdas Pophale) SiO2 
 PCOD9407533
Probable space group: P M M A
;
_chemical_formula_sum "Si O2"
_cell_formula_units_Z 40
_cell_length_a 9.000000
_cell_length_b 12.000000
_cell_length_c 21.000000
_cell_angle_alpha 90.000000
_cell_angle_beta 90.000000
_cell_angle_gamma 90.000000
_cell_volume 2268.000000
_symmetry_space_group_name_H-M "P M M A"
_symmetry_group_IT_number 51
_symmetry_cell_setting 'orthorhombic'
loop_
_space_group_symop_operation_xyz
x,y,z
1/2-x,-y,z
1/2+x,-y,-z
-x,y,-z
-x,-y,-z
1/2+x,y,-z
1/2-x,y,z
x,-y,z
loop_
_atom_site_type_symbol
_atom_site_label
_atom_site_fract_x
_atom_site_fract_y
_atom_site_fract_z
Si Si1 0.072095 0.131527 0.931357
Si Si2 0.930051 0.246241 0.434885
Si Si3 0.576518 0.227734 0.808420
Si Si4 0.073508 0.000000 0.599017
Si Si5 0.082746 0.000000 0.270342
Si Si6 0.071935 0.631417 0.697260
O O1 0.250000 0.142522 0.934488
O O2 0.006581 0.207985 0.875233
O O3 0.038252 0.000000 0.917813
O O4 0.000000 0.156860 0.000000
O O5 0.750000 0.249543 0.439205
O O6 0.982203 0.117370 0.428211
O O7 0.972424 0.308815 0.369280
O O8 0.000000 0.292660 0.500000
O O9 0.750000 0.253414 0.819322
O O10 0.505151 0.314633 0.758911
O O11 0.567232 0.109178 0.772248
O O12 0.035055 0.000000 0.673457
O O13 0.250000 0.000000 0.590158
O O14 0.250000 0.000000 0.298428
O O15 0.250000 0.646940 0.703507
O O16 0.040908 0.500000 0.693215
#
# Coordination Sequence:
#
# PCOD9407533 Si02
#       6
#     8   8   8   4   4   8
#     4  10  20  33  53  83 120 157 188 221 266 323
#     4  10  21  35  53  78 107 141 178 223 278 335
#     4  11  21  35  56  83 115 147 183 228 277 330
#     4  10  19  33  53  77 107 141 178 219 272 339
#     4  10  20  31  50  81 111 141 177 223 274 325
#     4  10  22  40  59  79 105 141 189 238 280 326
#
# _framework density 17.636683999999999
#
# number of rings (size 3 to 8) (size 9 to 14) (size 15 to 20)
#    0.000    1.800    3.000    1.500    0.000    4.000 
#    0.000    0.000    0.000    0.600    0.000    0.000 
#    0.000    0.000    0.000    0.000    0.000    0.000 
#
# Total GULP energy -223232.669449 kJ/mol
# GULP energy per Si atom -5580.816736 kJ/mol
# Density = 1.759654 g / cm^3
# Si number density = 17.636684 Si / 1000 Ang^3
#
#
#
# Elastic Constant Matrix: (Units=GPa)
#
#
# Indices 1 2 3 4 5 6 
#
# 1 48.1430 42.5156 62.0895 0.0000 0.0000 0.0000
# 2 42.5156 92.1295 61.3903 0.0000 0.0000 0.0000
# 3 62.0895 61.3903 168.1939 0.0000 0.0000 0.0000
# 4 0.0000 0.0000 0.0000 5.6121 0.0000 0.0000
# 5 0.0000 0.0000 0.0000 0.0000 39.1015 0.0000
# 6 0.0000 0.0000 0.0000 0.0000 0.0000 4.9740
#
#
#
# Elastic Compliance Matrix: (Units=1/GPa)
#
#
# Indices 1 2 3 4 5 6 
#
# 1 0.051100 -0.014551 -0.013553 0.000000 0.000000 0.000000
# 2 -0.014551 0.018486 -0.001376 0.000000 0.000000 0.000000
# 3 -0.013553 -0.001376 0.011451 0.000000 0.000000 0.000000
# 4 0.000000 0.000000 0.000000 0.178186 0.000000 0.000000
# 5 0.000000 0.000000 0.000000 0.000000 0.025574 0.000000
# 6 0.000000 0.000000 0.000000 0.000000 0.000000 0.201044
#
#
# Mechanical properties :
#
#
# Convention : Reuss Voigt Hill
#
# Bulk Modulus (GPa) = 45.29367 71.16192 58.22779
# Shear Modulus (GPa) = 9.05534 19.43561 14.24547
#
# Velocity S-wave (km/s) = 2.26837 3.32324 2.84512
# Velocity P-wave (km/s) = 5.70946 7.42709 6.62418
#
# Compressibility (1/GPa) = 0.02207814
#
# Stress axis : x y z
#
# Youngs Moduli (GPa) = 19.56932 54.09537 87.32985
#
# Poissons Ratio (x) = 0.78712 1.18358
# Poissons Ratio (y) = 0.28475 0.12015
# Poissons Ratio (z) = 0.26522 0.07443
#
# Static dielectric constant tensor:
#      x y z
#    x 1.617070 0.000000 0.000000 
#    y 0.000000 1.600080 0.000000 
#    z 0.000000 0.000000 1.581920 
# 
# From -- ./inp_files/31407.got.cif
#   From: 2010.05.17/outbox.ucp.g08.bks.cvg/sg51_16_cif.got.tgz:31407.got - 2010.06.11 16:27:58.
