data_PCOD9407499
_publ_section_title
;
Structure prediction by ZEFSAII (Michael W. Deem and Ramdas Pophale) SiO2 
 PCOD9407499
Probable space group: P M M A
;
_chemical_formula_sum "Si O2"
_cell_formula_units_Z 52
_cell_length_a 9.000000
_cell_length_b 15.000000
_cell_length_c 21.000000
_cell_angle_alpha 90.000000
_cell_angle_beta 90.000000
_cell_angle_gamma 90.000000
_cell_volume 2835.000000
_symmetry_space_group_name_H-M "P M M A"
_symmetry_group_IT_number 51
_symmetry_cell_setting 'orthorhombic'
loop_
_space_group_symop_operation_xyz
x,y,z
1/2-x,-y,z
1/2+x,-y,-z
-x,y,-z
-x,-y,-z
1/2+x,y,-z
1/2-x,y,z
x,-y,z
loop_
_atom_site_type_symbol
_atom_site_label
_atom_site_fract_x
_atom_site_fract_y
_atom_site_fract_z
Si Si1 0.428921 0.778539 0.682482
Si Si2 0.079459 0.628607 0.840267
Si Si3 0.572730 0.898278 0.437120
Si Si4 0.581168 0.163904 0.180277
Si Si5 0.412219 0.104973 0.060138
Si Si6 0.075400 0.500000 0.067168
Si Si7 0.072794 0.597745 0.295156
O O1 0.250000 0.765091 0.689240
O O2 0.461891 0.842771 0.624816
O O3 0.479105 0.825315 0.748210
O O4 0.505144 0.683745 0.671147
O O5 0.250000 0.598553 0.842346
O O6 0.082327 0.734605 0.844175
O O7 0.983164 0.584880 0.894507
O O8 0.004790 0.601921 0.773739
O O9 0.500000 0.859196 0.500000
O O10 0.750000 0.899517 0.444589
O O11 0.520019 0.000000 0.429999
O O12 0.750000 0.129646 0.183711
O O13 0.490947 0.112059 0.127793
O O14 0.250000 0.146757 0.063932
O O15 0.396917 0.000000 0.047033
O O16 0.500000 0.144135 0.000000
O O17 0.250000 0.500000 0.062810
O O18 0.000000 0.500000 0.000000
O O19 0.250000 0.606667 0.288263
O O20 0.041873 0.500000 0.323599
#
# Coordination Sequence:
#
# PCOD9407499 Si02
#       7
#     8   8   8   8   8   4   8
#     4   9  19  34  53  80 110 142 181 221 265 320
#     4  10  20  35  53  72  97 130 167 209 258 314
#     4   9  18  34  56  82 113 149 186 222 266 323
#     4   9  19  34  53  77 102 131 168 211 262 312
#     4  10  21  36  53  72  95 128 169 212 261 316
#     4  12  24  36  50  70  96 130 171 214 263 316
#     4  10  19  31  51  78 106 137 173 216 266 316
#
# _framework density 18.342151999999999
#
# number of rings (size 3 to 8) (size 9 to 14) (size 15 to 20)
#    0.000    2.308    0.769    3.000    0.000    6.769 
#    0.000    1.538    0.000    2.308    0.000    0.000 
#    0.000    0.000    0.000    0.000    0.000    0.000 
#
# Total GULP energy -289646.645808 kJ/mol
# GULP energy per Si atom -5570.127804 kJ/mol
# Density = 1.830040 g / cm^3
# Si number density = 18.342152 Si / 1000 Ang^3
#
#
#
# Elastic Constant Matrix: (Units=GPa)
#
#
# Indices 1 2 3 4 5 6 
#
# 1 70.1160 35.9223 60.1202 0.0000 0.0000 0.0000
# 2 35.9223 37.5344 43.3337 0.0000 0.0000 0.0000
# 3 60.1202 43.3337 97.1870 0.0000 0.0000 0.0000
# 4 0.0000 0.0000 0.0000 29.8867 0.0000 0.0000
# 5 0.0000 0.0000 0.0000 0.0000 19.3847 0.0000
# 6 0.0000 0.0000 0.0000 0.0000 0.0000 26.9615
#
#
#
# Elastic Compliance Matrix: (Units=1/GPa)
#
#
# Indices 1 2 3 4 5 6 
#
# 1 0.035258 -0.017647 -0.013942 0.000000 0.000000 0.000000
# 2 -0.017647 0.063739 -0.017504 0.000000 0.000000 0.000000
# 3 -0.013942 -0.017504 0.026718 0.000000 0.000000 0.000000
# 4 0.000000 0.000000 0.000000 0.033460 0.000000 0.000000
# 5 0.000000 0.000000 0.000000 0.000000 0.051587 0.000000
# 6 0.000000 0.000000 0.000000 0.000000 0.000000 0.037090
#
#
# Mechanical properties :
#
#
# Convention : Reuss Voigt Hill
#
# Bulk Modulus (GPa) = 36.32383 53.73221 45.02802
# Shear Modulus (GPa) = 14.07603 19.61067 16.84335
#
# Velocity S-wave (km/s) = 2.77323 3.27335 3.03361
# Velocity P-wave (km/s) = 5.48643 6.60639 6.07228
#
# Compressibility (1/GPa) = 0.02753014
#
# Stress axis : x y z
#
# Youngs Moduli (GPa) = 28.36272 15.68891 37.42733
#
# Poissons Ratio (x) = 0.27686 0.52181
# Poissons Ratio (y) = 0.50052 0.65511
# Poissons Ratio (z) = 0.39543 0.27461
#
# Static dielectric constant tensor:
#      x y z
#    x 1.645760 0.000000 0.000000 
#    y 0.000000 1.645250 0.000000 
#    z 0.000000 0.000000 1.634790 
# 
# From -- ./inp_files/31701.got.cif
#   From: 2010.05.17/outbox.ucp.g08.bks.cvg/sg51_16_cif.got.tgz:31701.got - 2010.06.11 16:27:58.
