data_PCOD9407850
_publ_section_title
;
Structure prediction by ZEFSAII (Michael W. Deem and Ramdas Pophale) SiO2 
 PCOD9407850
Probable space group: P N N A
;
_chemical_formula_sum "Si O2"
_cell_formula_units_Z 48
_cell_length_a 7.411794
_cell_length_b 13.335894
_cell_length_c 19.409189
_cell_angle_alpha 90.000000
_cell_angle_beta 90.000000
_cell_angle_gamma 90.000000
_cell_volume 1918.460511
_symmetry_space_group_name_H-M "P N N A"
_symmetry_group_IT_number 52
_symmetry_cell_setting 'orthorhombic'
loop_
_space_group_symop_operation_xyz
x,y,z
1/2-x,-y,z
x,1/2-y,1/2-z
1/2-x,1/2+y,1/2-z
-x,-y,-z
1/2+x,y,-z
-x,1/2+y,1/2+z
1/2+x,1/2-y,1/2+z
loop_
_atom_site_type_symbol
_atom_site_label
_atom_site_fract_x
_atom_site_fract_y
_atom_site_fract_z
Si Si1 0.489063 0.947306 0.349286
Si Si2 0.191941 0.792994 0.978818
Si Si3 0.182401 0.250000 0.750000
Si Si4 0.750000 0.000000 0.085927
Si Si5 0.882181 0.644689 0.116612
Si Si6 0.984062 0.411129 0.300491
Si Si7 0.165443 0.240392 0.113829
O O1 0.687539 0.901027 0.360589
O O2 0.474419 0.971568 0.268429
O O3 0.357431 0.855069 0.364281
O O4 0.488817 0.049089 0.392940
O O5 0.269831 0.902183 0.960742
O O6 0.323424 0.706955 0.949603
O O7 0.011973 0.783438 0.933337
O O8 0.175475 0.778602 0.060402
O O9 0.070552 0.290281 0.815422
O O10 0.317464 0.334965 0.718133
O O11 0.917427 0.019232 0.137451
O O12 0.144689 0.338286 0.324618
#
# Coordination Sequence:
#
# PCOD9407850 Si02
#       7
#     8   8   4   4   8   8   8
#     4   9  16  27  49  73  97 123 164 214 260 285
#     4  10  21  32  48  72 103 134 165 199 249 302
#     4  10  12  26  44  72 100 118 152 216 258 292
#     4  10  18  30  48  74 104 130 160 208 260 298
#     4   9  16  26  44  74 100 123 157 209 259 300
#     4  10  15  27  47  74  94 121 160 213 249 289
#     4  10  19  34  48  73 101 131 166 202 246 306
#
# _framework density 25.020060999999998
#
# number of rings (size 3 to 8) (size 9 to 14) (size 15 to 20)
#    0.000    2.333    6.667    2.000    0.000    3.333 
#    0.000    0.000    0.000    0.000    4.333    2.333 
#    0.000    0.000    0.000    0.000    0.000    0.000 
#
# Total GULP energy -268327.528404 kJ/mol
# GULP energy per Si atom -5590.156842 kJ/mol
# Density = 2.496311 g / cm^3
# Si number density = 25.020061 Si / 1000 Ang^3
#
#
#
# Elastic Constant Matrix: (Units=GPa)
#
#
# Indices 1 2 3 4 5 6 
#
# 1 52.7346 -5.0934 -17.9901 0.0000 0.0000 0.0000
# 2 -5.0934 55.9790 5.4851 0.0000 0.0000 0.0000
# 3 -17.9901 5.4851 73.1512 0.0000 0.0000 0.0000
# 4 0.0000 0.0000 0.0000 21.2535 0.0000 0.0000
# 5 0.0000 0.0000 0.0000 0.0000 18.7108 0.0000
# 6 0.0000 0.0000 0.0000 0.0000 0.0000 5.8154
#
#
#
# Elastic Compliance Matrix: (Units=1/GPa)
#
#
# Indices 1 2 3 4 5 6 
#
# 1 0.020808 0.001402 0.005012 0.000000 0.000000 0.000000
# 2 0.001402 0.018091 -0.001012 0.000000 0.000000 0.000000
# 3 0.005012 -0.001012 0.014979 0.000000 0.000000 0.000000
# 4 0.000000 0.000000 0.000000 0.047051 0.000000 0.000000
# 5 0.000000 0.000000 0.000000 0.000000 0.053445 0.000000
# 6 0.000000 0.000000 0.000000 0.000000 0.000000 0.171957
#
#
# Mechanical properties :
#
#
# Convention : Reuss Voigt Hill
#
# Bulk Modulus (GPa) = 15.45999 16.29645 15.87822
# Shear Modulus (GPa) = 14.83301 22.45348 18.64324
#
# Velocity S-wave (km/s) = 2.43748 2.99895 2.73267
# Velocity P-wave (km/s) = 3.75689 4.30338 4.03939
#
# Compressibility (1/GPa) = 0.06468308
#
# Stress axis : x y z
#
# Youngs Moduli (GPa) = 48.05798 55.27749 66.76085
#
# Poissons Ratio (x) = -0.07751 -0.33462
# Poissons Ratio (y) = -0.06739 0.06754
# Poissons Ratio (z) = -0.24088 0.05592
#
# Static dielectric constant tensor:
#      x y z
#    x 2.085720 0.000000 0.000000 
#    y 0.000000 1.991160 0.000000 
#    z 0.000000 0.000000 1.939820 
# 
# From -- ./inp_files/32319.got.cif
#   From: 2010.05.17/outbox.cif.g08.bks.cpg/sg52_17_cif.got.tgz:32319.got - 2010.06.03 12:15:38.
