data_PCOD9407188
_publ_section_title
;
Structure prediction by ZEFSAII (Michael W. Deem and Ramdas Pophale) SiO2 
 PCOD9407188
Probable space group: P M M A
;
_chemical_formula_sum "Si O2"
_cell_formula_units_Z 64
_cell_length_a 14.074400
_cell_length_b 8.938300
_cell_length_c 24.803309
_cell_angle_alpha 90.000000
_cell_angle_beta 90.000000
_cell_angle_gamma 90.000000
_cell_volume 3120.286272
_symmetry_space_group_name_H-M "P M M A"
_symmetry_group_IT_number 51
_symmetry_cell_setting 'orthorhombic'
loop_
_space_group_symop_operation_xyz
x,y,z
1/2-x,-y,z
1/2+x,-y,-z
-x,y,-z
-x,-y,-z
1/2+x,y,-z
1/2-x,y,z
x,-y,z
loop_
_atom_site_type_symbol
_atom_site_label
_atom_site_fract_x
_atom_site_fract_y
_atom_site_fract_z
Si Si1 0.864444 0.674990 0.907274
Si Si2 0.134828 0.823931 0.525380
Si Si3 0.365517 0.326570 0.973289
Si Si4 0.037520 0.322629 0.305391
Si Si5 0.638825 0.181026 0.355057
Si Si6 0.642270 0.179689 0.138518
Si Si7 0.956541 0.178196 0.804343
Si Si8 0.635362 0.823822 0.592314
O O1 0.750000 0.680265 0.907187
O O2 0.891752 0.500000 0.900696
O O3 0.901623 0.770977 0.857793
O O4 0.897211 0.724769 0.967248
O O5 0.250000 0.815506 0.525217
O O6 0.108061 0.766609 0.584502
O O7 0.102668 0.765793 0.466980
O O8 0.110693 0.000000 0.525103
O O9 0.250000 0.321691 0.974634
O O10 0.393039 0.500000 0.967237
O O11 0.391766 0.237470 0.919835
O O12 0.036177 0.500000 0.304206
O O13 0.932008 0.255626 0.313458
O O14 0.077968 0.258061 0.249636
O O15 0.095085 0.263558 0.357059
O O16 0.750000 0.216168 0.347098
O O17 0.630328 0.000000 0.353062
O O18 0.750000 0.233560 0.148301
O O19 0.565800 0.223196 0.183150
O O20 0.644376 0.000000 0.136737
O O21 0.951168 0.000000 0.797579
O O22 0.750000 0.817268 0.592892
O O23 0.608715 0.000000 0.596620
#
# Coordination Sequence:
#
# PCOD9407188 Si02
#       8
#     8   8   8   8   8   8   8   8
#     4   9  19  37  59  83 113 146 177 215 268 326
#     4   7  12  27  55  88 113 136 174 222 270 322
#     4   8  15  30  54  83 112 142 175 209 256 326
#     4  12  26  40  54  77 112 150 189 231 276 331
#     4   9  18  36  62  87 112 144 182 226 274 323
#     4   9  19  36  57  81 109 139 173 220 274 320
#     4  11  24  40  57  78 104 140 191 238 274 319
#     4   9  18  36  62  87 111 142 183 229 273 323
#
# _framework density 20.510937999999999
#
# number of rings (size 3 to 8) (size 9 to 14) (size 15 to 20)
#    0.000    2.750    0.000    3.750    0.000    4.250 
#    0.000    8.125    0.000    2.250    0.000    0.000 
#    0.000    0.000    0.000    0.000    0.000    0.000 
#
# Total GULP energy -357182.559264 kJ/mol
# GULP energy per Si atom -5580.977488 kJ/mol
# Density = 2.046425 g / cm^3
# Si number density = 20.510938 Si / 1000 Ang^3
#
#
#
# Elastic Constant Matrix: (Units=GPa)
#
#
# Indices 1 2 3 4 5 6 
#
# 1 30.9827 11.0000 9.3922 0.0000 0.0000 0.0000
# 2 11.0000 36.9633 27.8981 0.0000 0.0000 0.0000
# 3 9.3922 27.8981 112.8800 0.0000 0.0000 0.0000
# 4 0.0000 0.0000 0.0000 77.8419 0.0000 0.0000
# 5 0.0000 0.0000 0.0000 0.0000 25.9429 0.0000
# 6 0.0000 0.0000 0.0000 0.0000 0.0000 63.9324
#
#
#
# Elastic Compliance Matrix: (Units=1/GPa)
#
#
# Indices 1 2 3 4 5 6 
#
# 1 0.036106 -0.010421 -0.000429 0.000000 0.000000 0.000000
# 2 -0.010421 0.036266 -0.008096 0.000000 0.000000 0.000000
# 3 -0.000429 -0.008096 0.010896 0.000000 0.000000 0.000000
# 4 0.000000 0.000000 0.000000 0.012847 0.000000 0.000000
# 5 0.000000 0.000000 0.000000 0.000000 0.038546 0.000000
# 6 0.000000 0.000000 0.000000 0.000000 0.000000 0.015642
#
#
# Mechanical properties :
#
#
# Convention : Reuss Voigt Hill
#
# Bulk Modulus (GPa) = 22.03840 30.82296 26.43068
# Shear Modulus (GPa) = 24.59199 42.37916 33.48557
#
# Velocity S-wave (km/s) = 3.46637 4.55045 4.04489
# Velocity P-wave (km/s) = 5.17581 6.53215 5.89313
#
# Compressibility (1/GPa) = 0.04537534
#
# Stress axis : x y z
#
# Youngs Moduli (GPa) = 27.69622 27.57434 91.78090
#
# Poissons Ratio (x) = 0.28737 0.03933
# Poissons Ratio (y) = 0.28864 0.74305
# Poissons Ratio (z) = 0.01187 0.22324
#
# Static dielectric constant tensor:
#      x y z
#    x 1.793570 0.000000 0.000000 
#    y 0.000000 1.677300 0.000000 
#    z 0.000000 0.000000 1.729660 
# 
# From -- ./inp_files/35861.got.cif
#   From: 2010.05.17/outbox.cif.g08.bks.cpg/sg51_18_cif.got.tgz:35861.got - 2010.06.03 11:52:47.
