data_PCOD9407235
_publ_section_title
;
Structure prediction by ZEFSAII (Michael W. Deem and Ramdas Pophale) SiO2 
 PCOD9407235
Probable space group: P M M A
;
_chemical_formula_sum "Si O2"
_cell_formula_units_Z 48
_cell_length_a 14.358851
_cell_length_b 7.532287
_cell_length_c 18.423336
_cell_angle_alpha 90.000000
_cell_angle_beta 90.000000
_cell_angle_gamma 90.000000
_cell_volume 1992.575660
_symmetry_space_group_name_H-M "P M M A"
_symmetry_group_IT_number 51
_symmetry_cell_setting 'orthorhombic'
loop_
_space_group_symop_operation_xyz
x,y,z
1/2-x,-y,z
1/2+x,-y,-z
-x,y,-z
-x,-y,-z
1/2+x,y,-z
1/2-x,y,z
x,-y,z
loop_
_atom_site_type_symbol
_atom_site_label
_atom_site_fract_x
_atom_site_fract_y
_atom_site_fract_z
Si Si1 0.891028 0.297215 0.021535
Si Si2 0.610624 0.799577 0.487509
Si Si3 0.150345 0.700822 0.358543
Si Si4 0.150706 0.283057 0.135049
Si Si5 0.941115 0.286231 0.332520
Si Si6 0.057133 0.717349 0.825421
O O1 0.856496 0.500000 0.027180
O O2 0.889622 0.218849 0.102331
O O3 0.848825 0.218599 0.948640
O O4 0.000000 0.305899 0.000000
O O5 0.500000 0.783957 0.500000
O O6 0.651183 0.690207 0.553674
O O7 0.620460 0.760846 0.402442
O O8 0.640165 0.000000 0.501111
O O9 0.250000 0.782578 0.337386
O O10 0.149237 0.500000 0.328009
O O11 0.048791 0.780583 0.340570
O O12 0.250000 0.232214 0.168735
O O13 0.147767 0.500000 0.133344
O O14 0.052203 0.229219 0.169236
O O15 0.947183 0.500000 0.333663
O O16 0.906028 0.230187 0.253411
O O17 0.058532 0.500000 0.829196
#
# Coordination Sequence:
#
# PCOD9407235 Si02
#       6
#     8   8   8   8   8   8
#     4   7  10  17  27  40  62  93 127 157 184 222
#     4   9  17  29  44  60  78 104 139 171 195 230
#     4   9  17  28  42  61  83 104 128 163 207 251
#     4   8  12  17  27  45  70  99 128 159 195 233
#     4   9  16  26  41  60  82 108 134 163 204 248
#     4   8  13  20  31  48  71 100 130 157 191 238
#
# _framework density 24.089424000000001
#
# number of rings (size 3 to 8) (size 9 to 14) (size 15 to 20)
#    0.000    3.667    0.000    2.500    0.000    3.000 
#    0.000    3.333    0.000    1.000    0.000    4.667 
#    0.000    6.000    0.000    0.333    0.000    0.000 
#
# Total GULP energy -267317.257273 kJ/mol
# GULP energy per Si atom -5569.109527 kJ/mol
# Density = 2.403460 g / cm^3
# Si number density = 24.089424 Si / 1000 Ang^3
#
#
#
# Elastic Constant Matrix: (Units=GPa)
#
#
# Indices 1 2 3 4 5 6 
#
# 1 43.4666 -0.9824 -8.6424 0.0000 0.0000 0.0000
# 2 -0.9824 60.0052 0.8351 0.0000 0.0000 0.0000
# 3 -8.6424 0.8351 182.7015 0.0000 0.0000 0.0000
# 4 0.0000 0.0000 0.0000 -102.4133 0.0000 0.0000
# 5 0.0000 0.0000 0.0000 0.0000 4.9765 0.0000
# 6 0.0000 0.0000 0.0000 0.0000 0.0000 -10.1215
#
#
#
# Elastic Compliance Matrix: (Units=1/GPa)
#
#
# Indices 1 2 3 4 5 6 
#
# 1 0.023233 0.000365 0.001097 0.000000 0.000000 0.000000
# 2 0.000365 0.016672 -0.000059 0.000000 0.000000 0.000000
# 3 0.001097 -0.000059 0.005526 0.000000 0.000000 0.000000
# 4 0.000000 0.000000 0.000000 -0.009764 0.000000 0.000000
# 5 0.000000 0.000000 0.000000 0.000000 0.200944 0.000000
# 6 0.000000 0.000000 0.000000 0.000000 0.000000 -0.098799
#
#
# Mechanical properties :
#
#
# Convention : Reuss Voigt Hill
#
# Bulk Modulus (GPa) = 20.73089 29.84376 25.28733
# Shear Modulus (GPa) = 33.09445 -1.84747 15.62349
#
# Velocity S-wave (km/s) = 3.71052 -0.87669 2.54945
# Velocity P-wave (km/s) = 5.19440 3.37503 4.38022
#
# Compressibility (1/GPa) = 0.04823719
#
# Stress axis : x y z
#
# Youngs Moduli (GPa) = 43.04293 59.98070 180.97633
#
# Poissons Ratio (x) = -0.02190 -0.19859
# Poissons Ratio (y) = -0.01571 0.01067
# Poissons Ratio (z) = -0.04723 0.00353
#
# Static dielectric constant tensor:
#      x y z
#    x 1.931980 0.000000 0.000000 
#    y 0.000000 1.950160 0.000000 
#    z 0.000000 0.000000 1.965070 
# 
# From -- ./inp_files/30053.got.cif
#   From: 2010.05.17/outbox.cif.g08.bks.cpg/sg51_16_cif.got.tgz:30053.got - 2010.06.03 11:52:47.
