data_PCOD9407170
_publ_section_title
;
Structure prediction by ZEFSAII (Michael W. Deem and Ramdas Pophale) SiO2 
 PCOD9407170
Probable space group: P M M A
;
_chemical_formula_sum "Si O2"
_cell_formula_units_Z 48
_cell_length_a 15.883591
_cell_length_b 9.023797
_cell_length_c 17.108595
_cell_angle_alpha 90.000000
_cell_angle_beta 90.000000
_cell_angle_gamma 90.000000
_cell_volume 2452.180068
_symmetry_space_group_name_H-M "P M M A"
_symmetry_group_IT_number 51
_symmetry_cell_setting 'orthorhombic'
loop_
_space_group_symop_operation_xyz
x,y,z
1/2-x,-y,z
1/2+x,-y,-z
-x,y,-z
-x,-y,-z
1/2+x,y,-z
1/2-x,y,z
x,-y,z
loop_
_atom_site_type_symbol
_atom_site_label
_atom_site_fract_x
_atom_site_fract_y
_atom_site_fract_z
Si Si1 0.415905 0.826420 0.842617
Si Si2 0.150154 0.327212 0.996016
Si Si3 0.151517 0.674755 0.690677
Si Si4 0.750000 0.324928 0.731266
Si Si5 0.114100 0.826075 0.161649
Si Si6 0.750000 0.675684 0.545011
Si Si7 0.089975 0.822602 0.538569
O O1 0.397946 0.756578 0.927047
O O2 0.365330 0.740134 0.776088
O O3 0.514752 0.812964 0.823790
O O4 0.393277 0.000000 0.843117
O O5 0.250000 0.319283 0.979541
O O6 0.125689 0.500000 0.998719
O O7 0.133944 0.251517 0.079225
O O8 0.250000 0.694935 0.670614
O O9 0.133065 0.500000 0.689416
O O10 0.097031 0.759833 0.626197
O O11 0.750000 0.500000 0.748624
O O12 0.669218 0.250705 0.771685
O O13 0.750000 0.304711 0.638400
O O14 0.135505 0.000000 0.156811
O O15 0.750000 0.500000 0.526973
O O16 0.833347 0.749356 0.508976
O O17 0.000000 0.786914 0.500000
O O18 0.099929 0.000000 0.539295
#
# Coordination Sequence:
#
# PCOD9407170 Si02
#       7
#     8   8   8   4   8   4   8
#     4  11  25  41  62  94 128 166 214 262 313 375
#     4  11  23  40  63  92 126 166 213 261 314 375
#     4  11  24  43  67  96 130 169 214 264 320 381
#     4  11  25  43  65  94 125 162 209 259 317 379
#     4  11  24  42  64  91 125 166 211 261 316 375
#     4  11  25  45  69 100 133 172 219 269 327 391
#     4  11  25  44  69 100 133 173 219 269 328 392
#
# _framework density 19.574418999999999
#
# number of rings (size 3 to 8) (size 9 to 14) (size 15 to 20)
#    0.000    1.000    1.667    4.000    2.333   11.333 
#    0.000    0.000    0.000    0.000    0.000    0.000 
#    0.000    0.000    0.000    0.000    0.000    0.000 
#
# Total GULP energy -268637.219295 kJ/mol
# GULP energy per Si atom -5596.608735 kJ/mol
# Density = 1.952987 g / cm^3
# Si number density = 19.574419 Si / 1000 Ang^3
#
#
#
# Elastic Constant Matrix: (Units=GPa)
#
#
# Indices 1 2 3 4 5 6 
#
# 1 72.4452 48.5944 17.3979 0.0000 0.0000 0.0000
# 2 48.5944 107.3563 34.1357 0.0000 0.0000 0.0000
# 3 17.3979 34.1357 69.4613 0.0000 0.0000 0.0000
# 4 0.0000 0.0000 0.0000-1528.2969 0.0000 0.0000
# 5 0.0000 0.0000 0.0000 0.0000 6.4540 0.0000
# 6 0.0000 0.0000 0.0000 0.0000 0.0000 70.1320
#
#
#
# Elastic Compliance Matrix: (Units=1/GPa)
#
#
# Indices 1 2 3 4 5 6 
#
# 1 0.019847 -0.008774 -0.000659 0.000000 0.000000 0.000000
# 2 -0.008774 0.014919 -0.005134 0.000000 0.000000 0.000000
# 3 -0.000659 -0.005134 0.017085 0.000000 0.000000 0.000000
# 4 0.000000 0.000000 0.000000 -0.000654 0.000000 0.000000
# 5 0.000000 0.000000 0.000000 0.000000 0.154942 0.000000
# 6 0.000000 0.000000 0.000000 0.000000 0.000000 0.014259
#
#
# Mechanical properties :
#
#
# Convention : Reuss Voigt Hill
#
# Bulk Modulus (GPa) = 44.02172 49.94655 46.98414
# Shear Modulus (GPa) = 19.44739 -280.39986 -130.47623
#
# Velocity S-wave (km/s) = 3.15542 -11.98161 -8.17320
# Velocity P-wave (km/s) = 5.98446 12.87791 8.06309
#
# Compressibility (1/GPa) = 0.02271606
#
# Stress axis : x y z
#
# Youngs Moduli (GPa) = 50.38451 67.02938 58.53217
#
# Poissons Ratio (x) = 0.58813 0.03858
# Poissons Ratio (y) = 0.44209 0.30050
# Poissons Ratio (z) = 0.03321 0.34413
#
# Static dielectric constant tensor:
#      x y z
#    x 1.677160 0.000000 0.000000 
#    y 0.000000 1.654800 0.000000 
#    z 0.000000 0.000000 1.647870 
# 
# From -- ./inp_files/29550.got.cif
#   From: 2010.05.17/outbox.cif.g08.bks.cpg/sg51_15_cif.got.tgz:29550.got - 2010.06.03 11:52:47.
