data_PCOD9407733
_publ_section_title
;
Structure prediction by ZEFSAII (Michael W. Deem and Ramdas Pophale) SiO2 
 PCOD9407733
Probable space group: P M M A
;
_chemical_formula_sum "Si O2"
_cell_formula_units_Z 56
_cell_length_a 21.000000
_cell_length_b 9.000000
_cell_length_c 15.000000
_cell_angle_alpha 90.000000
_cell_angle_beta 90.000000
_cell_angle_gamma 90.000000
_cell_volume 2835.000000
_symmetry_space_group_name_H-M "P M M A"
_symmetry_group_IT_number 51
_symmetry_cell_setting 'orthorhombic'
loop_
_space_group_symop_operation_xyz
x,y,z
1/2-x,-y,z
1/2+x,-y,-z
-x,y,-z
-x,-y,-z
1/2+x,y,-z
1/2-x,y,z
x,-y,z
loop_
_atom_site_type_symbol
_atom_site_label
_atom_site_fract_x
_atom_site_fract_y
_atom_site_fract_z
Si Si1 0.545645 0.822837 0.266008
Si Si2 0.179740 0.326640 0.476748
Si Si3 0.179183 0.326677 0.691342
Si Si4 0.177184 0.821999 0.192312
Si Si5 0.582326 0.821072 0.649168
Si Si6 0.321475 0.678876 0.998783
Si Si7 0.045486 0.677172 0.915576
O O1 0.615988 0.756999 0.278699
O O2 0.490842 0.773474 0.335902
O O3 0.522708 0.767602 0.169554
O O4 0.548971 0.000000 0.269211
O O5 0.250000 0.268299 0.448589
O O6 0.176408 0.500000 0.451022
O O7 0.178457 0.320537 0.583763
O O8 0.120500 0.242472 0.434444
O O9 0.250000 0.273172 0.720294
O O10 0.174480 0.500000 0.718666
O O11 0.250000 0.789449 0.221955
O O12 0.125392 0.776422 0.265369
O O13 0.172284 0.000000 0.180359
O O14 0.168221 0.743793 0.097437
O O15 0.582888 0.000000 0.644452
O O16 0.250000 0.724010 0.968749
O O17 0.322303 0.500000 0.003858
O O18 0.381759 0.721749 0.938901
O O19 0.044439 0.500000 0.896753
O O20 0.000000 0.703207 0.000000
#
# Coordination Sequence:
#
# PCOD9407733 Si02
#       7
#     8   8   8   8   8   8   8
#     4  11  24  38  55  83 114 145 184 228 275 328
#     4   9  19  36  59  86 111 140 183 229 270 317
#     4   9  20  41  64  83 108 143 183 229 280 331
#     4   9  17  30  49  73 103 141 181 217 259 315
#     4  10  21  35  51  77 115 152 182 217 267 326
#     4   9  18  32  50  73  99 128 168 220 273 320
#     4  10  21  37  56  77 104 142 186 227 272 327
#
# _framework density 19.753086
#
# number of rings (size 3 to 8) (size 9 to 14) (size 15 to 20)
#    0.000    2.429    0.000    2.571    0.000    5.429 
#    0.000    7.143    0.000    0.000    0.000    0.000 
#    0.000    0.000    0.000    0.000    0.000    0.000 
#
# Total GULP energy -312515.987717 kJ/mol
# GULP energy per Si atom -5580.642638 kJ/mol
# Density = 1.970813 g / cm^3
# Si number density = 19.753086 Si / 1000 Ang^3
#
#
#
# Elastic Constant Matrix: (Units=GPa)
#
#
# Indices 1 2 3 4 5 6 
#
# 1 119.6567 36.5778 18.5154 0.0000 0.0000 0.0000
# 2 36.5778 18.7359 13.9964 0.0000 0.0000 0.0000
# 3 18.5154 13.9964 28.9093 0.0000 0.0000 0.0000
# 4 0.0000 0.0000 0.0000 34.7929 0.0000 0.0000
# 5 0.0000 0.0000 0.0000 0.0000 33.5859 0.0000
# 6 0.0000 0.0000 0.0000 0.0000 0.0000 23.2081
#
#
#
# Elastic Compliance Matrix: (Units=1/GPa)
#
#
# Indices 1 2 3 4 5 6 
#
# 1 0.022706 -0.052426 0.010840 0.000000 0.000000 0.000000
# 2 -0.052426 0.204663 -0.065510 0.000000 0.000000 0.000000
# 3 0.010840 -0.065510 0.059365 0.000000 0.000000 0.000000
# 4 0.000000 0.000000 0.000000 0.028741 0.000000 0.000000
# 5 0.000000 0.000000 0.000000 0.000000 0.029774 0.000000
# 6 0.000000 0.000000 0.000000 0.000000 0.000000 0.043088
#
#
# Mechanical properties :
#
#
# Convention : Reuss Voigt Hill
#
# Bulk Modulus (GPa) = 13.78540 33.94234 23.86387
# Shear Modulus (GPa) = 7.97813 24.86485 16.42149
#
# Velocity S-wave (km/s) = 2.01189 3.55178 2.88642
# Velocity P-wave (km/s) = 3.52008 5.83445 4.81829
#
# Compressibility (1/GPa) = 0.07254049
#
# Stress axis : x y z
#
# Youngs Moduli (GPa) = 44.04101 4.88608 16.84482
#
# Poissons Ratio (x) = 0.25616 -0.18259
# Poissons Ratio (y) = 2.30891 1.10351
# Poissons Ratio (z) = -0.47740 0.32009
#
# Static dielectric constant tensor:
#      x y z
#    x 1.718090 0.000000 0.000000 
#    y 0.000000 1.661570 0.000000 
#    z 0.000000 0.000000 1.698520 
# 
# From -- ./inp_files/25680.got.cif
#   From: 2010.05.17/outbox.ucp.g08.bks.cvg/sg51_13_cif.got.tgz:25680.got - 2010.06.11 16:27:58.
