data_PCOD9407632
_publ_section_title
;
Structure prediction by ZEFSAII (Michael W. Deem and Ramdas Pophale) SiO2 
 PCOD9407632
Probable space group: P M M A
;
_chemical_formula_sum "Si O2"
_cell_formula_units_Z 64
_cell_length_a 15.000000
_cell_length_b 9.000000
_cell_length_c 24.000000
_cell_angle_alpha 90.000000
_cell_angle_beta 90.000000
_cell_angle_gamma 90.000000
_cell_volume 3240.000000
_symmetry_space_group_name_H-M "P M M A"
_symmetry_group_IT_number 51
_symmetry_cell_setting 'orthorhombic'
loop_
_space_group_symop_operation_xyz
x,y,z
1/2-x,-y,z
1/2+x,-y,-z
-x,y,-z
-x,-y,-z
1/2+x,y,-z
1/2-x,y,z
x,-y,z
loop_
_atom_site_type_symbol
_atom_site_label
_atom_site_fract_x
_atom_site_fract_y
_atom_site_fract_z
Si Si1 0.849991 0.679250 0.637133
Si Si2 0.398128 0.827403 0.479653
Si Si3 0.468006 0.824124 0.887846
Si Si4 0.653390 0.674061 0.410881
Si Si5 0.849156 0.676122 0.890297
Si Si6 0.148520 0.178195 0.782008
Si Si7 0.849523 0.676082 0.023919
Si Si8 0.472429 0.321081 0.688478
O O1 0.750000 0.727452 0.650878
O O2 0.851700 0.500000 0.634203
O O3 0.876741 0.739984 0.576516
O O4 0.925024 0.724344 0.681519
O O5 0.500000 0.811759 0.500000
O O6 0.346309 0.762597 0.532156
O O7 0.378471 0.000000 0.470556
O O8 0.562666 0.756944 0.869244
O O9 0.392714 0.789168 0.842199
O O10 0.429031 0.756564 0.944580
O O11 0.477462 0.000000 0.893255
O O12 0.750000 0.689345 0.382615
O O13 0.639790 0.500000 0.423868
O O14 0.576763 0.722415 0.369017
O O15 0.750000 0.726510 0.871822
O O16 0.855339 0.500000 0.878836
O O17 0.852748 0.695467 0.957391
O O18 0.250000 0.232082 0.776411
O O19 0.082485 0.248744 0.737523
O O20 0.148800 0.000000 0.775034
O O21 0.750000 0.726831 0.042089
O O22 0.856294 0.500000 0.034882
O O23 0.467227 0.500000 0.693137
#
# Coordination Sequence:
#
# PCOD9407632 Si02
#       8
#     8   8   8   8   8   8   8   8
#     4  10  21  38  60  83 109 143 180 221 271 323
#     4  11  22  34  51  79 113 147 181 216 256 313
#     4  11  22  35  54  82 115 150 187 231 283 337
#     4  10  20  34  54  79 106 138 175 216 267 321
#     4   9  19  36  56  80 113 152 192 233 277 326
#     4  10  23  42  60  80 110 145 179 221 276 333
#     4   9  18  33  54  81 114 152 192 233 278 331
#     4  10  21  38  60  83 107 135 178 231 274 319
#
# _framework density 19.753086
#
# number of rings (size 3 to 8) (size 9 to 14) (size 15 to 20)
#    0.000    2.000    1.250    3.000    0.000    8.250 
#    0.000    1.875    0.000    2.250    0.000    0.000 
#    0.000    0.000    0.000    0.000    0.000    0.000 
#
# Total GULP energy -357169.920711 kJ/mol
# GULP energy per Si atom -5580.780011 kJ/mol
# Density = 1.970813 g / cm^3
# Si number density = 19.753086 Si / 1000 Ang^3
#
#
#
# Elastic Constant Matrix: (Units=GPa)
#
#
# Indices 1 2 3 4 5 6 
#
# 1 131.3434 47.7248 28.1068 0.0000 0.0000 0.0000
# 2 47.7248 1.6470 21.3580 0.0000 0.0000 0.0000
# 3 28.1068 21.3580 31.7564 0.0000 0.0000 0.0000
# 4 0.0000 0.0000 0.0000 25.3357 0.0000 0.0000
# 5 0.0000 0.0000 0.0000 0.0000 0.2159 0.0000
# 6 0.0000 0.0000 0.0000 0.0000 0.0000 40.0837
#
#
#
# Elastic Compliance Matrix: (Units=1/GPa)
#
#
# Indices 1 2 3 4 5 6 
#
# 1 0.005821 0.013193 -0.014025 0.000000 0.000000 0.000000
# 2 0.013193 -0.048734 0.021100 0.000000 0.000000 0.000000
# 3 -0.014025 0.021100 0.029712 0.000000 0.000000 0.000000
# 4 0.000000 0.000000 0.000000 0.039470 0.000000 0.000000
# 5 0.000000 0.000000 0.000000 0.000000 4.631670 0.000000
# 6 0.000000 0.000000 0.000000 0.000000 0.000000 0.024948
#
#
# Mechanical properties :
#
#
# Convention : Reuss Voigt Hill
#
# Bulk Modulus (GPa) = 36.58409 39.90288 38.24348
# Shear Modulus (GPa) = 1.07493 17.63086 9.35289
#
# Velocity S-wave (km/s) = 0.73849 2.99082 2.17834
# Velocity P-wave (km/s) = 4.39182 5.67198 5.07245
#
# Compressibility (1/GPa) = 0.02733429
#
# Stress axis : x y z
#
# Youngs Moduli (GPa) = 171.78424 -20.51963 33.65627
#
# Poissons Ratio (x) = 0.27071 0.47203
# Poissons Ratio (y) = -2.26629 -0.71014
# Poissons Ratio (z) = 2.40928 0.43296
#
# Static dielectric constant tensor:
#      x y z
#    x 1.763840 0.000000 0.000000 
#    y 0.000000 1.666980 0.000000 
#    z 0.000000 0.000000 1.679920 
# 
# From -- ./inp_files/35726.got.cif
#   From: 2010.05.17/outbox.ucp.g08.bks.cvg/sg51_18_cif.got.tgz:35726.got - 2010.06.11 16:27:58.
