data_PCOD9407859
_publ_section_title
;
Structure prediction by ZEFSAII (Michael W. Deem and Ramdas Pophale) SiO2 
 PCOD9407859
Probable space group: P N N A
;
_chemical_formula_sum "Si O2"
_cell_formula_units_Z 64
_cell_length_a 11.794714
_cell_length_b 18.314736
_cell_length_c 13.950497
_cell_angle_alpha 90.000000
_cell_angle_beta 90.000000
_cell_angle_gamma 90.000000
_cell_volume 3013.545530
_symmetry_space_group_name_H-M "P N N A"
_symmetry_group_IT_number 52
_symmetry_cell_setting 'orthorhombic'
loop_
_space_group_symop_operation_xyz
x,y,z
1/2-x,-y,z
x,1/2-y,1/2-z
1/2-x,1/2+y,1/2-z
-x,-y,-z
1/2+x,y,-z
-x,1/2+y,1/2+z
1/2+x,1/2-y,1/2+z
loop_
_atom_site_type_symbol
_atom_site_label
_atom_site_fract_x
_atom_site_fract_y
_atom_site_fract_z
Si Si1 0.750000 0.195611 0.842594
Si Si2 0.503748 0.775797 0.861413
Si Si3 0.750000 0.587200 0.815417
Si Si4 0.004021 0.618919 0.104409
Si Si5 0.114791 0.919280 0.801404
Si Si6 0.995978 0.618919 0.895591
Si Si7 0.614791 0.080720 0.198595
Si Si8 0.996252 0.724203 0.638587
O O1 0.750000 0.250000 0.750000
O O2 0.868061 0.208505 0.895337
O O3 0.750001 0.116059 0.793532
O O4 0.631939 0.208505 0.895336
O O5 0.510318 0.750000 0.750000
O O6 0.457449 0.701774 0.907069
O O7 0.435421 0.850956 0.859975
O O8 0.750000 0.500000 0.821478
O O9 0.635563 0.617765 0.863252
O O10 0.864437 0.617765 0.863251
O O11 0.935903 0.585296 0.193361
O O12 0.999999 0.583502 1.000000
O O13 0.250000 0.912563 0.796875
O O14 0.064579 0.850956 0.859975
O O15 0.064098 0.914704 0.693361
O O16 0.085458 1.000000 0.839767
O O17 0.042551 0.701774 0.907069
O O18 0.989682 0.750000 0.750000
#
# Coordination Sequence:
#
# PCOD9407859 Si02
#       8
#     8   8   8   8   8   8   8   8
#     4  10  14  32  56  74  96 130 174 228 253 293
#     4   9  17  33  56  73 101 134 181 221 256 297
#     4  12  22  34  54  80 107 140 173 214 269 316
#     4  11  23  36  51  78 111 145 176 210 258 321
#     4  10  21  36  54  79 107 138 177 220 262 309
#     4  11  23  36  51  78 111 145 176 210 258 321
#     4  10  21  36  54  79 107 138 177 220 262 309
#     4   9  17  33  56  73 101 134 181 221 256 297
#
# _framework density 21.237441
#
# number of rings (size 3 to 8) (size 9 to 14) (size 15 to 20)
#    0.000    1.750    7.500    0.750    1.750    6.500 
#    0.000    0.000    0.000    0.750    0.000    0.000 
#    0.000    0.000    0.000    0.000    0.000    0.000 
#
# Total GULP energy -356828.406570 kJ/mol
# GULP energy per Si atom -5575.443853 kJ/mol
# Density = 2.118910 g / cm^3
# Si number density = 21.237441 Si / 1000 Ang^3
#
#
#
# Elastic Constant Matrix: (Units=GPa)
#
#
# Indices 1 2 3 4 5 6 
#
# 1 89.9647 50.2645 -18.4432 0.0000 0.0000 0.0000
# 2 50.2645 183.6307 5.7327 0.0000 0.0000 0.0000
# 3 -18.4432 5.7327 20.5691 0.0000 0.0000 0.0000
# 4 0.0000 0.0000 0.0000 3.3207 0.0000 0.0000
# 5 0.0000 0.0000 0.0000 0.0000 2.5396 0.0000
# 6 0.0000 0.0000 0.0000 0.0000 0.0000 85.1686
#
#
#
# Elastic Compliance Matrix: (Units=1/GPa)
#
#
# Indices 1 2 3 4 5 6 
#
# 1 0.017679 -0.005381 0.017351 0.000000 0.000000 0.000000
# 2 -0.005381 0.007131 -0.006812 0.000000 0.000000 0.000000
# 3 0.017351 -0.006812 0.066073 0.000000 0.000000 0.000000
# 4 0.000000 0.000000 0.000000 0.301139 0.000000 0.000000
# 5 0.000000 0.000000 0.000000 0.000000 0.393764 0.000000
# 6 0.000000 0.000000 0.000000 0.000000 0.000000 0.011741
#
#
# Mechanical properties :
#
#
# Convention : Reuss Voigt Hill
#
# Bulk Modulus (GPa) = 9.88140 41.03028 25.45584
# Shear Modulus (GPa) = 6.09054 35.31316 20.70185
#
# Velocity S-wave (km/s) = 1.69531 4.08214 3.12554
# Velocity P-wave (km/s) = 2.91462 6.44827 5.00376
#
# Compressibility (1/GPa) = 0.10120019
#
# Stress axis : x y z
#
# Youngs Moduli (GPa) = 56.56432 140.22747 15.13470
#
# Poissons Ratio (x) = 0.75455 -0.26261
# Poissons Ratio (y) = 0.30437 0.10310
# Poissons Ratio (z) = -0.98147 0.95527
#
# Static dielectric constant tensor:
#      x y z
#    x 1.748160 0.000000 0.000000 
#    y 0.000000 1.822970 0.000000 
#    z 0.000000 0.000000 1.794080 
# 
# From -- ./inp_files/32474.got.cif
#   From: 2010.05.17/outbox.cif.g08.bks.cpg/sg52_17_cif.got.tgz:32474.got - 2010.06.03 12:15:38.
