data_PCOD9407665
_publ_section_title
;
Structure prediction by ZEFSAII (Michael W. Deem and Ramdas Pophale) SiO2 
 PCOD9407665
Probable space group: P M M A
;
_chemical_formula_sum "Si O2"
_cell_formula_units_Z 56
_cell_length_a 9.000000
_cell_length_b 21.000000
_cell_length_c 15.000000
_cell_angle_alpha 90.000000
_cell_angle_beta 90.000000
_cell_angle_gamma 90.000000
_cell_volume 2835.000000
_symmetry_space_group_name_H-M "P M M A"
_symmetry_group_IT_number 51
_symmetry_cell_setting 'orthorhombic'
loop_
_space_group_symop_operation_xyz
x,y,z
1/2-x,-y,z
1/2+x,-y,-z
-x,y,-z
-x,-y,-z
1/2+x,y,-z
1/2-x,y,z
x,-y,z
loop_
_atom_site_type_symbol
_atom_site_label
_atom_site_fract_x
_atom_site_fract_y
_atom_site_fract_z
Si Si1 0.071837 0.568829 0.597027
Si Si2 0.929604 0.925129 0.240244
Si Si3 0.576037 0.298905 0.848045
Si Si4 0.428029 0.430017 0.902337
Si Si5 0.572196 0.291123 0.331605
Si Si6 0.574545 0.843825 0.411059
Si Si7 0.572078 0.838433 0.910608
O O1 0.250000 0.568693 0.590099
O O2 0.029519 0.500000 0.639831
O O3 0.034632 0.636925 0.639050
O O4 0.000000 0.568764 0.500000
O O5 0.750000 0.920610 0.230424
O O6 0.973052 0.888538 0.330307
O O7 0.007760 0.882991 0.165611
O O8 0.968411 0.000000 0.239111
O O9 0.750000 0.310530 0.863604
O O10 0.489866 0.365276 0.860648
O O11 0.536950 0.277490 0.749150
O O12 0.527682 0.236420 0.902179
O O13 0.250000 0.425661 0.906984
O O14 0.463149 0.500000 0.861067
O O15 0.500000 0.431112 0.000000
O O16 0.750000 0.290058 0.307969
O O17 0.546620 0.231794 0.396696
O O18 0.500000 0.866106 0.500000
O O19 0.750000 0.849987 0.417977
O O20 0.750000 0.839929 0.910948
O O21 0.500000 0.863555 0.000000
#
# Coordination Sequence:
#
# PCOD9407665 Si02
#       7
#     8   8   8   8   8   8   8
#     4   9  18  32  50  74 105 143 189 238 291 351
#     4  10  22  42  66  92 124 161 202 248 299 360
#     4  11  23  37  57  86 117 153 199 250 301 356
#     4  10  21  37  57  81 112 152 197 246 300 357
#     4  10  20  35  55  79 112 154 196 245 301 354
#     4  10  21  37  60  89 121 160 202 248 302 359
#     4  11  24  41  64  93 124 161 203 248 302 362
#
# _framework density 19.753086
#
# number of rings (size 3 to 8) (size 9 to 14) (size 15 to 20)
#    0.000    1.857    1.429    2.143    0.000    6.857 
#    0.000    1.429    0.000    0.000    0.000    0.000 
#    0.000    0.000    0.000    0.000    0.000    0.000 
#
# Total GULP energy -312012.441839 kJ/mol
# GULP energy per Si atom -5571.650747 kJ/mol
# Density = 1.970813 g / cm^3
# Si number density = 19.753086 Si / 1000 Ang^3
#
#
#
# Elastic Constant Matrix: (Units=GPa)
#
#
# Indices 1 2 3 4 5 6 
#
# 1 4.4763 50.4403 36.3429 0.0000 0.0000 0.0000
# 2 50.4403 146.2829 66.2612 0.0000 0.0000 0.0000
# 3 36.3429 66.2612 124.4877 0.0000 0.0000 0.0000
# 4 0.0000 0.0000 0.0000 -19.3059 0.0000 0.0000
# 5 0.0000 0.0000 0.0000 0.0000 25.5228 0.0000
# 6 0.0000 0.0000 0.0000 0.0000 0.0000 27.8932
#
#
#
# Elastic Compliance Matrix: (Units=1/GPa)
#
#
# Indices 1 2 3 4 5 6 
#
# 1 -0.067368 0.018870 0.009623 0.000000 0.000000 0.000000
# 2 0.018870 0.003722 -0.007490 0.000000 0.000000 0.000000
# 3 0.009623 -0.007490 0.009210 0.000000 0.000000 0.000000
# 4 0.000000 0.000000 0.000000 -0.051798 0.000000 0.000000
# 5 0.000000 0.000000 0.000000 0.000000 0.039181 0.000000
# 6 0.000000 0.000000 0.000000 0.000000 0.000000 0.035851
#
#
# Mechanical properties :
#
#
# Convention : Reuss Voigt Hill
#
# Bulk Modulus (GPa) = -80.45973 64.59286 -7.93343
# Shear Modulus (GPa) = -64.64055 14.96886 -24.83585
#
# Velocity S-wave (km/s) = -5.72672 2.75580 -3.54971
# Velocity P-wave (km/s) = 9.19501 6.54958 4.56351
#
# Compressibility (1/GPa) = -0.01242858
#
# Stress axis : x y z
#
# Youngs Moduli (GPa) = -14.84390 268.66460 108.57380
#
# Poissons Ratio (x) = -5.06979 -1.04483
# Poissons Ratio (y) = 0.28011 0.81324
# Poissons Ratio (z) = 0.14285 2.01234
#
# Static dielectric constant tensor:
#      x y z
#    x 1.680050 0.000000 0.000000 
#    y 0.000000 1.715470 0.000000 
#    z 0.000000 0.000000 1.818890 
# 
# From -- ./inp_files/21719.got.cif
#   From: 2010.05.17/outbox.ucp.g08.bks.cvg/sg51_11_cif.got.tgz:21719.got - 2010.06.11 16:27:58.
