data_PCOD9407932
_publ_section_title
;
Structure prediction by ZEFSAII (Michael W. Deem and Ramdas Pophale) SiO2 
 PCOD9407932
Probable space group: P N N A
;
_chemical_formula_sum "Si O2"
_cell_formula_units_Z 56
_cell_length_a 20.854156
_cell_length_b 9.789546
_cell_length_c 13.764188
_cell_angle_alpha 90.000000
_cell_angle_beta 90.000000
_cell_angle_gamma 90.000000
_cell_volume 2809.996411
_symmetry_space_group_name_H-M "P N N A"
_symmetry_group_IT_number 52
_symmetry_cell_setting 'orthorhombic'
loop_
_space_group_symop_operation_xyz
x,y,z
1/2-x,-y,z
x,1/2-y,1/2-z
1/2-x,1/2+y,1/2-z
-x,-y,-z
1/2+x,y,-z
-x,1/2+y,1/2+z
1/2+x,1/2-y,1/2+z
loop_
_atom_site_type_symbol
_atom_site_label
_atom_site_fract_x
_atom_site_fract_y
_atom_site_fract_z
Si Si1 0.857537 0.020315 0.865819
Si Si2 0.304325 0.914556 0.513201
Si Si3 0.523058 0.917916 0.403257
Si Si4 0.090921 0.189927 0.643182
Si Si5 0.039340 0.789051 0.057354
Si Si6 0.898913 0.473022 0.852892
Si Si7 0.763126 0.789613 0.862971
O O1 0.921935 0.072668 0.919177
O O2 0.864048 0.026829 0.749202
O O3 0.799000 0.122157 0.888806
O O4 0.828638 0.871552 0.886297
O O5 0.343556 0.815163 0.583225
O O6 0.263469 0.839984 0.430702
O O7 0.250000 0.000000 0.568793
O O8 0.357559 0.992524 0.448098
O O9 0.546163 0.774671 0.448310
O O10 0.500000 0.000000 0.500000
O O11 0.569575 0.028375 0.353566
O O12 0.456866 0.917054 0.344234
O O13 0.096745 0.250000 0.750000
O O14 0.035322 0.276238 0.587326
O O15 0.072156 0.677047 0.128970
O O16 0.762156 0.750000 0.750000
#
# Coordination Sequence:
#
# PCOD9407932 Si02
#       7
#     8   8   8   8   8   8   8
#     4  11  21  32  52  78 115 161 191 230 303 366
#     4  12  21  34  56  78 114 150 188 250 298 352
#     4   8  15  28  52  84 110 137 185 247 294 343
#     4  10  19  34  56  85 108 140 197 257 300 342
#     4  10  16  31  55  84 114 146 191 241 301 354
#     4  10  16  31  51  81 114 142 185 234 288 351
#     4  11  23  34  48  81 119 158 196 233 289 379
#
# _framework density 19.928851000000002
#
# number of rings (size 3 to 8) (size 9 to 14) (size 15 to 20)
#    0.000    2.000    5.714    4.714    0.000    0.000 
#    0.000    0.714    3.143    0.000    0.000    0.000 
#    4.286    0.000    0.000    0.000    0.000    0.000 
#
# Total GULP energy -311979.104561 kJ/mol
# GULP energy per Si atom -5571.055439 kJ/mol
# Density = 1.988349 g / cm^3
# Si number density = 19.928851 Si / 1000 Ang^3
#
#
#
# Elastic Constant Matrix: (Units=GPa)
#
#
# Indices 1 2 3 4 5 6 
#
# 1 58.5764 10.1963 26.4160 0.0000 0.0000 0.0000
# 2 10.1963 28.6444 16.8696 0.0000 0.0000 0.0000
# 3 26.4160 16.8696 64.5185 0.0000 0.0000 0.0000
# 4 0.0000 0.0000 0.0000 26.5528 0.0000 0.0000
# 5 0.0000 0.0000 0.0000 0.0000 2.9793 0.0000
# 6 0.0000 0.0000 0.0000 0.0000 0.0000 25.3316
#
#
#
# Elastic Compliance Matrix: (Units=1/GPa)
#
#
# Indices 1 2 3 4 5 6 
#
# 1 0.021135 -0.002869 -0.007903 0.000000 0.000000 0.000000
# 2 -0.002869 0.041655 -0.009717 0.000000 0.000000 0.000000
# 3 -0.007903 -0.009717 0.021276 0.000000 0.000000 0.000000
# 4 0.000000 0.000000 0.000000 0.037661 0.000000 0.000000
# 5 0.000000 0.000000 0.000000 0.000000 0.335652 0.000000
# 6 0.000000 0.000000 0.000000 0.000000 0.000000 0.039476
#
#
# Mechanical properties :
#
#
# Convention : Reuss Voigt Hill
#
# Bulk Modulus (GPa) = 23.20840 28.74480 25.97660
# Shear Modulus (GPa) = 9.05476 17.52320 13.28898
#
# Velocity S-wave (km/s) = 2.13387 2.96850 2.58509
# Velocity P-wave (km/s) = 4.21214 5.11902 4.68756
#
# Compressibility (1/GPa) = 0.04308784
#
# Stress axis : x y z
#
# Youngs Moduli (GPa) = 47.31429 24.00696 47.00132
#
# Poissons Ratio (x) = 0.06887 0.37147
# Poissons Ratio (y) = 0.13574 0.45670
# Poissons Ratio (z) = 0.37394 0.23327
#
# Static dielectric constant tensor:
#      x y z
#    x 1.803620 0.000000 0.000000 
#    y 0.000000 1.830530 0.000000 
#    z 0.000000 0.000000 1.684690 
# 
# From -- ./inp_files/21706.got.cif
#   From: 2010.05.17/outbox.cif.g08.bks.cpg/sg52_11_cif.got.tgz:21706.got - 2010.06.03 12:15:38.
