data_PCOD9407547
_publ_section_title
;
Structure prediction by ZEFSAII (Michael W. Deem and Ramdas Pophale) SiO2 
 PCOD9407547
Probable space group: P M M A
;
_chemical_formula_sum "Si O2"
_cell_formula_units_Z 48
_cell_length_a 9.000000
_cell_length_b 18.000000
_cell_length_c 15.000000
_cell_angle_alpha 90.000000
_cell_angle_beta 90.000000
_cell_angle_gamma 90.000000
_cell_volume 2430.000000
_symmetry_space_group_name_H-M "P M M A"
_symmetry_group_IT_number 51
_symmetry_cell_setting 'orthorhombic'
loop_
_space_group_symop_operation_xyz
x,y,z
1/2-x,-y,z
1/2+x,-y,-z
-x,y,-z
-x,-y,-z
1/2+x,y,-z
1/2-x,y,z
x,-y,z
loop_
_atom_site_type_symbol
_atom_site_label
_atom_site_fract_x
_atom_site_fract_y
_atom_site_fract_z
Si Si1 0.573361 0.269164 0.097862
Si Si2 0.071719 0.618126 0.224308
Si Si3 0.572280 0.500000 0.096147
Si Si4 0.070323 0.359227 0.591743
Si Si5 0.081959 0.000000 0.095246
Si Si6 0.930160 0.193722 0.593169
Si Si7 0.075044 0.149664 0.200961
O O1 0.750000 0.287950 0.096306
O O2 0.481829 0.305387 0.180823
O O3 0.541220 0.186910 0.131329
O O4 0.500000 0.284170 0.000000
O O5 0.250000 0.611452 0.228453
O O6 0.994545 0.567014 0.151311
O O7 0.997710 0.603568 0.319928
O O8 0.750000 0.500000 0.091929
O O9 0.500000 0.500000 0.000000
O O10 0.250000 0.361364 0.590627
O O11 0.000000 0.389830 0.500000
O O12 0.008111 0.274817 0.598435
O O13 0.065132 0.067679 0.163404
O O14 0.250000 0.000000 0.063799
O O15 0.000000 0.000000 0.000000
O O16 0.750000 0.201043 0.582368
O O17 0.956093 0.158114 0.691945
O O18 0.000000 0.160808 0.500000
O O19 0.250000 0.174865 0.188901
#
# Coordination Sequence:
#
# PCOD9407547 Si02
#       7
#     8   8   4   8   4   8   8
#     4  12  24  38  59  87 118 153 198 253 306 360
#     4  12  24  42  64  91 124 161 204 251 303 359
#     4  12  26  46  67  92 125 166 208 250 304 364
#     4  11  21  36  60  92 125 161 201 248 304 360
#     4  10  22  40  59  82 114 158 203 248 307 369
#     4  10  19  33  56  85 119 156 196 246 302 359
#     4  10  21  38  59  84 117 156 200 249 304 363
#
# _framework density 19.753086
#
# number of rings (size 3 to 8) (size 9 to 14) (size 15 to 20)
#    0.000    1.000    1.667    7.750    0.000    2.667 
#    0.000    0.833    0.000    0.000    0.000    0.000 
#    0.000    0.000    0.000    0.000    0.000    0.000 
#
# Total GULP energy -267302.848538 kJ/mol
# GULP energy per Si atom -5568.809345 kJ/mol
# Density = 1.970813 g / cm^3
# Si number density = 19.753086 Si / 1000 Ang^3
#
#
#
# Elastic Constant Matrix: (Units=GPa)
#
#
# Indices 1 2 3 4 5 6 
#
# 1 180.3937 14.1968 69.9994 0.0000 0.0000 0.0000
# 2 14.1968 24.1857 1.9569 0.0000 0.0000 0.0000
# 3 69.9994 1.9569 191.1774 0.0000 0.0000 0.0000
# 4 0.0000 0.0000 0.0000 34.5790 0.0000 0.0000
# 5 0.0000 0.0000 0.0000 0.0000 45.8931 0.0000
# 6 0.0000 0.0000 0.0000 0.0000 0.0000 17.6100
#
#
#
# Elastic Compliance Matrix: (Units=1/GPa)
#
#
# Indices 1 2 3 4 5 6 
#
# 1 0.006791 -0.003788 -0.002448 0.000000 0.000000 0.000000
# 2 -0.003788 0.043494 0.000942 0.000000 0.000000 0.000000
# 3 -0.002448 0.000942 0.006117 0.000000 0.000000 0.000000
# 4 0.000000 0.000000 0.000000 0.028919 0.000000 0.000000
# 5 0.000000 0.000000 0.000000 0.000000 0.021790 0.000000
# 6 0.000000 0.000000 0.000000 0.000000 0.000000 0.056786
#
#
# Mechanical properties :
#
#
# Convention : Reuss Voigt Hill
#
# Bulk Modulus (GPa) = 21.82723 63.11810 42.47267
# Shear Modulus (GPa) = 26.34928 40.25667 33.30297
#
# Velocity S-wave (km/s) = 3.65627 4.51931 4.11050
# Velocity P-wave (km/s) = 5.37572 7.69774 6.63903
#
# Compressibility (1/GPa) = 0.04581433
#
# Stress axis : x y z
#
# Youngs Moduli (GPa) = 147.24375 22.99150 163.46806
#
# Poissons Ratio (x) = 0.08710 0.40015
# Poissons Ratio (y) = 0.55783 -0.15398
# Poissons Ratio (z) = 0.36044 -0.02166
#
# Static dielectric constant tensor:
#      x y z
#    x 1.681540 0.000000 0.000000 
#    y 0.000000 1.223730 0.000000 
#    z 0.000000 0.000000 1.663780 
# 
# From -- ./inp_files/21242.got.cif
#   From: 2010.05.17/outbox.ucp.g08.bks.cvg/sg51_11_cif.got.tgz:21242.got - 2010.06.11 16:27:58.
