data_PCOD9407687
_publ_section_title
;
Structure prediction by ZEFSAII (Michael W. Deem and Ramdas Pophale) SiO2 
 PCOD9407687
Probable space group: P M M A
;
_chemical_formula_sum "Si O2"
_cell_formula_units_Z 64
_cell_length_a 18.000000
_cell_length_b 15.000000
_cell_length_c 12.000000
_cell_angle_alpha 90.000000
_cell_angle_beta 90.000000
_cell_angle_gamma 90.000000
_cell_volume 3240.000000
_symmetry_space_group_name_H-M "P M M A"
_symmetry_group_IT_number 51
_symmetry_cell_setting 'orthorhombic'
loop_
_space_group_symop_operation_xyz
x,y,z
1/2-x,-y,z
1/2+x,-y,-z
-x,y,-z
-x,-y,-z
1/2+x,y,-z
1/2-x,y,z
x,-y,z
loop_
_atom_site_type_symbol
_atom_site_label
_atom_site_fract_x
_atom_site_fract_y
_atom_site_fract_z
Si Si1 0.943970 0.700446 0.685352
Si Si2 0.078244 0.100833 0.274215
Si Si3 0.661210 0.904665 0.490055
Si Si4 0.164917 0.605877 0.142653
Si Si5 0.336170 0.717550 0.915583
Si Si6 0.836382 0.710216 0.474875
Si Si7 0.096602 0.394015 0.716093
Si Si8 0.839327 0.898686 0.963755
O O1 0.964099 0.804677 0.710091
O O2 0.892698 0.659496 0.782196
O O3 0.893044 0.695345 0.575649
O O4 0.015946 0.639003 0.676185
O O5 0.132084 0.100883 0.382690
O O6 0.122618 0.109022 0.157622
O O7 0.043406 0.000000 0.273897
O O8 0.750000 0.908955 0.491513
O O9 0.643402 0.810700 0.431857
O O10 0.632984 0.000000 0.443688
O O11 0.250000 0.615100 0.185144
O O12 0.148203 0.500000 0.137103
O O13 0.163122 0.652651 0.022552
O O14 0.250000 0.726288 0.877813
O O15 0.382863 0.666825 0.822274
O O16 0.361773 0.816066 0.956723
O O17 0.750000 0.711736 0.511137
O O18 0.847821 0.636244 0.381445
O O19 0.099192 0.500000 0.737995
O O20 0.750000 0.890928 0.949319
O O21 0.854942 0.000000 0.005408
#
# Coordination Sequence:
#
# PCOD9407687 Si02
#       8
#     8   8   8   8   8   8   8   8
#     4  11  22  39  61  89 123 151 188 245 308 354
#     4   9  16  29  53  86 122 156 187 224 285 358
#     4   8  14  27  52  87 120 146 178 226 286 348
#     4  10  20  35  58  87 115 148 194 249 302 342
#     4  10  21  39  61  85 117 155 198 245 288 342
#     4  10  22  40  64  90 115 149 196 247 298 351
#     4  12  27  44  60  79 112 161 208 245 292 360
#     4   9  16  29  55  90 123 155 193 237 287 344
#
# _framework density 19.753086
#
# number of rings (size 3 to 8) (size 9 to 14) (size 15 to 20)
#    0.000    2.125    1.250    2.250    0.000    6.000 
#    0.000    3.125    0.000    7.500    0.000    0.000 
#    0.000    0.000    0.000    0.000    0.000    0.000 
#
# Total GULP energy -356864.599156 kJ/mol
# GULP energy per Si atom -5576.009362 kJ/mol
# Density = 1.970813 g / cm^3
# Si number density = 19.753086 Si / 1000 Ang^3
#
#
#
# Elastic Constant Matrix: (Units=GPa)
#
#
# Indices 1 2 3 4 5 6 
#
# 1 40.1511 17.0747 10.7927 0.0000 0.0000 0.0000
# 2 17.0747 154.6433 28.0606 0.0000 0.0000 0.0000
# 3 10.7927 28.0606 35.8610 0.0000 0.0000 0.0000
# 4 0.0000 0.0000 0.0000 31.8442 0.0000 0.0000
# 5 0.0000 0.0000 0.0000 0.0000 156.3531 0.0000
# 6 0.0000 0.0000 0.0000 0.0000 0.0000 25.9783
#
#
#
# Elastic Compliance Matrix: (Units=1/GPa)
#
#
# Indices 1 2 3 4 5 6 
#
# 1 0.027517 -0.001790 -0.006881 0.000000 0.000000 0.000000
# 2 -0.001790 0.007653 -0.005450 0.000000 0.000000 0.000000
# 3 -0.006881 -0.005450 0.034221 0.000000 0.000000 0.000000
# 4 0.000000 0.000000 0.000000 0.031403 0.000000 0.000000
# 5 0.000000 0.000000 0.000000 0.000000 0.006396 0.000000
# 6 0.000000 0.000000 0.000000 0.000000 0.000000 0.038494
#
#
# Mechanical properties :
#
#
# Convention : Reuss Voigt Hill
#
# Bulk Modulus (GPa) = 24.30163 38.05682 31.17923
# Shear Modulus (GPa) = 26.64679 54.48361 40.56520
#
# Velocity S-wave (km/s) = 3.67685 5.25759 4.53660
# Velocity P-wave (km/s) = 5.50954 7.49429 6.57721
#
# Compressibility (1/GPa) = 0.04114950
#
# Stress axis : x y z
#
# Youngs Moduli (GPa) = 36.34165 130.66833 29.22211
#
# Poissons Ratio (x) = 0.23385 0.20108
# Poissons Ratio (y) = 0.06504 0.15925
# Poissons Ratio (z) = 0.25007 0.71210
#
# Static dielectric constant tensor:
#      x y z
#    x 1.710230 0.000000 0.000000 
#    y 0.000000 1.728900 0.000000 
#    z 0.000000 0.000000 1.678610 
# 
# From -- ./inp_files/17605.got.cif
#   From: 2010.05.17/outbox.ucp.g08.bks.cvg/sg51_9_cif.got.tgz:17605.got - 2010.06.11 16:27:58.
