data_PCOD9407352
_publ_section_title
;
Structure prediction by ZEFSAII (Michael W. Deem and Ramdas Pophale) SiO2 
 PCOD9407352
Probable space group: P M M A
;
_chemical_formula_sum "Si O2"
_cell_formula_units_Z 64
_cell_length_a 24.764214
_cell_length_b 7.530943
_cell_length_c 17.484903
_cell_angle_alpha 90.000000
_cell_angle_beta 90.000000
_cell_angle_gamma 90.000000
_cell_volume 3260.897413
_symmetry_space_group_name_H-M "P M M A"
_symmetry_group_IT_number 51
_symmetry_cell_setting 'orthorhombic'
loop_
_space_group_symop_operation_xyz
x,y,z
1/2-x,-y,z
1/2+x,-y,-z
-x,y,-z
-x,-y,-z
1/2+x,y,-z
1/2-x,y,z
x,-y,z
loop_
_atom_site_type_symbol
_atom_site_label
_atom_site_fract_x
_atom_site_fract_y
_atom_site_fract_z
Si Si1 0.630092 0.288738 0.774919
Si Si2 0.473241 0.213555 0.315184
Si Si3 0.311988 0.288186 0.074273
Si Si4 0.084906 0.793760 0.467938
Si Si5 0.811939 0.212822 0.092459
Si Si6 0.311443 0.715530 0.379204
Si Si7 0.312497 0.783137 0.738667
Si Si8 0.087858 0.217636 0.639555
O O1 0.638080 0.500000 0.776159
O O2 0.567847 0.259576 0.752516
O O3 0.652248 0.218798 0.855410
O O4 0.665144 0.222173 0.702676
O O5 0.447821 0.282401 0.395580
O O6 0.535318 0.269662 0.311445
O O7 0.472690 0.000000 0.319489
O O8 0.250000 0.217831 0.077549
O O9 0.308032 0.500000 0.082851
O O10 0.336269 0.258246 0.989770
O O11 0.147289 0.781309 0.443146
O O12 0.078702 0.719382 0.552675
O O13 0.068557 0.000000 0.473036
O O14 0.750000 0.278537 0.088297
O O15 0.831751 0.271547 0.175849
O O16 0.810682 0.000000 0.095466
O O17 0.250000 0.771945 0.389874
O O18 0.312889 0.500000 0.379908
O O19 0.250000 0.727465 0.727434
O O20 0.355892 0.723264 0.676439
O O21 0.311805 0.000000 0.737106
O O22 0.089641 0.000000 0.637561
#
# Coordination Sequence:
#
# PCOD9407352 Si02
#       8
#     8   8   8   8   8   8   8   8
#     4   9  17  29  44  62  85 114 146 176 206 246
#     4   9  17  29  44  63  87 113 143 180 218 249
#     4   9  16  26  43  66  88 111 141 173 206 251
#     4   9  17  28  43  64  87 111 143 183 219 249
#     4   8  14  25  41  62  87 110 133 168 212 251
#     4   9  17  29  43  59  85 119 146 170 208 255
#     4   8  14  25  42  65  89 110 136 172 212 254
#     4   9  16  27  45  65  85 112 144 177 213 254
#
# _framework density 19.626498999999999
#
# number of rings (size 3 to 8) (size 9 to 14) (size 15 to 20)
#    0.000    3.250    0.000    1.500    0.000    4.250 
#    0.000    1.875    0.000    7.500    0.000    7.000 
#    0.000    0.000    0.000    0.000    0.000    0.000 
#
# Total GULP energy -356523.798144 kJ/mol
# GULP energy per Si atom -5570.684346 kJ/mol
# Density = 1.958183 g / cm^3
# Si number density = 19.626499 Si / 1000 Ang^3
#
#
#
# Elastic Constant Matrix: (Units=GPa)
#
#
# Indices 1 2 3 4 5 6 
#
# 1 87.4415 -1.9910 23.2485 0.0000 0.0000 0.0000
# 2 -1.9910 47.1062 1.9826 0.0000 0.0000 0.0000
# 3 23.2485 1.9826 71.8890 0.0000 0.0000 0.0000
# 4 0.0000 0.0000 0.0000 19.4645 0.0000 0.0000
# 5 0.0000 0.0000 0.0000 0.0000 18.2253 0.0000
# 6 0.0000 0.0000 0.0000 0.0000 0.0000 19.7413
#
#
#
# Elastic Compliance Matrix: (Units=1/GPa)
#
#
# Indices 1 2 3 4 5 6 
#
# 1 0.012535 0.000701 -0.004073 0.000000 0.000000 0.000000
# 2 0.000701 0.021293 -0.000814 0.000000 0.000000 0.000000
# 3 -0.004073 -0.000814 0.015250 0.000000 0.000000 0.000000
# 4 0.000000 0.000000 0.000000 0.051376 0.000000 0.000000
# 5 0.000000 0.000000 0.000000 0.000000 0.054869 0.000000
# 6 0.000000 0.000000 0.000000 0.000000 0.000000 0.050655
#
#
# Mechanical properties :
#
#
# Convention : Reuss Voigt Hill
#
# Bulk Modulus (GPa) = 24.56645 28.10187 26.33416
# Shear Modulus (GPa) = 21.93774 23.69932 22.81853
#
# Velocity S-wave (km/s) = 3.34692 3.47870 3.41345
# Velocity P-wave (km/s) = 5.24214 5.52128 5.38352
#
# Compressibility (1/GPa) = 0.04070592
#
# Stress axis : x y z
#
# Youngs Moduli (GPa) = 79.77587 46.96480 65.57373
#
# Poissons Ratio (x) = -0.03293 0.26709
# Poissons Ratio (y) = -0.05594 0.05338
# Poissons Ratio (z) = 0.32494 0.03823
#
# Static dielectric constant tensor:
#      x y z
#    x 1.672860 0.000000 0.000000 
#    y 0.000000 1.761850 0.000000 
#    z 0.000000 0.000000 1.707420 
# 
# From -- ./inp_files/30808.got.cif
#   From: 2010.05.17/outbox.cif.g08.bks.cpg/sg51_16_cif.got.tgz:30808.got - 2010.06.03 11:52:47.
