data_PCOD9407638
_publ_section_title
;
Structure prediction by ZEFSAII (Michael W. Deem and Ramdas Pophale) SiO2 
 PCOD9407638
Probable space group: P M M A
;
_chemical_formula_sum "Si O2"
_cell_formula_units_Z 56
_cell_length_a 15.000000
_cell_length_b 9.000000
_cell_length_c 21.000000
_cell_angle_alpha 90.000000
_cell_angle_beta 90.000000
_cell_angle_gamma 90.000000
_cell_volume 2835.000000
_symmetry_space_group_name_H-M "P M M A"
_symmetry_group_IT_number 51
_symmetry_cell_setting 'orthorhombic'
loop_
_space_group_symop_operation_xyz
x,y,z
1/2-x,-y,z
1/2+x,-y,-z
-x,y,-z
-x,-y,-z
1/2+x,y,-z
1/2-x,y,z
x,-y,z
loop_
_atom_site_type_symbol
_atom_site_label
_atom_site_fract_x
_atom_site_fract_y
_atom_site_fract_z
Si Si1 0.651988 0.175088 0.269922
Si Si2 0.345978 0.669829 0.862534
Si Si3 0.535464 0.324805 0.716784
Si Si4 0.352244 0.822081 0.537697
Si Si5 0.351706 0.177014 0.171747
Si Si6 0.544463 0.177479 0.592354
Si Si7 0.497526 0.167254 0.075084
O O1 0.750000 0.214324 0.297603
O O2 0.656977 0.215704 0.195597
O O3 0.565604 0.265827 0.289305
O O4 0.638411 0.000000 0.280415
O O5 0.250000 0.680246 0.896571
O O6 0.353776 0.500000 0.838365
O O7 0.430891 0.713845 0.902433
O O8 0.536732 0.500000 0.722005
O O9 0.584768 0.253226 0.776744
O O10 0.579859 0.264795 0.652795
O O11 0.250000 0.765497 0.547479
O O12 0.387829 0.799456 0.465950
O O13 0.442075 0.773411 0.575744
O O14 0.347426 0.000000 0.548728
O O15 0.250000 0.230887 0.173398
O O16 0.400822 0.199554 0.104367
O O17 0.350568 0.000000 0.184151
O O18 0.540605 0.000000 0.604275
O O19 0.522209 0.000000 0.098471
O O20 0.500000 0.164050 0.000000
#
# Coordination Sequence:
#
# PCOD9407638 Si02
#       7
#     8   8   8   8   8   8   8
#     4  10  20  35  57  82 108 143 187 234 285 342
#     4  10  20  34  54  82 114 146 179 221 281 347
#     4  12  24  37  56  84 121 158 193 239 291 347
#     4   8  15  31  56  83 110 143 188 241 287 328
#     4  10  22  41  62  83 112 153 199 244 289 340
#     4   9  18  33  55  83 112 146 192 239 282 337
#     4  10  21  37  60  88 115 147 191 242 291 343
#
# _framework density 19.753086
#
# number of rings (size 3 to 8) (size 9 to 14) (size 15 to 20)
#    0.000    2.143    1.429    3.000    0.000    4.000 
#    0.000    5.714    0.000    0.857    0.000    0.000 
#    0.000    0.000    0.000    0.000    0.000    0.000 
#
# Total GULP energy -311973.255102 kJ/mol
# GULP energy per Si atom -5570.950984 kJ/mol
# Density = 1.970813 g / cm^3
# Si number density = 19.753086 Si / 1000 Ang^3
#
#
#
# Elastic Constant Matrix: (Units=GPa)
#
#
# Indices 1 2 3 4 5 6 
#
# 1 99.2756 35.9987 38.3924 0.0000 0.0000 0.0000
# 2 35.9987 36.9378 30.7054 0.0000 0.0000 0.0000
# 3 38.3924 30.7054 84.6100 0.0000 0.0000 0.0000
# 4 0.0000 0.0000 0.0000 66.7687 0.0000 0.0000
# 5 0.0000 0.0000 0.0000 0.0000 -13.2415 0.0000
# 6 0.0000 0.0000 0.0000 0.0000 0.0000 11.7996
#
#
#
# Elastic Compliance Matrix: (Units=1/GPa)
#
#
# Indices 1 2 3 4 5 6 
#
# 1 0.015878 -0.013583 -0.002276 0.000000 0.000000 0.000000
# 2 -0.013583 0.050387 -0.012122 0.000000 0.000000 0.000000
# 3 -0.002276 -0.012122 0.017251 0.000000 0.000000 0.000000
# 4 0.000000 0.000000 0.000000 0.014977 0.000000 0.000000
# 5 0.000000 0.000000 0.000000 0.000000 -0.075520 0.000000
# 6 0.000000 0.000000 0.000000 0.000000 0.000000 0.084749
#
#
# Mechanical properties :
#
#
# Convention : Reuss Voigt Hill
#
# Bulk Modulus (GPa) = 36.29185 47.89071 42.09128
# Shear Modulus (GPa) = 28.92361 20.78048 24.85205
#
# Velocity S-wave (km/s) = 3.83071 3.24699 3.55087
# Velocity P-wave (km/s) = 6.16267 6.19311 6.17791
#
# Compressibility (1/GPa) = 0.02755440
#
# Stress axis : x y z
#
# Youngs Moduli (GPa) = 62.97859 19.84623 57.96846
#
# Poissons Ratio (x) = 0.26957 0.13191
# Poissons Ratio (y) = 0.85545 0.70272
# Poissons Ratio (z) = 0.14331 0.24058
#
# Static dielectric constant tensor:
#      x y z
#    x 1.728430 0.000000 0.000000 
#    y 0.000000 1.670880 0.000000 
#    z 0.000000 0.000000 1.746040 
# 
# From -- ./inp_files/33361.got.cif
#   From: 2010.05.17/outbox.ucp.g08.bks.cvg/sg51_17_cif.got.tgz:33361.got - 2010.06.11 16:27:58.
