data_PCOD9407967
_publ_section_title
;
Structure prediction by ZEFSAII (Michael W. Deem and Ramdas Pophale) SiO2 
 PCOD9407967
Probable space group: P N N A
;
_chemical_formula_sum "Si O2"
_cell_formula_units_Z 44
_cell_length_a 17.259564
_cell_length_b 16.140943
_cell_length_c 8.419892
_cell_angle_alpha 90.000000
_cell_angle_beta 90.000000
_cell_angle_gamma 90.000000
_cell_volume 2345.660991
_symmetry_space_group_name_H-M "P N N A"
_symmetry_group_IT_number 52
_symmetry_cell_setting 'orthorhombic'
loop_
_space_group_symop_operation_xyz
x,y,z
1/2-x,-y,z
x,1/2-y,1/2-z
1/2-x,1/2+y,1/2-z
-x,-y,-z
1/2+x,y,-z
-x,1/2+y,1/2+z
1/2+x,1/2-y,1/2+z
loop_
_atom_site_type_symbol
_atom_site_label
_atom_site_fract_x
_atom_site_fract_y
_atom_site_fract_z
Si Si1 0.106876 0.967240 0.194969
Si Si2 0.632050 0.078373 0.512456
Si Si3 0.969158 0.656656 0.256592
Si Si4 0.755199 0.157757 0.732382
Si Si5 0.750000 0.000000 0.286346
Si Si6 0.668330 0.100297 0.037511
O O1 0.179537 0.911942 0.251251
O O2 0.033602 0.907723 0.185067
O O3 0.095304 0.034058 0.334978
O O4 0.130376 0.016155 0.035280
O O5 0.568155 0.125676 0.409252
O O6 0.700843 0.137307 0.580932
O O7 0.675326 0.010208 0.400311
O O8 0.999495 0.750000 0.250000
O O9 0.897135 0.652641 0.376680
O O10 0.787572 0.250000 0.750000
O O11 0.702111 0.146369 0.887057
O O12 0.765456 0.924087 0.164894
#
# Coordination Sequence:
#
# PCOD9407967 Si02
#       6
#     8   8   8   8   4   8
#     4  11  20  38  57  85 109 151 191 225 275 336
#     4  10  20  36  59  81 108 150 191 224 272 343
#     4  11  23  36  55  84 117 145 180 234 289 323
#     4  11  20  35  59  84 114 143 187 239 281 323
#     4  10  16  34  58  82 104 132 196 234 258 324
#     4  10  20  36  59  81 108 150 191 224 272 343
#
# _framework density 18.758039
#
# number of rings (size 3 to 8) (size 9 to 14) (size 15 to 20)
#    0.000    1.455    3.636    3.818    0.000    0.000 
#    0.000    0.000    0.000    0.000    0.000    0.000 
#    0.000    0.000    0.000    0.000    0.000    0.000 
#
# Total GULP energy -245334.725830 kJ/mol
# GULP energy per Si atom -5575.789223 kJ/mol
# Density = 1.871534 g / cm^3
# Si number density = 18.758039 Si / 1000 Ang^3
#
#
#
# Elastic Constant Matrix: (Units=GPa)
#
#
# Indices 1 2 3 4 5 6 
#
# 1 28.0316 0.0579 0.7645 0.0000 0.0000 0.0000
# 2 0.0579 62.7266 2.6106 0.0000 0.0000 0.0000
# 3 0.7645 2.6106 71.4390 0.0000 0.0000 0.0000
# 4 0.0000 0.0000 0.0000 10.3564 0.0000 0.0000
# 5 0.0000 0.0000 0.0000 0.0000 18.1964 0.0000
# 6 0.0000 0.0000 0.0000 0.0000 0.0000 19.0796
#
#
#
# Elastic Compliance Matrix: (Units=1/GPa)
#
#
# Indices 1 2 3 4 5 6 
#
# 1 0.035684 -0.000017 -0.000381 0.000000 0.000000 0.000000
# 2 -0.000017 0.015966 -0.000583 0.000000 0.000000 0.000000
# 3 -0.000381 -0.000583 0.014023 0.000000 0.000000 0.000000
# 4 0.000000 0.000000 0.000000 0.096558 0.000000 0.000000
# 5 0.000000 0.000000 0.000000 0.000000 0.054956 0.000000
# 6 0.000000 0.000000 0.000000 0.000000 0.000000 0.052412
#
#
# Mechanical properties :
#
#
# Convention : Reuss Voigt Hill
#
# Bulk Modulus (GPa) = 15.69586 18.78479 17.24033
# Shear Modulus (GPa) = 17.07646 20.11077 18.59362
#
# Velocity S-wave (km/s) = 3.02048 3.27787 3.15180
# Velocity P-wave (km/s) = 4.53322 4.93578 4.73878
#
# Compressibility (1/GPa) = 0.06371107
#
# Stress axis : x y z
#
# Youngs Moduli (GPa) = 28.02343 62.63117 71.30963
#
# Poissons Ratio (x) = 0.00107 0.02719
# Poissons Ratio (y) = 0.00048 0.04159
# Poissons Ratio (z) = 0.01068 0.03653
#
# Static dielectric constant tensor:
#      x y z
#    x 1.641260 0.000000 0.000000 
#    y 0.000000 1.691080 0.000000 
#    z 0.000000 0.000000 1.654780 
# 
# From -- ./inp_files/10323.got.cif
#   From: 2010.05.17/outbox.cif.g08.bks.cpg/sg52_6_cif.got.tgz:10323.got - 2010.06.03 12:15:38.
