data_PCOD9407013
_publ_section_title
;
Structure prediction by ZEFSAII (Michael W. Deem and Ramdas Pophale) SiO2 
 PCOD9407013
Probable space group: P M M A
;
_chemical_formula_sum "Si O2"
_cell_formula_units_Z 56
_cell_length_a 8.906642
_cell_length_b 20.852770
_cell_length_c 15.828262
_cell_angle_alpha 90.000000
_cell_angle_beta 90.000000
_cell_angle_gamma 90.000000
_cell_volume 2939.753931
_symmetry_space_group_name_H-M "P M M A"
_symmetry_group_IT_number 51
_symmetry_cell_setting 'orthorhombic'
loop_
_space_group_symop_operation_xyz
x,y,z
1/2-x,-y,z
1/2+x,-y,-z
-x,y,-z
-x,-y,-z
1/2+x,y,-z
1/2-x,y,z
x,-y,z
loop_
_atom_site_type_symbol
_atom_site_label
_atom_site_fract_x
_atom_site_fract_y
_atom_site_fract_z
Si Si1 0.927257 0.399547 0.585805
Si Si2 0.933205 0.569871 0.774597
Si Si3 0.423402 0.253134 0.368237
Si Si4 0.932908 0.927944 0.232041
Si Si5 0.570430 0.172609 0.089002
Si Si6 0.927248 0.291757 0.827907
Si Si7 0.927756 0.877117 0.413140
O O1 0.750000 0.412395 0.582381
O O2 0.982554 0.425140 0.676405
O O3 0.948769 0.322665 0.591369
O O4 0.000000 0.423831 0.500000
O O5 0.750000 0.572892 0.772753
O O6 0.977029 0.500000 0.808509
O O7 0.980334 0.634254 0.823213
O O8 0.250000 0.234164 0.384380
O O9 0.441084 0.264777 0.267881
O O10 0.530703 0.197754 0.401038
O O11 0.750000 0.926224 0.233149
O O12 0.981115 0.875231 0.163837
O O13 0.982686 0.910734 0.326995
O O14 0.979213 0.000000 0.209366
O O15 0.750000 0.170426 0.084377
O O16 0.516981 0.244069 0.112542
O O17 0.500000 0.153301 0.000000
O O18 0.750000 0.290506 0.849553
O O19 0.750000 0.885001 0.418385
O O20 0.000000 0.900608 0.500000
#
# Coordination Sequence:
#
# PCOD9407013 Si02
#       7
#     8   8   8   8   8   8   8
#     4   9  17  27  40  63  95 134 177 224 272 318
#     4   8  15  29  49  72 100 139 182 220 268 326
#     4   9  17  30  48  71 102 138 179 227 275 321
#     4   9  20  39  59  80 112 150 184 222 272 327
#     4  11  22  38  62  90 115 143 178 220 273 331
#     4   9  17  32  56  82 109 140 178 226 273 321
#     4  11  21  33  52  78 107 145 189 230 273 319
#
# _framework density 19.049213000000002
#
# number of rings (size 3 to 8) (size 9 to 14) (size 15 to 20)
#    0.000    2.571    1.429    3.000    0.000    2.571 
#    0.000    2.143    0.000    7.714    0.000    0.000 
#    0.000    0.000    0.000    0.000    0.000    0.000 
#
# Total GULP energy -312355.488191 kJ/mol
# GULP energy per Si atom -5577.776575 kJ/mol
# Density = 1.900586 g / cm^3
# Si number density = 19.049213 Si / 1000 Ang^3
#
#
#
# Elastic Constant Matrix: (Units=GPa)
#
#
# Indices 1 2 3 4 5 6 
#
# 1 19.6318 20.9248 28.1100 0.0000 0.0000 0.0000
# 2 20.9248 110.2296 49.1156 0.0000 0.0000 0.0000
# 3 28.1100 49.1156 95.0929 0.0000 0.0000 0.0000
# 4 0.0000 0.0000 0.0000 -17.9720 0.0000 0.0000
# 5 0.0000 0.0000 0.0000 0.0000 27.4126 0.0000
# 6 0.0000 0.0000 0.0000 0.0000 0.0000 8.3997
#
#
#
# Elastic Compliance Matrix: (Units=1/GPa)
#
#
# Indices 1 2 3 4 5 6 
#
# 1 0.092261 -0.006965 -0.023676 0.000000 0.000000 0.000000
# 2 -0.006965 0.012310 -0.004299 0.000000 0.000000 0.000000
# 3 -0.023676 -0.004299 0.019735 0.000000 0.000000 0.000000
# 4 0.000000 0.000000 0.000000 -0.055642 0.000000 0.000000
# 5 0.000000 0.000000 0.000000 0.000000 0.036480 0.000000
# 6 0.000000 0.000000 0.000000 0.000000 0.000000 0.119052
#
#
# Mechanical properties :
#
#
# Convention : Reuss Voigt Hill
#
# Bulk Modulus (GPa) = 18.37320 46.80612 32.58966
# Shear Modulus (GPa) = 16.01449 12.02163 14.01806
#
# Velocity S-wave (km/s) = 2.90261 2.51486 2.71567
# Velocity P-wave (km/s) = 4.57161 5.74954 5.19407
#
# Compressibility (1/GPa) = 0.05442710
#
# Stress axis : x y z
#
# Youngs Moduli (GPa) = 10.83881 81.23693 50.67083
#
# Poissons Ratio (x) = 0.56578 1.19966
# Poissons Ratio (y) = 0.07549 0.21784
# Poissons Ratio (z) = 0.25662 0.34925
#
# Static dielectric constant tensor:
#      x y z
#    x 1.644440 0.000000 0.000000 
#    y 0.000000 1.678780 0.000000 
#    z 0.000000 0.000000 1.664550 
# 
# From -- ./inp_files/28250.got.cif
#   From: 2010.05.17/outbox.cif.g08.bks.cpg/sg51_15_cif.got.tgz:28250.got - 2010.06.03 11:52:47.
