data_PCOD9407460
_publ_section_title
;
Structure prediction by ZEFSAII (Michael W. Deem and Ramdas Pophale) SiO2 
 PCOD9407460
Probable space group: P M M A
;
_chemical_formula_sum "Si O2"
_cell_formula_units_Z 64
_cell_length_a 24.000000
_cell_length_b 9.000000
_cell_length_c 15.000000
_cell_angle_alpha 90.000000
_cell_angle_beta 90.000000
_cell_angle_gamma 90.000000
_cell_volume 3240.000000
_symmetry_space_group_name_H-M "P M M A"
_symmetry_group_IT_number 51
_symmetry_cell_setting 'orthorhombic'
loop_
_space_group_symop_operation_xyz
x,y,z
1/2-x,-y,z
1/2+x,-y,-z
-x,y,-z
-x,-y,-z
1/2+x,y,-z
1/2-x,y,z
x,-y,z
loop_
_atom_site_type_symbol
_atom_site_label
_atom_site_fract_x
_atom_site_fract_y
_atom_site_fract_z
Si Si1 0.686401 0.670162 0.336374
Si Si2 0.187876 0.177919 0.361926
Si Si3 0.317244 0.164262 0.036694
Si Si4 0.076375 0.173176 0.641696
Si Si5 0.371065 0.675051 0.193903
Si Si6 0.074431 0.821531 0.444610
Si Si7 0.815958 0.659059 0.123690
Si Si8 0.982383 0.324247 0.725935
O O1 0.750000 0.703399 0.361333
O O2 0.673525 0.500000 0.364652
O O3 0.640801 0.786930 0.364177
O O4 0.681522 0.673455 0.229023
O O5 0.250000 0.232457 0.382406
O O6 0.164926 0.243970 0.269807
O O7 0.140422 0.210608 0.434098
O O8 0.189940 0.000000 0.352699
O O9 0.250000 0.166637 0.045167
O O10 0.344068 0.283863 0.100950
O O11 0.335932 0.000000 0.062653
O O12 0.335008 0.205164 0.936347
O O13 0.055143 0.217087 0.543379
O O14 0.043549 0.255054 0.720194
O O15 0.067526 0.000000 0.652378
O O16 0.368810 0.500000 0.211248
O O17 0.436126 0.721135 0.201459
O O18 0.046291 0.732207 0.365233
O O19 0.066276 0.000000 0.431644
O O20 0.750000 0.649847 0.104073
O O21 0.841690 0.500000 0.097890
O O22 0.988206 0.500000 0.727330
#
# Coordination Sequence:
#
# PCOD9407460 Si02
#       8
#     8   8   8   8   8   8   8   8
#     4   9  19  36  56  78 105 135 165 200 245 294
#     4   9  17  30  47  66  94 132 166 198 242 293
#     4  10  19  29  46  75 106 134 164 198 240 291
#     4  11  22  34  53  78 101 129 165 206 252 301
#     4  10  20  32  47  69  97 130 167 206 246 288
#     4   9  19  34  50  71  99 130 167 210 253 297
#     4   8  15  30  51  73  99 132 166 199 238 285
#     4  10  21  36  53  72  96 129 170 213 254 295
#
# _framework density 19.753086
#
# number of rings (size 3 to 8) (size 9 to 14) (size 15 to 20)
#    0.000    2.500    0.000    3.000    0.000    7.750 
#    0.000    2.500    0.000    0.750    0.000    5.250 
#    0.000    0.000    0.000    0.000    0.000    0.000 
#
# Total GULP energy -356330.586739 kJ/mol
# GULP energy per Si atom -5567.665418 kJ/mol
# Density = 1.970813 g / cm^3
# Si number density = 19.753086 Si / 1000 Ang^3
#
#
#
# Elastic Constant Matrix: (Units=GPa)
#
#
# Indices 1 2 3 4 5 6 
#
# 1 42.7709 -4.3546 -10.4036 0.0000 0.0000 0.0000
# 2 -4.3546 -24.0608 0.2457 0.0000 0.0000 0.0000
# 3 -10.4036 0.2457 10.0110 0.0000 0.0000 0.0000
# 4 0.0000 0.0000 0.0000 14.5912 0.0000 0.0000
# 5 0.0000 0.0000 0.0000 0.0000 15.3189 0.0000
# 6 0.0000 0.0000 0.0000 0.0000 0.0000 30.2708
#
#
#
# Elastic Compliance Matrix: (Units=1/GPa)
#
#
# Indices 1 2 3 4 5 6 
#
# 1 0.030621 -0.005216 0.031950 0.000000 0.000000 0.000000
# 2 -0.005216 -0.040663 -0.004422 0.000000 0.000000 0.000000
# 3 0.031950 -0.004422 0.133202 0.000000 0.000000 0.000000
# 4 0.000000 0.000000 0.000000 0.068535 0.000000 0.000000
# 5 0.000000 0.000000 0.000000 0.000000 0.065279 0.000000
# 6 0.000000 0.000000 0.000000 0.000000 0.000000 0.033035
#
#
# Mechanical properties :
#
#
# Convention : Reuss Voigt Hill
#
# Bulk Modulus (GPa) = 5.96003 -0.03374 2.96314
# Shear Modulus (GPa) = 16.59409 14.91840 15.75625
#
# Velocity S-wave (km/s) = 2.90155 2.75115 2.82735
# Velocity P-wave (km/s) = 3.77480 3.17406 3.48739
#
# Compressibility (1/GPa) = 0.16778428
#
# Stress axis : x y z
#
# Youngs Moduli (GPa) = 32.65753 -24.59258 7.50741
#
# Poissons Ratio (x) = -0.12826 -0.23986
# Poissons Ratio (y) = 0.17033 0.03320
# Poissons Ratio (z) = -1.04340 -0.10875
#
# Static dielectric constant tensor:
#      x y z
#    x 1.770330 0.000000 0.000000 
#    y 0.000000 1.696450 0.000000 
#    z 0.000000 0.000000 1.712120 
# 
# From -- ./inp_files/26171.got.cif
#   From: 2010.05.17/outbox.ucp.g08.bks.cvg/sg51_14_cif.got.tgz:26171.got - 2010.06.11 16:27:58.
