data_PCOD9407336
_publ_section_title
;
Structure prediction by ZEFSAII (Michael W. Deem and Ramdas Pophale) SiO2 
 PCOD9407336
Probable space group: P M M A
;
_chemical_formula_sum "Si O2"
_cell_formula_units_Z 44
_cell_length_a 7.350795
_cell_length_b 14.398357
_cell_length_c 19.654485
_cell_angle_alpha 90.000000
_cell_angle_beta 90.000000
_cell_angle_gamma 90.000000
_cell_volume 2080.218323
_symmetry_space_group_name_H-M "P M M A"
_symmetry_group_IT_number 51
_symmetry_cell_setting 'orthorhombic'
loop_
_space_group_symop_operation_xyz
x,y,z
1/2-x,-y,z
1/2+x,-y,-z
-x,y,-z
-x,-y,-z
1/2+x,y,-z
1/2-x,y,z
x,-y,z
loop_
_atom_site_type_symbol
_atom_site_label
_atom_site_fract_x
_atom_site_fract_y
_atom_site_fract_z
Si Si1 0.966220 0.500000 0.580976
Si Si2 0.967716 0.295301 0.579821
Si Si3 0.529207 0.212743 0.712498
Si Si4 0.527791 0.103711 0.842247
Si Si5 0.966411 0.285411 0.920978
Si Si6 0.028614 0.397122 0.206247
O O1 0.750000 0.500000 0.596217
O O2 0.037014 0.398420 0.601111
O O3 0.000000 0.500000 0.500000
O O4 0.750000 0.300568 0.586253
O O5 0.031453 0.219132 0.634294
O O6 0.000000 0.278334 0.500000
O O7 0.750000 0.207608 0.712710
O O8 0.470826 0.134621 0.766063
O O9 0.477071 0.311546 0.745927
O O10 0.750000 0.103181 0.843466
O O11 0.466961 0.185492 0.893175
O O12 0.467383 0.000000 0.859272
O O13 0.750000 0.282759 0.912074
O O14 0.029576 0.365786 0.869546
O O15 0.000000 0.300320 0.000000
O O16 0.250000 0.399936 0.208431
O O17 0.965261 0.500000 0.224829
#
# Coordination Sequence:
#
# PCOD9407336 Si02
#       6
#     4   8   8   8   8   8
#     4   8  14  22  32  50  76 102 125 152 188 228
#     4   9  16  25  38  58  82 106 133 164 200 239
#     4   8  14  23  38  59  79 103 138 172 200 236
#     4   8  14  26  43  62  83 104 130 169 209 238
#     4   9  17  28  42  63  86 107 133 164 199 241
#     4   8  14  24  39  59  82 107 137 171 201 228
#
# _framework density 21.151627000000001
#
# number of rings (size 3 to 8) (size 9 to 14) (size 15 to 20)
#    0.000    3.636    0.000    2.182    1.273    0.727 
#    0.000    0.000    0.000    4.909    0.000    0.000 
#    0.000    0.000    0.000    0.000    0.000    0.000 
#
# Total GULP energy -245102.586659 kJ/mol
# GULP energy per Si atom -5570.513333 kJ/mol
# Density = 2.110348 g / cm^3
# Si number density = 21.151627 Si / 1000 Ang^3
#
#
#
# Elastic Constant Matrix: (Units=GPa)
#
#
# Indices 1 2 3 4 5 6 
#
# 1 75.7510 -1.7717 -9.5403 0.0000 0.0000 0.0000
# 2 -1.7717 36.7275 -23.0088 0.0000 0.0000 0.0000
# 3 -9.5403 -23.0088 70.9687 0.0000 0.0000 0.0000
# 4 0.0000 0.0000 0.0000 18.5225 0.0000 0.0000
# 5 0.0000 0.0000 0.0000 0.0000 10.0017 0.0000
# 6 0.0000 0.0000 0.0000 0.0000 0.0000 6.7801
#
#
#
# Elastic Compliance Matrix: (Units=1/GPa)
#
#
# Indices 1 2 3 4 5 6 
#
# 1 0.013576 0.002257 0.002557 0.000000 0.000000 0.000000
# 2 0.002257 0.034542 0.011502 0.000000 0.000000 0.000000
# 3 0.002557 0.011502 0.018164 0.000000 0.000000 0.000000
# 4 0.000000 0.000000 0.000000 0.053988 0.000000 0.000000
# 5 0.000000 0.000000 0.000000 0.000000 0.099983 0.000000
# 6 0.000000 0.000000 0.000000 0.000000 0.000000 0.147490
#
#
# Mechanical properties :
#
#
# Convention : Reuss Voigt Hill
#
# Bulk Modulus (GPa) = 10.10994 12.75618 11.43306
# Shear Modulus (GPa) = 13.58386 21.57872 17.58129
#
# Velocity S-wave (km/s) = 2.53694 3.19751 2.88619
# Velocity P-wave (km/s) = 3.65671 4.43576 4.06495
#
# Compressibility (1/GPa) = 0.09891258
#
# Stress axis : x y z
#
# Youngs Moduli (GPa) = 73.65990 28.95005 55.05525
#
# Poissons Ratio (x) = -0.06533 -0.14075
# Poissons Ratio (y) = -0.16622 -0.63326
# Poissons Ratio (z) = -0.18832 -0.33299
#
# Static dielectric constant tensor:
#      x y z
#    x 1.837100 0.000000 0.000000 
#    y 0.000000 1.743960 0.000000 
#    z 0.000000 0.000000 1.786710 
# 
# From -- ./inp_files/23170.got.cif
#   From: 2010.05.17/outbox.cif.g08.bks.cpg/sg51_12_cif.got.tgz:23170.got - 2010.06.03 11:52:47.
