data_PCOD9407553
_publ_section_title
;
Structure prediction by ZEFSAII (Michael W. Deem and Ramdas Pophale) SiO2 
 PCOD9407553
Probable space group: P M M A
;
_chemical_formula_sum "Si O2"
_cell_formula_units_Z 48
_cell_length_a 9.000000
_cell_length_b 18.000000
_cell_length_c 15.000000
_cell_angle_alpha 90.000000
_cell_angle_beta 90.000000
_cell_angle_gamma 90.000000
_cell_volume 2430.000000
_symmetry_space_group_name_H-M "P M M A"
_symmetry_group_IT_number 51
_symmetry_cell_setting 'orthorhombic'
loop_
_space_group_symop_operation_xyz
x,y,z
1/2-x,-y,z
1/2+x,-y,-z
-x,y,-z
-x,-y,-z
1/2+x,y,-z
1/2-x,y,z
x,-y,z
loop_
_atom_site_type_symbol
_atom_site_label
_atom_site_fract_x
_atom_site_fract_y
_atom_site_fract_z
Si Si1 0.424770 0.919038 0.235826
Si Si2 0.571959 0.200351 0.908059
Si Si3 0.930650 0.578884 0.718162
Si Si4 0.928086 0.626051 0.908739
Si Si5 0.073398 0.873293 0.590810
Si Si6 0.070181 0.711352 0.408037
O O1 0.250000 0.907432 0.259022
O O2 0.473751 0.852622 0.172100
O O3 0.522025 0.918352 0.324004
O O4 0.435523 0.000000 0.191457
O O5 0.750000 0.196124 0.914630
O O6 0.533237 0.286802 0.895170
O O7 0.500000 0.175226 0.000000
O O8 0.750000 0.579594 0.717361
O O9 0.979637 0.500000 0.678737
O O10 0.977407 0.584288 0.820499
O O11 0.974134 0.652611 0.666707
O O12 0.750000 0.620669 0.915942
O O13 0.000000 0.599980 0.000000
O O14 0.250000 0.868780 0.581420
O O15 0.000000 0.902250 0.500000
O O16 0.001925 0.791684 0.605916
O O17 0.250000 0.717820 0.412368
O O18 0.000000 0.683296 0.500000
#
# Coordination Sequence:
#
# PCOD9407553 Si02
#       6
#     8   8   8   8   8   8
#     4  10  21  37  56  79 109 143 177 215 262 315
#     4   9  18  33  53  77 104 138 178 219 262 307
#     4   9  18  32  51  75 104 140 176 210 256 314
#     4   9  17  31  51  73  99 132 173 216 255 301
#     4  11  22  37  58  81 106 137 176 220 264 313
#     4  10  19  34  56  79 104 135 174 217 260 309
#
# _framework density 19.753086
#
# number of rings (size 3 to 8) (size 9 to 14) (size 15 to 20)
#    0.000    2.333    0.000    4.000    0.000    5.000 
#    0.000    5.000    0.000    3.500    0.000    0.000 
#    0.000    0.000    0.000    0.000    0.000    0.000 
#
# Total GULP energy -267713.023333 kJ/mol
# GULP energy per Si atom -5577.354653 kJ/mol
# Density = 1.970813 g / cm^3
# Si number density = 19.753086 Si / 1000 Ang^3
#
#
#
# Elastic Constant Matrix: (Units=GPa)
#
#
# Indices 1 2 3 4 5 6 
#
# 1 50.2516 21.5295 21.7330 0.0000 0.0000 0.0000
# 2 21.5295 56.1646 47.5171 0.0000 0.0000 0.0000
# 3 21.7330 47.5171 85.0736 0.0000 0.0000 0.0000
# 4 0.0000 0.0000 0.0000 124.1932 0.0000 0.0000
# 5 0.0000 0.0000 0.0000 0.0000 30.5526 0.0000
# 6 0.0000 0.0000 0.0000 0.0000 0.0000 43.3798
#
#
#
# Elastic Compliance Matrix: (Units=1/GPa)
#
#
# Indices 1 2 3 4 5 6 
#
# 1 0.023968 -0.007598 -0.001879 0.000000 0.000000 0.000000
# 2 -0.007598 0.036164 -0.018258 0.000000 0.000000 0.000000
# 3 -0.001879 -0.018258 0.022433 0.000000 0.000000 0.000000
# 4 0.000000 0.000000 0.000000 0.008052 0.000000 0.000000
# 5 0.000000 0.000000 0.000000 0.000000 0.032730 0.000000
# 6 0.000000 0.000000 0.000000 0.000000 0.000000 0.023052
#
#
# Mechanical properties :
#
#
# Convention : Reuss Voigt Hill
#
# Bulk Modulus (GPa) = 36.90819 41.44988 39.17904
# Shear Modulus (GPa) = 23.70780 46.33914 35.02347
#
# Velocity S-wave (km/s) = 3.46816 4.84872 4.21534
# Velocity P-wave (km/s) = 5.89600 7.23715 6.60073
#
# Compressibility (1/GPa) = 0.02709426
#
# Stress axis : x y z
#
# Youngs Moduli (GPa) = 41.72286 27.65156 44.57793
#
# Poissons Ratio (x) = 0.21008 0.08377
# Poissons Ratio (y) = 0.31699 0.81392
# Poissons Ratio (z) = 0.07841 0.50487
#
# Static dielectric constant tensor:
#      x y z
#    x 1.657770 0.000000 0.000000 
#    y 0.000000 1.719850 0.000000 
#    z 0.000000 0.000000 1.710510 
# 
# From -- ./inp_files/21127.got.cif
#   From: 2010.05.17/outbox.ucp.g08.bks.cvg/sg51_11_cif.got.tgz:21127.got - 2010.06.11 16:27:58.
