data_PCOD9407359
_publ_section_title
;
Structure prediction by ZEFSAII (Michael W. Deem and Ramdas Pophale) SiO2 
 PCOD9407359
Probable space group: P M M A
;
_chemical_formula_sum "Si O2"
_cell_formula_units_Z 40
_cell_length_a 7.481083
_cell_length_b 19.672896
_cell_length_c 14.062200
_cell_angle_alpha 90.000000
_cell_angle_beta 90.000000
_cell_angle_gamma 90.000000
_cell_volume 2069.598208
_symmetry_space_group_name_H-M "P M M A"
_symmetry_group_IT_number 51
_symmetry_cell_setting 'orthorhombic'
loop_
_space_group_symop_operation_xyz
x,y,z
1/2-x,-y,z
1/2+x,-y,-z
-x,y,-z
-x,-y,-z
1/2+x,y,-z
1/2-x,y,z
x,-y,z
loop_
_atom_site_type_symbol
_atom_site_label
_atom_site_fract_x
_atom_site_fract_y
_atom_site_fract_z
Si Si1 0.962944 0.148724 0.108213
Si Si2 0.036908 0.212914 0.607831
Si Si3 0.968868 0.713439 0.204078
Si Si4 0.535814 0.424690 0.111816
Si Si5 0.968535 0.924306 0.297986
O O1 0.750000 0.150664 0.118171
O O2 0.026352 0.224959 0.134450
O O3 0.025090 0.098096 0.191389
O O4 0.000000 0.129733 0.000000
O O5 0.250000 0.210516 0.618668
O O6 0.973543 0.263760 0.690429
O O7 0.971646 0.136785 0.633279
O O8 0.000000 0.232210 0.500000
O O9 0.750000 0.711795 0.202250
O O10 0.032486 0.640090 0.169771
O O11 0.750000 0.426321 0.123954
O O12 0.466949 0.500000 0.137736
O O13 0.500000 0.414303 0.000000
O O14 0.750000 0.925474 0.299678
O O15 0.029772 0.000000 0.321919
#
# Coordination Sequence:
#
# PCOD9407359 Si02
#       5
#     8   8   8   8   8
#     4   9  16  26  41  59  80 108 138 165 194 233
#     4   9  17  30  47  63  79 102 134 171 207 243
#     4   8  15  28  43  59  82 111 138 162 196 245
#     4   9  16  26  42  64  88 113 139 165 194 231
#     4   8  15  28  43  58  79 108 136 160 197 250
#
# _framework density 19.327423
#
# number of rings (size 3 to 8) (size 9 to 14) (size 15 to 20)
#    0.000    3.400    0.000    3.000    0.000    0.800 
#    0.000    5.000    0.000    1.800    0.000    0.000 
#    0.000    0.000    0.000    0.000    0.000    0.000 
#
# Total GULP energy -222936.396021 kJ/mol
# GULP energy per Si atom -5573.409901 kJ/mol
# Density = 1.928343 g / cm^3
# Si number density = 19.327423 Si / 1000 Ang^3
#
#
#
# Elastic Constant Matrix: (Units=GPa)
#
#
# Indices 1 2 3 4 5 6 
#
# 1 51.0081 6.6807 -6.0849 0.0000 0.0000 0.0000
# 2 6.6807 131.6517 26.4474 0.0000 0.0000 0.0000
# 3 -6.0849 26.4474 66.0315 0.0000 0.0000 0.0000
# 4 0.0000 0.0000 0.0000 13.9596 0.0000 0.0000
# 5 0.0000 0.0000 0.0000 0.0000 21.1433 0.0000
# 6 0.0000 0.0000 0.0000 0.0000 0.0000 2.2983
#
#
#
# Elastic Compliance Matrix: (Units=1/GPa)
#
#
# Indices 1 2 3 4 5 6 
#
# 1 0.020096 -0.001514 0.002458 0.000000 0.000000 0.000000
# 2 -0.001514 0.008374 -0.003494 0.000000 0.000000 0.000000
# 3 0.002458 -0.003494 0.016770 0.000000 0.000000 0.000000
# 4 0.000000 0.000000 0.000000 0.071635 0.000000 0.000000
# 5 0.000000 0.000000 0.000000 0.000000 0.047296 0.000000
# 6 0.000000 0.000000 0.000000 0.000000 0.000000 0.435105
#
#
# Mechanical properties :
#
#
# Convention : Reuss Voigt Hill
#
# Bulk Modulus (GPa) = 24.91124 33.64196 29.27660
# Shear Modulus (GPa) = 8.09381 22.25679 15.17530
#
# Velocity S-wave (km/s) = 2.04861 3.39715 2.80513
# Velocity P-wave (km/s) = 4.30265 5.72989 5.06678
#
# Compressibility (1/GPa) = 0.04014252
#
# Stress axis : x y z
#
# Youngs Moduli (GPa) = 49.76062 119.41082 59.62986
#
# Poissons Ratio (x) = 0.18074 -0.14658
# Poissons Ratio (y) = 0.07532 0.20833
# Poissons Ratio (z) = -0.12232 0.41718
#
# Static dielectric constant tensor:
#      x y z
#    x 1.737540 0.000000 0.000000 
#    y 0.000000 1.684200 0.000000 
#    z 0.000000 0.000000 1.663320 
# 
# From -- ./inp_files/6964.got.cif
#   From: 2010.05.17/outbox.cif.g08.bks.cpg/sg51_4_cif.got.tgz:6964.got - 2010.06.03 11:52:47.
