data_PCOD9407023
_publ_section_title
;
Structure prediction by ZEFSAII (Michael W. Deem and Ramdas Pophale) SiO2 
 PCOD9407023
Probable space group: P M M A
;
_chemical_formula_sum "Si O2"
_cell_formula_units_Z 64
_cell_length_a 20.439978
_cell_length_b 8.734705
_cell_length_c 19.354811
_cell_angle_alpha 90.000000
_cell_angle_beta 90.000000
_cell_angle_gamma 90.000000
_cell_volume 3455.553337
_symmetry_space_group_name_H-M "P M M A"
_symmetry_group_IT_number 51
_symmetry_cell_setting 'orthorhombic'
loop_
_space_group_symop_operation_xyz
x,y,z
1/2-x,-y,z
1/2+x,-y,-z
-x,y,-z
-x,-y,-z
1/2+x,y,-z
1/2-x,y,z
x,-y,z
loop_
_atom_site_type_symbol
_atom_site_label
_atom_site_fract_x
_atom_site_fract_y
_atom_site_fract_z
Si Si1 0.320411 0.181052 0.587652
Si Si2 0.545058 0.182676 0.707957
Si Si3 0.049017 0.321630 0.820063
Si Si4 0.965164 0.812973 0.429063
Si Si5 0.179341 0.676059 0.733777
Si Si6 0.071751 0.826128 0.966928
Si Si7 0.825154 0.684681 0.764967
Si Si8 0.174051 0.684376 0.074428
O O1 0.250000 0.244529 0.562658
O O2 0.390458 0.244145 0.565185
O O3 0.321817 0.209818 0.669739
O O4 0.320036 0.000000 0.572852
O O5 0.504690 0.230191 0.776278
O O6 0.504195 0.237096 0.640061
O O7 0.617957 0.249205 0.716757
O O8 0.549258 0.000000 0.703912
O O9 0.030265 0.500000 0.818217
O O10 0.117860 0.300166 0.781520
O O11 0.061988 0.269478 0.897509
O O12 0.000000 0.770730 0.500000
O O13 0.962969 0.000000 0.425158
O O14 0.250000 0.691393 0.769573
O O15 0.175747 0.500000 0.707211
O O16 0.123642 0.757797 0.021016
O O17 0.091265 0.000000 0.949569
O O18 0.000000 0.829264 0.000000
O O19 0.750000 0.730889 0.748437
O O20 0.827458 0.500000 0.762291
O O21 0.838239 0.729064 0.845383
O O22 0.250000 0.723055 0.058821
O O23 0.168049 0.500000 0.070813
#
# Coordination Sequence:
#
# PCOD9407023 Si02
#       8
#     8   8   8   8   8   8   8   8
#     4   9  16  29  52  77 101 136 180 218 255 307
#     4  11  21  34  55  82 111 140 178 230 279 326
#     4  11  22  35  54  77 105 143 184 224 273 331
#     4   9  18  33  52  78 113 147 179 223 278 329
#     4   9  18  32  50  74 103 133 168 213 261 307
#     4  11  24  38  52  76 109 142 180 228 279 326
#     4   9  19  37  60  83 108 142 182 223 271 330
#     4   9  19  37  59  80 104 140 185 226 269 328
#
# _framework density 18.520911999999999
#
# number of rings (size 3 to 8) (size 9 to 14) (size 15 to 20)
#    0.000    2.250    1.250    2.625    0.000    5.000 
#    0.000    3.125    0.000    5.625    0.000    1.750 
#    0.000    0.000    0.000    0.000    0.000    0.000 
#
# Total GULP energy -356721.581869 kJ/mol
# GULP energy per Si atom -5573.774717 kJ/mol
# Density = 1.847876 g / cm^3
# Si number density = 18.520912 Si / 1000 Ang^3
#
#
#
# Elastic Constant Matrix: (Units=GPa)
#
#
# Indices 1 2 3 4 5 6 
#
# 1 155.5621 30.4049 63.3465 0.0000 0.0000 0.0000
# 2 30.4049 13.7075 7.8468 0.0000 0.0000 0.0000
# 3 63.3465 7.8468 59.3433 0.0000 0.0000 0.0000
# 4 0.0000 0.0000 0.0000 6.1333 0.0000 0.0000
# 5 0.0000 0.0000 0.0000 0.0000 11.5954 0.0000
# 6 0.0000 0.0000 0.0000 0.0000 0.0000 22.6963
#
#
#
# Elastic Compliance Matrix: (Units=1/GPa)
#
#
# Indices 1 2 3 4 5 6 
#
# 1 0.020144 -0.035024 -0.016872 0.000000 0.000000 0.000000
# 2 -0.035024 0.139822 0.018898 0.000000 0.000000 0.000000
# 3 -0.016872 0.018898 0.032362 0.000000 0.000000 0.000000
# 4 0.000000 0.000000 0.000000 0.163045 0.000000 0.000000
# 5 0.000000 0.000000 0.000000 0.000000 0.086241 0.000000
# 6 0.000000 0.000000 0.000000 0.000000 0.000000 0.044060
#
#
# Mechanical properties :
#
#
# Convention : Reuss Voigt Hill
#
# Bulk Modulus (GPa) = 7.91559 47.97880 27.94719
# Shear Modulus (GPa) = 8.42062 16.55265 12.48664
#
# Velocity S-wave (km/s) = 2.13458 2.99277 2.59934
# Velocity P-wave (km/s) = 3.21844 6.15660 4.91233
#
# Compressibility (1/GPa) = 0.12633303
#
# Stress axis : x y z
#
# Youngs Moduli (GPa) = 49.64189 7.15197 30.90004
#
# Poissons Ratio (x) = 0.25049 0.52135
# Poissons Ratio (y) = 1.73866 -0.58396
# Poissons Ratio (z) = 0.83756 -0.13516
#
# Static dielectric constant tensor:
#      x y z
#    x 1.679710 0.000000 0.000000 
#    y 0.000000 1.643760 0.000000 
#    z 0.000000 0.000000 1.555900 
# 
# From -- ./inp_files/30666.got.cif
#   From: 2010.05.17/outbox.cif.g08.bks.cpg/sg51_16_cif.got.tgz:30666.got - 2010.06.03 11:52:47.
