data_PCOD9407715
_publ_section_title
;
Structure prediction by ZEFSAII (Michael W. Deem and Ramdas Pophale) SiO2 
 PCOD9407715
Probable space group: P M M A
;
_chemical_formula_sum "Si O2"
_cell_formula_units_Z 48
_cell_length_a 9.000000
_cell_length_b 30.000000
_cell_length_c 9.000000
_cell_angle_alpha 90.000000
_cell_angle_beta 90.000000
_cell_angle_gamma 90.000000
_cell_volume 2430.000000
_symmetry_space_group_name_H-M "P M M A"
_symmetry_group_IT_number 51
_symmetry_cell_setting 'orthorhombic'
loop_
_space_group_symop_operation_xyz
x,y,z
1/2-x,-y,z
1/2+x,-y,-z
-x,y,-z
-x,-y,-z
1/2+x,y,-z
1/2-x,y,z
x,-y,z
loop_
_atom_site_type_symbol
_atom_site_label
_atom_site_fract_x
_atom_site_fract_y
_atom_site_fract_z
Si Si1 0.579131 0.553298 0.652396
Si Si2 0.572736 0.706649 0.340335
Si Si3 0.574205 0.119076 0.844288
Si Si4 0.073083 0.621841 0.844773
Si Si5 0.919861 0.053322 0.349336
Si Si6 0.072153 0.197194 0.661550
O O1 0.500000 0.566859 0.500000
O O2 0.750000 0.567896 0.653252
O O3 0.575544 0.500000 0.661962
O O4 0.488501 0.575818 0.782362
O O5 0.500000 0.706575 0.500000
O O6 0.750000 0.704597 0.357206
O O7 0.523399 0.662639 0.257664
O O8 0.541062 0.754439 0.265040
O O9 0.750000 0.120351 0.849754
O O10 0.515648 0.072069 0.784157
O O11 0.507979 0.156694 0.739094
O O12 0.500000 0.127566 0.000000
O O13 0.250000 0.620877 0.852152
O O14 0.000000 0.630370 0.000000
O O15 0.750000 0.069487 0.343083
O O16 0.000000 0.068465 0.500000
O O17 0.917386 0.000000 0.349153
O O18 0.250000 0.190823 0.654741
O O19 0.000000 0.199721 0.500000
#
# Coordination Sequence:
#
# PCOD9407715 Si02
#       6
#     8   8   8   8   8   8
#     4  10  21  38  60  85 112 145 186 231 279 332
#     4   9  20  37  59  85 112 145 186 232 279 331
#     4  12  25  40  58  83 116 153 191 233 284 338
#     4  11  23  38  56  82 115 151 189 230 281 336
#     4  10  21  39  63  89 116 149 190 234 280 332
#     4  10  20  38  61  86 115 148 189 233 279 331
#
# _framework density 19.753086
#
# number of rings (size 3 to 8) (size 9 to 14) (size 15 to 20)
#    0.000    1.667    0.000    4.500    0.000    6.667 
#    0.000    1.667    0.000    0.000    0.000    0.000 
#    0.000    0.000    0.000    0.000    0.000    0.000 
#
# Total GULP energy -267801.859388 kJ/mol
# GULP energy per Si atom -5579.205404 kJ/mol
# Density = 1.970813 g / cm^3
# Si number density = 19.753086 Si / 1000 Ang^3
#
#
#
# Elastic Constant Matrix: (Units=GPa)
#
#
# Indices 1 2 3 4 5 6 
#
# 1 121.4554 41.3681 36.6904 0.0000 0.0000 0.0000
# 2 41.3681 21.6588 33.1053 0.0000 0.0000 0.0000
# 3 36.6904 33.1053 59.9484 0.0000 0.0000 0.0000
# 4 0.0000 0.0000 0.000013356.3308 0.0000 0.0000
# 5 0.0000 0.0000 0.0000 0.0000 27.0109 0.0000
# 6 0.0000 0.0000 0.0000 0.0000 0.0000 26.4616
#
#
#
# Elastic Compliance Matrix: (Units=1/GPa)
#
#
# Indices 1 2 3 4 5 6 
#
# 1 -0.030380 0.189877 -0.086262 0.000000 0.000000 0.000000
# 2 0.189877 -0.890613 0.375613 0.000000 0.000000 0.000000
# 3 -0.086262 0.375613 -0.137949 0.000000 0.000000 0.000000
# 4 0.000000 0.000000 0.000000 0.000075 0.000000 0.000000
# 5 0.000000 0.000000 0.000000 0.000000 0.037022 0.000000
# 6 0.000000 0.000000 0.000000 0.000000 0.000000 0.037791
#
#
# Mechanical properties :
#
#
# Convention : Reuss Voigt Hill
#
# Bulk Modulus (GPa) = -9.95156 47.26560 18.65702
# Shear Modulus (GPa) = -2.53036 2688.08725 1342.77845
#
# Velocity S-wave (km/s) = -1.13304 36.92964 26.10091
# Velocity P-wave (km/s) = 2.60012 42.92293 30.29536
#
# Compressibility (1/GPa) = -0.10048680
#
# Stress axis : x y z
#
# Youngs Moduli (GPa) = -32.91608 -1.12282 -7.24907
#
# Poissons Ratio (x) = 0.21320 -0.62532
# Poissons Ratio (y) = 6.25000 2.72284
# Poissons Ratio (z) = -2.83941 0.42175
#
# Static dielectric constant tensor:
#      x y z
#    x 1.643880 0.000000 0.000000 
#    y 0.000000 1.710340 0.000000 
#    z 0.000000 0.000000 1.646670 
# 
# From -- ./inp_files/5962.got.cif
#   From: 2010.05.17/outbox.ucp.g08.bks.cvg/sg51_3_cif.got.tgz:5962.got - 2010.06.11 16:27:58.
