data_PCOD9407067
_publ_section_title
;
Structure prediction by ZEFSAII (Michael W. Deem and Ramdas Pophale) SiO2 
 PCOD9407067
Probable space group: P M M A
;
_chemical_formula_sum "Si O2"
_cell_formula_units_Z 48
_cell_length_a 19.363414
_cell_length_b 7.717499
_cell_length_c 16.252622
_cell_angle_alpha 90.000000
_cell_angle_beta 90.000000
_cell_angle_gamma 90.000000
_cell_volume 2428.745157
_symmetry_space_group_name_H-M "P M M A"
_symmetry_group_IT_number 51
_symmetry_cell_setting 'orthorhombic'
loop_
_space_group_symop_operation_xyz
x,y,z
1/2-x,-y,z
1/2+x,-y,-z
-x,y,-z
-x,-y,-z
1/2+x,y,-z
1/2-x,y,z
x,-y,z
loop_
_atom_site_type_symbol
_atom_site_label
_atom_site_fract_x
_atom_site_fract_y
_atom_site_fract_z
Si Si1 0.965510 0.802586 0.768562
Si Si2 0.409651 0.709395 0.662735
Si Si3 0.171815 0.709385 0.317658
Si Si4 0.043221 0.301859 0.925756
Si Si5 0.828590 0.287792 0.173424
Si Si6 0.829272 0.288577 0.495339
O O1 0.887177 0.768651 0.743848
O O2 0.995487 0.694797 0.844467
O O3 0.014482 0.766911 0.690093
O O4 0.974679 0.000000 0.793722
O O5 0.410085 0.500000 0.660931
O O6 0.358458 0.762484 0.737082
O O7 0.381018 0.771659 0.575417
O O8 0.250000 0.765507 0.297830
O O9 0.171475 0.500000 0.318150
O O10 0.155763 0.767180 0.411349
O O11 0.058792 0.500000 0.951361
O O12 0.116000 0.226210 0.894339
O O13 0.000000 0.219581 0.000000
O O14 0.750000 0.231586 0.161543
O O15 0.829394 0.500000 0.172173
O O16 0.750000 0.240054 0.475670
O O17 0.831107 0.500000 0.495426
#
# Coordination Sequence:
#
# PCOD9407067 Si02
#       6
#     8   8   8   8   8   8
#     4  11  22  34  49  70  99 132 164 197 241 301
#     4   9  16  28  48  72  98 127 162 203 245 291
#     4   9  18  34  54  73  95 126 168 214 251 284
#     4   9  18  34  55  76  98 124 159 204 251 299
#     4   8  13  23  44  73  99 122 151 191 238 287
#     4   8  14  26  48  76  99 124 165 214 254 283
#
# _framework density 19.763292
#
# number of rings (size 3 to 8) (size 9 to 14) (size 15 to 20)
#    0.000    3.000    0.000    4.000    0.000    3.333 
#    0.000    5.000    0.000   16.500    0.000    0.000 
#    0.000    0.000    0.000    0.000    0.000    0.000 
#
# Total GULP energy -267605.601432 kJ/mol
# GULP energy per Si atom -5575.116697 kJ/mol
# Density = 1.971831 g / cm^3
# Si number density = 19.763292 Si / 1000 Ang^3
#
#
#
# Elastic Constant Matrix: (Units=GPa)
#
#
# Indices 1 2 3 4 5 6 
#
# 1 137.8911 0.8035 46.9042 0.0000 0.0000 0.0000
# 2 0.8035 37.4444 -3.4752 0.0000 0.0000 0.0000
# 3 46.9042 -3.4752 38.8520 0.0000 0.0000 0.0000
# 4 0.0000 0.0000 0.0000 -985.9540 0.0000 0.0000
# 5 0.0000 0.0000 0.0000 0.0000 29.4357 0.0000
# 6 0.0000 0.0000 0.0000 0.0000 0.0000 -299.9573
#
#
#
# Elastic Compliance Matrix: (Units=1/GPa)
#
#
# Indices 1 2 3 4 5 6 
#
# 1 0.012408 -0.001670 -0.015129 0.000000 0.000000 0.000000
# 2 -0.001670 0.027155 0.004445 0.000000 0.000000 0.000000
# 3 -0.015129 0.004445 0.044401 0.000000 0.000000 0.000000
# 4 0.000000 0.000000 0.000000 -0.001014 0.000000 0.000000
# 5 0.000000 0.000000 0.000000 0.000000 0.033972 0.000000
# 6 0.000000 0.000000 0.000000 0.000000 0.000000 -0.003334
#
#
# Mechanical properties :
#
#
# Convention : Reuss Voigt Hill
#
# Bulk Modulus (GPa) = 16.87603 33.62808 25.25206
# Shear Modulus (GPa) = 31.63601 -239.96479 -104.16439
#
# Velocity S-wave (km/s) = 4.00527 -11.03100 -7.26777
# Velocity P-wave (km/s) = 5.47241 12.04955 7.59093
#
# Compressibility (1/GPa) = 0.05925564
#
# Stress axis : x y z
#
# Youngs Moduli (GPa) = 80.59294 36.82609 22.52208
#
# Poissons Ratio (x) = 0.06151 0.34074
# Poissons Ratio (y) = 0.13462 -0.10012
# Poissons Ratio (z) = 1.21929 -0.16371
#
# Static dielectric constant tensor:
#      x y z
#    x 1.683080 0.000000 0.000000 
#    y 0.000000 1.749120 0.000000 
#    z 0.000000 0.000000 1.682080 
# 
# From -- ./inp_files/30061.got.cif
#   From: 2010.05.17/outbox.cif.g08.bks.cpg/sg51_16_cif.got.tgz:30061.got - 2010.06.03 11:52:47.
