data_PCOD9407884
_publ_section_title
;
Structure prediction by ZEFSAII (Michael W. Deem and Ramdas Pophale) SiO2 
 PCOD9407884
Probable space group: P N N A
;
_chemical_formula_sum "Si O2"
_cell_formula_units_Z 56
_cell_length_a 5.318852
_cell_length_b 30.472381
_cell_length_c 13.791855
_cell_angle_alpha 90.000000
_cell_angle_beta 90.000000
_cell_angle_gamma 90.000000
_cell_volume 2235.357442
_symmetry_space_group_name_H-M "P N N A"
_symmetry_group_IT_number 52
_symmetry_cell_setting 'orthorhombic'
loop_
_space_group_symop_operation_xyz
x,y,z
1/2-x,-y,z
x,1/2-y,1/2-z
1/2-x,1/2+y,1/2-z
-x,-y,-z
1/2+x,y,-z
-x,1/2+y,1/2+z
1/2+x,1/2-y,1/2+z
loop_
_atom_site_type_symbol
_atom_site_label
_atom_site_fract_x
_atom_site_fract_y
_atom_site_fract_z
Si Si1 0.514788 0.026052 0.749109
Si Si2 0.652441 0.842398 0.809014
Si Si3 0.146744 0.876235 0.802288
Si Si4 0.328270 0.408060 0.490310
Si Si5 0.675643 0.757009 0.935000
Si Si6 0.390582 0.337268 0.059231
Si Si7 0.211255 0.562382 0.058967
O O1 0.415418 0.072762 0.788855
O O2 0.661105 0.040190 0.651172
O O3 0.250000 0.000000 0.737418
O O4 0.750000 0.000000 0.801185
O O5 0.401686 0.858017 0.756290
O O6 0.674315 0.880579 0.892265
O O7 0.632665 0.795979 0.859896
O O8 0.921481 0.847665 0.760856
O O9 0.171444 0.872851 0.920436
O O10 0.579185 0.435088 0.496569
O O11 0.448344 0.760869 0.013493
O O12 0.657814 0.708733 0.886672
O O13 0.682743 0.333969 0.028283
O O14 0.318277 0.386616 0.087515
O O15 0.425715 0.552521 0.976814
#
# Coordination Sequence:
#
# PCOD9407884 Si02
#       7
#     8   8   8   8   8   8   8
#     4  12  26  42  61  84 108 141 186 242 302 359
#     4  10  17  29  52  79 110 151 192 227 259 306
#     4  10  20  34  51  75 111 146 183 229 284 333
#     4   8  14  25  45  69  96 135 178 216 252 295
#     4  10  16  25  46  83 119 146 187 232 264 307
#     4   8  16  29  49  80 116 145 170 214 272 328
#     4  10  21  40  64  88 112 140 176 225 295 364
#
# _framework density 25.051921
#
# number of rings (size 3 to 8) (size 9 to 14) (size 15 to 20)
#    0.000    2.286    0.000    5.143    0.000    1.714 
#    0.000    0.000    0.000   24.000    0.000    2.000 
#    0.000    0.000    0.000    0.000    0.000    0.000 
#
# Total GULP energy -312131.957162 kJ/mol
# GULP energy per Si atom -5573.784949 kJ/mol
# Density = 2.499490 g / cm^3
# Si number density = 25.051921 Si / 1000 Ang^3
#
#
#
# Elastic Constant Matrix: (Units=GPa)
#
#
# Indices 1 2 3 4 5 6 
#
# 1 225.9562 32.1888 -3.5669 0.0000 0.0000 0.0000
# 2 32.1888 147.3166 1.9405 0.0000 0.0000 0.0000
# 3 -3.5669 1.9405 34.0077 0.0000 0.0000 0.0000
# 4 0.0000 0.0000 0.0000 21.7893 0.0000 0.0000
# 5 0.0000 0.0000 0.0000 0.0000 23.3121 0.0000
# 6 0.0000 0.0000 0.0000 0.0000 0.0000 39.2897
#
#
#
# Elastic Compliance Matrix: (Units=1/GPa)
#
#
# Indices 1 2 3 4 5 6 
#
# 1 0.004578 -0.001007 0.000538 0.000000 0.000000 0.000000
# 2 -0.001007 0.007015 -0.000506 0.000000 0.000000 0.000000
# 3 0.000538 -0.000506 0.029490 0.000000 0.000000 0.000000
# 4 0.000000 0.000000 0.000000 0.045894 0.000000 0.000000
# 5 0.000000 0.000000 0.000000 0.000000 0.042896 0.000000
# 6 0.000000 0.000000 0.000000 0.000000 0.000000 0.025452
#
#
# Mechanical properties :
#
#
# Convention : Reuss Voigt Hill
#
# Bulk Modulus (GPa) = 25.55481 52.04502 38.79992
# Shear Modulus (GPa) = 29.35647 41.99276 35.67461
#
# Velocity S-wave (km/s) = 3.42691 4.09862 3.77772
# Velocity P-wave (km/s) = 5.08735 6.57406 5.87790
#
# Compressibility (1/GPa) = 0.03913158
#
# Stress axis : x y z
#
# Youngs Moduli (GPa) = 218.45425 142.55448 33.90943
#
# Poissons Ratio (x) = 0.14359 -0.01823
# Poissons Ratio (y) = 0.22005 0.01716
# Poissons Ratio (z) = -0.11744 0.07212
#
# Static dielectric constant tensor:
#      x y z
#    x 2.148110 0.000000 0.000000 
#    y 0.000000 1.955470 0.000000 
#    z 0.000000 0.000000 2.179170 
# 
# From -- ./inp_files/23767.got.cif
#   From: 2010.05.17/outbox.cif.g08.bks.cpg/sg52_12_cif.got.tgz:23767.got - 2010.06.03 12:15:38.
