data_PCOD9407093
_publ_section_title
;
Structure prediction by ZEFSAII (Michael W. Deem and Ramdas Pophale) SiO2 
 PCOD9407093
Probable space group: P M M A
;
_chemical_formula_sum "Si O2"
_cell_formula_units_Z 48
_cell_length_a 15.159996
_cell_length_b 8.908896
_cell_length_c 19.583801
_cell_angle_alpha 90.000000
_cell_angle_beta 90.000000
_cell_angle_gamma 90.000000
_cell_volume 2644.965205
_symmetry_space_group_name_H-M "P M M A"
_symmetry_group_IT_number 51
_symmetry_cell_setting 'orthorhombic'
loop_
_space_group_symop_operation_xyz
x,y,z
1/2-x,-y,z
1/2+x,-y,-z
-x,y,-z
-x,-y,-z
1/2+x,y,-z
1/2-x,y,z
x,-y,z
loop_
_atom_site_type_symbol
_atom_site_label
_atom_site_fract_x
_atom_site_fract_y
_atom_site_fract_z
Si Si1 0.000000 0.817393 0.893117
Si Si2 0.148605 0.324053 0.356277
Si Si3 0.393714 0.173951 0.500000
Si Si4 0.147984 0.182946 0.000000
Si Si5 0.500000 0.180119 0.736151
Si Si6 0.851395 0.324053 0.356277
O O1 0.000000 0.768568 0.814815
O O2 0.087841 0.771547 0.934949
O O3 0.000000 0.000000 0.893597
O O4 0.912159 0.771547 0.934949
O O5 0.250000 0.308878 0.334858
O O6 0.125717 0.500000 0.359106
O O7 0.138192 0.254912 0.431647
O O8 0.084282 0.240469 0.304578
O O9 0.500000 0.178214 0.500000
O O10 0.361808 0.254912 0.568352
O O11 0.366004 0.000000 0.500000
O O12 0.250000 0.234284 0.000000
O O13 0.150589 0.000000 0.000000
O O14 0.415718 0.240469 0.695422
O O15 0.500000 0.000000 0.734600
O O16 0.750000 0.308877 0.334858
O O17 0.874283 0.500000 0.359107
#
# Coordination Sequence:
#
# PCOD9407093 Si02
#       6
#     8   8   8   8   8   8
#     4   8  16  28  44  73 109 140 175 216 262 322
#     4  11  24  40  58  80 108 147 190 229 274 330
#     4  11  22  37  60  87 110 137 178 233 289 331
#     4   8  13  25  46  71 103 142 176 210 260 320
#     4  11  22  36  55  82 115 148 182 227 280 326
#     4  11  24  40  58  80 108 147 190 229 274 330
#
# _framework density 18.147687999999999
#
# number of rings (size 3 to 8) (size 9 to 14) (size 15 to 20)
#    0.000    2.000    1.667    3.500    0.000    6.667 
#    0.000    3.333    0.000    0.000    0.000    9.333 
#    0.000   16.000    0.000    0.000    0.000    0.000 
#
# Total GULP energy -267955.215779 kJ/mol
# GULP energy per Si atom -5582.400329 kJ/mol
# Density = 1.810638 g / cm^3
# Si number density = 18.147688 Si / 1000 Ang^3
#
#
#
# Elastic Constant Matrix: (Units=GPa)
#
#
# Indices 1 2 3 4 5 6 
#
# 1 137.1712 47.6105 81.7563 0.0000 0.0000 0.0000
# 2 47.6105 77.8788 49.7136 0.0000 0.0000 0.0000
# 3 81.7563 49.7136 180.4697 0.0000 0.0000 0.0000
# 4 0.0000 0.0000 0.0000 -14.6297 0.0000 0.0000
# 5 0.0000 0.0000 0.0000 0.0000 3.8271 0.0000
# 6 0.0000 0.0000 0.0000 0.0000 0.0000 30.6320
#
#
#
# Elastic Compliance Matrix: (Units=1/GPa)
#
#
# Indices 1 2 3 4 5 6 
#
# 1 0.011071 -0.004328 -0.003823 0.000000 0.000000 0.000000
# 2 -0.004328 0.017272 -0.002797 0.000000 0.000000 0.000000
# 3 -0.003823 -0.002797 0.008044 0.000000 0.000000 0.000000
# 4 0.000000 0.000000 0.000000 -0.068354 0.000000 0.000000
# 5 0.000000 0.000000 0.000000 0.000000 0.261295 0.000000
# 6 0.000000 0.000000 0.000000 0.000000 0.000000 0.032646
#
#
# Mechanical properties :
#
#
# Convention : Reuss Voigt Hill
#
# Bulk Modulus (GPa) = 69.01282 83.74227 76.37755
# Shear Modulus (GPa) = 17.31909 18.39517 17.85713
#
# Velocity S-wave (km/s) = 3.09259 3.18722 3.14026
# Velocity P-wave (km/s) = 7.13184 7.73237 7.43817
#
# Compressibility (1/GPa) = 0.01449006
#
# Stress axis : x y z
#
# Youngs Moduli (GPa) = 90.32673 57.89802 124.32133
#
# Poissons Ratio (x) = 0.25056 0.47531
# Poissons Ratio (y) = 0.39089 0.34777
# Poissons Ratio (z) = 0.34534 0.16196
#
# Static dielectric constant tensor:
#      x y z
#    x 1.625730 0.000000 0.000000 
#    y 0.000000 1.605970 0.000000 
#    z 0.000000 0.000000 1.597690 
# 
# From -- ./inp_files/29405.got.cif
#   From: 2010.05.17/outbox.cif.g08.bks.cpg/sg51_15_cif.got.tgz:29405.got - 2010.06.03 11:52:47.
