data_PCOD9407587
_publ_section_title
;
Structure prediction by ZEFSAII (Michael W. Deem and Ramdas Pophale) SiO2 
 PCOD9407587
Probable space group: P M M A
;
_chemical_formula_sum "Si O2"
_cell_formula_units_Z 56
_cell_length_a 9.000000
_cell_length_b 15.000000
_cell_length_c 21.000000
_cell_angle_alpha 90.000000
_cell_angle_beta 90.000000
_cell_angle_gamma 90.000000
_cell_volume 2835.000000
_symmetry_space_group_name_H-M "P M M A"
_symmetry_group_IT_number 51
_symmetry_cell_setting 'orthorhombic'
loop_
_space_group_symop_operation_xyz
x,y,z
1/2-x,-y,z
1/2+x,-y,-z
-x,y,-z
-x,-y,-z
1/2+x,y,-z
1/2-x,y,z
x,-y,z
loop_
_atom_site_type_symbol
_atom_site_label
_atom_site_fract_x
_atom_site_fract_y
_atom_site_fract_z
Si Si1 0.074589 0.288872 0.560813
Si Si2 0.576421 0.399705 0.816710
Si Si3 0.077627 0.901284 0.273739
Si Si4 0.922816 0.100009 0.060438
Si Si5 0.072138 0.904605 0.591961
Si Si6 0.418138 0.603263 0.336082
Si Si7 0.079199 0.225016 0.819307
O O1 0.250000 0.286956 0.552595
O O2 0.013408 0.187899 0.565136
O O3 0.000000 0.334325 0.500000
O O4 0.032240 0.337529 0.625646
O O5 0.750000 0.384651 0.832154
O O6 0.536704 0.500000 0.836287
O O7 0.563441 0.394726 0.739800
O O8 0.472401 0.321933 0.841031
O O9 0.250000 0.894074 0.292870
O O10 0.971272 0.901947 0.334238
O O11 0.030175 0.817213 0.232499
O O12 0.060025 0.000000 0.242164
O O13 0.750000 0.092460 0.045554
O O14 0.935299 0.157604 0.122664
O O15 0.984348 0.000000 0.069962
O O16 0.000000 0.142548 0.000000
O O17 0.250000 0.904551 0.584511
O O18 0.012597 0.000000 0.568289
O O19 0.250000 0.633533 0.350805
O O20 0.432009 0.500000 0.355417
O O21 0.250000 0.225936 0.796692
#
# Coordination Sequence:
#
# PCOD9407587 Si02
#       7
#     8   8   8   8   8   8   8
#     4  11  23  36  52  74  98 128 166 207 251 301
#     4   9  19  36  57  81 108 137 170 211 259 309
#     4  10  20  32  49  76 106 136 171 209 253 308
#     4   9  19  35  53  75 106 144 183 220 258 300
#     4   9  19  36  54  72  98 131 166 207 256 306
#     4   9  19  37  58  77 100 130 162 202 254 306
#     4  11  21  32  51  79 110 142 174 213 261 310
#
# _framework density 19.753086
#
# number of rings (size 3 to 8) (size 9 to 14) (size 15 to 20)
#    0.000    2.286    0.000    3.429    0.000    7.714 
#    0.000    2.857    0.000    0.429    0.000    0.000 
#    0.000    0.000    0.000    0.000    0.000    0.000 
#
# Total GULP energy -312056.564169 kJ/mol
# GULP energy per Si atom -5572.438646 kJ/mol
# Density = 1.970813 g / cm^3
# Si number density = 19.753086 Si / 1000 Ang^3
#
#
#
# Elastic Constant Matrix: (Units=GPa)
#
#
# Indices 1 2 3 4 5 6 
#
# 1 -2.5328 25.6160 9.9297 0.0000 0.0000 0.0000
# 2 25.6160 57.6101 -5.0706 0.0000 0.0000 0.0000
# 3 9.9297 -5.0706 5.1570 0.0000 0.0000 0.0000
# 4 0.0000 0.0000 0.0000 -40.3043 0.0000 0.0000
# 5 0.0000 0.0000 0.0000 0.0000 14.7677 0.0000
# 6 0.0000 0.0000 0.0000 0.0000 0.0000 6.6982
#
#
#
# Elastic Compliance Matrix: (Units=1/GPa)
#
#
# Indices 1 2 3 4 5 6 
#
# 1 -0.022008 0.014796 0.056924 0.000000 0.000000 0.000000
# 2 0.014796 0.009055 -0.019586 0.000000 0.000000 0.000000
# 3 0.056924 -0.019586 0.065047 0.000000 0.000000 0.000000
# 4 0.000000 0.000000 0.000000 -0.024811 0.000000 0.000000
# 5 0.000000 0.000000 0.000000 0.000000 0.067715 0.000000
# 6 0.000000 0.000000 0.000000 0.000000 0.000000 0.149293
#
#
# Mechanical properties :
#
#
# Convention : Reuss Voigt Hill
#
# Bulk Modulus (GPa) = 6.39539 13.46494 9.93017
# Shear Modulus (GPa) = 26.02225 -1.78375 12.11925
#
# Velocity S-wave (km/s) = 3.63351 -0.95131 2.47966
# Velocity P-wave (km/s) = 4.56594 2.37166 3.63817
#
# Compressibility (1/GPa) = 0.15636253
#
# Stress axis : x y z
#
# Youngs Moduli (GPa) = -45.43725 110.43365 15.37353
#
# Poissons Ratio (x) = -1.63399 -0.87513
# Poissons Ratio (y) = 0.67229 0.30111
# Poissons Ratio (z) = 2.58648 2.16295
#
# Static dielectric constant tensor:
#      x y z
#    x 1.672830 0.000000 0.000000 
#    y 0.000000 1.705900 0.000000 
#    z 0.000000 0.000000 1.691550 
# 
# From -- ./inp_files/31905.got.cif
#   From: 2010.05.17/outbox.ucp.g08.bks.cvg/sg51_16_cif.got.tgz:31905.got - 2010.06.11 16:27:58.
