data_PCOD9407377
_publ_section_title
;
Structure prediction by ZEFSAII (Michael W. Deem and Ramdas Pophale) SiO2 
 PCOD9407377
Probable space group: P M M A
;
_chemical_formula_sum "Si O2"
_cell_formula_units_Z 56
_cell_length_a 17.627733
_cell_length_b 7.346198
_cell_length_c 19.614855
_cell_angle_alpha 90.000000
_cell_angle_beta 90.000000
_cell_angle_gamma 90.000000
_cell_volume 2540.061287
_symmetry_space_group_name_H-M "P M M A"
_symmetry_group_IT_number 51
_symmetry_cell_setting 'orthorhombic'
loop_
_space_group_symop_operation_xyz
x,y,z
1/2-x,-y,z
1/2+x,-y,-z
-x,y,-z
-x,-y,-z
1/2+x,y,-z
1/2-x,y,z
x,-y,z
loop_
_atom_site_type_symbol
_atom_site_label
_atom_site_fract_x
_atom_site_fract_y
_atom_site_fract_z
Si Si1 0.574608 0.279699 0.958374
Si Si2 0.333894 0.278391 0.913650
Si Si3 0.566845 0.280381 0.705037
Si Si4 0.165383 0.220361 0.657594
Si Si5 0.480056 0.212980 0.573816
Si Si6 0.336044 0.277905 0.172692
Si Si7 0.922860 0.289809 0.211792
O O1 0.566308 0.500000 0.953582
O O2 0.601477 0.218780 0.883562
O O3 0.500000 0.216850 0.000000
O O4 0.642922 0.235495 0.009798
O O5 0.250000 0.215439 0.896433
O O6 0.334101 0.500000 0.908993
O O7 0.395452 0.211441 0.859394
O O8 0.565857 0.500000 0.703794
O O9 0.549216 0.225882 0.627668
O O10 0.638165 0.224964 0.750944
O O11 0.494267 0.211507 0.748328
O O12 0.250000 0.277536 0.637374
O O13 0.096011 0.287235 0.610259
O O14 0.145687 0.281108 0.734294
O O15 0.163737 0.000000 0.657922
O O16 0.500000 0.290983 0.500000
O O17 0.463829 0.000000 0.563515
O O18 0.250000 0.220033 0.157309
O O19 0.336202 0.500000 0.170349
O O20 0.943240 0.500000 0.198348
#
# Coordination Sequence:
#
# PCOD9407377 Si02
#       7
#     8   8   8   8   8   8   8
#     4   9  15  22  33  51  79 115 153 190 226 264
#     4   9  15  21  31  51  79 108 138 174 214 251
#     4   9  17  29  46  67  89 115 148 182 218 265
#     4   9  17  29  45  65  88 114 143 174 211 259
#     4   9  18  33  51  69  90 116 145 178 218 265
#     4   9  16  26  40  59  87 123 159 195 236 279
#     4   9  16  26  41  62  88 115 143 178 219 261
#
# _framework density 22.046713
#
# number of rings (size 3 to 8) (size 9 to 14) (size 15 to 20)
#    0.000    3.000    0.000    1.714    0.000    6.286 
#    0.000    0.714    0.000    1.286    0.000    1.000 
#    0.000    8.000    0.000    0.000    0.000    0.000 
#
# Total GULP energy -312328.200188 kJ/mol
# GULP energy per Si atom -5577.289289 kJ/mol
# Density = 2.199653 g / cm^3
# Si number density = 22.046713 Si / 1000 Ang^3
#
#
#
# Elastic Constant Matrix: (Units=GPa)
#
#
# Indices 1 2 3 4 5 6 
#
# 1 78.2101 -7.3108 31.3851 0.0000 0.0000 0.0000
# 2 -7.3108 79.5876 -8.0152 0.0000 0.0000 0.0000
# 3 31.3851 -8.0152 143.7212 0.0000 0.0000 0.0000
# 4 0.0000 0.0000 0.0000 8.1490 0.0000 0.0000
# 5 0.0000 0.0000 0.0000 0.0000 23.8039 0.0000
# 6 0.0000 0.0000 0.0000 0.0000 0.0000 2.3488
#
#
#
# Elastic Compliance Matrix: (Units=1/GPa)
#
#
# Indices 1 2 3 4 5 6 
#
# 1 0.014091 0.000990 -0.003022 0.000000 0.000000 0.000000
# 2 0.000990 0.012705 0.000492 0.000000 0.000000 0.000000
# 3 -0.003022 0.000492 0.007645 0.000000 0.000000 0.000000
# 4 0.000000 0.000000 0.000000 0.122714 0.000000 0.000000
# 5 0.000000 0.000000 0.000000 0.000000 0.042010 0.000000
# 6 0.000000 0.000000 0.000000 0.000000 0.000000 0.425746
#
#
# Mechanical properties :
#
#
# Convention : Reuss Voigt Hill
#
# Bulk Modulus (GPa) = 31.88488 37.07079 34.47784
# Shear Modulus (GPa) = 7.83152 25.89101 16.86126
#
# Velocity S-wave (km/s) = 1.88678 3.43063 2.76850
# Velocity P-wave (km/s) = 4.38639 5.70468 5.08841
#
# Compressibility (1/GPa) = 0.03136283
#
# Stress axis : x y z
#
# Youngs Moduli (GPa) = 70.96568 78.70726 130.79935
#
# Poissons Ratio (x) = -0.07793 0.39527
# Poissons Ratio (y) = -0.07026 -0.06440
# Poissons Ratio (z) = 0.21446 -0.03875
#
# Static dielectric constant tensor:
#      x y z
#    x 1.824200 0.000000 0.000000 
#    y 0.000000 1.866400 0.000000 
#    z 0.000000 0.000000 1.797560 
# 
# From -- ./inp_files/30238.got.cif
#   From: 2010.05.17/outbox.cif.g08.bks.cpg/sg51_16_cif.got.tgz:30238.got - 2010.06.03 11:52:47.
