data_PCOD9407310
_publ_section_title
;
Structure prediction by ZEFSAII (Michael W. Deem and Ramdas Pophale) SiO2 
 PCOD9407310
Probable space group: P M M A
;
_chemical_formula_sum "Si O2"
_cell_formula_units_Z 48
_cell_length_a 9.580526
_cell_length_b 7.521972
_cell_length_c 32.669125
_cell_angle_alpha 90.000000
_cell_angle_beta 90.000000
_cell_angle_gamma 90.000000
_cell_volume 2354.282470
_symmetry_space_group_name_H-M "P M M A"
_symmetry_group_IT_number 51
_symmetry_cell_setting 'orthorhombic'
loop_
_space_group_symop_operation_xyz
x,y,z
1/2-x,-y,z
1/2+x,-y,-z
-x,y,-z
-x,-y,-z
1/2+x,y,-z
1/2-x,y,z
x,-y,z
loop_
_atom_site_type_symbol
_atom_site_label
_atom_site_fract_x
_atom_site_fract_y
_atom_site_fract_z
Si Si1 0.088894 0.717407 0.539559
Si Si2 0.591454 0.211481 0.796583
Si Si3 0.086949 0.283037 0.382099
Si Si4 0.091092 0.713245 0.962289
Si Si5 0.088762 0.713391 0.292448
Si Si6 0.408882 0.786879 0.871549
O O1 0.250000 0.774225 0.537740
O O2 0.089585 0.500000 0.539690
O O3 0.000000 0.772535 0.500000
O O4 0.009691 0.775929 0.580699
O O5 0.750000 0.284349 0.796656
O O6 0.526309 0.237424 0.751408
O O7 0.500971 0.282659 0.834121
O O8 0.602117 0.000000 0.802263
O O9 0.250000 0.230673 0.387062
O O10 0.086819 0.500000 0.382720
O O11 0.034903 0.226935 0.336845
O O12 0.250000 0.782272 0.963811
O O13 0.097767 0.500000 0.966173
O O14 0.033583 0.750780 0.916952
O O15 0.000000 0.781490 0.000000
O O16 0.250000 0.776430 0.291057
O O17 0.090336 0.500000 0.293604
O O18 0.250000 0.717434 0.870057
O O19 0.401545 0.000000 0.867339
#
# Coordination Sequence:
#
# PCOD9407310 Si02
#       6
#     8   8   8   8   8   8
#     4   9  15  21  30  46  70 100 132 164 199 241
#     4   9  17  29  45  65  87 110 140 178 212 243
#     4   8  13  22  35  49  68  97 131 164 198 238
#     4   9  18  32  48  66  89 115 142 173 209 248
#     4   8  14  25  41  60  82 109 139 170 207 250
#     4   9  18  32  47  63  86 115 142 169 207 252
#
# _framework density 20.388377999999999
#
# number of rings (size 3 to 8) (size 9 to 14) (size 15 to 20)
#    0.000    3.333    0.000    1.500    0.000    3.667 
#    0.000    0.833    0.000    1.000    0.000    0.000 
#    0.000    0.667    0.000    1.167    0.000    1.667 
#
# Total GULP energy -267470.168074 kJ/mol
# GULP energy per Si atom -5572.295168 kJ/mol
# Density = 2.034197 g / cm^3
# Si number density = 20.388378 Si / 1000 Ang^3
#
#
#
# Elastic Constant Matrix: (Units=GPa)
#
#
# Indices 1 2 3 4 5 6 
#
# 1 86.4895 3.5620 103.4884 0.0000 0.0000 0.0000
# 2 3.5620 50.5090 1.4937 0.0000 0.0000 0.0000
# 3 103.4884 1.4937 254.8062 0.0000 0.0000 0.0000
# 4 0.0000 0.0000 0.0000 23.1234 0.0000 0.0000
# 5 0.0000 0.0000 0.0000 0.0000 34.0129 0.0000
# 6 0.0000 0.0000 0.0000 0.0000 0.0000 -26.4260
#
#
#
# Elastic Compliance Matrix: (Units=1/GPa)
#
#
# Indices 1 2 3 4 5 6 
#
# 1 0.022581 -0.001321 -0.009163 0.000000 0.000000 0.000000
# 2 -0.001321 0.019879 0.000420 0.000000 0.000000 0.000000
# 3 -0.009163 0.000420 0.007644 0.000000 0.000000 0.000000
# 4 0.000000 0.000000 0.000000 0.043246 0.000000 0.000000
# 5 0.000000 0.000000 0.000000 0.000000 0.029401 0.000000
# 6 0.000000 0.000000 0.000000 0.000000 0.000000 -0.037841
#
#
# Mechanical properties :
#
#
# Convention : Reuss Voigt Hill
#
# Bulk Modulus (GPa) = 33.36165 67.65477 50.50821
# Shear Modulus (GPa) = 43.46685 25.02609 34.24647
#
# Velocity S-wave (km/s) = 4.62231 3.50733 4.10287
# Velocity P-wave (km/s) = 6.69972 7.04676 6.87543
#
# Compressibility (1/GPa) = 0.02997454
#
# Stress axis : x y z
#
# Youngs Moduli (GPa) = 44.28521 50.30377 130.82567
#
# Poissons Ratio (x) = 0.06647 1.19881
# Poissons Ratio (y) = 0.05852 -0.05497
# Poissons Ratio (z) = 0.40580 -0.02114
#
# Static dielectric constant tensor:
#      x y z
#    x 1.705280 0.000000 0.000000 
#    y 0.000000 1.768520 0.000000 
#    z 0.000000 0.000000 1.743290 
# 
# From -- ./inp_files/34522.got.cif
#   From: 2010.05.17/outbox.cif.g08.bks.cpg/sg51_18_cif.got.tgz:34522.got - 2010.06.03 11:52:47.
