data_PCOD9407714
_publ_section_title
;
Structure prediction by ZEFSAII (Michael W. Deem and Ramdas Pophale) SiO2 
 PCOD9407714
Probable space group: P M M A
;
_chemical_formula_sum "Si O2"
_cell_formula_units_Z 64
_cell_length_a 30.000000
_cell_length_b 9.000000
_cell_length_c 12.000000
_cell_angle_alpha 90.000000
_cell_angle_beta 90.000000
_cell_angle_gamma 90.000000
_cell_volume 3240.000000
_symmetry_space_group_name_H-M "P M M A"
_symmetry_group_IT_number 51
_symmetry_cell_setting 'orthorhombic'
loop_
_space_group_symop_operation_xyz
x,y,z
1/2-x,-y,z
1/2+x,-y,-z
-x,y,-z
-x,-y,-z
1/2+x,y,-z
1/2-x,y,z
x,-y,z
loop_
_atom_site_type_symbol
_atom_site_label
_atom_site_fract_x
_atom_site_fract_y
_atom_site_fract_z
Si Si1 0.563286 0.171832 0.767732
Si Si2 0.519942 0.672161 0.124153
Si Si3 0.300346 0.177913 0.015312
Si Si4 0.366126 0.822359 0.632662
Si Si5 0.549211 0.825785 0.506726
Si Si6 0.197178 0.825330 0.426947
Si Si7 0.123568 0.677153 0.864764
Si Si8 0.155677 0.323952 0.217184
O O1 0.515191 0.233567 0.804363
O O2 0.564766 0.179202 0.633924
O O3 0.605691 0.265431 0.809457
O O4 0.567902 0.000000 0.802366
O O5 0.519745 0.500000 0.162895
O O6 0.571425 0.723940 0.122301
O O7 0.500000 0.675559 0.000000
O O8 0.250000 0.217899 0.977472
O O9 0.340857 0.245834 0.945098
O O10 0.303459 0.000000 0.015618
O O11 0.309159 0.242329 0.137665
O O12 0.411657 0.769589 0.572044
O O13 0.325341 0.805813 0.547348
O O14 0.361561 0.726757 0.742467
O O15 0.369686 0.000000 0.658100
O O16 0.500000 0.756594 0.500000
O O17 0.544505 0.000000 0.475277
O O18 0.250000 0.794902 0.426826
O O19 0.170311 0.724598 0.340458
O O20 0.190636 0.000000 0.396112
O O21 0.124957 0.500000 0.881639
O O22 0.157078 0.500000 0.202596
#
# Coordination Sequence:
#
# PCOD9407714 Si02
#       8
#     8   8   8   8   8   8   8   8
#     4  11  21  36  61  90 122 162 212 261 307 364
#     4  10  22  40  59  85 124 168 210 255 316 379
#     4  11  25  45  69  94 120 157 210 266 317 376
#     4  10  20  38  60  85 123 165 210 258 305 364
#     4   9  17  31  54  84 116 153 200 253 301 349
#     4  10  21  39  63  89 119 160 211 263 311 366
#     4  11  24  41  63  93 131 168 206 258 318 381
#     4  12  24  39  62  93 131 165 199 254 323 386
#
# _framework density 19.753086
#
# number of rings (size 3 to 8) (size 9 to 14) (size 15 to 20)
#    0.000    1.500    1.250    4.125    0.000    7.000 
#    0.000    1.250    0.000    2.625    0.000    0.000 
#    0.000    0.000    0.000    0.000    0.000    0.000 
#
# Total GULP energy -357496.587112 kJ/mol
# GULP energy per Si atom -5585.884174 kJ/mol
# Density = 1.970813 g / cm^3
# Si number density = 19.753086 Si / 1000 Ang^3
#
#
#
# Elastic Constant Matrix: (Units=GPa)
#
#
# Indices 1 2 3 4 5 6 
#
# 1 130.7861 46.1970 18.7752 0.0000 0.0000 0.0000
# 2 46.1970 63.0864 21.0714 0.0000 0.0000 0.0000
# 3 18.7752 21.0714 48.8362 0.0000 0.0000 0.0000
# 4 0.0000 0.0000 0.0000 -150.1672 0.0000 0.0000
# 5 0.0000 0.0000 0.0000 0.0000 30.0304 0.0000
# 6 0.0000 0.0000 0.0000 0.0000 0.0000 26.2680
#
#
#
# Elastic Compliance Matrix: (Units=1/GPa)
#
#
# Indices 1 2 3 4 5 6 
#
# 1 0.010342 -0.007297 -0.000828 0.000000 0.000000 0.000000
# 2 -0.007297 0.023669 -0.007407 0.000000 0.000000 0.000000
# 3 -0.000828 -0.007407 0.023991 0.000000 0.000000 0.000000
# 4 0.000000 0.000000 0.000000 -0.006659 0.000000 0.000000
# 5 0.000000 0.000000 0.000000 0.000000 0.033300 0.000000
# 6 0.000000 0.000000 0.000000 0.000000 0.000000 0.038069
#
#
# Mechanical properties :
#
#
# Convention : Reuss Voigt Hill
#
# Bulk Modulus (GPa) = 37.12180 46.08843 41.60511
# Shear Modulus (GPa) = 30.72112 -8.32941 11.19586
#
# Velocity S-wave (km/s) = 3.94795 -2.05570 2.38332
# Velocity P-wave (km/s) = 6.29408 4.21288 5.35555
#
# Compressibility (1/GPa) = 0.02693835
#
# Stress axis : x y z
#
# Youngs Moduli (GPa) = 96.68923 42.24966 41.68274
#
# Poissons Ratio (x) = 0.30830 0.03450
# Poissons Ratio (y) = 0.70555 0.30875
# Poissons Ratio (z) = 0.08003 0.31294
#
# Static dielectric constant tensor:
#      x y z
#    x 1.694300 0.000000 0.000000 
#    y 0.000000 1.675350 0.000000 
#    z 0.000000 0.000000 1.740850 
# 
# From -- ./inp_files/19495.got.cif
#   From: 2010.05.17/outbox.ucp.g08.bks.cvg/sg51_10_cif.got.tgz:19495.got - 2010.06.11 16:27:58.
