data_PCOD9407159
_publ_section_title
;
Structure prediction by ZEFSAII (Michael W. Deem and Ramdas Pophale) SiO2 
 PCOD9407159
Probable space group: P M M A
;
_chemical_formula_sum "Si O2"
_cell_formula_units_Z 44
_cell_length_a 8.121778
_cell_length_b 29.968622
_cell_length_c 9.455588
_cell_angle_alpha 90.000000
_cell_angle_beta 90.000000
_cell_angle_gamma 90.000000
_cell_volume 2301.475887
_symmetry_space_group_name_H-M "P M M A"
_symmetry_group_IT_number 51
_symmetry_cell_setting 'orthorhombic'
loop_
_space_group_symop_operation_xyz
x,y,z
1/2-x,-y,z
1/2+x,-y,-z
-x,y,-z
-x,-y,-z
1/2+x,y,-z
1/2-x,y,z
x,-y,z
loop_
_atom_site_type_symbol
_atom_site_label
_atom_site_fract_x
_atom_site_fract_y
_atom_site_fract_z
Si Si1 0.944995 0.000000 0.162820
Si Si2 0.948824 0.729501 0.837994
Si Si3 0.051160 0.452074 0.334823
Si Si4 0.449179 0.644791 0.336620
Si Si5 0.449156 0.170932 0.162803
Si Si6 0.946161 0.086412 0.661936
O O1 0.004936 0.043801 0.245271
O O2 0.750000 0.000000 0.165472
O O3 0.000000 0.000000 0.000000
O O4 0.750000 0.729528 0.830015
O O5 0.011261 0.687992 0.746613
O O6 0.005711 0.779228 0.794519
O O7 0.000000 0.723451 0.000000
O O8 0.250000 0.452226 0.327637
O O9 0.992559 0.500000 0.274867
O O10 0.994019 0.403822 0.278750
O O11 0.000000 0.452024 0.500000
O O12 0.500000 0.647794 0.500000
O O13 0.250000 0.644982 0.330068
O O14 0.250000 0.170813 0.166739
O O15 0.511389 0.131517 0.263497
O O16 0.500000 0.163195 0.000000
O O17 0.750000 0.089073 0.662681
O O18 0.000000 0.081969 0.500000
#
# Coordination Sequence:
#
# PCOD9407159 Si02
#       6
#     4   8   8   8   8   8
#     4  12  25  42  63  86 112 144 180 216 253 298
#     4   9  18  33  50  70  96 128 165 203 244 293
#     4   8  13  22  37  58  84 115 150 189 235 285
#     4   9  17  28  44  67  94 121 154 198 244 291
#     4   9  19  35  55  76 100 131 169 209 248 295
#     4  11  23  39  58  83 113 143 174 212 258 303
#
# _framework density 19.118168000000001
#
# number of rings (size 3 to 8) (size 9 to 14) (size 15 to 20)
#    0.000    2.545    0.000    2.182    0.000    4.364 
#    0.000    0.000    0.000    0.545    0.000    0.000 
#    0.000    0.000    0.000    0.000    0.000    0.000 
#
# Total GULP energy -245247.620241 kJ/mol
# GULP energy per Si atom -5573.809551 kJ/mol
# Density = 1.907465 g / cm^3
# Si number density = 19.118168 Si / 1000 Ang^3
#
#
#
# Elastic Constant Matrix: (Units=GPa)
#
#
# Indices 1 2 3 4 5 6 
#
# 1 21.4595 19.2165 8.4255 0.0000 0.0000 0.0000
# 2 19.2165 238.6853 107.8440 0.0000 0.0000 0.0000
# 3 8.4255 107.8440 92.8859 0.0000 0.0000 0.0000
# 4 0.0000 0.0000 0.0000 82.4368 0.0000 0.0000
# 5 0.0000 0.0000 0.0000 0.0000 25.8506 0.0000
# 6 0.0000 0.0000 0.0000 0.0000 0.0000 235.8060
#
#
#
# Elastic Compliance Matrix: (Units=1/GPa)
#
#
# Indices 1 2 3 4 5 6 
#
# 1 0.050224 -0.004176 0.000292 0.000000 0.000000 0.000000
# 2 -0.004176 0.009160 -0.010256 0.000000 0.000000 0.000000
# 3 0.000292 -0.010256 0.022647 0.000000 0.000000 0.000000
# 4 0.000000 0.000000 0.000000 0.012131 0.000000 0.000000
# 5 0.000000 0.000000 0.000000 0.000000 0.038684 0.000000
# 6 0.000000 0.000000 0.000000 0.000000 0.000000 0.004241
#
#
# Mechanical properties :
#
#
# Convention : Reuss Voigt Hill
#
# Bulk Modulus (GPa) = 18.60397 69.33364 43.96881
# Shear Modulus (GPa) = 27.28042 83.32166 55.30104
#
# Velocity S-wave (km/s) = 3.78158 6.60886 5.38412
# Velocity P-wave (km/s) = 5.36836 9.72526 7.85493
#
# Compressibility (1/GPa) = 0.05375196
#
# Stress axis : x y z
#
# Youngs Moduli (GPa) = 19.91085 109.17376 44.15599
#
# Poissons Ratio (x) = 0.45586 -0.01290
# Poissons Ratio (y) = 0.08314 0.45286
# Poissons Ratio (z) = -0.00582 1.11969
#
# Static dielectric constant tensor:
#      x y z
#    x 1.658990 0.000000 0.000000 
#    y 0.000000 1.793630 0.000000 
#    z 0.000000 0.000000 1.612180 
# 
# From -- ./inp_files/5792.got.cif
#   From: 2010.05.17/outbox.cif.g08.bks.cpg/sg51_3_cif.got.tgz:5792.got - 2010.06.03 11:52:47.
