data_PCOD9407781
_publ_section_title
;
Structure prediction by ZEFSAII (Michael W. Deem and Ramdas Pophale) SiO2 
 PCOD9407781
Probable space group: P M M A
;
_chemical_formula_sum "Si O2"
_cell_formula_units_Z 64
_cell_length_a 9.000000
_cell_length_b 15.000000
_cell_length_c 24.000000
_cell_angle_alpha 90.000000
_cell_angle_beta 90.000000
_cell_angle_gamma 90.000000
_cell_volume 3240.000000
_symmetry_space_group_name_H-M "P M M A"
_symmetry_group_IT_number 51
_symmetry_cell_setting 'orthorhombic'
loop_
_space_group_symop_operation_xyz
x,y,z
1/2-x,-y,z
1/2+x,-y,-z
-x,y,-z
-x,-y,-z
1/2+x,y,-z
1/2-x,y,z
x,-y,z
loop_
_atom_site_type_symbol
_atom_site_label
_atom_site_fract_x
_atom_site_fract_y
_atom_site_fract_z
Si Si1 0.585477 0.403891 0.743440
Si Si2 0.578268 0.392578 0.942549
Si Si3 0.921585 0.676393 0.165824
Si Si4 0.427834 0.601184 0.560885
Si Si5 0.582465 0.106543 0.944955
Si Si6 0.922112 0.736979 0.644897
Si Si7 0.076192 0.100444 0.704496
Si Si8 0.926337 0.142723 0.819971
O O1 0.750000 0.398761 0.770915
O O2 0.578648 0.500000 0.714898
O O3 0.456691 0.397856 0.788624
O O4 0.574233 0.326454 0.698988
O O5 0.750000 0.363121 0.939007
O O6 0.578487 0.500000 0.938818
O O7 0.477749 0.354614 0.893686
O O8 0.500000 0.367493 0.000000
O O9 0.750000 0.703310 0.165680
O O10 0.031657 0.754476 0.184711
O O11 0.500000 0.607670 0.500000
O O12 0.250000 0.608806 0.557566
O O13 0.461942 0.500000 0.581758
O O14 0.492969 0.680031 0.598482
O O15 0.750000 0.143005 0.944108
O O16 0.518456 0.119393 0.882689
O O17 0.591311 0.000000 0.951790
O O18 0.500000 0.141638 0.000000
O O19 0.750000 0.751047 0.629313
O O20 0.996959 0.828567 0.664696
O O21 0.250000 0.123821 0.710174
O O22 0.004204 0.100814 0.766333
O O23 0.063745 0.000000 0.682385
O O24 0.750000 0.124716 0.817974
#
# Coordination Sequence:
#
# PCOD9407781 Si02
#       8
#     8   8   8   8   8   8   8   8
#     4  10  21  37  57  83 117 157 197 241 296 356
#     4  10  21  38  58  77 100 134 181 235 291 355
#     4  12  24  36  53  78 110 145 186 236 293 356
#     4  10  21  38  63  97 139 183 224 264 307 358
#     4   9  19  35  55  78 102 131 172 225 288 360
#     4  11  22  38  63  93 127 168 213 259 307 362
#     4  11  24  41  62  90 123 160 206 261 318 376
#     4  11  22  38  58  80 110 148 193 245 303 367
#
# _framework density 19.753086
#
# number of rings (size 3 to 8) (size 9 to 14) (size 15 to 20)
#    0.000    1.500    1.250    4.125    0.000    7.250 
#    0.000    2.500    0.000    0.375    0.000    0.000 
#    0.000    0.000    0.000    0.000    0.000    0.000 
#
# Total GULP energy -357177.647559 kJ/mol
# GULP energy per Si atom -5580.900743 kJ/mol
# Density = 1.970813 g / cm^3
# Si number density = 19.753086 Si / 1000 Ang^3
#
#
#
# Elastic Constant Matrix: (Units=GPa)
#
#
# Indices 1 2 3 4 5 6 
#
# 1 90.0044 39.9964 49.3130 0.0000 0.0000 0.0000
# 2 39.9964 97.5813 40.9082 0.0000 0.0000 0.0000
# 3 49.3130 40.9082 92.5587 0.0000 0.0000 0.0000
# 4 0.0000 0.0000 0.0000 -25.6139 0.0000 0.0000
# 5 0.0000 0.0000 0.0000 0.0000 29.5849 0.0000
# 6 0.0000 0.0000 0.0000 0.0000 0.0000 18.2184
#
#
#
# Elastic Compliance Matrix: (Units=1/GPa)
#
#
# Indices 1 2 3 4 5 6 
#
# 1 0.016789 -0.003844 -0.007246 0.000000 0.000000 0.000000
# 2 -0.003844 0.013458 -0.003900 0.000000 0.000000 0.000000
# 3 -0.007246 -0.003900 0.016388 0.000000 0.000000 0.000000
# 4 0.000000 0.000000 0.000000 -0.039041 0.000000 0.000000
# 5 0.000000 0.000000 0.000000 0.000000 0.033801 0.000000
# 6 0.000000 0.000000 0.000000 0.000000 0.000000 0.054889
#
#
# Mechanical properties :
#
#
# Convention : Reuss Voigt Hill
#
# Bulk Modulus (GPa) = 60.04020 60.06438 60.05229
# Shear Modulus (GPa) = 37.93171 14.43300 26.18235
#
# Velocity S-wave (km/s) = 4.38687 2.70602 3.64467
# Velocity P-wave (km/s) = 7.49138 6.34327 6.94110
#
# Compressibility (1/GPa) = 0.01665551
#
# Stress axis : x y z
#
# Youngs Moduli (GPa) = 59.56445 74.30280 61.01967
#
# Poissons Ratio (x) = 0.28560 0.44213
# Poissons Ratio (y) = 0.22895 0.23800
# Poissons Ratio (z) = 0.43159 0.28981
#
# Static dielectric constant tensor:
#      x y z
#    x 1.625890 0.000000 0.000000 
#    y 0.000000 1.752430 0.000000 
#    z 0.000000 0.000000 1.710390 
# 
# From -- ./inp_files/35021.got.cif
#   From: 2010.05.17/outbox.ucp.g08.bks.cvg/sg51_18_cif.got.tgz:35021.got - 2010.06.11 16:27:58.
