data_PCOD9407084
_publ_section_title
;
Structure prediction by ZEFSAII (Michael W. Deem and Ramdas Pophale) SiO2 
 PCOD9407084
Probable space group: P M M A
;
_chemical_formula_sum "Si O2"
_cell_formula_units_Z 36
_cell_length_a 10.264796
_cell_length_b 10.995519
_cell_length_c 19.253881
_cell_angle_alpha 90.000000
_cell_angle_beta 90.000000
_cell_angle_gamma 90.000000
_cell_volume 2173.123155
_symmetry_space_group_name_H-M "P M M A"
_symmetry_group_IT_number 51
_symmetry_cell_setting 'orthorhombic'
loop_
_space_group_symop_operation_xyz
x,y,z
1/2-x,-y,z
1/2+x,-y,-z
-x,y,-z
-x,-y,-z
1/2+x,y,-z
1/2-x,y,z
x,-y,z
loop_
_atom_site_type_symbol
_atom_site_label
_atom_site_fract_x
_atom_site_fract_y
_atom_site_fract_z
Si Si1 0.497129 0.253873 0.852539
Si Si2 0.750000 0.148068 0.928224
Si Si3 0.101469 0.147619 0.442362
Si Si4 0.750000 0.139720 0.084125
Si Si5 0.092834 0.857262 0.282922
Si Si6 0.410918 0.500000 0.929135
O O1 0.623111 0.201676 0.891731
O O2 0.376195 0.171121 0.873048
O O3 0.527807 0.233884 0.771604
O O4 0.455265 0.383790 0.883423
O O5 0.750000 0.000000 0.922509
O O6 0.750000 0.196904 0.007368
O O7 0.250000 0.189798 0.454254
O O8 0.062602 0.174166 0.362880
O O9 0.000000 0.191464 0.500000
O O10 0.104691 0.000000 0.446211
O O11 0.750000 0.000000 0.067779
O O12 0.250000 0.851560 0.275373
O O13 0.056962 0.000000 0.269737
O O14 0.250000 0.500000 0.939564
O O15 0.500000 0.500000 0.000000
#
# Coordination Sequence:
#
# PCOD9407084 Si02
#       6
#     8   4   8   4   8   4
#     4  12  23  38  58  79 110 143 188 234 278 331
#     4  11  22  37  59  83 108 141 179 222 281 348
#     4   8  14  26  45  72 108 146 180 211 254 320
#     4  11  22  35  53  81 110 139 173 228 289 336
#     4   9  17  32  54  80 112 147 181 222 272 330
#     4  12  28  46  62  78 105 146 195 246 287 332
#
# _framework density 16.566020000000002
#
# number of rings (size 3 to 8) (size 9 to 14) (size 15 to 20)
#    0.000    1.778    2.222    5.333    1.556    1.778 
#    2.000    0.000    0.000    0.000    0.000    0.778 
#    0.000    0.000    0.000    0.000    0.000    0.000 
#
# Total GULP energy -200601.568799 kJ/mol
# GULP energy per Si atom -5572.265800 kJ/mol
# Density = 1.652831 g / cm^3
# Si number density = 16.566020 Si / 1000 Ang^3
#
#
#
# Elastic Constant Matrix: (Units=GPa)
#
#
# Indices 1 2 3 4 5 6 
#
# 1 125.3001 31.2122 73.4270 0.0000 0.0000 0.0000
# 2 31.2122 57.7273 33.8717 0.0000 0.0000 0.0000
# 3 73.4270 33.8717 151.5224 0.0000 0.0000 0.0000
# 4 0.0000 0.0000 0.0000 4.8073 0.0000 0.0000
# 5 0.0000 0.0000 0.0000 0.0000 30.4150 0.0000
# 6 0.0000 0.0000 0.0000 0.0000 0.0000 3.2304
#
#
#
# Elastic Compliance Matrix: (Units=1/GPa)
#
#
# Indices 1 2 3 4 5 6 
#
# 1 0.011716 -0.003457 -0.004905 0.000000 0.000000 0.000000
# 2 -0.003457 0.020958 -0.003010 0.000000 0.000000 0.000000
# 3 -0.004905 -0.003010 0.009649 0.000000 0.000000 0.000000
# 4 0.000000 0.000000 0.000000 0.208016 0.000000 0.000000
# 5 0.000000 0.000000 0.000000 0.000000 0.032878 0.000000
# 6 0.000000 0.000000 0.000000 0.000000 0.000000 0.309556
#
#
# Mechanical properties :
#
#
# Convention : Reuss Voigt Hill
#
# Bulk Modulus (GPa) = 51.07129 67.95242 59.51186
# Shear Modulus (GPa) = 8.03801 20.75981 14.39891
#
# Velocity S-wave (km/s) = 2.20514 3.54384 2.95139
# Velocity P-wave (km/s) = 6.11387 7.60613 6.90046
#
# Compressibility (1/GPa) = 0.01958047
#
# Stress axis : x y z
#
# Youngs Moduli (GPa) = 85.35162 47.71469 103.63344
#
# Poissons Ratio (x) = 0.16494 0.50831
# Poissons Ratio (y) = 0.29504 0.31192
# Poissons Ratio (z) = 0.41864 0.14361
#
# Static dielectric constant tensor:
#      x y z
#    x 2.425550 0.000000 0.000000 
#    y 0.000000 1.566340 0.000000 
#    z 0.000000 0.000000 1.583680 
# 
# From -- ./inp_files/31329.got.cif
#   From: 2010.05.17/outbox.cif.g08.bks.cpg/sg51_16_cif.got.tgz:31329.got - 2010.06.03 11:52:47.
