data_PCOD9407816
_publ_section_title
;
Structure prediction by ZEFSAII (Michael W. Deem and Ramdas Pophale) SiO2 
 PCOD9407816
Probable space group: P M M A
;
_chemical_formula_sum "Si O2"
_cell_formula_units_Z 64
_cell_length_a 9.000000
_cell_length_b 18.000000
_cell_length_c 21.000000
_cell_angle_alpha 90.000000
_cell_angle_beta 90.000000
_cell_angle_gamma 90.000000
_cell_volume 3402.000000
_symmetry_space_group_name_H-M "P M M A"
_symmetry_group_IT_number 51
_symmetry_cell_setting 'orthorhombic'
loop_
_space_group_symop_operation_xyz
x,y,z
1/2-x,-y,z
1/2+x,-y,-z
-x,y,-z
-x,-y,-z
1/2+x,y,-z
1/2-x,y,z
x,-y,z
loop_
_atom_site_type_symbol
_atom_site_label
_atom_site_fract_x
_atom_site_fract_y
_atom_site_fract_z
Si Si1 0.920624 0.585176 0.585372
Si Si2 0.570188 0.586659 0.069802
Si Si3 0.910076 0.584439 0.737900
Si Si4 0.070532 0.740684 0.568705
Si Si5 0.430018 0.203769 0.293001
Si Si6 0.424022 0.909555 0.067244
Si Si7 0.926643 0.089284 0.202720
Si Si8 0.579506 0.312602 0.188574
O O1 0.750000 0.598176 0.562446
O O2 0.963274 0.500000 0.568940
O O3 0.913197 0.588250 0.662015
O O4 0.027918 0.652868 0.568090
O O5 0.750000 0.589252 0.066121
O O6 0.530864 0.500000 0.087684
O O7 0.526951 0.651408 0.121000
O O8 0.500000 0.599922 0.000000
O O9 0.750000 0.619228 0.758442
O O10 0.902979 0.500000 0.757497
O O11 0.059870 0.616502 0.766095
O O12 0.250000 0.751112 0.569373
O O13 0.000000 0.768984 0.500000
O O14 0.000310 0.773124 0.636801
O O15 0.250000 0.205454 0.298568
O O16 0.490955 0.126165 0.263433
O O17 0.485880 0.256094 0.233492
O O18 0.250000 0.887866 0.068589
O O19 0.505312 0.886227 0.133404
O O20 0.429651 0.000000 0.066792
O O21 0.500000 0.885470 0.000000
O O22 0.750000 0.106247 0.204234
O O23 0.943249 0.000000 0.205268
O O24 0.750000 0.287640 0.182396
#
# Coordination Sequence:
#
# PCOD9407816 Si02
#       8
#     8   8   8   8   8   8   8   8
#     4   9  18  34  55  81 115 152 193 239 286 341
#     4   9  19  35  54  78 110 151 201 255 307 357
#     4   9  17  29  48  75 107 143 183 228 279 336
#     4  12  25  42  64  89 119 157 198 241 294 352
#     4  12  25  42  63  89 121 154 194 240 291 357
#     4   9  16  28  50  83 122 161 198 235 279 333
#     4  10  21  39  64  93 124 158 198 245 296 353
#     4  11  21  34  54  81 112 147 191 245 298 350
#
# _framework density 18.812463000000001
#
# number of rings (size 3 to 8) (size 9 to 14) (size 15 to 20)
#    0.000    1.875    1.250    4.500    0.000    4.500 
#    0.000    3.125    0.000    1.875    0.000    0.000 
#    0.000    0.000    0.000    0.000    0.000    0.000 
#
# Total GULP energy -356329.453170 kJ/mol
# GULP energy per Si atom -5567.647706 kJ/mol
# Density = 1.876965 g / cm^3
# Si number density = 18.812463 Si / 1000 Ang^3
#
#
#
# Elastic Constant Matrix: (Units=GPa)
#
#
# Indices 1 2 3 4 5 6 
#
# 1 124.6339 29.7005 61.6858 0.0000 0.0000 0.0000
# 2 29.7005 51.4633 37.6332 0.0000 0.0000 0.0000
# 3 61.6858 37.6332 149.1384 0.0000 0.0000 0.0000
# 4 0.0000 0.0000 0.0000 21.3041 0.0000 0.0000
# 5 0.0000 0.0000 0.0000 0.0000 38.0664 0.0000
# 6 0.0000 0.0000 0.0000 0.0000 0.0000 24.2591
#
#
#
# Elastic Compliance Matrix: (Units=1/GPa)
#
#
# Indices 1 2 3 4 5 6 
#
# 1 0.010598 -0.003569 -0.003483 0.000000 0.000000 0.000000
# 2 -0.003569 0.025030 -0.004840 0.000000 0.000000 0.000000
# 3 -0.003483 -0.004840 0.009367 0.000000 0.000000 0.000000
# 4 0.000000 0.000000 0.000000 0.046939 0.000000 0.000000
# 5 0.000000 0.000000 0.000000 0.000000 0.026270 0.000000
# 6 0.000000 0.000000 0.000000 0.000000 0.000000 0.041222
#
#
# Mechanical properties :
#
#
# Convention : Reuss Voigt Hill
#
# Bulk Modulus (GPa) = 47.14445 64.80828 55.97637
# Shear Modulus (GPa) = 26.27700 29.80697 28.04199
#
# Velocity S-wave (km/s) = 3.74142 3.98480 3.86503
# Velocity P-wave (km/s) = 6.61656 7.46297 7.05248
#
# Compressibility (1/GPa) = 0.02121140
#
# Stress axis : x y z
#
# Youngs Moduli (GPa) = 94.35902 39.95135 106.75863
#
# Poissons Ratio (x) = 0.14260 0.37181
# Poissons Ratio (y) = 0.33681 0.51668
# Poissons Ratio (z) = 0.32862 0.19335
#
# Static dielectric constant tensor:
#      x y z
#    x 1.603970 0.000000 0.000000 
#    y 0.000000 1.734160 0.000000 
#    z 0.000000 0.000000 1.677930 
# 
# From -- ./inp_files/32351.got.cif
#   From: 2010.05.17/outbox.ucp.g08.bks.cvg/sg51_17_cif.got.tgz:32351.got - 2010.06.11 16:27:58.
