data_PCOD9407383
_publ_section_title
;
Structure prediction by ZEFSAII (Michael W. Deem and Ramdas Pophale) SiO2 
 PCOD9407383
Probable space group: P M M A
;
_chemical_formula_sum "Si O2"
_cell_formula_units_Z 40
_cell_length_a 18.999544
_cell_length_b 9.327631
_cell_length_c 14.186141
_cell_angle_alpha 90.000000
_cell_angle_beta 90.000000
_cell_angle_gamma 90.000000
_cell_volume 2514.078343
_symmetry_space_group_name_H-M "P M M A"
_symmetry_group_IT_number 51
_symmetry_cell_setting 'orthorhombic'
loop_
_space_group_symop_operation_xyz
x,y,z
1/2-x,-y,z
1/2+x,-y,-z
-x,y,-z
-x,-y,-z
1/2+x,y,-z
1/2-x,y,z
x,-y,z
loop_
_atom_site_type_symbol
_atom_site_label
_atom_site_fract_x
_atom_site_fract_y
_atom_site_fract_z
Si Si1 0.627568 0.663829 0.133133
Si Si2 0.522316 0.171945 0.394076
Si Si3 0.580329 0.165639 0.958825
Si Si4 0.968168 0.335501 0.784197
Si Si5 0.673410 0.170391 0.314042
O O1 0.650943 0.500000 0.121295
O O2 0.546580 0.660669 0.170076
O O3 0.667811 0.745724 0.215832
O O4 0.626358 0.750316 0.035714
O O5 0.500000 0.208229 0.500000
O O6 0.477798 0.254949 0.314932
O O7 0.604680 0.206835 0.375321
O O8 0.513736 0.000000 0.381090
O O9 0.577661 0.247218 0.859329
O O10 0.601132 0.000000 0.949196
O O11 0.500000 0.166188 0.000000
O O12 0.944834 0.500000 0.773517
O O13 0.750000 0.199610 0.357927
O O14 0.669062 0.000000 0.294863
#
# Coordination Sequence:
#
# PCOD9407383 Si02
#       5
#     8   8   8   8   8
#     4   9  16  25  38  58  84 111 138 169 207 252
#     4   9  17  29  44  62  85 113 146 186 230 271
#     4   9  15  23  37  57  82 111 139 166 200 245
#     4   9  16  25  38  58  84 111 139 174 215 257
#     4   9  17  29  44  62  85 113 144 177 216 266
#
# _framework density 15.910403000000001
#
# number of rings (size 3 to 8) (size 9 to 14) (size 15 to 20)
#    0.000    3.000    0.000    1.800    0.000    8.000 
#    0.000    0.000    0.000    0.000    0.000    1.400 
#    0.000    8.000    0.000    0.000    0.000    0.000 
#
# Total GULP energy -222716.498240 kJ/mol
# GULP energy per Si atom -5567.912456 kJ/mol
# Density = 1.587419 g / cm^3
# Si number density = 15.910403 Si / 1000 Ang^3
#
#
#
# Elastic Constant Matrix: (Units=GPa)
#
#
# Indices 1 2 3 4 5 6 
#
# 1 44.1331 28.2907 39.1626 0.0000 0.0000 0.0000
# 2 28.2907 88.9109 76.2853 0.0000 0.0000 0.0000
# 3 39.1626 76.2853 144.4013 0.0000 0.0000 0.0000
# 4 0.0000 0.0000 0.0000 12.4461 0.0000 0.0000
# 5 0.0000 0.0000 0.0000 0.0000 9.9689 0.0000
# 6 0.0000 0.0000 0.0000 0.0000 0.0000 3.9097
#
#
#
# Elastic Compliance Matrix: (Units=1/GPa)
#
#
# Indices 1 2 3 4 5 6 
#
# 1 0.030937 -0.004838 -0.005835 0.000000 0.000000 0.000000
# 2 -0.004838 0.021328 -0.009955 0.000000 0.000000 0.000000
# 3 -0.005835 -0.009955 0.013767 0.000000 0.000000 0.000000
# 4 0.000000 0.000000 0.000000 0.080346 0.000000 0.000000
# 5 0.000000 0.000000 0.000000 0.000000 0.100312 0.000000
# 6 0.000000 0.000000 0.000000 0.000000 0.000000 0.255777
#
#
# Mechanical properties :
#
#
# Convention : Reuss Voigt Hill
#
# Bulk Modulus (GPa) = 40.36048 62.76915 51.56482
# Shear Modulus (GPa) = 9.05825 14.17871 11.61848
#
# Velocity S-wave (km/s) = 2.38865 2.98847 2.70523
# Velocity P-wave (km/s) = 5.74717 7.17253 6.49904
#
# Compressibility (1/GPa) = 0.02477671
#
# Stress axis : x y z
#
# Youngs Moduli (GPa) = 32.32324 46.88607 72.63845
#
# Poissons Ratio (x) = 0.22683 0.42382
# Poissons Ratio (y) = 0.15638 0.72314
# Poissons Ratio (z) = 0.18859 0.46677
#
# Static dielectric constant tensor:
#      x y z
#    x 1.546830 0.000000 0.000000 
#    y 0.000000 1.537440 0.000000 
#    z 0.000000 0.000000 1.503630 
# 
# From -- ./inp_files/17082.got.cif
#   From: 2010.05.17/outbox.cif.g08.bks.cpg/sg51_9_cif.got.tgz:17082.got - 2010.06.03 11:52:47.
