data_PCOD9407908
_publ_section_title
;
Structure prediction by ZEFSAII (Michael W. Deem and Ramdas Pophale) SiO2 
 PCOD9407908
Probable space group: P N N A
;
_chemical_formula_sum "Si O2"
_cell_formula_units_Z 40
_cell_length_a 22.367845
_cell_length_b 11.037805
_cell_length_c 8.342862
_cell_angle_alpha 90.000000
_cell_angle_beta 90.000000
_cell_angle_gamma 90.000000
_cell_volume 2059.785146
_symmetry_space_group_name_H-M "P N N A"
_symmetry_group_IT_number 52
_symmetry_cell_setting 'orthorhombic'
loop_
_space_group_symop_operation_xyz
x,y,z
1/2-x,-y,z
x,1/2-y,1/2-z
1/2-x,1/2+y,1/2-z
-x,-y,-z
1/2+x,y,-z
-x,1/2+y,1/2+z
1/2+x,1/2-y,1/2+z
loop_
_atom_site_type_symbol
_atom_site_label
_atom_site_fract_x
_atom_site_fract_y
_atom_site_fract_z
Si Si1 0.777069 0.878617 0.922325
Si Si2 0.271027 0.373131 0.049222
Si Si3 0.401127 0.142900 0.367442
Si Si4 0.967475 0.312185 0.419099
Si Si5 0.912575 0.538687 0.589378
O O1 0.756939 0.754021 0.004728
O O2 0.749750 0.876560 0.739386
O O3 0.848203 0.898450 0.920089
O O4 0.750000 0.000000 0.998346
O O5 0.250000 0.500000 0.977611
O O6 0.342297 0.375927 0.028689
O O7 0.379665 0.250000 0.250000
O O8 0.456270 0.203679 0.456303
O O9 0.416246 0.026194 0.263137
O O10 0.955428 0.250000 0.250000
O O11 0.924564 0.425895 0.467193
O O12 0.033773 0.366812 0.428495
#
# Coordination Sequence:
#
# PCOD9407908 Si02
#       5
#     8   8   8   8   8
#     4  10  16  29  54  89 111 137 183 265 301 326
#     4  10  17  27  53  95 111 132 185 271 305 320
#     4  10  17  34  56  80 116 147 199 249 294 349
#     4  10  23  36  52  80 120 165 192 239 302 369
#     4  10  20  36  57  84 114 154 209 244 293 360
#
# _framework density 19.419499999999999
#
# number of rings (size 3 to 8) (size 9 to 14) (size 15 to 20)
#    0.000    2.000    6.000    1.200    2.800    0.800 
#    0.000    0.000    0.000    3.600    0.000    9.800 
#    0.000    0.000    0.000    0.000    0.000    0.000 
#
# Total GULP energy -222728.189847 kJ/mol
# GULP energy per Si atom -5568.204746 kJ/mol
# Density = 1.937530 g / cm^3
# Si number density = 19.419500 Si / 1000 Ang^3
#
#
#
# Elastic Constant Matrix: (Units=GPa)
#
#
# Indices 1 2 3 4 5 6 
#
# 1 129.1623 68.8488 22.7024 0.0000 0.0000 0.0000
# 2 68.8488 161.2650 29.6007 0.0000 0.0000 0.0000
# 3 22.7024 29.6007 24.7149 0.0000 0.0000 0.0000
# 4 0.0000 0.0000 0.0000 11.7476 0.0000 0.0000
# 5 0.0000 0.0000 0.0000 0.0000 25.5582 0.0000
# 6 0.0000 0.0000 0.0000 0.0000 0.0000 1.3005
#
#
#
# Elastic Compliance Matrix: (Units=1/GPa)
#
#
# Indices 1 2 3 4 5 6 
#
# 1 0.010580 -0.003503 -0.005523 0.000000 0.000000 0.000000
# 2 -0.003503 0.009108 -0.007691 0.000000 0.000000 0.000000
# 3 -0.005523 -0.007691 0.054746 0.000000 0.000000 0.000000
# 4 0.000000 0.000000 0.000000 0.085124 0.000000 0.000000
# 5 0.000000 0.000000 0.000000 0.000000 0.039126 0.000000
# 6 0.000000 0.000000 0.000000 0.000000 0.000000 0.768934
#
#
# Mechanical properties :
#
#
# Convention : Reuss Voigt Hill
#
# Bulk Modulus (GPa) = 24.39005 61.93843 43.16424
# Shear Modulus (GPa) = 4.92747 20.65394 12.79071
#
# Velocity S-wave (km/s) = 1.59464 3.26478 2.56921
# Velocity P-wave (km/s) = 3.99717 6.79528 5.57464
#
# Compressibility (1/GPa) = 0.04100032
#
# Stress axis : x y z
#
# Youngs Moduli (GPa) = 94.51476 109.78969 18.26620
#
# Poissons Ratio (x) = 0.38463 0.10088
# Poissons Ratio (y) = 0.33111 0.14048
# Poissons Ratio (z) = 0.52200 0.84438
#
# Static dielectric constant tensor:
#      x y z
#    x 1.675460 0.000000 0.000000 
#    y 0.000000 1.707370 0.000000 
#    z 0.000000 0.000000 1.687600 
# 
# From -- ./inp_files/13148.got.cif
#   From: 2010.05.17/outbox.cif.g08.bks.cpg/sg52_7_cif.got.tgz:13148.got - 2010.06.03 12:15:38.
