data_PCOD9407662
_publ_section_title
;
Structure prediction by ZEFSAII (Michael W. Deem and Ramdas Pophale) SiO2 
 PCOD9407662
Probable space group: P M M A
;
_chemical_formula_sum "Si O2"
_cell_formula_units_Z 48
_cell_length_a 9.000000
_cell_length_b 15.000000
_cell_length_c 18.000000
_cell_angle_alpha 90.000000
_cell_angle_beta 90.000000
_cell_angle_gamma 90.000000
_cell_volume 2430.000000
_symmetry_space_group_name_H-M "P M M A"
_symmetry_group_IT_number 51
_symmetry_cell_setting 'orthorhombic'
loop_
_space_group_symop_operation_xyz
x,y,z
1/2-x,-y,z
1/2+x,-y,-z
-x,y,-z
-x,-y,-z
1/2+x,y,-z
1/2-x,y,z
x,-y,z
loop_
_atom_site_type_symbol
_atom_site_label
_atom_site_fract_x
_atom_site_fract_y
_atom_site_fract_z
Si Si1 0.922061 0.847414 0.570676
Si Si2 0.071590 0.500000 0.825432
Si Si3 0.425956 0.500000 0.337887
Si Si4 0.425738 0.676032 0.637919
Si Si5 0.074133 0.341909 0.080324
Si Si6 0.580923 0.245518 0.198907
Si Si7 0.587857 0.098769 0.735896
O O1 0.750000 0.829095 0.554118
O O2 0.927982 0.901334 0.647086
O O3 0.000000 0.890032 0.500000
O O4 0.009522 0.757062 0.590926
O O5 0.250000 0.500000 0.820833
O O6 0.002509 0.500000 0.743562
O O7 0.009832 0.417569 0.872446
O O8 0.250000 0.500000 0.329072
O O9 0.484376 0.587362 0.378660
O O10 0.250000 0.665854 0.627109
O O11 0.449182 0.696999 0.726289
O O12 0.250000 0.358001 0.075136
O O13 0.032953 0.258771 0.131939
O O14 0.000000 0.336316 0.000000
O O15 0.750000 0.261995 0.175365
O O16 0.550904 0.147932 0.229570
O O17 0.750000 0.143993 0.749630
O O18 0.594977 0.000000 0.764825
#
# Coordination Sequence:
#
# PCOD9407662 Si02
#       7
#     8   4   4   8   8   8   8
#     4  10  20  35  55  80 112 146 183 223 274 331
#     4  12  23  37  54  79 114 149 188 233 277 323
#     4  12  22  33  54  81 108 143 187 231 277 323
#     4  10  20  35  55  77 106 143 185 230 275 322
#     4  12  24  38  56  80 113 151 189 230 278 330
#     4  10  20  35  56  81 110 143 183 228 274 328
#     4   9  19  36  58  84 113 145 182 224 271 328
#
# _framework density 19.753086
#
# number of rings (size 3 to 8) (size 9 to 14) (size 15 to 20)
#    0.000    1.500    1.667    4.750    0.000    2.667 
#    0.000    0.417    0.000    0.500    0.000    0.000 
#    0.000    0.000    0.000    0.000    0.000    0.000 
#
# Total GULP energy -267680.672169 kJ/mol
# GULP energy per Si atom -5576.680670 kJ/mol
# Density = 1.970813 g / cm^3
# Si number density = 19.753086 Si / 1000 Ang^3
#
#
#
# Elastic Constant Matrix: (Units=GPa)
#
#
# Indices 1 2 3 4 5 6 
#
# 1 120.2381 28.8566 10.6432 0.0000 0.0000 0.0000
# 2 28.8566 70.6190 2.8662 0.0000 0.0000 0.0000
# 3 10.6432 2.8662 27.7151 0.0000 0.0000 0.0000
# 4 0.0000 0.0000 0.0000 13.1263 0.0000 0.0000
# 5 0.0000 0.0000 0.0000 0.0000 33.4550 0.0000
# 6 0.0000 0.0000 0.0000 0.0000 0.0000 -2.3367
#
#
#
# Elastic Compliance Matrix: (Units=1/GPa)
#
#
# Indices 1 2 3 4 5 6 
#
# 1 0.009506 -0.003752 -0.003263 0.000000 0.000000 0.000000
# 2 -0.003752 0.015701 -0.000183 0.000000 0.000000 0.000000
# 3 -0.003263 -0.000183 0.037353 0.000000 0.000000 0.000000
# 4 0.000000 0.000000 0.000000 0.076183 0.000000 0.000000
# 5 0.000000 0.000000 0.000000 0.000000 0.029891 0.000000
# 6 0.000000 0.000000 0.000000 0.000000 0.000000 -0.427956
#
#
# Mechanical properties :
#
#
# Convention : Reuss Voigt Hill
#
# Bulk Modulus (GPa) = 20.76173 33.70045 27.23109
# Shear Modulus (GPa) = -21.84624 20.59602 -0.62511
#
# Velocity S-wave (km/s) = -3.32921 3.23255 -0.56316
# Velocity P-wave (km/s) = 2.06029 5.57049 3.65962
#
# Compressibility (1/GPa) = 0.04816555
#
# Stress axis : x y z
#
# Youngs Moduli (GPa) = 105.19579 63.68989 26.77147
#
# Poissons Ratio (x) = 0.23896 0.08734
# Poissons Ratio (y) = 0.39469 0.00490
# Poissons Ratio (z) = 0.34320 0.01165
#
# Static dielectric constant tensor:
#      x y z
#    x 1.693880 0.000000 0.000000 
#    y 0.000000 1.859370 0.000000 
#    z 0.000000 0.000000 1.678690 
# 
# From -- ./inp_files/27628.got.cif
#   From: 2010.05.17/outbox.ucp.g08.bks.cvg/sg51_14_cif.got.tgz:27628.got - 2010.06.11 16:27:58.
