data_PCOD9407221
_publ_section_title
;
Structure prediction by ZEFSAII (Michael W. Deem and Ramdas Pophale) SiO2 
 PCOD9407221
Probable space group: P M M A
;
_chemical_formula_sum "Si O2"
_cell_formula_units_Z 40
_cell_length_a 13.937412
_cell_length_b 9.297816
_cell_length_c 15.650451
_cell_angle_alpha 90.000000
_cell_angle_beta 90.000000
_cell_angle_gamma 90.000000
_cell_volume 2028.102698
_symmetry_space_group_name_H-M "P M M A"
_symmetry_group_IT_number 51
_symmetry_cell_setting 'orthorhombic'
loop_
_space_group_symop_operation_xyz
x,y,z
1/2-x,-y,z
1/2+x,-y,-z
-x,y,-z
-x,-y,-z
1/2+x,y,-z
1/2-x,y,z
x,-y,z
loop_
_atom_site_type_symbol
_atom_site_label
_atom_site_fract_x
_atom_site_fract_y
_atom_site_fract_z
Si Si1 0.862391 0.332013 0.648272
Si Si2 0.458098 0.830221 0.704211
Si Si3 0.439926 0.672981 0.870954
Si Si4 0.855578 0.674022 0.946126
Si Si5 0.864797 0.661416 0.446338
O O1 0.750000 0.301655 0.661523
O O2 0.878250 0.500000 0.671070
O O3 0.883683 0.316240 0.546827
O O4 0.933616 0.230047 0.698390
O O5 0.410019 0.752791 0.785240
O O6 0.409282 0.776006 0.616996
O O7 0.454903 0.000000 0.712007
O O8 0.437953 0.500000 0.859095
O O9 0.376514 0.706922 0.954305
O O10 0.549466 0.718031 0.894656
O O11 0.750000 0.726672 0.919541
O O12 0.854360 0.500000 0.939859
O O13 0.750000 0.662612 0.437363
O O14 0.899540 0.500000 0.423557
#
# Coordination Sequence:
#
# PCOD9407221 Si02
#       5
#     8   8   8   8   8
#     4   9  19  37  59  79 100 134 183 231 269 308
#     4  12  24  34  49  78 116 149 174 209 260 317
#     4   9  18  33  53  77 102 130 171 216 255 306
#     4   8  15  31  56  80  98 122 164 219 268 303
#     4   9  19  37  59  79 100 134 183 231 269 308
#
# _framework density 19.722866
#
# number of rings (size 3 to 8) (size 9 to 14) (size 15 to 20)
#    0.000    2.600    0.000    4.800    0.000    5.600 
#    0.000    8.000    0.000    1.200    0.000    0.000 
#    0.000    0.000    0.000    0.000    0.000    0.000 
#
# Total GULP energy -223288.241809 kJ/mol
# GULP energy per Si atom -5582.206045 kJ/mol
# Density = 1.967798 g / cm^3
# Si number density = 19.722866 Si / 1000 Ang^3
#
#
#
# Elastic Constant Matrix: (Units=GPa)
#
#
# Indices 1 2 3 4 5 6 
#
# 1 38.2281 -2.6805 -2.6030 0.0000 0.0000 0.0000
# 2 -2.6805 63.1469 35.1515 0.0000 0.0000 0.0000
# 3 -2.6030 35.1515 35.9147 0.0000 0.0000 0.0000
# 4 0.0000 0.0000 0.0000 -20.8260 0.0000 0.0000
# 5 0.0000 0.0000 0.0000 0.0000 5.7391 0.0000
# 6 0.0000 0.0000 0.0000 0.0000 0.0000 2.1302
#
#
#
# Elastic Compliance Matrix: (Units=1/GPa)
#
#
# Indices 1 2 3 4 5 6 
#
# 1 0.026289 0.000121 0.001786 0.000000 0.000000 0.000000
# 2 0.000121 0.034792 -0.034044 0.000000 0.000000 0.000000
# 3 0.001786 -0.034044 0.061294 0.000000 0.000000 0.000000
# 4 0.000000 0.000000 0.000000 -0.048017 0.000000 0.000000
# 5 0.000000 0.000000 0.000000 0.000000 0.174243 0.000000
# 6 0.000000 0.000000 0.000000 0.000000 0.000000 0.469449
#
#
# Mechanical properties :
#
#
# Convention : Reuss Voigt Hill
#
# Bulk Modulus (GPa) = 17.21089 21.89175 19.55132
# Shear Modulus (GPa) = 6.23681 4.57010 5.40345
#
# Velocity S-wave (km/s) = 1.78019 1.52387 1.65700
# Velocity P-wave (km/s) = 3.60149 3.77095 3.68719
#
# Compressibility (1/GPa) = 0.05810276
#
# Stress axis : x y z
#
# Youngs Moduli (GPa) = 38.03881 28.74183 16.31476
#
# Poissons Ratio (x) = -0.00349 -0.02915
# Poissons Ratio (y) = -0.00462 0.55543
# Poissons Ratio (z) = -0.06796 0.97850
#
# Static dielectric constant tensor:
#      x y z
#    x 1.733650 0.000000 0.000000 
#    y 0.000000 1.640250 0.000000 
#    z 0.000000 0.000000 1.701680 
# 
# From -- ./inp_files/23675.got.cif
#   From: 2010.05.17/outbox.cif.g08.bks.cpg/sg51_12_cif.got.tgz:23675.got - 2010.06.03 11:52:47.
