data_PCOD9407758
_publ_section_title
;
Structure prediction by ZEFSAII (Michael W. Deem and Ramdas Pophale) SiO2 
 PCOD9407758
Probable space group: P M M A
;
_chemical_formula_sum "Si O2"
_cell_formula_units_Z 48
_cell_length_a 9.000000
_cell_length_b 9.000000
_cell_length_c 30.000000
_cell_angle_alpha 90.000000
_cell_angle_beta 90.000000
_cell_angle_gamma 90.000000
_cell_volume 2430.000000
_symmetry_space_group_name_H-M "P M M A"
_symmetry_group_IT_number 51
_symmetry_cell_setting 'orthorhombic'
loop_
_space_group_symop_operation_xyz
x,y,z
1/2-x,-y,z
1/2+x,-y,-z
-x,y,-z
-x,-y,-z
1/2+x,y,-z
1/2-x,y,z
x,-y,z
loop_
_atom_site_type_symbol
_atom_site_label
_atom_site_fract_x
_atom_site_fract_y
_atom_site_fract_z
Si Si1 0.583263 0.677955 0.043409
Si Si2 0.423066 0.669136 0.290443
Si Si3 0.583468 0.321981 0.456642
Si Si4 0.928022 0.833765 0.621888
Si Si5 0.424965 0.668615 0.802697
Si Si6 0.573848 0.833917 0.878314
O O1 0.750000 0.736035 0.045811
O O2 0.589926 0.500000 0.040079
O O3 0.494578 0.721224 0.086818
O O4 0.500000 0.736548 0.000000
O O5 0.250000 0.692035 0.277152
O O6 0.432243 0.500000 0.308238
O O7 0.464910 0.783762 0.328389
O O8 0.528676 0.680302 0.248372
O O9 0.500000 0.263253 0.500000
O O10 0.750000 0.263911 0.455117
O O11 0.588971 0.500000 0.459879
O O12 0.497092 0.277680 0.412872
O O13 0.750000 0.828518 0.618356
O O14 0.979299 0.000000 0.612455
O O15 0.250000 0.687151 0.809140
O O16 0.464761 0.500000 0.817286
O O17 0.514225 0.787943 0.830479
O O18 0.750000 0.826516 0.879228
O O19 0.525912 0.000000 0.890142
#
# Coordination Sequence:
#
# PCOD9407758 Si02
#       6
#     8   8   8   8   8   8
#     4  10  21  38  61  87 113 144 184 228 274 325
#     4   9  18  34  56  80 108 145 186 226 268 317
#     4  10  21  37  58  82 107 139 181 227 273 322
#     4  10  21  36  55  81 113 147 181 220 269 324
#     4  10  21  37  58  84 112 143 182 228 276 326
#     4  11  24  39  56  81 113 149 187 227 274 327
#
# _framework density 19.753086
#
# number of rings (size 3 to 8) (size 9 to 14) (size 15 to 20)
#    0.000    2.000    0.000    3.000    0.000    9.333 
#    0.000    3.333    0.000    0.000    0.000    0.000 
#    0.000    0.000    0.000    0.000    0.000    0.000 
#
# Total GULP energy -267774.524976 kJ/mol
# GULP energy per Si atom -5578.635937 kJ/mol
# Density = 1.970813 g / cm^3
# Si number density = 19.753086 Si / 1000 Ang^3
#
#
#
# Elastic Constant Matrix: (Units=GPa)
#
#
# Indices 1 2 3 4 5 6 
#
# 1 23.7551 31.9770 33.5941 0.0000 0.0000 0.0000
# 2 31.9770 -1.2501 13.7818 0.0000 0.0000 0.0000
# 3 33.5941 13.7818 44.6132 0.0000 0.0000 0.0000
# 4 0.0000 0.0000 0.0000 -129.3365 0.0000 0.0000
# 5 0.0000 0.0000 0.0000 0.0000 20.6961 0.0000
# 6 0.0000 0.0000 0.0000 0.0000 0.0000 -1.6651
#
#
#
# Elastic Compliance Matrix: (Units=1/GPa)
#
#
# Indices 1 2 3 4 5 6 
#
# 1 0.012024 0.047156 -0.023622 0.000000 0.000000 0.000000
# 2 0.047156 0.003366 -0.036549 0.000000 0.000000 0.000000
# 3 -0.023622 -0.036549 0.051493 0.000000 0.000000 0.000000
# 4 0.000000 0.000000 0.000000 -0.007732 0.000000 0.000000
# 5 0.000000 0.000000 0.000000 0.000000 0.048318 0.000000
# 6 0.000000 0.000000 0.000000 0.000000 0.000000 -0.600573
#
#
# Mechanical properties :
#
#
# Convention : Reuss Voigt Hill
#
# Bulk Modulus (GPa) = 24.47728 25.09156 24.78442
# Shear Modulus (GPa) = -11.02641 -22.87675 -16.95158
#
# Velocity S-wave (km/s) = -2.36521 -3.40683 -2.93264
# Velocity P-wave (km/s) = 2.22700 1.65685 1.05223
#
# Compressibility (1/GPa) = 0.04085421
#
# Stress axis : x y z
#
# Youngs Moduli (GPa) = 83.16451 297.12088 19.42018
#
# Poissons Ratio (x) = -14.01111 0.45874
# Poissons Ratio (y) = -3.92173 0.70978
# Poissons Ratio (z) = 1.96450 10.85939
#
# Static dielectric constant tensor:
#      x y z
#    x 1.621150 0.000000 0.000000 
#    y 0.000000 1.712630 0.000000 
#    z 0.000000 0.000000 1.647030 
# 
# From -- ./inp_files/36957.got.cif
#   From: 2010.05.17/outbox.ucp.g08.bks.cvg/sg51_19_cif.got.tgz:36957.got - 2010.06.11 16:27:58.
