data_PCOD9407968
_publ_section_title
;
Structure prediction by ZEFSAII (Michael W. Deem and Ramdas Pophale) SiO2 
 PCOD9407968
Probable space group: P N N A
;
_chemical_formula_sum "Si O2"
_cell_formula_units_Z 40
_cell_length_a 24.031345
_cell_length_b 7.376411
_cell_length_c 9.230452
_cell_angle_alpha 90.000000
_cell_angle_beta 90.000000
_cell_angle_gamma 90.000000
_cell_volume 1636.236790
_symmetry_space_group_name_H-M "P N N A"
_symmetry_group_IT_number 52
_symmetry_cell_setting 'orthorhombic'
loop_
_space_group_symop_operation_xyz
x,y,z
1/2-x,-y,z
x,1/2-y,1/2-z
1/2-x,1/2+y,1/2-z
-x,-y,-z
1/2+x,y,-z
-x,1/2+y,1/2+z
1/2+x,1/2-y,1/2+z
loop_
_atom_site_type_symbol
_atom_site_label
_atom_site_fract_x
_atom_site_fract_y
_atom_site_fract_z
Si Si1 0.956561 0.233160 0.421061
Si Si2 0.734560 0.750000 0.750000
Si Si3 0.566209 0.197298 0.418885
Si Si4 0.336917 0.185318 0.999220
Si Si5 0.682537 0.382892 0.995334
Si Si6 0.759535 0.250000 0.250000
O O1 0.964912 0.250000 0.250000
O O2 0.902165 0.344269 0.473477
O O3 0.011902 0.283481 0.508332
O O4 0.943771 0.018801 0.438016
O O5 0.693238 0.872258 0.851870
O O6 0.777189 0.831374 0.634199
O O7 0.569889 0.250000 0.250000
O O8 0.625490 0.229922 0.495515
O O9 0.331274 0.404823 0.009137
O O10 0.301208 0.137125 0.856381
O O11 0.717872 0.343399 0.138341
#
# Coordination Sequence:
#
# PCOD9407968 Si02
#       6
#     8   4   8   8   8   4
#     4  10  22  41  64  87 118 155 196 247 297 347
#     4  10  20  34  56  82 116 156 184 232 282 354
#     4  10  22  41  64  87 118 155 196 247 297 347
#     4  10  21  38  56  83 117 149 192 243 292 345
#     4  10  21  38  56  83 117 149 192 243 292 345
#     4  10  16  34  60  78 108 152 184 236 282 358
#
# _framework density 24.446339999999999
#
# number of rings (size 3 to 8) (size 9 to 14) (size 15 to 20)
#    0.000    2.000    2.000    2.400    2.800    0.800 
#    0.000   20.000    0.000    0.000    0.000    0.000 
#    0.000    0.000    0.000    0.000    0.000    0.000 
#
# Total GULP energy -223720.589754 kJ/mol
# GULP energy per Si atom -5593.014744 kJ/mol
# Density = 2.439070 g / cm^3
# Si number density = 24.446340 Si / 1000 Ang^3
#
#
#
# Elastic Constant Matrix: (Units=GPa)
#
#
# Indices 1 2 3 4 5 6 
#
# 1 240.0818 18.5083 95.0194 0.0000 0.0000 0.0000
# 2 18.5083 53.3110 9.6700 0.0000 0.0000 0.0000
# 3 95.0194 9.6700 190.0001 0.0000 0.0000 0.0000
# 4 0.0000 0.0000 0.0000 34.1663 0.0000 0.0000
# 5 0.0000 0.0000 0.0000 0.0000 11.4437 0.0000
# 6 0.0000 0.0000 0.0000 0.0000 0.0000 29.7030
#
#
#
# Elastic Compliance Matrix: (Units=1/GPa)
#
#
# Indices 1 2 3 4 5 6 
#
# 1 0.005290 -0.001369 -0.002576 0.000000 0.000000 0.000000
# 2 -0.001369 0.019287 -0.000297 0.000000 0.000000 0.000000
# 3 -0.002576 -0.000297 0.006567 0.000000 0.000000 0.000000
# 4 0.000000 0.000000 0.000000 0.029269 0.000000 0.000000
# 5 0.000000 0.000000 0.000000 0.000000 0.087384 0.000000
# 6 0.000000 0.000000 0.000000 0.000000 0.000000 0.033667
#
#
# Mechanical properties :
#
#
# Convention : Reuss Voigt Hill
#
# Bulk Modulus (GPa) = 44.13141 81.08758 62.60949
# Shear Modulus (GPa) = 25.31633 39.07560 32.19597
#
# Velocity S-wave (km/s) = 3.22155 4.00237 3.63299
# Velocity P-wave (km/s) = 5.65061 7.38920 6.57760
#
# Compressibility (1/GPa) = 0.02265960
#
# Stress axis : x y z
#
# Youngs Moduli (GPa) = 189.02326 51.84807 152.28738
#
# Poissons Ratio (x) = 0.07100 0.39230
# Poissons Ratio (y) = 0.25885 0.04519
# Poissons Ratio (z) = 0.48693 0.01539
#
# Static dielectric constant tensor:
#      x y z
#    x 1.941310 0.000000 0.000000 
#    y 0.000000 2.155460 0.000000 
#    z 0.000000 0.000000 1.885160 
# 
# From -- ./inp_files/14041.got.cif
#   From: 2010.05.17/outbox.cif.g08.bks.cpg/sg52_8_cif.got.tgz:14041.got - 2010.06.03 12:15:38.
