data_PCOD9407011
_publ_section_title
;
Structure prediction by ZEFSAII (Michael W. Deem and Ramdas Pophale) SiO2 
 PCOD9407011
Probable space group: P M M A
;
_chemical_formula_sum "Si O2"
_cell_formula_units_Z 64
_cell_length_a 17.899101
_cell_length_b 13.903303
_cell_length_c 15.684615
_cell_angle_alpha 90.000000
_cell_angle_beta 90.000000
_cell_angle_gamma 90.000000
_cell_volume 3903.220348
_symmetry_space_group_name_H-M "P M M A"
_symmetry_group_IT_number 51
_symmetry_cell_setting 'orthorhombic'
loop_
_space_group_symop_operation_xyz
x,y,z
1/2-x,-y,z
1/2+x,-y,-z
-x,y,-z
-x,-y,-z
1/2+x,y,-z
1/2-x,y,z
x,-y,z
loop_
_atom_site_type_symbol
_atom_site_label
_atom_site_fract_x
_atom_site_fract_y
_atom_site_fract_z
Si Si1 0.914249 0.212790 0.776136
Si Si2 0.159324 0.392707 0.945425
Si Si3 0.661811 0.809484 0.117883
Si Si4 0.164254 0.116603 0.564627
Si Si5 0.660621 0.890707 0.622089
Si Si6 0.420267 0.114471 0.040883
Si Si7 0.433887 0.886029 0.728844
Si Si8 0.838041 0.386759 0.854814
O O1 0.861237 0.171453 0.702759
O O2 0.906388 0.159708 0.867163
O O3 0.890958 0.321535 0.797067
O O4 0.995947 0.183249 0.743127
O O5 0.250000 0.394430 0.942088
O O6 0.132724 0.500000 0.921462
O O7 0.135097 0.301878 0.889406
O O8 0.141043 0.374970 0.045028
O O9 0.750000 0.811011 0.133163
O O10 0.619695 0.867858 0.190667
O O11 0.642242 0.855417 0.026754
O O12 0.250000 0.149693 0.578903
O O13 0.135984 0.147306 0.470972
O O14 0.110571 0.139686 0.642848
O O15 0.167222 0.000000 0.560457
O O16 0.750000 0.895800 0.615858
O O17 0.631761 0.000000 0.633660
O O18 0.423084 0.000000 0.049969
O O19 0.500000 0.145860 0.000000
O O20 0.454633 0.000000 0.726546
O O21 0.750000 0.358707 0.846095
O O22 0.843329 0.500000 0.835917
#
# Coordination Sequence:
#
# PCOD9407011 Si02
#       8
#     8   8   8   8   8   8   8   8
#     4  12  21  32  51  75 104 134 168 205 256 314
#     4   8  15  30  50  70  92 120 161 217 269 300
#     4  11  21  33  51  73  95 133 185 222 249 295
#     4   8  16  33  53  72  99 134 172 216 257 292
#     4   9  18  32  51  77 105 130 163 210 258 306
#     4  11  22  35  46  63 105 151 175 201 249 303
#     4  11  22  34  49  71 104 144 177 209 248 303
#     4   9  18  34  54  74  98 130 170 216 261 307
#
# _framework density 16.396718
#
# number of rings (size 3 to 8) (size 9 to 14) (size 15 to 20)
#    0.000    2.125    2.500    3.750    0.000    2.500 
#    0.000    2.500    0.000    2.250    0.000    2.625 
#    0.000    4.000    0.000    0.000    0.000    0.000 
#
# Total GULP energy -356745.720260 kJ/mol
# GULP energy per Si atom -5574.151879 kJ/mol
# Density = 1.635940 g / cm^3
# Si number density = 16.396718 Si / 1000 Ang^3
#
#
#
# Elastic Constant Matrix: (Units=GPa)
#
#
# Indices 1 2 3 4 5 6 
#
# 1 42.3531 22.5185 20.4037 0.0000 0.0000 0.0000
# 2 22.5185 53.8816 23.6654 0.0000 0.0000 0.0000
# 3 20.4037 23.6654 100.2568 0.0000 0.0000 0.0000
# 4 0.0000 0.0000 0.0000 4.8772 0.0000 0.0000
# 5 0.0000 0.0000 0.0000 0.0000 21.4971 0.0000
# 6 0.0000 0.0000 0.0000 0.0000 0.0000 21.0928
#
#
#
# Elastic Compliance Matrix: (Units=1/GPa)
#
#
# Indices 1 2 3 4 5 6 
#
# 1 0.031534 -0.011558 -0.003689 0.000000 0.000000 0.000000
# 2 -0.011558 0.024943 -0.003535 0.000000 0.000000 0.000000
# 3 -0.003689 -0.003535 0.011560 0.000000 0.000000 0.000000
# 4 0.000000 0.000000 0.000000 0.205035 0.000000 0.000000
# 5 0.000000 0.000000 0.000000 0.000000 0.046518 0.000000
# 6 0.000000 0.000000 0.000000 0.000000 0.000000 0.047410
#
#
# Mechanical properties :
#
#
# Convention : Reuss Voigt Hill
#
# Bulk Modulus (GPa) = 32.81912 36.62965 34.72438
# Shear Modulus (GPa) = 12.05630 18.15368 15.10499
#
# Velocity S-wave (km/s) = 2.71456 3.33100 3.03845
# Velocity P-wave (km/s) = 5.46665 6.09772 5.79079
#
# Compressibility (1/GPa) = 0.03047004
#
# Stress axis : x y z
#
# Youngs Moduli (GPa) = 31.71207 40.09219 86.50736
#
# Poissons Ratio (x) = 0.46340 0.31915
# Poissons Ratio (y) = 0.36654 0.30583
# Poissons Ratio (z) = 0.11699 0.14174
#
# Static dielectric constant tensor:
#      x y z
#    x 1.587050 0.000000 0.000000 
#    y 0.000000 1.554050 0.000000 
#    z 0.000000 0.000000 1.553580 
# 
# From -- ./inp_files/25388.got.cif
#   From: 2010.05.17/outbox.cif.g08.bks.cpg/sg51_13_cif.got.tgz:25388.got - 2010.06.03 11:52:47.
