data_PCOD9407323
_publ_section_title
;
Structure prediction by ZEFSAII (Michael W. Deem and Ramdas Pophale) SiO2 
 PCOD9407323
Probable space group: P M M A
;
_chemical_formula_sum "Si O2"
_cell_formula_units_Z 48
_cell_length_a 9.745232
_cell_length_b 14.138407
_cell_length_c 20.159452
_cell_angle_alpha 90.000000
_cell_angle_beta 90.000000
_cell_angle_gamma 90.000000
_cell_volume 2777.610751
_symmetry_space_group_name_H-M "P M M A"
_symmetry_group_IT_number 51
_symmetry_cell_setting 'orthorhombic'
loop_
_space_group_symop_operation_xyz
x,y,z
1/2-x,-y,z
1/2+x,-y,-z
-x,y,-z
-x,-y,-z
1/2+x,y,-z
1/2-x,y,z
x,-y,z
loop_
_atom_site_type_symbol
_atom_site_label
_atom_site_fract_x
_atom_site_fract_y
_atom_site_fract_z
Si Si1 0.092482 0.615347 0.562442
Si Si2 0.912407 0.229467 0.191739
Si Si3 0.597527 0.113208 0.322151
Si Si4 0.917558 0.608885 0.288175
Si Si5 0.095633 0.884640 0.439143
Si Si6 0.585123 0.109835 0.067381
O O1 0.250000 0.647096 0.554107
O O2 0.094522 0.500000 0.562891
O O3 0.043225 0.640612 0.637046
O O4 0.000000 0.644059 0.500000
O O5 0.750000 0.246279 0.180909
O O6 0.924642 0.150351 0.248624
O O7 0.966937 0.323203 0.228862
O O8 0.963339 0.184205 0.123359
O O9 0.750000 0.146015 0.343970
O O10 0.480278 0.144121 0.372166
O O11 0.599482 0.000000 0.322541
O O12 0.750000 0.611578 0.288461
O O13 0.958752 0.500000 0.278521
O O14 0.250000 0.849406 0.444719
O O15 0.000000 0.857432 0.500000
O O16 0.101236 0.000000 0.439597
O O17 0.750000 0.121079 0.056862
O O18 0.565532 0.000000 0.089403
O O19 0.500000 0.122556 0.000000
#
# Coordination Sequence:
#
# PCOD9407323 Si02
#       6
#     8   8   8   8   8   8
#     4   8  13  22  38  59  81 106 138 178 223 265
#     4   9  16  27  45  66  88 116 148 180 217 265
#     4   9  16  26  41  61  84 110 141 178 219 261
#     4   8  14  25  42  65  90 115 148 190 229 263
#     4   9  16  26  40  57  79 111 150 187 221 259
#     4   9  17  30  49  73  98 122 148 178 215 262
#
# _framework density 17.281040000000001
#
# number of rings (size 3 to 8) (size 9 to 14) (size 15 to 20)
#    0.000    3.333    0.000    2.000    0.000    4.000 
#    0.000    1.667    0.000    8.500    0.000    0.000 
#    0.000    0.000    0.000    0.000    0.000    0.000 
#
# Total GULP energy -267317.189095 kJ/mol
# GULP energy per Si atom -5569.108106 kJ/mol
# Density = 1.724171 g / cm^3
# Si number density = 17.281040 Si / 1000 Ang^3
#
#
#
# Elastic Constant Matrix: (Units=GPa)
#
#
# Indices 1 2 3 4 5 6 
#
# 1 58.2949 25.3444 42.1296 0.0000 0.0000 0.0000
# 2 25.3444 81.2384 61.3141 0.0000 0.0000 0.0000
# 3 42.1296 61.3141 116.7857 0.0000 0.0000 0.0000
# 4 0.0000 0.0000 0.0000 83.3763 0.0000 0.0000
# 5 0.0000 0.0000 0.0000 0.0000 24.2196 0.0000
# 6 0.0000 0.0000 0.0000 0.0000 0.0000 6.0283
#
#
#
# Elastic Compliance Matrix: (Units=1/GPa)
#
#
# Indices 1 2 3 4 5 6 
#
# 1 0.023318 -0.001534 -0.007607 0.000000 0.000000 0.000000
# 2 -0.001534 0.020489 -0.010204 0.000000 0.000000 0.000000
# 3 -0.007607 -0.010204 0.016664 0.000000 0.000000 0.000000
# 4 0.000000 0.000000 0.000000 0.011994 0.000000 0.000000
# 5 0.000000 0.000000 0.000000 0.000000 0.041289 0.000000
# 6 0.000000 0.000000 0.000000 0.000000 0.000000 0.165885
#
#
# Mechanical properties :
#
#
# Convention : Reuss Voigt Hill
#
# Bulk Modulus (GPa) = 45.90739 57.09948 51.50344
# Shear Modulus (GPa) = 15.35678 31.22687 23.29183
#
# Velocity S-wave (km/s) = 2.98426 4.25550 3.67526
# Velocity P-wave (km/s) = 6.20461 7.56697 6.91940
#
# Compressibility (1/GPa) = 0.02178298
#
# Stress axis : x y z
#
# Youngs Moduli (GPa) = 42.88482 48.80612 60.00971
#
# Poissons Ratio (x) = 0.07485 0.45648
# Poissons Ratio (y) = 0.06577 0.61233
# Poissons Ratio (z) = 0.32621 0.49801
#
# Static dielectric constant tensor:
#      x y z
#    x 1.596170 0.000000 0.000000 
#    y 0.000000 1.646600 0.000000 
#    z 0.000000 0.000000 1.564610 
# 
# From -- ./inp_files/31570.got.cif
#   From: 2010.05.17/outbox.cif.g08.bks.cpg/sg51_16_cif.got.tgz:31570.got - 2010.06.03 11:52:47.
