data_PCOD9407040
_publ_section_title
;
Structure prediction by ZEFSAII (Michael W. Deem and Ramdas Pophale) SiO2 
 PCOD9407040
Probable space group: P M M A
;
_chemical_formula_sum "Si O2"
_cell_formula_units_Z 44
_cell_length_a 9.473188
_cell_length_b 13.704533
_cell_length_c 16.195578
_cell_angle_alpha 90.000000
_cell_angle_beta 90.000000
_cell_angle_gamma 90.000000
_cell_volume 2102.600916
_symmetry_space_group_name_H-M "P M M A"
_symmetry_group_IT_number 51
_symmetry_cell_setting 'orthorhombic'
loop_
_space_group_symop_operation_xyz
x,y,z
1/2-x,-y,z
1/2+x,-y,-z
-x,y,-z
-x,-y,-z
1/2+x,y,-z
1/2-x,y,z
x,-y,z
loop_
_atom_site_type_symbol
_atom_site_label
_atom_site_fract_x
_atom_site_fract_y
_atom_site_fract_z
Si Si1 0.040020 0.702457 0.827389
Si Si2 0.414104 0.888013 0.370658
Si Si3 0.576636 0.500000 0.588303
Si Si4 0.250000 0.614488 0.953908
Si Si5 0.589219 0.695424 0.362093
Si Si6 0.588355 0.108004 0.830367
Si Si7 0.750000 0.616424 0.858656
O O1 0.118813 0.643494 0.897520
O O2 0.104701 0.704644 0.736933
O O3 0.018764 0.811337 0.860027
O O4 0.886979 0.656797 0.815202
O O5 0.250000 0.872595 0.396149
O O6 0.513690 0.795883 0.393481
O O7 0.414086 0.888857 0.270050
O O8 0.455505 0.000000 0.395587
O O9 0.750000 0.500000 0.588554
O O10 0.500000 0.500000 0.500000
O O11 0.511012 0.600675 0.625422
O O12 0.250000 0.500000 0.964041
O O13 0.250000 0.653670 0.046572
O O14 0.750000 0.682862 0.396217
O O15 0.750000 0.128881 0.854542
O O16 0.551339 0.000000 0.857112
O O17 0.750000 0.500000 0.856697
#
# Coordination Sequence:
#
# PCOD9407040 Si02
#       7
#     8   8   4   4   8   8   4
#     4  11  21  36  59  86 113 154 203 253 296 359
#     4   8  15  30  54  87 124 160 206 256 303 354
#     4  12  28  48  70  94 129 168 203 245 301 368
#     4  11  24  40  53  77 119 161 190 253 320 360
#     4  11  23  37  61  95 129 165 205 255 308 361
#     4   8  14  28  51  79 109 143 188 247 304 350
#     4  11  24  38  57  79 109 155 210 249 308 374
#
# _framework density 20.926463999999999
#
# number of rings (size 3 to 8) (size 9 to 14) (size 15 to 20)
#    0.000    2.000    1.818    3.545    5.091    1.818 
#    0.000    0.455    0.000    3.818    0.000    0.000 
#    0.000    0.000    0.000    0.000    0.000    0.000 
#
# Total GULP energy -245326.379317 kJ/mol
# GULP energy per Si atom -5575.599530 kJ/mol
# Density = 2.087883 g / cm^3
# Si number density = 20.926464 Si / 1000 Ang^3
#
#
#
# Elastic Constant Matrix: (Units=GPa)
#
#
# Indices 1 2 3 4 5 6 
#
# 1 150.6341 70.9779 13.5232 0.0000 0.0000 0.0000
# 2 70.9779 156.2798 17.1888 0.0000 0.0000 0.0000
# 3 13.5232 17.1888 37.0124 0.0000 0.0000 0.0000
# 4 0.0000 0.0000 0.0000 -199.0440 0.0000 0.0000
# 5 0.0000 0.0000 0.0000 0.0000 2.7432 0.0000
# 6 0.0000 0.0000 0.0000 0.0000 0.0000 38.1039
#
#
#
# Elastic Compliance Matrix: (Units=1/GPa)
#
#
# Indices 1 2 3 4 5 6 
#
# 1 0.008513 -0.003714 -0.001386 0.000000 0.000000 0.000000
# 2 -0.003714 0.008364 -0.002527 0.000000 0.000000 0.000000
# 3 -0.001386 -0.002527 0.028698 0.000000 0.000000 0.000000
# 4 0.000000 0.000000 0.000000 -0.005024 0.000000 0.000000
# 5 0.000000 0.000000 0.000000 0.000000 0.364544 0.000000
# 6 0.000000 0.000000 0.000000 0.000000 0.000000 0.026244
#
#
# Mechanical properties :
#
#
# Convention : Reuss Voigt Hill
#
# Bulk Modulus (GPa) = 32.98046 60.81180 46.89613
# Shear Modulus (GPa) = 10.94814 -15.49029 -2.27108
#
# Velocity S-wave (km/s) = 2.28978 -2.72366 -1.04289
# Velocity P-wave (km/s) = 4.77338 4.38540 4.58350
#
# Compressibility (1/GPa) = 0.03032099
#
# Stress axis : x y z
#
# Youngs Moduli (GPa) = 117.46746 119.56708 34.84586
#
# Poissons Ratio (x) = 0.44407 0.04828
# Poissons Ratio (y) = 0.43627 0.08806
# Poissons Ratio (z) = 0.16276 0.30216
#
# Static dielectric constant tensor:
#      x y z
#    x 1.762020 0.000000 0.000000 
#    y 0.000000 1.819410 0.000000 
#    z 0.000000 0.000000 1.725470 
# 
# From -- ./inp_files/27429.got.cif
#   From: 2010.05.17/outbox.cif.g08.bks.cpg/sg51_14_cif.got.tgz:27429.got - 2010.06.03 11:52:47.
