data_PCOD9407746
_publ_section_title
;
Structure prediction by ZEFSAII (Michael W. Deem and Ramdas Pophale) SiO2 
 PCOD9407746
Probable space group: P M M A
;
_chemical_formula_sum "Si O2"
_cell_formula_units_Z 40
_cell_length_a 9.000000
_cell_length_b 9.000000
_cell_length_c 27.000000
_cell_angle_alpha 90.000000
_cell_angle_beta 90.000000
_cell_angle_gamma 90.000000
_cell_volume 2187.000000
_symmetry_space_group_name_H-M "P M M A"
_symmetry_group_IT_number 51
_symmetry_cell_setting 'orthorhombic'
loop_
_space_group_symop_operation_xyz
x,y,z
1/2-x,-y,z
1/2+x,-y,-z
-x,y,-z
-x,-y,-z
1/2+x,y,-z
1/2-x,y,z
x,-y,z
loop_
_atom_site_type_symbol
_atom_site_label
_atom_site_fract_x
_atom_site_fract_y
_atom_site_fract_z
Si Si1 0.927020 0.176522 0.550668
Si Si2 0.075226 0.678152 0.347962
Si Si3 0.571970 0.324837 0.949178
Si Si4 0.428744 0.172804 0.152307
Si Si5 0.577187 0.678759 0.246612
O O1 0.750000 0.200152 0.547531
O O2 0.981657 0.252511 0.600943
O O3 0.000000 0.232063 0.500000
O O4 0.954315 0.000000 0.554208
O O5 0.250000 0.715041 0.343192
O O6 0.062238 0.500000 0.351106
O O7 0.992685 0.729769 0.298587
O O8 0.750000 0.309875 0.952825
O O9 0.537077 0.500000 0.944369
O O10 0.520569 0.242971 0.899652
O O11 0.500000 0.269199 0.000000
O O12 0.250000 0.187449 0.154018
O O13 0.495577 0.254346 0.199472
O O14 0.467077 0.000000 0.153845
O O15 0.750000 0.716900 0.244991
O O16 0.562391 0.500000 0.244931
#
# Coordination Sequence:
#
# PCOD9407746 Si02
#       5
#     8   8   8   8   8
#     4   9  18  32  49  70  97 129 164 201 244 296
#     4   9  18  33  52  73  98 130 167 206 250 300
#     4   9  18  33  53  76 102 134 172 211 251 298
#     4  10  21  36  54  77 105 138 175 212 253 304
#     4  10  21  36  54  77 104 134 170 213 260 308
#
# _framework density 18.289895000000001
#
# number of rings (size 3 to 8) (size 9 to 14) (size 15 to 20)
#    0.000    2.600    0.000    1.200    0.000    5.600 
#    0.000    4.000    0.000    0.000    0.000    0.000 
#    0.000    0.000    0.000    0.000    0.000    0.000 
#
# Total GULP energy -223114.591482 kJ/mol
# GULP energy per Si atom -5577.864787 kJ/mol
# Density = 1.824827 g / cm^3
# Si number density = 18.289895 Si / 1000 Ang^3
#
#
#
# Elastic Constant Matrix: (Units=GPa)
#
#
# Indices 1 2 3 4 5 6 
#
# 1 -4.3903 23.4903 23.8121 0.0000 0.0000 0.0000
# 2 23.4903 -5.8637 23.0431 0.0000 0.0000 0.0000
# 3 23.8121 23.0431 151.6277 0.0000 0.0000 0.0000
# 4 0.0000 0.0000 0.0000 78.9335 0.0000 0.0000
# 5 0.0000 0.0000 0.0000 0.0000 36.8181 0.0000
# 6 0.0000 0.0000 0.0000 0.0000 0.0000 15.6764
#
#
#
# Elastic Compliance Matrix: (Units=1/GPa)
#
#
# Indices 1 2 3 4 5 6 
#
# 1 0.029384 0.062345 -0.014089 0.000000 0.000000 0.000000
# 2 0.062345 0.025506 -0.013667 0.000000 0.000000 0.000000
# 3 -0.014089 -0.013667 0.010885 0.000000 0.000000 0.000000
# 4 0.000000 0.000000 0.000000 0.012669 0.000000 0.000000
# 5 0.000000 0.000000 0.000000 0.000000 0.027161 0.000000
# 6 0.000000 0.000000 0.000000 0.000000 0.000000 0.063790
#
#
# Mechanical properties :
#
#
# Convention : Reuss Voigt Hill
#
# Bulk Modulus (GPa) = 7.41006 31.34050 19.37528
# Shear Modulus (GPa) = 34.43506 31.02082 32.72794
#
# Velocity S-wave (km/s) = 4.34376 4.12280 4.23472
# Velocity P-wave (km/s) = 5.40536 6.31157 5.87596
#
# Compressibility (1/GPa) = 0.13495163
#
# Stress axis : x y z
#
# Youngs Moduli (GPa) = 34.03263 39.20598 91.87208
#
# Poissons Ratio (x) = -2.44428 1.29439
# Poissons Ratio (y) = -2.12175 1.25562
# Poissons Ratio (z) = 0.47949 0.53583
#
# Static dielectric constant tensor:
#      x y z
#    x 1.619700 0.000000 0.000000 
#    y 0.000000 1.618220 0.000000 
#    z 0.000000 0.000000 1.607600 
# 
# From -- ./inp_files/32801.got.cif
#   From: 2010.05.17/outbox.ucp.g08.bks.cvg/sg51_17_cif.got.tgz:32801.got - 2010.06.11 16:27:58.
