data_PCOD9407139
_publ_section_title
;
Structure prediction by ZEFSAII (Michael W. Deem and Ramdas Pophale) SiO2 
 PCOD9407139
Probable space group: P M M A
;
_chemical_formula_sum "Si O2"
_cell_formula_units_Z 64
_cell_length_a 7.624517
_cell_length_b 15.426643
_cell_length_c 29.204073
_cell_angle_alpha 90.000000
_cell_angle_beta 90.000000
_cell_angle_gamma 90.000000
_cell_volume 3435.003562
_symmetry_space_group_name_H-M "P M M A"
_symmetry_group_IT_number 51
_symmetry_cell_setting 'orthorhombic'
loop_
_space_group_symop_operation_xyz
x,y,z
1/2-x,-y,z
1/2+x,-y,-z
-x,y,-z
-x,-y,-z
1/2+x,y,-z
1/2-x,y,z
x,-y,z
loop_
_atom_site_type_symbol
_atom_site_label
_atom_site_fract_x
_atom_site_fract_y
_atom_site_fract_z
Si Si1 0.035201 0.218623 0.766030
Si Si2 0.043506 0.723851 0.450878
Si Si3 0.040139 0.900726 0.950982
Si Si4 0.044012 0.095018 0.423459
Si Si5 0.961794 0.098169 0.317325
Si Si6 0.964207 0.898874 0.149565
Si Si7 0.540323 0.595879 0.369241
Si Si8 0.464204 0.597802 0.735195
O O1 0.250000 0.217645 0.766148
O O2 0.980452 0.168376 0.719779
O O3 0.976194 0.163319 0.809758
O O4 0.979543 0.318899 0.764260
O O5 0.250000 0.734194 0.449153
O O6 0.963355 0.820359 0.446815
O O7 0.000000 0.683872 0.500000
O O8 0.996976 0.666147 0.407473
O O9 0.250000 0.904805 0.948554
O O10 0.980779 0.867578 0.901308
O O11 0.971697 0.000000 0.953182
O O12 0.000000 0.858152 0.000000
O O13 0.250000 0.090197 0.434994
O O14 0.030669 0.109953 0.368678
O O15 0.966178 0.000000 0.433536
O O16 0.750000 0.102698 0.320171
O O17 0.007743 0.000000 0.302359
O O18 0.750000 0.898962 0.150806
O O19 0.016260 0.000000 0.155549
O O20 0.750000 0.591511 0.365790
O O21 0.474985 0.500000 0.382568
O O22 0.479210 0.614122 0.317533
O O23 0.250000 0.597056 0.735882
O O24 0.520167 0.500000 0.748102
#
# Coordination Sequence:
#
# PCOD9407139 Si02
#       8
#     8   8   8   8   8   8   8   8
#     4   9  14  20  34  56  83 109 130 161 202 238
#     4  11  23  36  51  70  90 112 138 170 207 246
#     4   8  13  21  33  48  68  98 135 171 204 237
#     4   9  19  35  50  64  86 115 143 170 203 242
#     4   9  16  25  41  65  85 104 136 171 198 231
#     4   8  13  20  30  48  75 104 133 165 202 241
#     4   9  18  34  54  72  91 114 137 164 201 246
#     4   8  14  24  39  60  83 107 134 160 190 232
#
# _framework density 18.631713999999999
#
# number of rings (size 3 to 8) (size 9 to 14) (size 15 to 20)
#    0.000    3.125    0.000    3.000    0.000    4.250 
#    0.000    0.000    0.000    0.750    0.000    3.500 
#    0.000    0.500    0.000    0.375    0.000    0.750 
#
# Total GULP energy -356630.030499 kJ/mol
# GULP energy per Si atom -5572.344227 kJ/mol
# Density = 1.858931 g / cm^3
# Si number density = 18.631714 Si / 1000 Ang^3
#
#
#
# Elastic Constant Matrix: (Units=GPa)
#
#
# Indices 1 2 3 4 5 6 
#
# 1 34.7156 5.0121 -1.1560 0.0000 0.0000 0.0000
# 2 5.0121 107.3235 57.1907 0.0000 0.0000 0.0000
# 3 -1.1560 57.1907 70.8559 0.0000 0.0000 0.0000
# 4 0.0000 0.0000 0.0000 14.7740 0.0000 0.0000
# 5 0.0000 0.0000 0.0000 0.0000 10.7094 0.0000
# 6 0.0000 0.0000 0.0000 0.0000 0.0000 4.8723
#
#
#
# Elastic Compliance Matrix: (Units=1/GPa)
#
#
# Indices 1 2 3 4 5 6 
#
# 1 0.029309 -0.002849 0.002778 0.000000 0.000000 0.000000
# 2 -0.002849 0.016627 -0.013467 0.000000 0.000000 0.000000
# 3 0.002778 -0.013467 0.025028 0.000000 0.000000 0.000000
# 4 0.000000 0.000000 0.000000 0.067687 0.000000 0.000000
# 5 0.000000 0.000000 0.000000 0.000000 0.093376 0.000000
# 6 0.000000 0.000000 0.000000 0.000000 0.000000 0.205244
#
#
# Mechanical properties :
#
#
# Convention : Reuss Voigt Hill
#
# Bulk Modulus (GPa) = 22.78517 37.22096 30.00307
# Shear Modulus (GPa) = 10.43894 16.19434 13.31664
#
# Velocity S-wave (km/s) = 2.36959 2.95139 2.67634
# Velocity P-wave (km/s) = 4.44324 5.62448 5.06839
#
# Compressibility (1/GPa) = 0.04388820
#
# Stress axis : x y z
#
# Youngs Moduli (GPa) = 34.11885 60.14397 39.95541
#
# Poissons Ratio (x) = 0.17135 -0.11098
# Poissons Ratio (y) = 0.09720 0.53806
# Poissons Ratio (z) = -0.09477 0.80994
#
# Static dielectric constant tensor:
#      x y z
#    x 1.706330 0.000000 0.000000 
#    y 0.000000 1.682410 0.000000 
#    z 0.000000 0.000000 1.597850 
# 
# From -- ./inp_files/37542.got.cif
#   From: 2010.05.17/outbox.cif.g08.bks.cpg/sg51_19_cif.got.tgz:37542.got - 2010.06.03 11:52:47.
