data_PCOD9407835
_publ_section_title
;
Structure prediction by ZEFSAII (Michael W. Deem and Ramdas Pophale) SiO2 
 PCOD9407835
Probable space group: P M M A
;
_chemical_formula_sum "Si O2"
_cell_formula_units_Z 48
_cell_length_a 30.000000
_cell_length_b 9.000000
_cell_length_c 9.000000
_cell_angle_alpha 90.000000
_cell_angle_beta 90.000000
_cell_angle_gamma 90.000000
_cell_volume 2430.000000
_symmetry_space_group_name_H-M "P M M A"
_symmetry_group_IT_number 51
_symmetry_cell_setting 'orthorhombic'
loop_
_space_group_symop_operation_xyz
x,y,z
1/2-x,-y,z
1/2+x,-y,-z
-x,y,-z
-x,-y,-z
1/2+x,y,-z
1/2-x,y,z
x,-y,z
loop_
_atom_site_type_symbol
_atom_site_label
_atom_site_fract_x
_atom_site_fract_y
_atom_site_fract_z
Si Si1 0.348752 0.821318 0.538403
Si Si2 0.750000 0.179784 0.575330
Si Si3 0.598187 0.677818 0.213582
Si Si4 0.399191 0.321704 0.282771
Si Si5 0.750000 0.819753 0.919585
Si Si6 0.349975 0.177277 0.030761
Si Si7 0.999986 0.319995 0.328136
O O1 0.297274 0.779123 0.501582
O O2 0.364483 0.776421 0.702238
O O3 0.384562 0.720397 0.449378
O O4 0.353632 0.000000 0.514885
O O5 0.750000 0.231090 0.747204
O O6 0.750000 0.000000 0.577158
O O7 0.602390 0.500000 0.239348
O O8 0.546990 0.722697 0.251371
O O9 0.612946 0.720530 0.048417
O O10 0.393986 0.500000 0.258087
O O11 0.363637 0.217111 0.198687
O O12 0.451470 0.279959 0.260204
O O13 0.797842 0.778614 0.991225
O O14 0.750000 0.000000 0.917199
O O15 0.354545 0.000000 0.003498
O O16 0.999912 0.500000 0.329236
O O17 0.000000 0.269296 0.500000
#
# Coordination Sequence:
#
# PCOD9407835 Si02
#       7
#     8   4   8   8   4   8   8
#     4  11  21  37  61  89 118 152 195 242 291 346
#     4   9  18  35  60  87 115 153 196 234 289 362
#     4  11  23  41  61  86 121 157 197 243 294 351
#     4  11  21  37  62  90 117 153 199 242 289 346
#     4   9  18  37  62  83 113 161 198 228 287 366
#     4  11  23  41  62  87 120 157 200 244 294 352
#     4   9  18  36  61  85 115 159 198 231 289 366
#
# _framework density 19.753086
#
# number of rings (size 3 to 8) (size 9 to 14) (size 15 to 20)
#    0.000    1.667    3.333    2.000    0.000    1.333 
#    0.000   15.000    0.000    0.000    0.000    0.000 
#    0.000    0.000    0.000    0.000    0.000    0.000 
#
# Total GULP energy -267313.049012 kJ/mol
# GULP energy per Si atom -5569.021854 kJ/mol
# Density = 1.970813 g / cm^3
# Si number density = 19.753086 Si / 1000 Ang^3
#
#
#
# Elastic Constant Matrix: (Units=GPa)
#
#
# Indices 1 2 3 4 5 6 
#
# 1 161.3862 30.3237 -4.4931 0.0000 0.0000 0.0000
# 2 30.3237 60.2634 -5.7173 0.0000 0.0000 0.0000
# 3 -4.4931 -5.7173 -0.5606 0.0000 0.0000 0.0000
# 4 0.0000 0.0000 0.0000 34.3218 0.0000 0.0000
# 5 0.0000 0.0000 0.0000 0.0000 38.4083 0.0000
# 6 0.0000 0.0000 0.0000 0.0000 0.0000 29.9481
#
#
#
# Elastic Compliance Matrix: (Units=1/GPa)
#
#
# Indices 1 2 3 4 5 6 
#
# 1 0.006734 -0.004325 -0.009867 0.000000 0.000000 0.000000
# 2 -0.004325 0.011211 -0.079672 0.000000 0.000000 0.000000
# 3 -0.009867 -0.079672 -0.892119 0.000000 0.000000 0.000000
# 4 0.000000 0.000000 0.000000 0.029136 0.000000 0.000000
# 5 0.000000 0.000000 0.000000 0.000000 0.026036 0.000000
# 6 0.000000 0.000000 0.000000 0.000000 0.000000 0.033391
#
#
# Mechanical properties :
#
#
# Convention : Reuss Voigt Hill
#
# Bulk Modulus (GPa) = -0.94171 29.03505 14.04667
# Shear Modulus (GPa) = -5.25293 33.93402 14.34055
#
# Velocity S-wave (km/s) = -1.63250 4.14926 2.69734
# Velocity P-wave (km/s) = 2.00778 6.13890 4.10213
#
# Compressibility (1/GPa) = -1.06190132
#
# Stress axis : x y z
#
# Youngs Moduli (GPa) = 148.49587 89.19582 -1.12093
#
# Poissons Ratio (x) = 0.38574 -0.01106
# Poissons Ratio (y) = 0.64219 -0.08931
# Poissons Ratio (z) = 1.46523 7.10642
#
# Static dielectric constant tensor:
#      x y z
#    x 1.675340 0.000000 0.000000 
#    y 0.000000 1.638640 0.000000 
#    z 0.000000 0.000000 1.715920 
# 
# From -- ./inp_files/12971.got.cif
#   From: 2010.05.17/outbox.ucp.g08.bks.cvg/sg51_7_cif.got.tgz:12971.got - 2010.06.11 16:27:58.
