data_PCOD9407927
_publ_section_title
;
Structure prediction by ZEFSAII (Michael W. Deem and Ramdas Pophale) SiO2 
 PCOD9407927
Probable space group: P N N A
;
_chemical_formula_sum "Si O2"
_cell_formula_units_Z 40
_cell_length_a 5.434139
_cell_length_b 21.119986
_cell_length_c 14.357070
_cell_angle_alpha 90.000000
_cell_angle_beta 90.000000
_cell_angle_gamma 90.000000
_cell_volume 1647.745700
_symmetry_space_group_name_H-M "P N N A"
_symmetry_group_IT_number 52
_symmetry_cell_setting 'orthorhombic'
loop_
_space_group_symop_operation_xyz
x,y,z
1/2-x,-y,z
x,1/2-y,1/2-z
1/2-x,1/2+y,1/2-z
-x,-y,-z
1/2+x,y,-z
-x,1/2+y,1/2+z
1/2+x,1/2-y,1/2+z
loop_
_atom_site_type_symbol
_atom_site_label
_atom_site_fract_x
_atom_site_fract_y
_atom_site_fract_z
Si Si1 0.899426 0.786240 0.515349
Si Si2 0.398089 0.576579 0.945098
Si Si3 0.202309 0.071174 0.965619
Si Si4 0.410444 0.823553 0.274783
Si Si5 0.586684 0.101447 0.240211
O O1 0.649939 0.749304 0.499045
O O2 0.899467 0.845988 0.445222
O O3 0.895707 0.821012 0.613785
O O4 0.421396 0.560334 0.835946
O O5 0.637218 0.559100 0.007101
O O6 0.121274 0.067294 0.858100
O O7 0.250000 0.000000 0.002753
O O8 0.472620 0.101255 0.979347
O O9 0.404405 0.750000 0.250000
O O10 0.668577 0.855018 0.247267
O O11 0.169900 0.859851 0.237798
#
# Coordination Sequence:
#
# PCOD9407927 Si02
#       5
#     8   8   8   8   8
#     4  10  16  32  51  72 106 152 199 219 271 349
#     4  10  16  30  56  82 106 148 193 221 276 359
#     4  10  23  45  70  91 119 159 210 266 333 388
#     4  12  23  35  53  89 124 161 204 247 296 366
#     4  12  21  38  64  86 117 158 207 253 301 374
#
# _framework density 24.275589
#
# number of rings (size 3 to 8) (size 9 to 14) (size 15 to 20)
#    0.000    1.200    8.000    1.800    0.000    0.000 
#    0.000    6.000    0.000    1.200    0.000    0.000 
#    0.000    0.000    0.000    0.000    0.000    0.000 
#
# Total GULP energy -223459.916754 kJ/mol
# GULP energy per Si atom -5586.497919 kJ/mol
# Density = 2.422034 g / cm^3
# Si number density = 24.275589 Si / 1000 Ang^3
#
#
#
# Elastic Constant Matrix: (Units=GPa)
#
#
# Indices 1 2 3 4 5 6 
#
# 1 270.2637 30.1479 33.7467 0.0000 0.0000 0.0000
# 2 30.1479 48.9268 -8.5479 0.0000 0.0000 0.0000
# 3 33.7467 -8.5479 128.1386 0.0000 0.0000 0.0000
# 4 0.0000 0.0000 0.0000 -50.4765 0.0000 0.0000
# 5 0.0000 0.0000 0.0000 0.0000 36.6716 0.0000
# 6 0.0000 0.0000 0.0000 0.0000 0.0000 6.8588
#
#
#
# Elastic Compliance Matrix: (Units=1/GPa)
#
#
# Indices 1 2 3 4 5 6 
#
# 1 0.004172 -0.002796 -0.001285 0.000000 0.000000 0.000000
# 2 -0.002796 0.022553 0.002241 0.000000 0.000000 0.000000
# 3 -0.001285 0.002241 0.008292 0.000000 0.000000 0.000000
# 4 0.000000 0.000000 0.000000 -0.019811 0.000000 0.000000
# 5 0.000000 0.000000 0.000000 0.000000 0.027269 0.000000
# 6 0.000000 0.000000 0.000000 0.000000 0.000000 0.145797
#
#
# Mechanical properties :
#
#
# Convention : Reuss Voigt Hill
#
# Bulk Modulus (GPa) = 31.91134 62.00248 46.95691
# Shear Modulus (GPa) = 24.70376 24.74296 24.72336
#
# Velocity S-wave (km/s) = 3.19350 3.19604 3.19477
# Velocity P-wave (km/s) = 5.17416 6.26227 5.74404
#
# Compressibility (1/GPa) = 0.03133682
#
# Stress axis : x y z
#
# Youngs Moduli (GPa) = 239.66867 44.34053 120.59768
#
# Poissons Ratio (x) = 0.12396 0.15501
# Poissons Ratio (y) = 0.67000 -0.27022
# Poissons Ratio (z) = 0.30806 -0.09935
#
# Static dielectric constant tensor:
#      x y z
#    x 2.033540 0.000000 0.000000 
#    y 0.000000 1.961930 0.000000 
#    z 0.000000 0.000000 131.779070 
# 
# From -- ./inp_files/16046.got.cif
#   From: 2010.05.17/outbox.cif.g08.bks.cpg/sg52_9_cif.got.tgz:16046.got - 2010.06.03 12:15:38.
