data_PCOD9407959
_publ_section_title
;
Structure prediction by ZEFSAII (Michael W. Deem and Ramdas Pophale) SiO2 
 PCOD9407959
Probable space group: P N N A
;
_chemical_formula_sum "Si O2"
_cell_formula_units_Z 52
_cell_length_a 5.521450
_cell_length_b 22.229248
_cell_length_c 18.631798
_cell_angle_alpha 90.000000
_cell_angle_beta 90.000000
_cell_angle_gamma 90.000000
_cell_volume 2286.823686
_symmetry_space_group_name_H-M "P N N A"
_symmetry_group_IT_number 52
_symmetry_cell_setting 'orthorhombic'
loop_
_space_group_symop_operation_xyz
x,y,z
1/2-x,-y,z
x,1/2-y,1/2-z
1/2-x,1/2+y,1/2-z
-x,-y,-z
1/2+x,y,-z
-x,1/2+y,1/2+z
1/2+x,1/2-y,1/2+z
loop_
_atom_site_type_symbol
_atom_site_label
_atom_site_fract_x
_atom_site_fract_y
_atom_site_fract_z
Si Si1 0.577485 0.773672 0.026523
Si Si2 0.993777 0.126534 0.812712
Si Si3 0.589142 0.587083 0.527693
Si Si4 0.835894 0.881495 0.471175
Si Si5 0.503731 0.702318 0.313579
Si Si6 0.750000 0.000000 0.557676
Si Si7 0.401659 0.938946 0.666420
O O1 0.488196 0.768256 0.107843
O O2 0.852951 0.751313 0.021337
O O3 0.605902 0.844299 0.003767
O O4 0.965726 0.091612 0.887909
O O5 0.244409 0.164628 0.815561
O O6 0.023546 0.085441 0.742887
O O7 0.744334 0.164260 0.804839
O O8 0.854283 0.560730 0.511955
O O9 0.598528 0.855400 0.509505
O O10 0.867086 0.949592 0.505581
O O11 0.778077 0.889695 0.386563
O O12 0.518700 0.750000 0.250000
O O13 0.623207 0.956890 0.616171
O O14 0.250000 0.000000 0.673399
#
# Coordination Sequence:
#
# PCOD9407959 Si02
#       7
#     8   8   8   8   8   4   8
#     4  10  16  33  63  86 102 148 213 239 263 356
#     4  12  24  37  63  96 120 158 195 254 308 353
#     4  10  16  34  60  86 104 145 212 240 265 356
#     4  10  17  32  57  81 103 160 220 232 259 340
#     4  12  24  41  61  92 125 156 196 256 309 357
#     4  10  18  36  58  86 110 174 212 236 264 366
#     4  11  22  36  58  92 127 152 202 253 297 350
#
# _framework density 22.738962000000001
#
# number of rings (size 3 to 8) (size 9 to 14) (size 15 to 20)
#    0.000    1.231    8.462    1.385    2.154    0.000 
#    0.000    0.000    0.000   12.000    0.000    0.000 
#    0.000    0.000    0.000    0.000    0.000    0.000 
#
# Total GULP energy -290177.183678 kJ/mol
# GULP energy per Si atom -5580.330455 kJ/mol
# Density = 2.268721 g / cm^3
# Si number density = 22.738962 Si / 1000 Ang^3
#
#
#
# Elastic Constant Matrix: (Units=GPa)
#
#
# Indices 1 2 3 4 5 6 
#
# 1 151.1325 14.6733 14.5012 0.0000 0.0000 0.0000
# 2 14.6733 20.1807 2.8772 0.0000 0.0000 0.0000
# 3 14.5012 2.8772 186.3865 0.0000 0.0000 0.0000
# 4 0.0000 0.0000 0.0000 21.6504 0.0000 0.0000
# 5 0.0000 0.0000 0.0000 0.0000 27.7565 0.0000
# 6 0.0000 0.0000 0.0000 0.0000 0.0000 38.8625
#
#
#
# Elastic Compliance Matrix: (Units=1/GPa)
#
#
# Indices 1 2 3 4 5 6 
#
# 1 0.007161 -0.005139 -0.000478 0.000000 0.000000 0.000000
# 2 -0.005139 0.053349 -0.000424 0.000000 0.000000 0.000000
# 3 -0.000478 -0.000424 0.005409 0.000000 0.000000 0.000000
# 4 0.000000 0.000000 0.000000 0.046189 0.000000 0.000000
# 5 0.000000 0.000000 0.000000 0.000000 0.036028 0.000000
# 6 0.000000 0.000000 0.000000 0.000000 0.000000 0.025732
#
#
# Mechanical properties :
#
#
# Convention : Reuss Voigt Hill
#
# Bulk Modulus (GPa) = 18.57404 46.86702 32.72053
# Shear Modulus (GPa) = 24.52245 39.36374 31.94310
#
# Velocity S-wave (km/s) = 3.28751 4.16518 3.75210
# Velocity P-wave (km/s) = 4.75357 6.61719 5.76124
#
# Compressibility (1/GPa) = 0.05383857
#
# Stress axis : x y z
#
# Youngs Moduli (GPa) = 139.63568 18.74442 184.88000
#
# Poissons Ratio (x) = 0.09633 0.08834
# Poissons Ratio (y) = 0.71758 0.07834
# Poissons Ratio (z) = 0.06672 0.00794
#
# Static dielectric constant tensor:
#      x y z
#    x 2.079690 0.000000 0.000000 
#    y 0.000000 1.807120 0.000000 
#    z 0.000000 0.000000 1.784580 
# 
# From -- ./inp_files/30324.got.cif
#   From: 2010.05.17/outbox.cif.g08.bks.cpg/sg52_16_cif.got.tgz:30324.got - 2010.06.03 12:15:38.
