data_PCOD9407806
_publ_section_title
;
Structure prediction by ZEFSAII (Michael W. Deem and Ramdas Pophale) SiO2 
 PCOD9407806
Probable space group: P M M A
;
_chemical_formula_sum "Si O2"
_cell_formula_units_Z 56
_cell_length_a 15.000000
_cell_length_b 9.000000
_cell_length_c 21.000000
_cell_angle_alpha 90.000000
_cell_angle_beta 90.000000
_cell_angle_gamma 90.000000
_cell_volume 2835.000000
_symmetry_space_group_name_H-M "P M M A"
_symmetry_group_IT_number 51
_symmetry_cell_setting 'orthorhombic'
loop_
_space_group_symop_operation_xyz
x,y,z
1/2-x,-y,z
1/2+x,-y,-z
-x,y,-z
-x,-y,-z
1/2+x,y,-z
1/2-x,y,z
x,-y,z
loop_
_atom_site_type_symbol
_atom_site_label
_atom_site_fract_x
_atom_site_fract_y
_atom_site_fract_z
Si Si1 0.396567 0.328746 0.520004
Si Si2 0.645233 0.172775 0.952855
Si Si3 0.349930 0.821016 0.653559
Si Si4 0.473429 0.325323 0.151105
Si Si5 0.852360 0.823761 0.104037
Si Si6 0.651192 0.828355 0.606268
Si Si7 0.473670 0.821052 0.280235
O O1 0.500000 0.319501 0.500000
O O2 0.372237 0.500000 0.529338
O O3 0.376130 0.241508 0.584486
O O4 0.348905 0.259627 0.459127
O O5 0.750000 0.192653 0.938526
O O6 0.584449 0.273031 0.908937
O O7 0.621889 0.000000 0.941088
O O8 0.634269 0.199228 0.028196
O O9 0.250000 0.773255 0.670002
O O10 0.424436 0.778139 0.704709
O O11 0.351458 0.000000 0.649527
O O12 0.470913 0.500000 0.157428
O O13 0.573589 0.267729 0.140177
O O14 0.439565 0.248936 0.215508
O O15 0.750000 0.786062 0.119368
O O16 0.864267 0.000000 0.116492
O O17 0.750000 0.825628 0.634592
O O18 0.582133 0.771477 0.658225
O O19 0.627896 0.000000 0.591533
O O20 0.467421 0.000000 0.276122
#
# Coordination Sequence:
#
# PCOD9407806 Si02
#       7
#     8   8   8   8   8   8   8
#     4  11  22  35  56  85 117 148 179 220 279 345
#     4   9  19  38  64  90 115 149 196 244 285 332
#     4  10  21  38  61  85 107 139 187 237 283 330
#     4  12  25  37  55  86 124 159 191 231 290 353
#     4   9  19  38  64  90 115 149 196 244 285 332
#     4  10  21  38  61  85 107 139 187 237 283 330
#     4  10  22  40  58  78 109 150 196 241 278 324
#
# _framework density 19.753086
#
# number of rings (size 3 to 8) (size 9 to 14) (size 15 to 20)
#    0.000    1.857    1.429    3.429    0.000    8.000 
#    0.000    4.286    0.000    0.000    0.000    0.000 
#    0.000    0.000    0.000    0.000    0.000    0.000 
#
# Total GULP energy -312763.760034 kJ/mol
# GULP energy per Si atom -5585.067143 kJ/mol
# Density = 1.970813 g / cm^3
# Si number density = 19.753086 Si / 1000 Ang^3
#
#
#
# Elastic Constant Matrix: (Units=GPa)
#
#
# Indices 1 2 3 4 5 6 
#
# 1 40.6920 23.8837 11.4946 0.0000 0.0000 0.0000
# 2 23.8837 13.7533 22.4954 0.0000 0.0000 0.0000
# 3 11.4946 22.4954 19.9732 0.0000 0.0000 0.0000
# 4 0.0000 0.0000 0.0000 119.6523 0.0000 0.0000
# 5 0.0000 0.0000 0.0000 0.0000 -18.3853 0.0000
# 6 0.0000 0.0000 0.0000 0.0000 0.0000 7.4178
#
#
#
# Elastic Compliance Matrix: (Units=1/GPa)
#
#
# Indices 1 2 3 4 5 6 
#
# 1 0.022520 0.021266 -0.036911 0.000000 0.000000 0.000000
# 2 0.021266 -0.066255 0.062383 0.000000 0.000000 0.000000
# 3 -0.036911 0.062383 0.001049 0.000000 0.000000 0.000000
# 4 0.000000 0.000000 0.000000 0.008358 0.000000 0.000000
# 5 0.000000 0.000000 0.000000 0.000000 -0.054391 0.000000
# 6 0.000000 0.000000 0.000000 0.000000 0.000000 0.134810
#
#
# Mechanical properties :
#
#
# Convention : Reuss Voigt Hill
#
# Bulk Modulus (GPa) = 19.68939 21.12954 20.40946
# Shear Modulus (GPa) = -164.18225 22.83996 -70.67115
#
# Velocity S-wave (km/s) = -9.12676 3.40409 -5.98790
# Velocity P-wave (km/s) = 10.05357 5.11571 6.11979
#
# Compressibility (1/GPa) = 0.05078879
#
# Stress axis : x y z
#
# Youngs Moduli (GPa) = 44.40545 -15.09328 952.97551
#
# Poissons Ratio (x) = 0.32097 35.17542
# Poissons Ratio (y) = -0.94431 -59.44911
# Poissons Ratio (z) = 1.63906 0.94156
#
# Static dielectric constant tensor:
#      x y z
#    x 1.724440 0.000000 0.000000 
#    y 0.000000 1.667130 0.000000 
#    z 0.000000 0.000000 1.652740 
# 
# From -- ./inp_files/33317.got.cif
#   From: 2010.05.17/outbox.ucp.g08.bks.cvg/sg51_17_cif.got.tgz:33317.got - 2010.06.11 16:27:58.
