data_PCOD9407335
_publ_section_title
;
Structure prediction by ZEFSAII (Michael W. Deem and Ramdas Pophale) SiO2 
 PCOD9407335
Probable space group: P M M A
;
_chemical_formula_sum "Si O2"
_cell_formula_units_Z 64
_cell_length_a 24.038836
_cell_length_b 7.401066
_cell_length_c 17.163482
_cell_angle_alpha 90.000000
_cell_angle_beta 90.000000
_cell_angle_gamma 90.000000
_cell_volume 3053.606776
_symmetry_space_group_name_H-M "P M M A"
_symmetry_group_IT_number 51
_symmetry_cell_setting 'orthorhombic'
loop_
_space_group_symop_operation_xyz
x,y,z
1/2-x,-y,z
1/2+x,-y,-z
-x,y,-z
-x,-y,-z
1/2+x,y,-z
1/2-x,y,z
x,-y,z
loop_
_atom_site_type_symbol
_atom_site_label
_atom_site_fract_x
_atom_site_fract_y
_atom_site_fract_z
Si Si1 0.813799 0.779494 0.823271
Si Si2 0.108409 0.204917 0.305671
Si Si3 0.483932 0.221636 0.413370
Si Si4 0.098994 0.705113 0.041574
Si Si5 0.430005 0.783045 0.718565
Si Si6 0.477476 0.714382 0.169603
Si Si7 0.309800 0.213432 0.743220
Si Si8 0.311207 0.281585 0.927135
O O1 0.750000 0.728108 0.834051
O O2 0.838841 0.717812 0.740007
O O3 0.854070 0.705502 0.890179
O O4 0.817570 0.000000 0.826072
O O5 0.061281 0.202179 0.237299
O O6 0.075584 0.284355 0.379157
O O7 0.123304 0.000000 0.326793
O O8 0.500000 0.277207 0.500000
O O9 0.530380 0.280555 0.351110
O O10 0.482610 0.000000 0.412137
O O11 0.084293 0.500000 0.017961
O O12 0.044881 0.781957 0.086127
O O13 0.134278 0.789307 0.971428
O O14 0.460020 0.741740 0.800913
O O15 0.367691 0.711410 0.712176
O O16 0.427962 0.000000 0.713738
O O17 0.466799 0.500000 0.170409
O O18 0.250000 0.289333 0.717970
O O19 0.312797 0.233624 0.836602
O O20 0.308997 0.000000 0.725458
O O21 0.250000 0.221236 0.957812
O O22 0.311970 0.500000 0.934334
#
# Coordination Sequence:
#
# PCOD9407335 Si02
#       8
#     8   8   8   8   8   8   8   8
#     4   9  16  24  36  56  81 111 145 175 204 242
#     4   8  14  25  39  56  82 112 138 167 202 239
#     4   8  13  23  43  67  84 103 134 166 198 243
#     4   9  17  28  41  59  84 112 142 178 217 251
#     4   9  17  30  47  65  86 111 137 168 208 251
#     4   9  16  26  42  63  85 110 140 172 206 247
#     4   9  18  32  48  64  82 107 141 178 212 247
#     4   9  17  29  44  61  82 109 142 181 221 254
#
# _framework density 20.958821
#
# number of rings (size 3 to 8) (size 9 to 14) (size 15 to 20)
#    0.000    3.250    0.000    1.500    0.000    2.250 
#    0.000    1.875    0.000   10.500    0.000    5.250 
#    0.000    0.000    0.000   15.625    0.000   19.500 
#
# Total GULP energy -356519.159101 kJ/mol
# GULP energy per Si atom -5570.611861 kJ/mol
# Density = 2.091112 g / cm^3
# Si number density = 20.958821 Si / 1000 Ang^3
#
#
#
# Elastic Constant Matrix: (Units=GPa)
#
#
# Indices 1 2 3 4 5 6 
#
# 1 88.7522 -1.9623 6.5806 0.0000 0.0000 0.0000
# 2 -1.9623 80.3159 -6.2623 0.0000 0.0000 0.0000
# 3 6.5806 -6.2623 34.4333 0.0000 0.0000 0.0000
# 4 0.0000 0.0000 0.0000 9.5901 0.0000 0.0000
# 5 0.0000 0.0000 0.0000 0.0000 -38.0468 0.0000
# 6 0.0000 0.0000 0.0000 0.0000 0.0000 -4.9338
#
#
#
# Elastic Compliance Matrix: (Units=1/GPa)
#
#
# Indices 1 2 3 4 5 6 
#
# 1 0.011430 0.000111 -0.002164 0.000000 0.000000 0.000000
# 2 0.000111 0.012631 0.002276 0.000000 0.000000 0.000000
# 3 -0.002164 0.002276 0.029869 0.000000 0.000000 0.000000
# 4 0.000000 0.000000 0.000000 0.104275 0.000000 0.000000
# 5 0.000000 0.000000 0.000000 0.000000 -0.026283 0.000000
# 6 0.000000 0.000000 0.000000 0.000000 0.000000 -0.202684
#
#
# Mechanical properties :
#
#
# Convention : Reuss Voigt Hill
#
# Bulk Modulus (GPa) = 18.39085 22.24594 20.31839
# Shear Modulus (GPa) = -94.19461 6.99826 -43.59817
#
# Velocity S-wave (km/s) = -6.71120 1.82929 -4.56585
# Velocity P-wave (km/s) = 7.15960 3.88573 4.25212
#
# Compressibility (1/GPa) = 0.05437487
#
# Stress axis : x y z
#
# Youngs Moduli (GPa) = 87.48718 79.17029 33.47928
#
# Poissons Ratio (x) = -0.00875 0.07246
# Poissons Ratio (y) = -0.00967 -0.07620
# Poissons Ratio (z) = 0.18935 -0.18020
#
# Static dielectric constant tensor:
#      x y z
#    x 2.114510 0.000000 0.000000 
#    y 0.000000 1.800950 0.000000 
#    z 0.000000 0.000000 1.741790 
# 
# From -- ./inp_files/30849.got.cif
#   From: 2010.05.17/outbox.cif.g08.bks.cpg/sg51_16_cif.got.tgz:30849.got - 2010.06.03 11:52:47.
