data_PCOD9407269
_publ_section_title
;
Structure prediction by ZEFSAII (Michael W. Deem and Ramdas Pophale) SiO2 
 PCOD9407269
Probable space group: P M M A
;
_chemical_formula_sum "Si O2"
_cell_formula_units_Z 56
_cell_length_a 18.965500
_cell_length_b 7.537450
_cell_length_c 20.005854
_cell_angle_alpha 90.000000
_cell_angle_beta 90.000000
_cell_angle_gamma 90.000000
_cell_volume 2859.866998
_symmetry_space_group_name_H-M "P M M A"
_symmetry_group_IT_number 51
_symmetry_cell_setting 'orthorhombic'
loop_
_space_group_symop_operation_xyz
x,y,z
1/2-x,-y,z
1/2+x,-y,-z
-x,y,-z
-x,-y,-z
1/2+x,y,-z
1/2-x,y,z
x,-y,z
loop_
_atom_site_type_symbol
_atom_site_label
_atom_site_fract_x
_atom_site_fract_y
_atom_site_fract_z
Si Si1 0.667843 0.712753 0.441787
Si Si2 0.028194 0.217051 0.071511
Si Si3 0.830258 0.712793 0.296516
Si Si4 0.902066 0.783329 0.721319
Si Si5 0.540821 0.211383 0.207105
Si Si6 0.828942 0.215992 0.858895
Si Si7 0.330423 0.210732 0.412765
O O1 0.750000 0.770976 0.443360
O O2 0.666799 0.500000 0.441051
O O3 0.641086 0.775595 0.369345
O O4 0.637091 0.764507 0.513448
O O5 0.978088 0.275383 0.132825
O O6 0.107600 0.271655 0.092123
O O7 0.028339 0.000000 0.070080
O O8 0.000000 0.277638 0.000000
O O9 0.750000 0.778121 0.287405
O O10 0.826192 0.500000 0.300525
O O11 0.882935 0.754164 0.237005
O O12 0.851360 0.734299 0.783301
O O13 0.874369 0.719292 0.649968
O O14 0.980009 0.722399 0.742476
O O15 0.902954 0.000000 0.719373
O O16 0.532252 0.000000 0.204081
O O17 0.750000 0.277034 0.874889
O O18 0.828335 0.000000 0.860270
O O19 0.250000 0.283008 0.412397
O O20 0.324773 0.000000 0.403184
#
# Coordination Sequence:
#
# PCOD9407269 Si02
#       7
#     8   8   8   8   8   8   8
#     4   8  15  28  43  58  79 108 140 175 217 259
#     4   8  14  25  40  60  90 121 143 171 214 255
#     4   9  18  33  50  64  81 109 144 182 220 255
#     4   8  14  24  37  57  86 112 135 170 214 253
#     4   9  17  29  46  66  87 113 142 173 213 259
#     4   8  12  19  34  55  79 112 149 175 200 245
#     4   9  15  23  39  62  84 108 141 179 214 249
#
# _framework density 19.581330999999999
#
# number of rings (size 3 to 8) (size 9 to 14) (size 15 to 20)
#    0.000    3.571    0.000    3.000    0.000    2.571 
#    0.000    3.571    0.000    7.286    0.000    0.000 
#    0.000    5.143    0.000    0.857    0.000    0.000 
#
# Total GULP energy -311827.509986 kJ/mol
# GULP energy per Si atom -5568.348393 kJ/mol
# Density = 1.953676 g / cm^3
# Si number density = 19.581331 Si / 1000 Ang^3
#
#
#
# Elastic Constant Matrix: (Units=GPa)
#
#
# Indices 1 2 3 4 5 6 
#
# 1 113.2483 1.7465 101.2441 0.0000 0.0000 0.0000
# 2 1.7465 43.1642 5.1349 0.0000 0.0000 0.0000
# 3 101.2441 5.1349 173.0868 0.0000 0.0000 0.0000
# 4 0.0000 0.0000 0.0000 29.3208 0.0000 0.0000
# 5 0.0000 0.0000 0.0000 0.0000 26.3840 0.0000
# 6 0.0000 0.0000 0.0000 0.0000 0.0000 -15.1166
#
#
#
# Elastic Compliance Matrix: (Units=1/GPa)
#
#
# Indices 1 2 3 4 5 6 
#
# 1 0.018522 0.000541 -0.010850 0.000000 0.000000 0.000000
# 2 0.000541 0.023265 -0.001007 0.000000 0.000000 0.000000
# 3 -0.010850 -0.001007 0.012154 0.000000 0.000000 0.000000
# 4 0.000000 0.000000 0.000000 0.034106 0.000000 0.000000
# 5 0.000000 0.000000 0.000000 0.000000 0.037902 0.000000
# 6 0.000000 0.000000 0.000000 0.000000 0.000000 -0.066153
#
#
# Mechanical properties :
#
#
# Convention : Reuss Voigt Hill
#
# Bulk Modulus (GPa) = 31.93895 60.63892 46.28893
# Shear Modulus (GPa) = 53.84269 22.87590 38.35929
#
# Velocity S-wave (km/s) = 5.24944 3.42168 4.43083
# Velocity P-wave (km/s) = 7.28619 6.82975 7.06166
#
# Compressibility (1/GPa) = 0.03130974
#
# Stress axis : x y z
#
# Youngs Moduli (GPa) = 53.99061 42.98258 82.27845
#
# Poissons Ratio (x) = -0.02327 0.89272
# Poissons Ratio (y) = -0.02923 0.08284
# Poissons Ratio (z) = 0.58580 0.04328
#
# Static dielectric constant tensor:
#      x y z
#    x 1.687410 0.000000 0.000000 
#    y 0.000000 1.753140 0.000000 
#    z 0.000000 0.000000 1.698030 
# 
# From -- ./inp_files/33697.got.cif
#   From: 2010.05.17/outbox.cif.g08.bks.cpg/sg51_17_cif.got.tgz:33697.got - 2010.06.03 11:52:47.
