data_PCOD9407833
_publ_section_title
;
Structure prediction by ZEFSAII (Michael W. Deem and Ramdas Pophale) SiO2 
 PCOD9407833
Probable space group: P M M A
;
_chemical_formula_sum "Si O2"
_cell_formula_units_Z 40
_cell_length_a 27.000000
_cell_length_b 9.000000
_cell_length_c 9.000000
_cell_angle_alpha 90.000000
_cell_angle_beta 90.000000
_cell_angle_gamma 90.000000
_cell_volume 2187.000000
_symmetry_space_group_name_H-M "P M M A"
_symmetry_group_IT_number 51
_symmetry_cell_setting 'orthorhombic'
loop_
_space_group_symop_operation_xyz
x,y,z
1/2-x,-y,z
1/2+x,-y,-z
-x,y,-z
-x,-y,-z
1/2+x,y,-z
1/2-x,y,z
x,-y,z
loop_
_atom_site_type_symbol
_atom_site_label
_atom_site_fract_x
_atom_site_fract_y
_atom_site_fract_z
Si Si1 0.306094 0.673266 0.211581
Si Si2 0.100188 0.680261 0.688529
Si Si3 0.507453 0.328083 0.680181
Si Si4 0.395366 0.825847 0.366771
Si Si5 0.696528 0.322691 0.143131
O O1 0.250000 0.700937 0.264630
O O2 0.318130 0.500000 0.244390
O O3 0.346371 0.779673 0.280508
O O4 0.306134 0.691246 0.033968
O O5 0.099731 0.500000 0.684488
O O6 0.106340 0.740859 0.523254
O O7 0.146748 0.735483 0.782736
O O8 0.045313 0.723118 0.744398
O O9 0.500000 0.323110 0.500000
O O10 0.516588 0.500000 0.719851
O O11 0.555243 0.231759 0.715542
O O12 0.398760 0.000000 0.391574
O O13 0.750000 0.261511 0.194066
O O14 0.697342 0.500000 0.174276
#
# Coordination Sequence:
#
# PCOD9407833 Si02
#       5
#     8   8   8   8   8
#     4   9  18  34  54  72  93 125 162 198 238 285
#     4   9  17  31  52  76  99 124 159 203 245 286
#     4   8  15  29  48  69  95 127 162 199 239 283
#     4  11  21  31  47  72 101 131 162 197 237 284
#     4   8  15  30  53  77  96 118 155 201 245 287
#
# _framework density 18.289895000000001
#
# number of rings (size 3 to 8) (size 9 to 14) (size 15 to 20)
#    0.000    3.000    0.000    4.200    0.000    4.800 
#    0.000    4.000    0.000    7.200    0.000    0.000 
#    0.000    0.000    0.000    0.000    0.000    0.000 
#
# Total GULP energy -222715.679638 kJ/mol
# GULP energy per Si atom -5567.891991 kJ/mol
# Density = 1.824827 g / cm^3
# Si number density = 18.289895 Si / 1000 Ang^3
#
#
#
# Elastic Constant Matrix: (Units=GPa)
#
#
# Indices 1 2 3 4 5 6 
#
# 1 89.1205 20.2997 11.0482 0.0000 0.0000 0.0000
# 2 20.2997 4.9401 -0.3724 0.0000 0.0000 0.0000
# 3 11.0482 -0.3724 -3.5724 0.0000 0.0000 0.0000
# 4 0.0000 0.0000 0.0000 -13.7913 0.0000 0.0000
# 5 0.0000 0.0000 0.0000 0.0000 26.2532 0.0000
# 6 0.0000 0.0000 0.0000 0.0000 0.0000 -13.6020
#
#
#
# Elastic Compliance Matrix: (Units=1/GPa)
#
#
# Indices 1 2 3 4 5 6 
#
# 1 0.020141 -0.077461 0.070366 0.000000 0.000000 0.000000
# 2 -0.077461 0.498750 -0.291555 0.000000 0.000000 0.000000
# 3 0.070366 -0.291555 -0.031914 0.000000 0.000000 0.000000
# 4 0.000000 0.000000 0.000000 -0.072510 0.000000 0.000000
# 5 0.000000 0.000000 0.000000 0.000000 0.038091 0.000000
# 6 0.000000 0.000000 0.000000 0.000000 0.000000 -0.073518
#
#
# Mechanical properties :
#
#
# Convention : Reuss Voigt Hill
#
# Bulk Modulus (GPa) = -9.06450 16.93769 3.93659
# Shear Modulus (GPa) = 5.32161 3.73949 4.53055
#
# Velocity S-wave (km/s) = 1.70760 1.43143 1.57558
# Velocity P-wave (km/s) = 1.03870 3.46595 2.33815
#
# Compressibility (1/GPa) = -0.11032043
#
# Stress axis : x y z
#
# Youngs Moduli (GPa) = 49.64874 2.00501 -31.33444
#
# Poissons Ratio (x) = 0.15531 2.20489
# Poissons Ratio (y) = 3.84584 -9.13570
# Poissons Ratio (z) = -3.49359 0.58457
#
# Static dielectric constant tensor:
#      x y z
#    x 1.694890 0.000000 0.000000 
#    y 0.000000 1.610430 0.000000 
#    z 0.000000 0.000000 1.616220 
# 
# From -- ./inp_files/12099.got.cif
#   From: 2010.05.17/outbox.ucp.g08.bks.cvg/sg51_7_cif.got.tgz:12099.got - 2010.06.11 16:27:58.
