data_PCOD9407055
_publ_section_title
;
Structure prediction by ZEFSAII (Michael W. Deem and Ramdas Pophale) SiO2 
 PCOD9407055
Probable space group: P M M A
;
_chemical_formula_sum "Si O2"
_cell_formula_units_Z 48
_cell_length_a 10.429051
_cell_length_b 28.774340
_cell_length_c 8.559478
_cell_angle_alpha 90.000000
_cell_angle_beta 90.000000
_cell_angle_gamma 90.000000
_cell_volume 2568.605702
_symmetry_space_group_name_H-M "P M M A"
_symmetry_group_IT_number 51
_symmetry_cell_setting 'orthorhombic'
loop_
_space_group_symop_operation_xyz
x,y,z
1/2-x,-y,z
1/2+x,-y,-z
-x,y,-z
-x,-y,-z
1/2+x,y,-z
1/2-x,y,z
x,-y,z
loop_
_atom_site_type_symbol
_atom_site_label
_atom_site_fract_x
_atom_site_fract_y
_atom_site_fract_z
Si Si1 0.491781 0.053313 0.690746
Si Si2 0.750000 0.886011 0.312172
Si Si3 0.750000 0.222728 0.322402
Si Si4 0.400619 0.640239 0.358372
Si Si5 0.250000 0.896634 0.307826
Si Si6 0.104229 0.446731 0.133688
Si Si7 0.250000 0.789607 0.302397
Si Si8 0.991256 0.732367 0.814147
O O1 0.500000 0.053045 0.500000
O O2 0.376083 0.086523 0.740590
O O3 0.625134 0.075381 0.743044
O O4 0.473717 0.000000 0.739660
O O5 0.750000 0.831598 0.270243
O O6 0.750000 0.891602 0.502020
O O7 0.750000 0.219239 0.510766
O O8 0.623751 0.249371 0.261603
O O9 0.500000 0.639582 0.500000
O O10 0.250000 0.648004 0.401558
O O11 0.408417 0.591526 0.267265
O O12 0.448371 0.682075 0.248568
O O13 0.250000 0.843509 0.257124
O O14 0.250000 0.442851 0.070671
O O15 0.088016 0.500000 0.189911
O O16 0.000000 0.438385 0.000000
O O17 0.122356 0.766599 0.236148
O O18 0.000000 0.731282 0.000000
#
# Coordination Sequence:
#
# PCOD9407055 Si02
#       8
#     8   4   4   8   4   8   4   8
#     4   9  15  24  40  67 106 145 178 218 278 345
#     4   9  17  29  44  73 102 143 183 226 283 344
#     4  11  23  38  63  84 115 155 198 242 301 360
#     4  11  24  41  62  90 123 161 205 254 308 365
#     4   9  17  27  46  69 104 143 183 226 279 346
#     4   9  19  38  63  92 128 168 210 257 308 361
#     4  11  21  40  59  84 117 153 196 244 299 358
#     4  12  25  41  60  86 117 154 197 251 303 364
#
# _framework density 18.687180999999999
#
# number of rings (size 3 to 8) (size 9 to 14) (size 15 to 20)
#    0.000    1.833    0.833    4.000    1.167    5.667 
#    0.000    0.000    0.000    0.000    0.000    0.000 
#    0.000   46.667    0.000    0.000    0.000    0.000 
#
# Total GULP energy -267997.066089 kJ/mol
# GULP energy per Si atom -5583.272210 kJ/mol
# Density = 1.864465 g / cm^3
# Si number density = 18.687181 Si / 1000 Ang^3
#
#
#
# Elastic Constant Matrix: (Units=GPa)
#
#
# Indices 1 2 3 4 5 6 
#
# 1 185.1370 81.0482 61.2849 0.0000 0.0000 0.0000
# 2 81.0482 127.0189 49.1711 0.0000 0.0000 0.0000
# 3 61.2849 49.1711 71.3148 0.0000 0.0000 0.0000
# 4 0.0000 0.0000 0.0000 -309.5255 0.0000 0.0000
# 5 0.0000 0.0000 0.0000 0.0000 24.0322 0.0000
# 6 0.0000 0.0000 0.0000 0.0000 0.0000 37.1243
#
#
#
# Elastic Compliance Matrix: (Units=1/GPa)
#
#
# Indices 1 2 3 4 5 6 
#
# 1 0.008598 -0.003582 -0.004919 0.000000 0.000000 0.000000
# 2 -0.003582 0.012232 -0.005355 0.000000 0.000000 0.000000
# 3 -0.004919 -0.005355 0.021942 0.000000 0.000000 0.000000
# 4 0.000000 0.000000 0.000000 -0.003231 0.000000 0.000000
# 5 0.000000 0.000000 0.000000 0.000000 0.041611 0.000000
# 6 0.000000 0.000000 0.000000 0.000000 0.000000 0.026937
#
#
# Mechanical properties :
#
#
# Convention : Reuss Voigt Hill
#
# Bulk Modulus (GPa) = 66.40611 85.16436 75.78523
# Shear Modulus (GPa) = 35.50640 -36.87601 -0.68481
#
# Velocity S-wave (km/s) = 4.36367 -4.44704 -0.60601
# Velocity P-wave (km/s) = 7.81036 4.39368 6.33664
#
# Compressibility (1/GPa) = 0.01505886
#
# Stress axis : x y z
#
# Youngs Moduli (GPa) = 116.31003 81.75582 45.57480
#
# Poissons Ratio (x) = 0.29284 0.22418
# Poissons Ratio (y) = 0.41661 0.24407
# Poissons Ratio (z) = 0.57211 0.43784
#
# Static dielectric constant tensor:
#      x y z
#    x 1.625430 0.000000 0.000000 
#    y 0.000000 1.634430 0.000000 
#    z 0.000000 0.000000 1.628210 
# 
# From -- ./inp_files/6312.got.cif
#   From: 2010.05.17/outbox.cif.g08.bks.cpg/sg51_4_cif.got.tgz:6312.got - 2010.06.03 11:52:47.
