data_PCOD9407881
_publ_section_title
;
Structure prediction by ZEFSAII (Michael W. Deem and Ramdas Pophale) SiO2 
 PCOD9407881
Probable space group: P N N A
;
_chemical_formula_sum "Si O2"
_cell_formula_units_Z 28
_cell_length_a 5.318267
_cell_length_b 26.572335
_cell_length_c 6.917407
_cell_angle_alpha 90.000000
_cell_angle_beta 90.000000
_cell_angle_gamma 90.000000
_cell_volume 977.559465
_symmetry_space_group_name_H-M "P N N A"
_symmetry_group_IT_number 52
_symmetry_cell_setting 'orthorhombic'
loop_
_space_group_symop_operation_xyz
x,y,z
1/2-x,-y,z
x,1/2-y,1/2-z
1/2-x,1/2+y,1/2-z
-x,-y,-z
1/2+x,y,-z
-x,1/2+y,1/2+z
1/2+x,1/2-y,1/2+z
loop_
_atom_site_type_symbol
_atom_site_label
_atom_site_fract_x
_atom_site_fract_y
_atom_site_fract_z
Si Si1 0.634665 0.750000 0.750000
Si Si2 0.882678 0.297966 0.178885
Si Si3 0.352134 0.595060 0.731070
Si Si4 0.352025 0.943758 0.204833
O O1 0.591416 0.715452 0.955406
O O2 0.866019 0.708668 0.686853
O O3 0.705154 0.250000 0.250000
O O4 0.757799 0.350235 0.228677
O O5 0.390811 0.582012 0.504513
O O6 0.632719 0.587362 0.810581
O O7 0.129258 0.557387 0.793833
O O8 0.250000 0.000000 0.181147
#
# Coordination Sequence:
#
# PCOD9407881 Si02
#       4
#     4   8   8   8
#     4   6  14  22  32  46  66  70 106 146 182 206
#     4   8  14  24  35  50  62  80 113 150 188 214
#     4  10  16  25  39  47  68  95 115 155 190 203
#     4  10  19  27  35  53  74  97 129 153 172 203
#
# _framework density 28.642757
#
# number of rings (size 3 to 8) (size 9 to 14) (size 15 to 20)
#    1.714    1.143    0.000    6.000    0.000    0.000 
#    0.000    0.000    0.000    0.000    0.000    0.000 
#    0.000    0.000    0.000    0.000    0.000    0.000 
#
# Total GULP energy -156038.977037 kJ/mol
# GULP energy per Si atom -5572.820608 kJ/mol
# Density = 2.857756 g / cm^3
# Si number density = 28.642757 Si / 1000 Ang^3
#
#
#
# Elastic Constant Matrix: (Units=GPa)
#
#
# Indices 1 2 3 4 5 6 
#
# 1 203.3201 5.6311 -31.2839 0.0000 0.0000 0.0000
# 2 5.6311 159.2360 22.9270 0.0000 0.0000 0.0000
# 3 -31.2839 22.9270 101.3460 0.0000 0.0000 0.0000
# 4 0.0000 0.0000 0.0000 2.6388 0.0000 0.0000
# 5 0.0000 0.0000 0.0000 0.0000 196.4597 0.0000
# 6 0.0000 0.0000 0.0000 0.0000 0.0000 55.4708
#
#
#
# Elastic Compliance Matrix: (Units=1/GPa)
#
#
# Indices 1 2 3 4 5 6 
#
# 1 0.005192 -0.000428 0.001699 0.000000 0.000000 0.000000
# 2 -0.000428 0.006527 -0.001609 0.000000 0.000000 0.000000
# 3 0.001699 -0.001609 0.010756 0.000000 0.000000 0.000000
# 4 0.000000 0.000000 0.000000 0.378965 0.000000 0.000000
# 5 0.000000 0.000000 0.000000 0.000000 0.005090 0.000000
# 6 0.000000 0.000000 0.000000 0.000000 0.000000 0.018028
#
#
# Mechanical properties :
#
#
# Convention : Reuss Voigt Hill
#
# Bulk Modulus (GPa) = 45.87337 50.93895 48.40616
# Shear Modulus (GPa) = 11.56074 82.02238 46.79156
#
# Velocity S-wave (km/s) = 2.01120 5.35710 4.04620
# Velocity P-wave (km/s) = 4.63074 7.48916 6.22620
#
# Compressibility (1/GPa) = 0.02179914
#
# Stress axis : x y z
#
# Youngs Moduli (GPa) = 192.61490 153.21545 92.97377
#
# Poissons Ratio (x) = 0.06562 -0.15801
# Poissons Ratio (y) = 0.08249 0.14957
# Poissons Ratio (z) = -0.32735 0.24648
#
# Static dielectric constant tensor:
#      x y z
#    x 2.755620 0.000000 0.000000 
#    y 0.000000 2.274050 0.000000 
#    z 0.000000 0.000000 2.459230 
# 
# From -- ./inp_files/6687.got.cif
#   From: 2010.05.17/outbox.cif.g08.bks.cpg/sg52_4_cif.got.tgz:6687.got - 2010.06.03 12:15:38.
