data_PCOD9407273
_publ_section_title
;
Structure prediction by ZEFSAII (Michael W. Deem and Ramdas Pophale) SiO2 
 PCOD9407273
Probable space group: P M M A
;
_chemical_formula_sum "Si O2"
_cell_formula_units_Z 40
_cell_length_a 7.811709
_cell_length_b 7.432173
_cell_length_c 31.167631
_cell_angle_alpha 90.000000
_cell_angle_beta 90.000000
_cell_angle_gamma 90.000000
_cell_volume 1809.529470
_symmetry_space_group_name_H-M "P M M A"
_symmetry_group_IT_number 51
_symmetry_cell_setting 'orthorhombic'
loop_
_space_group_symop_operation_xyz
x,y,z
1/2-x,-y,z
1/2+x,-y,-z
-x,y,-z
-x,-y,-z
1/2+x,y,-z
1/2-x,y,z
x,-y,z
loop_
_atom_site_type_symbol
_atom_site_label
_atom_site_fract_x
_atom_site_fract_y
_atom_site_fract_z
Si Si1 0.750000 0.721383 0.800450
Si Si2 0.250000 0.280602 0.298258
Si Si3 0.544867 0.204777 0.045727
Si Si4 0.544567 0.294286 0.454228
Si Si5 0.556783 0.710336 0.141009
Si Si6 0.052440 0.279689 0.639457
O O1 0.750000 0.500000 0.801424
O O2 0.750000 0.776620 0.751027
O O3 0.582243 0.784132 0.826197
O O4 0.250000 0.500000 0.298310
O O5 0.419069 0.224277 0.324306
O O6 0.750000 0.203686 0.047081
O O7 0.491470 0.279141 0.091801
O O8 0.478512 0.000000 0.044384
O O9 0.500000 0.291055 0.000000
O O10 0.500000 0.209321 0.500000
O O11 0.750000 0.302166 0.452022
O O12 0.475693 0.500000 0.455751
O O13 0.492898 0.218105 0.408041
O O14 0.750000 0.787642 0.143326
O O15 0.572382 0.500000 0.150987
O O16 0.250000 0.225228 0.646915
O O17 0.053058 0.500000 0.637897
#
# Coordination Sequence:
#
# PCOD9407273 Si02
#       6
#     4   4   8   8   8   8
#     4   9  18  30  43  61  79 103 141 179 218 261
#     4   9  16  24  36  49  63  87 119 159 206 249
#     4   9  18  31  47  69  94 119 147 177 212 255
#     4   8  13  18  24  35  51  74 103 138 185 240
#     4   9  18  32  47  64  89 117 145 179 218 258
#     4   8  14  22  29  41  60  80 109 149 194 248
#
# _framework density 22.105194000000001
#
# number of rings (size 3 to 8) (size 9 to 14) (size 15 to 20)
#    0.000    3.400    0.000    1.200    2.800    1.200 
#    0.000    4.000    0.000    0.000    0.000    0.000 
#    0.000    0.000    0.000    0.000    0.000    0.000 
#
# Total GULP energy -222972.293979 kJ/mol
# GULP energy per Si atom -5574.307349 kJ/mol
# Density = 2.205488 g / cm^3
# Si number density = 22.105194 Si / 1000 Ang^3
#
#
#
# Elastic Constant Matrix: (Units=GPa)
#
#
# Indices 1 2 3 4 5 6 
#
# 1 109.6011 6.9699 114.7009 0.0000 0.0000 0.0000
# 2 6.9699 65.6709 6.6309 0.0000 0.0000 0.0000
# 3 114.7009 6.6309 252.9161 0.0000 0.0000 0.0000
# 4 0.0000 0.0000 0.0000 59.3598 0.0000 0.0000
# 5 0.0000 0.0000 0.0000 0.0000 42.8444 0.0000
# 6 0.0000 0.0000 0.0000 0.0000 0.0000 -9.4491
#
#
#
# Elastic Compliance Matrix: (Units=1/GPa)
#
#
# Indices 1 2 3 4 5 6 
#
# 1 0.017439 -0.001055 -0.007881 0.000000 0.000000 0.000000
# 2 -0.001055 0.015332 0.000077 0.000000 0.000000 0.000000
# 3 -0.007881 0.000077 0.007526 0.000000 0.000000 0.000000
# 4 0.000000 0.000000 0.000000 0.016846 0.000000 0.000000
# 5 0.000000 0.000000 0.000000 0.000000 0.023340 0.000000
# 6 0.000000 0.000000 0.000000 0.000000 0.000000 -0.105830
#
#
# Mechanical properties :
#
#
# Convention : Reuss Voigt Hill
#
# Bulk Modulus (GPa) = 44.29220 76.08793 60.19007
# Shear Modulus (GPa) = -49327.13781 38.54344 -24644.29718
#
# Velocity S-wave (km/s) = -149.54321 4.18022 -105.70169
# Velocity P-wave (km/s) = 172.61947 7.60227 121.94197
#
# Compressibility (1/GPa) = 0.02257734
#
# Stress axis : x y z
#
# Youngs Moduli (GPa) = 57.34297 65.22433 132.87142
#
# Poissons Ratio (x) = 0.06882 1.04718
# Poissons Ratio (y) = 0.06050 -0.01017
# Poissons Ratio (z) = 0.45193 -0.00499
#
# Static dielectric constant tensor:
#      x y z
#    x 1.786820 0.000000 0.000000 
#    y 0.000000 1.884630 0.000000 
#    z 0.000000 0.000000 1.807110 
# 
# From -- ./inp_files/36008.got.cif
#   From: 2010.05.17/outbox.cif.g08.bks.cpg/sg51_19_cif.got.tgz:36008.got - 2010.06.03 11:52:47.
