data_PCOD9407596
_publ_section_title
;
Structure prediction by ZEFSAII (Michael W. Deem and Ramdas Pophale) SiO2 
 PCOD9407596
Probable space group: P M M A
;
_chemical_formula_sum "Si O2"
_cell_formula_units_Z 56
_cell_length_a 9.000000
_cell_length_b 15.000000
_cell_length_c 21.000000
_cell_angle_alpha 90.000000
_cell_angle_beta 90.000000
_cell_angle_gamma 90.000000
_cell_volume 2835.000000
_symmetry_space_group_name_H-M "P M M A"
_symmetry_group_IT_number 51
_symmetry_cell_setting 'orthorhombic'
loop_
_space_group_symop_operation_xyz
x,y,z
1/2-x,-y,z
1/2+x,-y,-z
-x,y,-z
-x,-y,-z
1/2+x,y,-z
1/2-x,y,z
x,-y,z
loop_
_atom_site_type_symbol
_atom_site_label
_atom_site_fract_x
_atom_site_fract_y
_atom_site_fract_z
Si Si1 0.583085 0.840315 0.938408
Si Si2 0.426376 0.101180 0.316736
Si Si3 0.584413 0.103757 0.184386
Si Si4 0.571971 0.398403 0.199956
Si Si5 0.077919 0.607231 0.434333
Si Si6 0.427921 0.713914 0.677206
Si Si7 0.917522 0.628385 0.936600
O O1 0.750000 0.876872 0.930344
O O2 0.481910 0.851378 0.876976
O O3 0.594670 0.734499 0.946147
O O4 0.500000 0.878517 0.000000
O O5 0.250000 0.108501 0.325612
O O6 0.471547 0.108286 0.242663
O O7 0.509221 0.188734 0.341960
O O8 0.472020 0.000000 0.337305
O O9 0.750000 0.137383 0.202042
O O10 0.597899 0.000000 0.168763
O O11 0.750000 0.391082 0.193080
O O12 0.539047 0.500000 0.222704
O O13 0.525486 0.324702 0.252781
O O14 0.500062 0.387674 0.130328
O O15 0.250000 0.635550 0.432953
O O16 0.073919 0.500000 0.432114
O O17 0.000000 0.635648 0.500000
O O18 0.990687 0.646073 0.374665
O O19 0.250000 0.715635 0.676232
O O20 0.750000 0.594611 0.932405
O O21 0.000000 0.595219 0.000000
#
# Coordination Sequence:
#
# PCOD9407596 Si02
#       7
#     8   8   8   8   8   8   8
#     4  10  20  33  49  68  91 122 164 216 274 338
#     4  10  21  37  57  82 113 149 190 237 288 343
#     4  10  20  33  49  70  97 130 170 218 276 342
#     4  10  22  38  55  79 112 148 186 231 285 343
#     4  10  21  38  62  93 130 170 209 247 288 341
#     4  11  22  37  61  90 122 159 198 244 295 348
#     4  10  21  36  54  74  97 132 179 229 281 338
#
# _framework density 19.753086
#
# number of rings (size 3 to 8) (size 9 to 14) (size 15 to 20)
#    0.000    1.857    0.000    3.857    0.000    9.143 
#    0.000    0.000    0.000    0.429    0.000    0.000 
#    0.000    0.000    0.000    0.000    0.000    0.000 
#
# Total GULP energy -312424.515708 kJ/mol
# GULP energy per Si atom -5579.009209 kJ/mol
# Density = 1.970813 g / cm^3
# Si number density = 19.753086 Si / 1000 Ang^3
#
#
#
# Elastic Constant Matrix: (Units=GPa)
#
#
# Indices 1 2 3 4 5 6 
#
# 1 84.0104 32.7313 34.0565 0.0000 0.0000 0.0000
# 2 32.7313 54.1386 20.5352 0.0000 0.0000 0.0000
# 3 34.0565 20.5352 80.9429 0.0000 0.0000 0.0000
# 4 0.0000 0.0000 0.0000 8.2761 0.0000 0.0000
# 5 0.0000 0.0000 0.0000 0.0000 27.5341 0.0000
# 6 0.0000 0.0000 0.0000 0.0000 0.0000 30.7393
#
#
#
# Elastic Compliance Matrix: (Units=1/GPa)
#
#
# Indices 1 2 3 4 5 6 
#
# 1 0.017295 -0.008516 -0.005116 0.000000 0.000000 0.000000
# 2 -0.008516 0.024631 -0.002666 0.000000 0.000000 0.000000
# 3 -0.005116 -0.002666 0.015183 0.000000 0.000000 0.000000
# 4 0.000000 0.000000 0.000000 0.120830 0.000000 0.000000
# 5 0.000000 0.000000 0.000000 0.000000 0.036319 0.000000
# 6 0.000000 0.000000 0.000000 0.000000 0.000000 0.032532
#
#
# Mechanical properties :
#
#
# Convention : Reuss Voigt Hill
#
# Bulk Modulus (GPa) = 40.79411 43.74867 42.27139
# Shear Modulus (GPa) = 17.38786 22.09450 19.74118
#
# Velocity S-wave (km/s) = 2.97014 3.34808 3.16475
# Velocity P-wave (km/s) = 5.69729 6.09442 5.89920
#
# Compressibility (1/GPa) = 0.02451334
#
# Stress axis : x y z
#
# Youngs Moduli (GPa) = 57.81943 40.59971 65.86110
#
# Poissons Ratio (x) = 0.34573 0.33698
# Poissons Ratio (y) = 0.49237 0.17558
# Poissons Ratio (z) = 0.29583 0.10823
#
# Static dielectric constant tensor:
#      x y z
#    x 1.693230 0.000000 0.000000 
#    y 0.000000 1.750840 0.000000 
#    z 0.000000 0.000000 1.678160 
# 
# From -- ./inp_files/31988.got.cif
#   From: 2010.05.17/outbox.ucp.g08.bks.cvg/sg51_16_cif.got.tgz:31988.got - 2010.06.11 16:27:58.
