data_PCOD9407145
_publ_section_title
;
Structure prediction by ZEFSAII (Michael W. Deem and Ramdas Pophale) SiO2 
 PCOD9407145
Probable space group: P M M A
;
_chemical_formula_sum "Si O2"
_cell_formula_units_Z 56
_cell_length_a 14.149048
_cell_length_b 8.681797
_cell_length_c 24.358667
_cell_angle_alpha 90.000000
_cell_angle_beta 90.000000
_cell_angle_gamma 90.000000
_cell_volume 2992.198253
_symmetry_space_group_name_H-M "P M M A"
_symmetry_group_IT_number 51
_symmetry_cell_setting 'orthorhombic'
loop_
_space_group_symop_operation_xyz
x,y,z
1/2-x,-y,z
1/2+x,-y,-z
-x,y,-z
-x,-y,-z
1/2+x,y,-z
1/2-x,y,z
x,-y,z
loop_
_atom_site_type_symbol
_atom_site_label
_atom_site_fract_x
_atom_site_fract_y
_atom_site_fract_z
Si Si1 0.860141 0.315145 0.911766
Si Si2 0.134887 0.178834 0.973809
Si Si3 0.140162 0.186330 0.852388
Si Si4 0.859736 0.815487 0.694868
Si Si5 0.047582 0.686309 0.414837
Si Si6 0.856116 0.312716 0.470352
Si Si7 0.535800 0.315332 0.801096
O O1 0.750000 0.268255 0.907890
O O2 0.863625 0.500000 0.912651
O O3 0.912307 0.260844 0.857035
O O4 0.898436 0.256542 0.970163
O O5 0.250000 0.186116 0.974316
O O6 0.109799 0.242503 0.913633
O O7 0.108186 0.000000 0.975587
O O8 0.250000 0.226184 0.844114
O O9 0.070959 0.256715 0.807719
O O10 0.133610 0.000000 0.852617
O O11 0.750000 0.765337 0.694427
O O12 0.911856 0.749812 0.748226
O O13 0.911119 0.757252 0.640090
O O14 0.862218 0.000000 0.696565
O O15 0.049310 0.500000 0.410561
O O16 0.940090 0.734723 0.429349
O O17 0.110594 0.728932 0.468071
O O18 0.750000 0.257845 0.458641
O O19 0.854882 0.500000 0.468996
O O20 0.538466 0.500000 0.799477
#
# Coordination Sequence:
#
# PCOD9407145 Si02
#       7
#     8   8   8   8   8   8   8
#     4   9  18  32  49  72 103 134 165 210 267 319
#     4   8  15  29  50  74  99 131 169 206 252 315
#     4   9  19  37  57  76 102 135 171 215 266 320
#     4  11  24  40  57  78 106 141 180 222 269 321
#     4   9  17  31  55  84 112 147 187 223 263 310
#     4   8  14  27  51  85 120 149 180 220 264 311
#     4  11  23  37  55  78 103 135 178 224 268 317
#
# _framework density 18.715337999999999
#
# number of rings (size 3 to 8) (size 9 to 14) (size 15 to 20)
#    0.000    2.714    0.000    3.429    0.000    4.857 
#    0.000    7.857    0.000    3.857    0.000    0.000 
#    0.000    0.000    0.000    0.000    0.000    0.000 
#
# Total GULP energy -312445.091982 kJ/mol
# GULP energy per Si atom -5579.376643 kJ/mol
# Density = 1.867274 g / cm^3
# Si number density = 18.715338 Si / 1000 Ang^3
#
#
#
# Elastic Constant Matrix: (Units=GPa)
#
#
# Indices 1 2 3 4 5 6 
#
# 1 149.6720 32.4673 96.7614 0.0000 0.0000 0.0000
# 2 32.4673 19.6067 34.2240 0.0000 0.0000 0.0000
# 3 96.7614 34.2240 146.3591 0.0000 0.0000 0.0000
# 4 0.0000 0.0000 0.0000 32.6527 0.0000 0.0000
# 5 0.0000 0.0000 0.0000 0.0000 29.0087 0.0000
# 6 0.0000 0.0000 0.0000 0.0000 0.0000 18.0108
#
#
#
# Elastic Compliance Matrix: (Units=1/GPa)
#
#
# Indices 1 2 3 4 5 6 
#
# 1 0.012927 -0.010963 -0.005983 0.000000 0.000000 0.000000
# 2 -0.010963 0.095475 -0.015077 0.000000 0.000000 0.000000
# 3 -0.005983 -0.015077 0.014314 0.000000 0.000000 0.000000
# 4 0.000000 0.000000 0.000000 0.030625 0.000000 0.000000
# 5 0.000000 0.000000 0.000000 0.000000 0.034472 0.000000
# 6 0.000000 0.000000 0.000000 0.000000 0.000000 0.055522
#
#
# Mechanical properties :
#
#
# Convention : Reuss Voigt Hill
#
# Bulk Modulus (GPa) = 17.04482 71.39370 44.21926
# Shear Modulus (GPa) = 15.29331 26.08012 20.68672
#
# Velocity S-wave (km/s) = 2.86169 3.73703 3.32826
# Velocity P-wave (km/s) = 4.47730 7.53993 6.20067
#
# Compressibility (1/GPa) = 0.05866886
#
# Stress axis : x y z
#
# Youngs Moduli (GPa) = 77.35488 10.47391 69.86345
#
# Poissons Ratio (x) = 0.11483 0.41799
# Poissons Ratio (y) = 0.84807 1.05336
# Poissons Ratio (z) = 0.46281 0.15792
#
# Static dielectric constant tensor:
#      x y z
#    x 1.686320 0.000000 0.000000 
#    y 0.000000 1.631390 0.000000 
#    z 0.000000 0.000000 1.621600 
# 
# From -- ./inp_files/33369.got.cif
#   From: 2010.05.17/outbox.cif.g08.bks.cpg/sg51_17_cif.got.tgz:33369.got - 2010.06.03 11:52:47.
