data_PCOD9407116
_publ_section_title
;
Structure prediction by ZEFSAII (Michael W. Deem and Ramdas Pophale) SiO2 
 PCOD9407116
Probable space group: P M M A
;
_chemical_formula_sum "Si O2"
_cell_formula_units_Z 42
_cell_length_a 24.951136
_cell_length_b 7.471051
_cell_length_c 10.972343
_cell_angle_alpha 90.000000
_cell_angle_beta 90.000000
_cell_angle_gamma 90.000000
_cell_volume 2045.367730
_symmetry_space_group_name_H-M "P M M A"
_symmetry_group_IT_number 51
_symmetry_cell_setting 'orthorhombic'
loop_
_space_group_symop_operation_xyz
x,y,z
1/2-x,-y,z
1/2+x,-y,-z
-x,y,-z
-x,-y,-z
1/2+x,y,-z
1/2-x,y,z
x,-y,z
loop_
_atom_site_type_symbol
_atom_site_label
_atom_site_fract_x
_atom_site_fract_y
_atom_site_fract_z
Si Si1 0.443946 0.705528 0.046028
Si Si2 0.172789 0.795320 0.972989
Si Si3 0.919106 0.781846 0.426553
Si Si4 0.969317 0.783310 0.682555
Si Si5 0.309027 0.217514 0.691566
Si Si6 0.250000 0.500000 0.069040
O O1 0.442306 0.500000 0.004325
O O2 0.445983 0.713740 0.191956
O O3 0.500000 0.785766 0.000000
O O4 0.390563 0.792787 0.995474
O O5 0.184853 0.736342 0.834010
O O6 0.190760 0.000000 0.987132
O O7 0.203409 0.657353 0.058701
O O8 0.935742 0.728548 0.563165
O O9 0.861177 0.719429 0.381592
O O10 0.968822 0.728198 0.340095
O O11 0.918463 0.000000 0.425113
O O12 0.968462 0.000000 0.687180
O O13 0.250000 0.277156 0.649120
O O14 0.309547 0.000000 0.685879
#
# Coordination Sequence:
#
# PCOD9407116 Si02
#       6
#     8   8   8   8   8   2
#     4  11  23  37  55  84 121 154 193 249 301 350
#     4  11  22  38  62  87 116 159 196 237 300 350
#     4   8  15  29  52  79 106 141 188 237 285 343
#     4   9  17  32  54  78 106 144 189 236 289 354
#     4   9  16  28  51  80 107 139 187 236 278 336
#     4  12  22  40  58  86 122 152 198 254 282 340
#
# _framework density 20.534205
#
# number of rings (size 3 to 8) (size 9 to 14) (size 15 to 20)
#    0.000    2.286    1.905    3.143    0.000    3.048 
#    0.000    1.905    4.190    0.000    0.000    0.000 
#    0.000    0.000    0.000    0.000    0.000    0.000 
#
# Total GULP energy -234023.647165 kJ/mol
# GULP energy per Si atom -5571.991599 kJ/mol
# Density = 2.048747 g / cm^3
# Si number density = 20.534205 Si / 1000 Ang^3
#
#
#
# Elastic Constant Matrix: (Units=GPa)
#
#
# Indices 1 2 3 4 5 6 
#
# 1 188.5739 16.3176 37.3886 0.0000 0.0000 0.0000
# 2 16.3176 85.0672 -3.4319 0.0000 0.0000 0.0000
# 3 37.3886 -3.4319 39.0032 0.0000 0.0000 0.0000
# 4 0.0000 0.0000 0.0000 24.3408 0.0000 0.0000
# 5 0.0000 0.0000 0.0000 0.0000 9.6399 0.0000
# 6 0.0000 0.0000 0.0000 0.0000 0.0000 -39.0692
#
#
#
# Elastic Compliance Matrix: (Units=1/GPa)
#
#
# Indices 1 2 3 4 5 6 
#
# 1 0.006748 -0.001561 -0.006606 0.000000 0.000000 0.000000
# 2 -0.001561 0.012158 0.002566 0.000000 0.000000 0.000000
# 3 -0.006606 0.002566 0.032197 0.000000 0.000000 0.000000
# 4 0.000000 0.000000 0.000000 0.041083 0.000000 0.000000
# 5 0.000000 0.000000 0.000000 0.000000 0.103736 0.000000
# 6 0.000000 0.000000 0.000000 0.000000 0.000000 -0.025596
#
#
# Mechanical properties :
#
#
# Convention : Reuss Voigt Hill
#
# Bulk Modulus (GPa) = 25.06138 45.91031 35.48585
# Shear Modulus (GPa) = 25.66366 16.47363 21.06864
#
# Velocity S-wave (km/s) = 3.53909 2.83548 3.20664
# Velocity P-wave (km/s) = 5.37879 5.75556 5.57036
#
# Compressibility (1/GPa) = 0.03990203
#
# Stress axis : x y z
#
# Youngs Moduli (GPa) = 148.19760 82.24801 31.05878
#
# Poissons Ratio (x) = 0.12838 0.20517
# Poissons Ratio (y) = 0.23132 -0.07970
# Poissons Ratio (z) = 0.97896 -0.21105
#
# Static dielectric constant tensor:
#      x y z
#    x 1.717220 0.000000 0.000000 
#    y 0.000000 1.757210 0.000000 
#    z 0.000000 0.000000 1.697400 
# 
# From -- ./inp_files/18443.got.cif
#   From: 2010.05.17/outbox.cif.g08.bks.cpg/sg51_10_cif.got.tgz:18443.got - 2010.06.03 11:52:47.
