data_PCOD9407507
_publ_section_title
;
Structure prediction by ZEFSAII (Michael W. Deem and Ramdas Pophale) SiO2 
 PCOD9407507
Probable space group: P M M A
;
_chemical_formula_sum "Si O2"
_cell_formula_units_Z 40
_cell_length_a 9.000000
_cell_length_b 27.000000
_cell_length_c 9.000000
_cell_angle_alpha 90.000000
_cell_angle_beta 90.000000
_cell_angle_gamma 90.000000
_cell_volume 2187.000000
_symmetry_space_group_name_H-M "P M M A"
_symmetry_group_IT_number 51
_symmetry_cell_setting 'orthorhombic'
loop_
_space_group_symop_operation_xyz
x,y,z
1/2-x,-y,z
1/2+x,-y,-z
-x,y,-z
-x,-y,-z
1/2+x,y,-z
1/2-x,y,z
x,-y,z
loop_
_atom_site_type_symbol
_atom_site_label
_atom_site_fract_x
_atom_site_fract_y
_atom_site_fract_z
Si Si1 0.429025 0.098402 0.162851
Si Si2 0.428211 0.605191 0.336231
Si Si3 0.428355 0.802774 0.836460
Si Si4 0.429413 0.500000 0.334732
Si Si5 0.573086 0.000000 0.658532
Si Si6 0.429466 0.712473 0.335927
O O1 0.250000 0.104337 0.153153
O O2 0.504823 0.146908 0.232647
O O3 0.466611 0.049289 0.252414
O O4 0.500000 0.093148 0.000000
O O5 0.500000 0.605167 0.500000
O O6 0.250000 0.605046 0.354126
O O7 0.472429 0.552749 0.263593
O O8 0.464286 0.658236 0.266528
O O9 0.250000 0.804130 0.842611
O O10 0.490364 0.755714 0.751261
O O11 0.500000 0.800789 0.000000
O O12 0.250000 0.500000 0.348235
O O13 0.500000 0.500000 0.500000
O O14 0.500000 0.000000 0.500000
O O15 0.750000 0.000000 0.642287
O O16 0.500000 0.712378 0.500000
O O17 0.250000 0.719007 0.341002
#
# Coordination Sequence:
#
# PCOD9407507 Si02
#       6
#     8   8   8   4   4   8
#     4  10  20  37  58  81 105 134 171 210 248 296
#     4   8  14  23  38  60  90 124 160 199 244 294
#     4  11  22  37  56  78 102 134 172 214 257 302
#     4   8  12  20  34  56  85 120 157 196 240 290
#     4  10  23  38  56  82 112 140 169 204 246 294
#     4  10  19  32  49  73 103 136 170 209 255 306
#
# _framework density 18.289895000000001
#
# number of rings (size 3 to 8) (size 9 to 14) (size 15 to 20)
#    0.000    2.400    0.000    4.500    0.000    3.200 
#    0.000    2.000    0.000    0.000    0.000    0.700 
#    0.000    0.000    0.000    0.000    0.000    0.000 
#
# Total GULP energy -222696.911863 kJ/mol
# GULP energy per Si atom -5567.422797 kJ/mol
# Density = 1.824827 g / cm^3
# Si number density = 18.289895 Si / 1000 Ang^3
#
#
#
# Elastic Constant Matrix: (Units=GPa)
#
#
# Indices 1 2 3 4 5 6 
#
# 1 84.0746 71.1415 19.6261 0.0000 0.0000 0.0000
# 2 71.1415 242.0583 59.9300 0.0000 0.0000 0.0000
# 3 19.6261 59.9300 31.8117 0.0000 0.0000 0.0000
# 4 0.0000 0.0000 0.0000 14.9294 0.0000 0.0000
# 5 0.0000 0.0000 0.0000 0.0000 23.9182 0.0000
# 6 0.0000 0.0000 0.0000 0.0000 0.0000 95.9645
#
#
#
# Elastic Compliance Matrix: (Units=1/GPa)
#
#
# Indices 1 2 3 4 5 6 
#
# 1 0.015891 -0.004204 -0.001884 0.000000 0.000000 0.000000
# 2 -0.004204 0.008855 -0.014088 0.000000 0.000000 0.000000
# 3 -0.001884 -0.014088 0.059137 0.000000 0.000000 0.000000
# 4 0.000000 0.000000 0.000000 0.066982 0.000000 0.000000
# 5 0.000000 0.000000 0.000000 0.000000 0.041809 0.000000
# 6 0.000000 0.000000 0.000000 0.000000 0.000000 0.010421
#
#
# Mechanical properties :
#
#
# Convention : Reuss Voigt Hill
#
# Bulk Modulus (GPa) = 22.97189 73.25997 48.11593
# Shear Modulus (GPa) = 19.38306 40.77890 30.08098
#
# Velocity S-wave (km/s) = 3.25894 4.72697 4.05986
# Velocity P-wave (km/s) = 5.17185 8.36267 6.95278
#
# Compressibility (1/GPa) = 0.04353146
#
# Stress axis : x y z
#
# Youngs Moduli (GPa) = 62.92735 112.93429 16.90984
#
# Poissons Ratio (x) = 0.47478 0.03186
# Poissons Ratio (y) = 0.26455 0.23822
# Poissons Ratio (z) = 0.11856 1.59098
#
# Static dielectric constant tensor:
#      x y z
#    x 1.598020 0.000000 0.000000 
#    y 0.000000 1.747080 0.000000 
#    z 0.000000 0.000000 1.618150 
# 
# From -- ./inp_files/5581.got.cif
#   From: 2010.05.17/outbox.ucp.g08.bks.cvg/sg51_3_cif.got.tgz:5581.got - 2010.06.11 16:27:58.
