data_PCOD9407178
_publ_section_title
;
Structure prediction by ZEFSAII (Michael W. Deem and Ramdas Pophale) SiO2 
 PCOD9407178
Probable space group: P M M A
;
_chemical_formula_sum "Si O2"
_cell_formula_units_Z 48
_cell_length_a 10.130191
_cell_length_b 30.038848
_cell_length_c 9.016071
_cell_angle_alpha 90.000000
_cell_angle_beta 90.000000
_cell_angle_gamma 90.000000
_cell_volume 2743.583802
_symmetry_space_group_name_H-M "P M M A"
_symmetry_group_IT_number 51
_symmetry_cell_setting 'orthorhombic'
loop_
_space_group_symop_operation_xyz
x,y,z
1/2-x,-y,z
1/2+x,-y,-z
-x,y,-z
-x,-y,-z
1/2+x,y,-z
1/2-x,y,z
x,-y,z
loop_
_atom_site_type_symbol
_atom_site_label
_atom_site_fract_x
_atom_site_fract_y
_atom_site_fract_z
Si Si1 0.750000 0.945671 0.823040
Si Si2 0.096603 0.269142 0.639413
Si Si3 0.908901 0.186517 0.146207
Si Si4 0.403839 0.370628 0.637722
Si Si5 0.250000 0.947375 0.828258
Si Si6 0.994507 0.900547 0.322125
Si Si7 0.596321 0.549458 0.138878
O O1 0.624529 0.923272 0.745139
O O2 0.750000 0.000000 0.809572
O O3 0.750000 0.933618 0.998374
O O4 0.250000 0.264968 0.590746
O O5 0.075505 0.233187 0.767748
O O6 0.077570 0.319966 0.694296
O O7 0.000000 0.261781 0.500000
O O8 0.750000 0.179769 0.118327
O O9 0.963719 0.147970 0.254384
O O10 0.000000 0.185493 0.000000
O O11 0.500000 0.375935 0.500000
O O12 0.250000 0.374524 0.593248
O O13 0.431098 0.409511 0.753758
O O14 0.124490 0.929978 0.740353
O O15 0.250000 0.000000 0.829892
O O16 0.000000 0.899175 0.500000
O O17 0.750000 0.552729 0.092728
O O18 0.579752 0.500000 0.208367
O O19 0.500000 0.551743 0.000000
#
# Coordination Sequence:
#
# PCOD9407178 Si02
#       7
#     4   8   8   8   4   8   8
#     4  11  25  43  67  93 121 159 195 235 286 337
#     4   9  19  37  58  82 113 146 186 231 282 339
#     4  11  24  41  61  86 116 150 189 234 283 340
#     4   9  18  33  53  77 108 145 182 230 283 337
#     4  11  23  43  65  89 123 157 193 235 284 339
#     4  12  25  41  63  91 121 155 194 238 285 338
#     4   9  18  32  49  72 104 143 186 233 284 337
#
# _framework density 17.495366000000001
#
# number of rings (size 3 to 8) (size 9 to 14) (size 15 to 20)
#    0.000    1.833    0.833    3.000    1.167    5.667 
#    0.000    0.000    0.000    0.000    0.000    0.000 
#    0.000    0.000    0.000    0.000    0.000    0.000 
#
# Total GULP energy -267780.815802 kJ/mol
# GULP energy per Si atom -5578.766996 kJ/mol
# Density = 1.745555 g / cm^3
# Si number density = 17.495366 Si / 1000 Ang^3
#
#
#
# Elastic Constant Matrix: (Units=GPa)
#
#
# Indices 1 2 3 4 5 6 
#
# 1 122.0894 79.3304 86.0786 0.0000 0.0000 0.0000
# 2 79.3304 138.7805 93.9981 0.0000 0.0000 0.0000
# 3 86.0786 93.9981 149.0786 0.0000 0.0000 0.0000
# 4 0.0000 0.0000 0.0000 17.0285 0.0000 0.0000
# 5 0.0000 0.0000 0.0000 0.0000 32.2566 0.0000
# 6 0.0000 0.0000 0.0000 0.0000 0.0000 42.9012
#
#
#
# Elastic Compliance Matrix: (Units=1/GPa)
#
#
# Indices 1 2 3 4 5 6 
#
# 1 0.015506 -0.004886 -0.005872 0.000000 0.000000 0.000000
# 2 -0.004886 0.014116 -0.006079 0.000000 0.000000 0.000000
# 3 -0.005872 -0.006079 0.013932 0.000000 0.000000 0.000000
# 4 0.000000 0.000000 0.000000 0.058725 0.000000 0.000000
# 5 0.000000 0.000000 0.000000 0.000000 0.031001 0.000000
# 6 0.000000 0.000000 0.000000 0.000000 0.000000 0.023309
#
#
# Mechanical properties :
#
#
# Convention : Reuss Voigt Hill
#
# Bulk Modulus (GPa) = 101.23270 103.19584 102.21427
# Shear Modulus (GPa) = 25.83199 28.47335 27.15267
#
# Velocity S-wave (km/s) = 3.84670 4.03858 3.94381
# Velocity P-wave (km/s) = 8.81576 8.99219 8.90442
#
# Compressibility (1/GPa) = 0.00987823
#
# Stress axis : x y z
#
# Youngs Moduli (GPa) = 64.49187 70.83967 71.77801
#
# Poissons Ratio (x) = 0.34613 0.42150
# Poissons Ratio (y) = 0.31512 0.43637
# Poissons Ratio (z) = 0.37872 0.43067
#
# Static dielectric constant tensor:
#      x y z
#    x 1.536790 0.000000 0.000000 
#    y 0.000000 1.615120 0.000000 
#    z 0.000000 0.000000 1.549190 
# 
# From -- ./inp_files/6178.got.cif
#   From: 2010.05.17/outbox.cif.g08.bks.cpg/sg51_4_cif.got.tgz:6178.got - 2010.06.03 11:52:47.
