data_PCOD9407189
_publ_section_title
;
Structure prediction by ZEFSAII (Michael W. Deem and Ramdas Pophale) SiO2 
 PCOD9407189
Probable space group: P M M A
;
_chemical_formula_sum "Si O2"
_cell_formula_units_Z 64
_cell_length_a 19.128176
_cell_length_b 20.849514
_cell_length_c 9.085925
_cell_angle_alpha 90.000000
_cell_angle_beta 90.000000
_cell_angle_gamma 90.000000
_cell_volume 3623.586582
_symmetry_space_group_name_H-M "P M M A"
_symmetry_group_IT_number 51
_symmetry_cell_setting 'orthorhombic'
loop_
_space_group_symop_operation_xyz
x,y,z
1/2-x,-y,z
1/2+x,-y,-z
-x,y,-z
-x,-y,-z
1/2+x,y,-z
1/2-x,y,z
x,-y,z
loop_
_atom_site_type_symbol
_atom_site_label
_atom_site_fract_x
_atom_site_fract_y
_atom_site_fract_z
Si Si1 0.669271 0.221096 0.508879
Si Si2 0.831556 0.149204 0.823092
Si Si3 0.470599 0.572818 0.334911
Si Si4 0.037215 0.312105 0.843156
Si Si5 0.037215 0.812105 0.656844
Si Si6 0.169271 0.721095 0.008879
Si Si7 0.529401 0.072818 0.834911
Si Si8 0.331556 0.350796 0.323092
O O1 0.750000 0.219064 0.464409
O O2 0.662223 0.180000 0.659637
O O3 0.618592 0.195042 0.383622
O O4 0.652350 0.293818 0.560274
O O5 0.750000 0.130507 0.842345
O O6 0.847650 0.206182 0.939726
O O7 0.889790 0.095034 0.836423
O O8 0.500000 0.575345 0.500000
O O9 0.477081 0.500000 0.279697
O O10 0.513789 0.624026 0.239504
O O11 0.389790 0.595034 0.336423
O O12 0.015199 0.250000 0.750000
O O13 0.118592 0.304958 0.883622
O O14 0.000000 0.309589 0.000000
O O15 0.000000 0.809589 0.500000
O O16 0.013789 0.875974 0.739504
O O17 0.250000 0.719064 0.964409
O O18 0.162223 0.679999 0.159637
O O19 0.522920 0.000000 0.779697
O O20 0.500000 0.075345 0.000000
O O21 0.250000 0.369493 0.342345
#
# Coordination Sequence:
#
# PCOD9407189 Si02
#       8
#     8   8   8   8   8   8   8   8
#     4   9  18  33  56  86 116 145 187 238 284 338
#     4   9  17  35  59  83 113 148 190 237 283 336
#     4  11  24  40  57  83 117 153 196 241 288 347
#     4  12  22  35  59  86 117 151 191 234 294 345
#     4  12  22  35  59  86 117 151 191 234 294 345
#     4   9  18  33  56  86 116 145 187 238 284 338
#     4  11  24  40  57  83 117 153 196 241 288 347
#     4   9  17  35  59  83 113 148 190 237 283 336
#
# _framework density 17.662058999999999
#
# number of rings (size 3 to 8) (size 9 to 14) (size 15 to 20)
#    0.000    1.750    2.500    5.250    0.000    1.500 
#    0.000    1.250    0.000    2.250    0.000    0.000 
#    0.000    0.000    0.000    0.000    0.000    0.000 
#
# Total GULP energy -357348.690904 kJ/mol
# GULP energy per Si atom -5583.573295 kJ/mol
# Density = 1.762186 g / cm^3
# Si number density = 17.662059 Si / 1000 Ang^3
#
#
#
# Elastic Constant Matrix: (Units=GPa)
#
#
# Indices 1 2 3 4 5 6 
#
# 1 101.0655 72.9429 38.4341 0.0000 0.0000 0.0000
# 2 72.9429 153.2714 61.8261 0.0000 0.0000 0.0000
# 3 38.4341 61.8261 66.3897 0.0000 0.0000 0.0000
# 4 0.0000 0.0000 0.0000 26.6473 0.0000 0.0000
# 5 0.0000 0.0000 0.0000 0.0000 26.9980 0.0000
# 6 0.0000 0.0000 0.0000 0.0000 0.0000 -21.7513
#
#
#
# Elastic Compliance Matrix: (Units=1/GPa)
#
#
# Indices 1 2 3 4 5 6 
#
# 1 0.015530 -0.006029 -0.003376 0.000000 0.000000 0.000000
# 2 -0.006029 0.012790 -0.008421 0.000000 0.000000 0.000000
# 3 -0.003376 -0.008421 0.024859 0.000000 0.000000 0.000000
# 4 0.000000 0.000000 0.000000 0.037527 0.000000 0.000000
# 5 0.000000 0.000000 0.000000 0.000000 0.037040 0.000000
# 6 0.000000 0.000000 0.000000 0.000000 0.000000 -0.045974
#
#
# Mechanical properties :
#
#
# Convention : Reuss Voigt Hill
#
# Bulk Modulus (GPa) = 57.05292 74.12586 65.58939
# Shear Modulus (GPa) = 40.56267 16.21369 28.38818
#
# Velocity S-wave (km/s) = 4.79748 3.03313 4.01346
# Velocity P-wave (km/s) = 7.94106 7.37066 7.66117
#
# Compressibility (1/GPa) = 0.01752759
#
# Stress axis : x y z
#
# Youngs Moduli (GPa) = 64.39268 78.18375 40.22683
#
# Poissons Ratio (x) = 0.47136 0.13580
# Poissons Ratio (y) = 0.38822 0.33875
# Poissons Ratio (z) = 0.21738 0.65838
#
# Static dielectric constant tensor:
#      x y z
#    x 1.645690 0.000000 0.000000 
#    y 0.000000 1.582430 0.000000 
#    z 0.000000 0.000000 1.594910 
# 
# From -- ./inp_files/11199.got.cif
#   From: 2010.05.17/outbox.cif.g08.bks.cpg/sg51_6_cif.got.tgz:11199.got - 2010.06.03 11:52:47.
