data_PCOD9407483
_publ_section_title
;
Structure prediction by ZEFSAII (Michael W. Deem and Ramdas Pophale) SiO2 
 PCOD9407483
Probable space group: P M M A
;
_chemical_formula_sum "Si O2"
_cell_formula_units_Z 48
_cell_length_a 9.000000
_cell_length_b 18.000000
_cell_length_c 18.000000
_cell_angle_alpha 90.000000
_cell_angle_beta 90.000000
_cell_angle_gamma 90.000000
_cell_volume 2916.000000
_symmetry_space_group_name_H-M "P M M A"
_symmetry_group_IT_number 51
_symmetry_cell_setting 'orthorhombic'
loop_
_space_group_symop_operation_xyz
x,y,z
1/2-x,-y,z
1/2+x,-y,-z
-x,y,-z
-x,-y,-z
1/2+x,y,-z
1/2-x,y,z
x,-y,z
loop_
_atom_site_type_symbol
_atom_site_label
_atom_site_fract_x
_atom_site_fract_y
_atom_site_fract_z
Si Si1 0.071811 0.301815 0.920546
Si Si2 0.580077 0.309426 0.685886
Si Si3 0.428133 0.583684 0.791495
Si Si4 0.920988 0.187162 0.818953
Si Si5 0.421744 0.088205 0.707546
Si Si6 0.571074 0.183299 0.579870
O O1 0.250000 0.299229 0.925201
O O2 0.027786 0.366573 0.862387
O O3 0.008550 0.225831 0.885603
O O4 0.000000 0.315482 0.000000
O O5 0.750000 0.333504 0.675835
O O6 0.483674 0.376075 0.717242
O O7 0.578511 0.247433 0.751531
O O8 0.529764 0.264206 0.613625
O O9 0.250000 0.582616 0.790768
O O10 0.484539 0.500000 0.797494
O O11 0.750000 0.172271 0.838283
O O12 0.002463 0.117264 0.782850
O O13 0.250000 0.113470 0.705609
O O14 0.508223 0.123760 0.638237
O O15 0.426262 0.000000 0.703166
O O16 0.500000 0.171938 0.500000
O O17 0.750000 0.178984 0.577870
#
# Coordination Sequence:
#
# PCOD9407483 Si02
#       6
#     8   8   8   8   8   8
#     4  10  19  31  48  70  98 129 161 198 239 284
#     4   8  16  30  47  68  91 119 157 197 235 278
#     4   9  18  31  47  69  96 126 159 195 237 284
#     4   9  17  31  50  70  93 123 162 201 236 279
#     4  10  20  33  50  73 100 129 160 194 235 283
#     4  10  20  33  50  72  98 127 161 199 240 286
#
# _framework density 16.460905
#
# number of rings (size 3 to 8) (size 9 to 14) (size 15 to 20)
#    0.000    2.667    0.000    3.000    0.000    7.667 
#    0.000    0.000    0.000    1.000    0.000    0.000 
#    0.000    0.000    0.000    0.000    0.000    0.000 
#
# Total GULP energy -267395.787073 kJ/mol
# GULP energy per Si atom -5570.745564 kJ/mol
# Density = 1.642344 g / cm^3
# Si number density = 16.460905 Si / 1000 Ang^3
#
#
#
# Elastic Constant Matrix: (Units=GPa)
#
#
# Indices 1 2 3 4 5 6 
#
# 1 67.3874 44.1719 23.2478 0.0000 0.0000 0.0000
# 2 44.1719 71.9611 56.2026 0.0000 0.0000 0.0000
# 3 23.2478 56.2026 -18.8102 0.0000 0.0000 0.0000
# 4 0.0000 0.0000 0.0000 11.8465 0.0000 0.0000
# 5 0.0000 0.0000 0.0000 0.0000 24.5393 0.0000
# 6 0.0000 0.0000 0.0000 0.0000 0.0000 20.2159
#
#
#
# Elastic Compliance Matrix: (Units=1/GPa)
#
#
# Indices 1 2 3 4 5 6 
#
# 1 0.023645 -0.011201 -0.004243 0.000000 0.000000 0.000000
# 2 -0.011201 0.009474 0.014465 0.000000 0.000000 0.000000
# 3 -0.004243 0.014465 -0.015186 0.000000 0.000000 0.000000
# 4 0.000000 0.000000 0.000000 0.084413 0.000000 0.000000
# 5 0.000000 0.000000 0.000000 0.000000 0.040751 0.000000
# 6 0.000000 0.000000 0.000000 0.000000 0.000000 0.049466
#
#
# Mechanical properties :
#
#
# Convention : Reuss Voigt Hill
#
# Bulk Modulus (GPa) = 62.59112 40.86475 51.72794
# Shear Modulus (GPa) = 25.01945 11.11475 18.06710
#
# Velocity S-wave (km/s) = 3.90286 2.60132 3.31656
# Velocity P-wave (km/s) = 7.64306 5.82252 6.79405
#
# Compressibility (1/GPa) = 0.01597671
#
# Stress axis : x y z
#
# Youngs Moduli (GPa) = 42.29213 105.54916 -65.84833
#
# Poissons Ratio (x) = 1.18221 -0.27937
# Poissons Ratio (y) = 0.47369 0.95250
# Poissons Ratio (z) = 0.17943 -1.52677
#
# Static dielectric constant tensor:
#      x y z
#    x 1.559540 0.000000 0.000000 
#    y 0.000000 1.558310 0.000000 
#    z 0.000000 0.000000 1.535730 
# 
# From -- ./inp_files/21079.got.cif
#   From: 2010.05.17/outbox.ucp.g08.bks.cvg/sg51_11_cif.got.tgz:21079.got - 2010.06.11 16:27:58.
