data_PCOD9407193
_publ_section_title
;
Structure prediction by ZEFSAII (Michael W. Deem and Ramdas Pophale) SiO2 
 PCOD9407193
Probable space group: P M M A
;
_chemical_formula_sum "Si O2"
_cell_formula_units_Z 40
_cell_length_a 27.626070
_cell_length_b 7.699431
_cell_length_c 9.954205
_cell_angle_alpha 90.000000
_cell_angle_beta 90.000000
_cell_angle_gamma 90.000000
_cell_volume 2117.309371
_symmetry_space_group_name_H-M "P M M A"
_symmetry_group_IT_number 51
_symmetry_cell_setting 'orthorhombic'
loop_
_space_group_symop_operation_xyz
x,y,z
1/2-x,-y,z
1/2+x,-y,-z
-x,y,-z
-x,-y,-z
1/2+x,y,-z
1/2-x,y,z
x,-y,z
loop_
_atom_site_type_symbol
_atom_site_label
_atom_site_fract_x
_atom_site_fract_y
_atom_site_fract_z
Si Si1 0.391654 0.302812 0.525906
Si Si2 0.305787 0.789555 0.022502
Si Si3 0.694040 0.789911 0.285221
Si Si4 0.960526 0.000000 0.383953
Si Si5 0.394729 0.299526 0.209622
Si Si6 0.030985 0.000000 0.134121
O O1 0.409781 0.500000 0.535030
O O2 0.341108 0.288120 0.604217
O O3 0.427228 0.168028 0.596914
O O4 0.387221 0.258325 0.367849
O O5 0.250000 0.736523 0.048874
O O6 0.344813 0.721479 0.127635
O O7 0.306930 0.000000 0.027250
O O8 0.318263 0.738988 0.868581
O O9 0.750000 0.743696 0.307945
O O10 0.690227 0.000000 0.292102
O O11 0.000000 0.000000 0.500000
O O12 0.990865 0.000000 0.249492
O O13 0.410615 0.500000 0.199742
O O14 0.434077 0.166633 0.150901
O O15 0.000000 0.000000 0.000000
#
# Coordination Sequence:
#
# PCOD9407193 Si02
#       6
#     8   8   8   4   8   4
#     4  11  24  40  64  95 124 159 205 252 302 365
#     4   9  19  37  63  92 126 167 205 246 300 362
#     4   9  19  37  63  94 127 164 206 248 298 362
#     4  12  24  46  69  86 119 163 202 251 316 362
#     4  11  24  42  63  93 127 159 204 252 304 366
#     4  12  28  46  67  90 121 159 202 261 314 362
#
# _framework density 18.891902999999999
#
# number of rings (size 3 to 8) (size 9 to 14) (size 15 to 20)
#    0.000    1.600    4.000    1.200    2.800    4.000 
#    0.000    6.000    0.000    0.000    0.000    0.000 
#    0.000    0.000    0.000    0.000    0.000    0.000 
#
# Total GULP energy -223455.497416 kJ/mol
# GULP energy per Si atom -5586.387435 kJ/mol
# Density = 1.884890 g / cm^3
# Si number density = 18.891903 Si / 1000 Ang^3
#
#
#
# Elastic Constant Matrix: (Units=GPa)
#
#
# Indices 1 2 3 4 5 6 
#
# 1 118.1541 55.3745 88.0240 0.0000 0.0000 0.0000
# 2 55.3745 90.7262 47.9500 0.0000 0.0000 0.0000
# 3 88.0240 47.9500 136.2877 0.0000 0.0000 0.0000
# 4 0.0000 0.0000 0.0000 6.7588 0.0000 0.0000
# 5 0.0000 0.0000 0.0000 0.0000 48.2561 0.0000
# 6 0.0000 0.0000 0.0000 0.0000 0.0000 -19.3338
#
#
#
# Elastic Compliance Matrix: (Units=1/GPa)
#
#
# Indices 1 2 3 4 5 6 
#
# 1 0.018784 -0.006207 -0.009948 0.000000 0.000000 0.000000
# 2 -0.006207 0.015591 -0.001476 0.000000 0.000000 0.000000
# 3 -0.009948 -0.001476 0.014282 0.000000 0.000000 0.000000
# 4 0.000000 0.000000 0.000000 0.147956 0.000000 0.000000
# 5 0.000000 0.000000 0.000000 0.000000 0.020723 0.000000
# 6 0.000000 0.000000 0.000000 0.000000 0.000000 -0.051723
#
#
# Mechanical properties :
#
#
# Convention : Reuss Voigt Hill
#
# Bulk Modulus (GPa) = 74.66169 80.87389 77.76779
# Shear Modulus (GPa) = 24.34983 17.39084 20.87033
#
# Velocity S-wave (km/s) = 3.59402 3.03734 3.32734
# Velocity P-wave (km/s) = 7.53850 7.42982 7.48436
#
# Compressibility (1/GPa) = 0.01339375
#
# Stress axis : x y z
#
# Youngs Moduli (GPa) = 53.23761 64.13999 70.01806
#
# Poissons Ratio (x) = 0.39811 0.69654
# Poissons Ratio (y) = 0.33044 0.10338
# Poissons Ratio (z) = 0.52961 0.09470
#
# Static dielectric constant tensor:
#      x y z
#    x 1.633040 0.000000 0.000000 
#    y 0.000000 1.690790 0.000000 
#    z 0.000000 0.000000 1.624440 
# 
# From -- ./inp_files/12170.got.cif
#   From: 2010.05.17/outbox.cif.g08.bks.cpg/sg51_7_cif.got.tgz:12170.got - 2010.06.03 11:52:47.
