data_PCOD9407590
_publ_section_title
;
Structure prediction by ZEFSAII (Michael W. Deem and Ramdas Pophale) SiO2 
 PCOD9407590
Probable space group: P M M A
;
_chemical_formula_sum "Si O2"
_cell_formula_units_Z 64
_cell_length_a 9.000000
_cell_length_b 24.000000
_cell_length_c 15.000000
_cell_angle_alpha 90.000000
_cell_angle_beta 90.000000
_cell_angle_gamma 90.000000
_cell_volume 3240.000000
_symmetry_space_group_name_H-M "P M M A"
_symmetry_group_IT_number 51
_symmetry_cell_setting 'orthorhombic'
loop_
_space_group_symop_operation_xyz
x,y,z
1/2-x,-y,z
1/2+x,-y,-z
-x,y,-z
-x,-y,-z
1/2+x,y,-z
1/2-x,y,z
x,-y,z
loop_
_atom_site_type_symbol
_atom_site_label
_atom_site_fract_x
_atom_site_fract_y
_atom_site_fract_z
Si Si1 0.416974 0.066530 0.587707
Si Si2 0.573319 0.360949 0.412286
Si Si3 0.421726 0.247800 0.662770
Si Si4 0.926579 0.138461 0.719659
Si Si5 0.075645 0.171784 0.087213
Si Si6 0.424611 0.411002 0.908366
Si Si7 0.578681 0.562739 0.728318
Si Si8 0.416967 0.719556 0.869349
O O1 0.500000 0.087759 0.500000
O O2 0.250000 0.088406 0.591439
O O3 0.506806 0.084965 0.673406
O O4 0.411261 0.000000 0.582120
O O5 0.500000 0.385265 0.500000
O O6 0.750000 0.360682 0.417849
O O7 0.521818 0.297274 0.399051
O O8 0.520651 0.396447 0.329134
O O9 0.250000 0.234718 0.641946
O O10 0.516979 0.192282 0.665616
O O11 0.423429 0.274055 0.762488
O O12 0.750000 0.137352 0.719798
O O13 0.981604 0.146032 0.820605
O O14 0.250000 0.164312 0.082556
O O15 0.036057 0.237258 0.093848
O O16 0.000000 0.148062 0.000000
O O17 0.250000 0.424613 0.905126
O O18 0.513992 0.436617 0.827064
O O19 0.438425 0.343826 0.897524
O O20 0.500000 0.427871 0.000000
O O21 0.750000 0.581217 0.728096
O O22 0.571783 0.500000 0.692421
O O23 0.250000 0.737391 0.897066
#
# Coordination Sequence:
#
# PCOD9407590 Si02
#       8
#     8   8   8   8   8   8   8   8
#     4  10  21  38  61  87 115 151 194 241 292 342
#     4  11  23  41  64  90 116 148 187 231 286 345
#     4   9  18  35  56  81 116 153 188 228 278 335
#     4  10  21  35  55  86 120 156 196 237 286 338
#     4  10  20  32  49  78 114 155 196 235 280 330
#     4  11  22  37  58  86 115 148 187 230 283 342
#     4  11  25  44  64  85 110 144 187 237 290 344
#     4   9  17  32  53  78 109 146 186 227 274 329
#
# _framework density 19.753086
#
# number of rings (size 3 to 8) (size 9 to 14) (size 15 to 20)
#    0.000    1.875    1.250    2.625    0.000    7.250 
#    0.000    1.250    0.000    0.375    0.000    0.000 
#    0.000    0.000    0.000    0.000    0.000    0.000 
#
# Total GULP energy -357202.230408 kJ/mol
# GULP energy per Si atom -5581.284850 kJ/mol
# Density = 1.970813 g / cm^3
# Si number density = 19.753086 Si / 1000 Ang^3
#
#
#
# Elastic Constant Matrix: (Units=GPa)
#
#
# Indices 1 2 3 4 5 6 
#
# 1 43.8428 18.5658 17.8693 0.0000 0.0000 0.0000
# 2 18.5658 19.9170 24.4528 0.0000 0.0000 0.0000
# 3 17.8693 24.4528 75.8452 0.0000 0.0000 0.0000
# 4 0.0000 0.0000 0.0000 -35.8335 0.0000 0.0000
# 5 0.0000 0.0000 0.0000 0.0000 14.6948 0.0000
# 6 0.0000 0.0000 0.0000 0.0000 0.0000 19.7118
#
#
#
# Elastic Compliance Matrix: (Units=1/GPa)
#
#
# Indices 1 2 3 4 5 6 
#
# 1 0.038451 -0.040916 0.004132 0.000000 0.000000 0.000000
# 2 -0.040916 0.126642 -0.031190 0.000000 0.000000 0.000000
# 3 0.004132 -0.031190 0.022267 0.000000 0.000000 0.000000
# 4 0.000000 0.000000 0.000000 -0.027907 0.000000 0.000000
# 5 0.000000 0.000000 0.000000 0.000000 0.068051 0.000000
# 6 0.000000 0.000000 0.000000 0.000000 0.000000 0.050731
#
#
# Mechanical properties :
#
#
# Convention : Reuss Voigt Hill
#
# Bulk Modulus (GPa) = 19.45047 29.04231 24.24639
# Shear Modulus (GPa) = 11.59235 4.96244 8.27739
#
# Velocity S-wave (km/s) = 2.42515 1.58672 2.04927
# Velocity P-wave (km/s) = 4.20833 4.25341 4.23093
#
# Compressibility (1/GPa) = 0.05141263
#
# Stress axis : x y z
#
# Youngs Moduli (GPa) = 26.00728 7.89630 44.90960
#
# Poissons Ratio (x) = 0.32308 -0.18558
# Poissons Ratio (y) = 1.06411 1.40073
# Poissons Ratio (z) = -0.10747 0.24629
#
# Static dielectric constant tensor:
#      x y z
#    x 1.651160 0.000000 0.000000 
#    y 0.000000 1.690480 0.000000 
#    z 0.000000 0.000000 1.651870 
# 
# From -- ./inp_files/22289.got.cif
#   From: 2010.05.17/outbox.ucp.g08.bks.cvg/sg51_12_cif.got.tgz:22289.got - 2010.06.11 16:27:58.
