data_PCOD9407491
_publ_section_title
;
Structure prediction by ZEFSAII (Michael W. Deem and Ramdas Pophale) SiO2 
 PCOD9407491
Probable space group: P M M A
;
_chemical_formula_sum "Si O2"
_cell_formula_units_Z 56
_cell_length_a 21.000000
_cell_length_b 9.000000
_cell_length_c 15.000000
_cell_angle_alpha 90.000000
_cell_angle_beta 90.000000
_cell_angle_gamma 90.000000
_cell_volume 2835.000000
_symmetry_space_group_name_H-M "P M M A"
_symmetry_group_IT_number 51
_symmetry_cell_setting 'orthorhombic'
loop_
_space_group_symop_operation_xyz
x,y,z
1/2-x,-y,z
1/2+x,-y,-z
-x,y,-z
-x,-y,-z
1/2+x,y,-z
1/2-x,y,z
x,-y,z
loop_
_atom_site_type_symbol
_atom_site_label
_atom_site_fract_x
_atom_site_fract_y
_atom_site_fract_z
Si Si1 0.182341 0.178565 0.708942
Si Si2 0.571553 0.680931 0.605140
Si Si3 0.502494 0.673592 0.105866
Si Si4 0.127257 0.177361 0.887009
Si Si5 0.573263 0.678800 0.403303
Si Si6 0.678713 0.833915 0.936468
Si Si7 0.626785 0.324908 0.783363
O O1 0.250000 0.225606 0.670908
O O2 0.176906 0.221828 0.812329
O O3 0.124671 0.251055 0.659084
O O4 0.177864 0.000000 0.704696
O O5 0.572622 0.500000 0.607434
O O6 0.587127 0.725160 0.505021
O O7 0.498379 0.723915 0.621478
O O8 0.615946 0.734595 0.684430
O O9 0.519124 0.500000 0.116705
O O10 0.558075 0.774414 0.144188
O O11 0.437783 0.698505 0.159278
O O12 0.500000 0.704526 0.000000
O O13 0.130775 0.000000 0.896669
O O14 0.140287 0.243514 0.984312
O O15 0.575386 0.500000 0.399266
O O16 0.750000 0.844843 0.971771
O O17 0.678369 0.752016 0.843632
O O18 0.653345 0.000000 0.920466
O O19 0.638586 0.500000 0.778808
#
# Coordination Sequence:
#
# PCOD9407491 Si02
#       7
#     8   8   8   8   8   8   8
#     4  10  21  36  52  74 106 140 172 211 261 308
#     4   8  16  32  56  81 103 130 163 206 258 307
#     4  10  19  31  49  77 108 132 159 206 259 297
#     4  10  20  34  53  73  98 136 177 208 244 301
#     4   9  17  34  58  80 101 129 169 210 252 306
#     4  10  21  36  51  68  95 133 175 213 243 280
#     4  10  19  33  52  75 104 134 163 199 249 303
#
# _framework density 19.753086
#
# number of rings (size 3 to 8) (size 9 to 14) (size 15 to 20)
#    0.000    2.429    1.429    2.143    0.000    4.857 
#    0.000    3.571    0.000    6.857    0.000    0.000 
#    0.000    0.000    0.000    0.000    0.000    0.000 
#
# Total GULP energy -311756.498811 kJ/mol
# GULP energy per Si atom -5567.080336 kJ/mol
# Density = 1.970813 g / cm^3
# Si number density = 19.753086 Si / 1000 Ang^3
#
#
#
# Elastic Constant Matrix: (Units=GPa)
#
#
# Indices 1 2 3 4 5 6 
#
# 1 38.0299 36.3906 59.9705 0.0000 0.0000 0.0000
# 2 36.3906 -24.1097 16.2556 0.0000 0.0000 0.0000
# 3 59.9705 16.2556 74.2352 0.0000 0.0000 0.0000
# 4 0.0000 0.0000 0.0000 20.2750 0.0000 0.0000
# 5 0.0000 0.0000 0.0000 0.0000 0.1217 0.0000
# 6 0.0000 0.0000 0.0000 0.0000 0.0000 6.7527
#
#
#
# Elastic Compliance Matrix: (Units=1/GPa)
#
#
# Indices 1 2 3 4 5 6 
#
# 1 0.109480 0.092029 -0.108595 0.000000 0.000000 0.000000
# 2 0.092029 0.041217 -0.083370 0.000000 0.000000 0.000000
# 3 -0.108595 -0.083370 0.119454 0.000000 0.000000 0.000000
# 4 0.000000 0.000000 0.000000 0.049322 0.000000 0.000000
# 5 0.000000 0.000000 0.000000 0.000000 8.218900 0.000000
# 6 0.000000 0.000000 0.000000 0.000000 0.000000 0.148089
#
#
# Mechanical properties :
#
#
# Convention : Reuss Voigt Hill
#
# Bulk Modulus (GPa) = 14.22905 34.82097 24.52501
# Shear Modulus (GPa) = 0.56118 3.79912 2.18015
#
# Velocity S-wave (km/s) = 0.53359 1.38834 1.05171
# Velocity P-wave (km/s) = 2.75658 4.49848 3.73062
#
# Compressibility (1/GPa) = 0.07027874
#
# Stress axis : x y z
#
# Youngs Moduli (GPa) = 9.13407 24.26154 8.37139
#
# Poissons Ratio (x) = -2.23275 0.90909
# Poissons Ratio (y) = -0.84059 0.69793
# Poissons Ratio (z) = 0.99191 2.02269
#
# Static dielectric constant tensor:
#      x y z
#    x 1.852450 0.000000 0.000000 
#    y 0.000000 1.689530 0.000000 
#    z 0.000000 0.000000 1.730930 
# 
# From -- ./inp_files/25714.got.cif
#   From: 2010.05.17/outbox.ucp.g08.bks.cvg/sg51_13_cif.got.tgz:25714.got - 2010.06.11 16:27:58.
