data_PCOD9407920
_publ_section_title
;
Structure prediction by ZEFSAII (Michael W. Deem and Ramdas Pophale) SiO2 
 PCOD9407920
Probable space group: P N N A
;
_chemical_formula_sum "Si O2"
_cell_formula_units_Z 60
_cell_length_a 14.376259
_cell_length_b 22.267116
_cell_length_c 11.624392
_cell_angle_alpha 90.000000
_cell_angle_beta 90.000000
_cell_angle_gamma 90.000000
_cell_volume 3721.175105
_symmetry_space_group_name_H-M "P N N A"
_symmetry_group_IT_number 52
_symmetry_cell_setting 'orthorhombic'
loop_
_space_group_symop_operation_xyz
x,y,z
1/2-x,-y,z
x,1/2-y,1/2-z
1/2-x,1/2+y,1/2-z
-x,-y,-z
1/2+x,y,-z
-x,1/2+y,1/2+z
1/2+x,1/2-y,1/2+z
loop_
_atom_site_type_symbol
_atom_site_label
_atom_site_fract_x
_atom_site_fract_y
_atom_site_fract_z
Si Si1 0.937859 0.076849 0.612422
Si Si2 0.489033 0.165964 0.769652
Si Si3 0.680104 0.750000 0.250000
Si Si4 0.265706 0.934149 0.457482
Si Si5 0.074391 0.253057 0.067270
Si Si6 0.760985 0.301482 0.015405
Si Si7 0.975437 0.945605 0.636604
Si Si8 0.052170 0.788949 0.364180
O O1 0.825715 0.071761 0.623809
O O2 0.969943 0.140850 0.659963
O O3 0.964248 0.072726 0.476079
O O4 0.984159 0.016419 0.660475
O O5 0.387549 0.194673 0.785230
O O6 0.526956 0.199089 0.654214
O O7 0.494644 0.096519 0.740828
O O8 0.551746 0.189515 0.874318
O O9 0.735125 0.729077 0.139096
O O10 0.260262 0.872535 0.528702
O O11 0.366670 0.935069 0.397171
O O12 0.250000 0.000000 0.514344
O O13 0.180977 0.270611 0.058926
O O14 0.028122 0.260757 0.943213
O O15 0.857473 0.292594 0.947383
O O16 0.067510 0.750000 0.250000
#
# Coordination Sequence:
#
# PCOD9407920 Si02
#       8
#     8   8   4   8   8   8   8   8
#     4   9  18  29  45  76  99 127 164 204 259 298
#     4  10  17  34  51  69 102 132 164 212 235 301
#     4  10  20  32  50  70 104 130 168 212 244 296
#     4   9  17  27  45  72 102 123 156 207 253 303
#     4  10  20  31  47  73  99 129 170 193 251 297
#     4  11  19  33  49  74  98 133 167 200 254 298
#     4  10  16  30  52  68 101 130 162 212 250 292
#     4  11  21  33  48  73 109 127 158 212 248 298
#
# _framework density 16.123939
#
# number of rings (size 3 to 8) (size 9 to 14) (size 15 to 20)
#    0.000    2.133    5.333    0.800    2.800    0.000 
#    0.000    0.000    0.000    0.800    0.000    0.000 
#    0.000    0.000    0.000    0.000    0.000    0.000 
#
# Total GULP energy -334069.326439 kJ/mol
# GULP energy per Si atom -5567.822107 kJ/mol
# Density = 1.608724 g / cm^3
# Si number density = 16.123939 Si / 1000 Ang^3
#
#
#
# Elastic Constant Matrix: (Units=GPa)
#
#
# Indices 1 2 3 4 5 6 
#
# 1 36.4709 2.4084 -0.2049 0.0000 0.0000 0.0000
# 2 2.4084 128.9749 46.3347 0.0000 0.0000 0.0000
# 3 -0.2049 46.3347 42.8515 0.0000 0.0000 0.0000
# 4 0.0000 0.0000 0.0000 22.9753 0.0000 0.0000
# 5 0.0000 0.0000 0.0000 0.0000 15.9701 0.0000
# 6 0.0000 0.0000 0.0000 0.0000 0.0000 23.7996
#
#
#
# Elastic Compliance Matrix: (Units=1/GPa)
#
#
# Indices 1 2 3 4 5 6 
#
# 1 0.027486 -0.000916 0.001122 0.000000 0.000000 0.000000
# 2 -0.000916 0.012709 -0.013746 0.000000 0.000000 0.000000
# 3 0.001122 -0.013746 0.038206 0.000000 0.000000 0.000000
# 4 0.000000 0.000000 0.000000 0.043525 0.000000 0.000000
# 5 0.000000 0.000000 0.000000 0.000000 0.062617 0.000000
# 6 0.000000 0.000000 0.000000 0.000000 0.000000 0.042018
#
#
# Mechanical properties :
#
#
# Convention : Reuss Voigt Hill
#
# Bulk Modulus (GPa) = 19.48578 33.93042 26.70810
# Shear Modulus (GPa) = 18.46738 23.19960 20.83349
#
# Velocity S-wave (km/s) = 3.38796 3.79731 3.59846
# Velocity P-wave (km/s) = 5.23599 6.34943 5.81940
#
# Compressibility (1/GPa) = 0.05131948
#
# Stress axis : x y z
#
# Youngs Moduli (GPa) = 36.38219 78.68424 26.17419
#
# Poissons Ratio (x) = 0.07211 -0.02938
# Poissons Ratio (y) = 0.03334 0.35980
# Poissons Ratio (z) = -0.04083 1.08163
#
# Static dielectric constant tensor:
#      x y z
#    x 1.572880 0.000000 0.000000 
#    y 0.000000 1.565490 0.000000 
#    z 0.000000 0.000000 1.508730 
# 
# From -- ./inp_files/10983.got.cif
#   From: 2010.05.17/outbox.cif.g08.bks.cpg/sg52_6_cif.got.tgz:10983.got - 2010.06.03 12:15:38.
