data_PCOD9407363
_publ_section_title
;
Structure prediction by ZEFSAII (Michael W. Deem and Ramdas Pophale) SiO2 
 PCOD9407363
Probable space group: P M M A
;
_chemical_formula_sum "Si O2"
_cell_formula_units_Z 40
_cell_length_a 7.985357
_cell_length_b 7.420948
_cell_length_c 30.731825
_cell_angle_alpha 90.000000
_cell_angle_beta 90.000000
_cell_angle_gamma 90.000000
_cell_volume 1821.134730
_symmetry_space_group_name_H-M "P M M A"
_symmetry_group_IT_number 51
_symmetry_cell_setting 'orthorhombic'
loop_
_space_group_symop_operation_xyz
x,y,z
1/2-x,-y,z
1/2+x,-y,-z
-x,y,-z
-x,-y,-z
1/2+x,y,-z
1/2-x,y,z
x,-y,z
loop_
_atom_site_type_symbol
_atom_site_label
_atom_site_fract_x
_atom_site_fract_y
_atom_site_fract_z
Si Si1 0.448195 0.205939 0.046017
Si Si2 0.250000 0.721535 0.291472
Si Si3 0.750000 0.280174 0.608107
Si Si4 0.558811 0.280276 0.451641
Si Si5 0.049228 0.794221 0.861813
Si Si6 0.560390 0.709747 0.235374
O O1 0.250000 0.194430 0.045589
O O2 0.497013 0.289840 0.092247
O O3 0.521279 0.000000 0.046119
O O4 0.500000 0.289307 0.000000
O O5 0.250000 0.500000 0.289842
O O6 0.250000 0.774704 0.341754
O O7 0.416731 0.784777 0.266405
O O8 0.750000 0.500000 0.607220
O O9 0.582456 0.222435 0.582614
O O10 0.500000 0.226823 0.500000
O O11 0.750000 0.222016 0.443181
O O12 0.560287 0.500000 0.451150
O O13 0.250000 0.794143 0.862055
O O14 0.001566 0.717634 0.814968
O O15 0.985702 0.000000 0.862167
O O16 0.750000 0.787201 0.238272
O O17 0.575639 0.500000 0.246714
#
# Coordination Sequence:
#
# PCOD9407363 Si02
#       6
#     8   4   4   8   8   8
#     4   9  16  25  39  61  89 116 139 170 215 264
#     4   9  18  30  43  59  81 111 153 195 226 263
#     4   9  16  24  34  51  73 101 139 183 222 257
#     4   9  14  20  31  47  70  99 132 174 222 264
#     4   9  17  29  46  68  90 112 144 184 222 263
#     4   9  18  32  48  64  86 117 151 187 226 266
#
# _framework density 21.964327999999998
#
# number of rings (size 3 to 8) (size 9 to 14) (size 15 to 20)
#    0.000    3.000    1.000    0.600    1.400    3.200 
#    0.000    4.000    0.000    0.600    0.000    0.000 
#    0.000    0.000    0.000    0.000    0.000    4.000 
#
# Total GULP energy -223085.081442 kJ/mol
# GULP energy per Si atom -5577.127036 kJ/mol
# Density = 2.191434 g / cm^3
# Si number density = 21.964328 Si / 1000 Ang^3
#
#
#
# Elastic Constant Matrix: (Units=GPa)
#
#
# Indices 1 2 3 4 5 6 
#
# 1 159.0409 8.6990 125.7373 0.0000 0.0000 0.0000
# 2 8.6990 67.0431 5.8805 0.0000 0.0000 0.0000
# 3 125.7373 5.8805 229.2531 0.0000 0.0000 0.0000
# 4 0.0000 0.0000 0.0000 1.2053 0.0000 0.0000
# 5 0.0000 0.0000 0.0000 0.0000 44.4008 0.0000
# 6 0.0000 0.0000 0.0000 0.0000 0.0000 -10.5021
#
#
#
# Elastic Compliance Matrix: (Units=1/GPa)
#
#
# Indices 1 2 3 4 5 6 
#
# 1 0.011157 -0.000913 -0.006096 0.000000 0.000000 0.000000
# 2 -0.000913 0.015024 0.000115 0.000000 0.000000 0.000000
# 3 -0.006096 0.000115 0.007702 0.000000 0.000000 0.000000
# 4 0.000000 0.000000 0.000000 0.829658 0.000000 0.000000
# 5 0.000000 0.000000 0.000000 0.000000 0.022522 0.000000
# 6 0.000000 0.000000 0.000000 0.000000 0.000000 -0.095219
#
#
# Mechanical properties :
#
#
# Convention : Reuss Voigt Hill
#
# Bulk Modulus (GPa) = 49.75959 81.77453 65.76706
# Shear Modulus (GPa) = 6.16272 28.02216 17.09244
#
# Velocity S-wave (km/s) = 1.67687 3.57571 2.79263
# Velocity P-wave (km/s) = 5.14326 7.37286 6.35658
#
# Compressibility (1/GPa) = 0.02009663
#
# Stress axis : x y z
#
# Youngs Moduli (GPa) = 89.63055 66.55966 129.83067
#
# Poissons Ratio (x) = 0.06077 0.79142
# Poissons Ratio (y) = 0.08183 -0.01498
# Poissons Ratio (z) = 0.54637 -0.00768
#
# Static dielectric constant tensor:
#      x y z
#    x 1.775260 0.000000 0.000000 
#    y 0.000000 1.920100 0.000000 
#    z 0.000000 0.000000 1.784130 
# 
# From -- ./inp_files/36048.got.cif
#   From: 2010.05.17/outbox.cif.g08.bks.cpg/sg51_19_cif.got.tgz:36048.got - 2010.06.03 11:52:47.
