data_PCOD9407423
_publ_section_title
;
Structure prediction by ZEFSAII (Michael W. Deem and Ramdas Pophale) SiO2 
 PCOD9407423
Probable space group: P M M A
;
_chemical_formula_sum "Si O2"
_cell_formula_units_Z 64
_cell_length_a 9.000000
_cell_length_b 24.000000
_cell_length_c 18.000000
_cell_angle_alpha 90.000000
_cell_angle_beta 90.000000
_cell_angle_gamma 90.000000
_cell_volume 3888.000000
_symmetry_space_group_name_H-M "P M M A"
_symmetry_group_IT_number 51
_symmetry_cell_setting 'orthorhombic'
loop_
_space_group_symop_operation_xyz
x,y,z
1/2-x,-y,z
1/2+x,-y,-z
-x,y,-z
-x,-y,-z
1/2+x,y,-z
1/2-x,y,z
x,-y,z
loop_
_atom_site_type_symbol
_atom_site_label
_atom_site_fract_x
_atom_site_fract_y
_atom_site_fract_z
Si Si1 0.926227 0.649662 0.324158
Si Si2 0.421120 0.566789 0.423831
Si Si3 0.573966 0.747170 0.578756
Si Si4 0.924668 0.169270 0.701313
Si Si5 0.570860 0.060265 0.237256
Si Si6 0.424661 0.903740 0.920861
Si Si7 0.424786 0.773572 0.921159
Si Si8 0.926324 0.281599 0.791749
O O1 0.750000 0.650598 0.326538
O O2 0.990875 0.592653 0.355624
O O3 0.994967 0.697857 0.376260
O O4 0.989331 0.667098 0.244739
O O5 0.500000 0.585345 0.500000
O O6 0.250000 0.585207 0.423431
O O7 0.424468 0.500000 0.422038
O O8 0.500000 0.748720 0.500000
O O9 0.750000 0.735949 0.577218
O O10 0.552731 0.806231 0.619451
O O11 0.750000 0.159505 0.714157
O O12 0.967132 0.223304 0.750469
O O13 0.010766 0.113681 0.720193
O O14 0.750000 0.063356 0.235925
O O15 0.519647 0.063913 0.151261
O O16 0.527015 0.000000 0.268425
O O17 0.250000 0.914843 0.930453
O O18 0.442160 0.838604 0.898865
O O19 0.500000 0.914279 0.000000
O O20 0.250000 0.761663 0.920808
O O21 0.515338 0.730408 0.872573
O O22 0.500000 0.771626 0.000000
O O23 0.750000 0.288476 0.784928
#
# Coordination Sequence:
#
# PCOD9407423 Si02
#       8
#     8   8   8   8   8   8   8   8
#     4  11  21  32  49  73 102 134 166 203 242 283
#     4  10  20  34  51  71 100 139 178 212 244 280
#     4  10  20  34  51  74  98 122 152 192 238 287
#     4   9  19  33  49  68  91 116 148 188 233 284
#     4  10  20  33  48  66  89 117 151 191 233 282
#     4   9  18  30  44  64  89 118 152 189 227 275
#     4  10  18  29  46  68  94 127 160 195 239 290
#     4  10  19  32  49  70  96 125 160 202 244 289
#
# _framework density 16.460905
#
# number of rings (size 3 to 8) (size 9 to 14) (size 15 to 20)
#    0.000    2.125    1.250    3.750    0.000    4.750 
#    0.000    0.000    0.000    0.375    0.000    0.000 
#    0.000    0.500    0.000    1.875    0.000    2.875 
#
# Total GULP energy -356585.519408 kJ/mol
# GULP energy per Si atom -5571.648741 kJ/mol
# Density = 1.642344 g / cm^3
# Si number density = 16.460905 Si / 1000 Ang^3
#
#
#
# Elastic Constant Matrix: (Units=GPa)
#
#
# Indices 1 2 3 4 5 6 
#
# 1 58.7681 24.9893 13.8068 0.0000 0.0000 0.0000
# 2 24.9893 33.6261 11.1916 0.0000 0.0000 0.0000
# 3 13.8068 11.1916 16.6075 0.0000 0.0000 0.0000
# 4 0.0000 0.0000 0.0000 12.6087 0.0000 0.0000
# 5 0.0000 0.0000 0.0000 0.0000 23.0140 0.0000
# 6 0.0000 0.0000 0.0000 0.0000 0.0000 11.5289
#
#
#
# Elastic Compliance Matrix: (Units=1/GPa)
#
#
# Indices 1 2 3 4 5 6 
#
# 1 0.026415 -0.015884 -0.011256 0.000000 0.000000 0.000000
# 2 -0.015884 0.047889 -0.019067 0.000000 0.000000 0.000000
# 3 -0.011256 -0.019067 0.082420 0.000000 0.000000 0.000000
# 4 0.000000 0.000000 0.000000 0.079310 0.000000 0.000000
# 5 0.000000 0.000000 0.000000 0.000000 0.043452 0.000000
# 6 0.000000 0.000000 0.000000 0.000000 0.000000 0.086739
#
#
# Mechanical properties :
#
#
# Convention : Reuss Voigt Hill
#
# Bulk Modulus (GPa) = 15.54951 23.21970 19.38460
# Shear Modulus (GPa) = 10.41505 13.36457 11.88981
#
# Velocity S-wave (km/s) = 2.51811 2.85247 2.69049
# Velocity P-wave (km/s) = 4.23336 4.99854 4.63178
#
# Compressibility (1/GPa) = 0.06431073
#
# Stress axis : x y z
#
# Youngs Moduli (GPa) = 37.85783 20.88173 12.13292
#
# Poissons Ratio (x) = 0.33168 0.13657
# Poissons Ratio (y) = 0.60132 0.23133
# Poissons Ratio (z) = 0.42613 0.39814
#
# Static dielectric constant tensor:
#      x y z
#    x 1.542930 0.000000 0.000000 
#    y 0.000000 1.558510 0.000000 
#    z 0.000000 0.000000 1.565200 
# 
# From -- ./inp_files/28571.got.cif
#   From: 2010.05.17/outbox.ucp.g08.bks.cvg/sg51_15_cif.got.tgz:28571.got - 2010.06.11 16:27:58.
