data_PCOD9407999
_publ_section_title
;
Structure prediction by ZEFSAII (Michael W. Deem and Ramdas Pophale) SiO2 
 PCOD9407999
Probable space group: P N N A
;
_chemical_formula_sum "Si O2"
_cell_formula_units_Z 48
_cell_length_a 8.228048
_cell_length_b 22.792227
_cell_length_c 16.086613
_cell_angle_alpha 90.000000
_cell_angle_beta 90.000000
_cell_angle_gamma 90.000000
_cell_volume 3016.811620
_symmetry_space_group_name_H-M "P N N A"
_symmetry_group_IT_number 52
_symmetry_cell_setting 'orthorhombic'
loop_
_space_group_symop_operation_xyz
x,y,z
1/2-x,-y,z
x,1/2-y,1/2-z
1/2-x,1/2+y,1/2-z
-x,-y,-z
1/2+x,y,-z
-x,1/2+y,1/2+z
1/2+x,1/2-y,1/2+z
loop_
_atom_site_type_symbol
_atom_site_label
_atom_site_fract_x
_atom_site_fract_y
_atom_site_fract_z
Si Si1 0.810283 0.757083 0.532397
Si Si2 0.904253 0.831709 0.202866
Si Si3 0.401799 0.570101 0.423071
Si Si4 0.007836 0.785842 0.376961
Si Si5 0.896333 0.187250 0.096292
Si Si6 0.476424 0.442501 0.392271
O O1 0.885698 0.790973 0.454066
O O2 0.686121 0.794748 0.586238
O O3 0.714827 0.703335 0.484971
O O4 0.957480 0.733539 0.588341
O O5 0.948375 0.822797 0.298675
O O6 0.008088 0.782432 0.153247
O O7 0.722655 0.812813 0.175254
O O8 0.942403 0.896626 0.170299
O O9 0.515214 0.625078 0.405186
O O10 0.462935 0.511931 0.374728
O O11 0.210924 0.577473 0.405217
O O12 0.423880 0.560223 0.521695
#
# Coordination Sequence:
#
# PCOD9407999 Si02
#       6
#     8   8   8   8   8   8
#     4   9  17  31  49  65  88 124 157 188 225 276
#     4  10  19  30  43  66  96 121 150 194 232 265
#     4  10  18  28  42  62  89 128 159 179 218 275
#     4   9  18  32  47  64  90 121 155 191 234 272
#     4  10  17  27  46  67  91 118 152 185 225 272
#     4  10  19  28  41  62  92 124 159 189 216 263
#
# _framework density 15.910837000000001
#
# number of rings (size 3 to 8) (size 9 to 14) (size 15 to 20)
#    0.000    2.333    0.000    6.000    0.000    2.000 
#    0.000   18.333    0.000    0.000    0.000    0.000 
#    0.000   16.000    0.000    0.000    0.000    0.000 
#
# Total GULP energy -267337.422512 kJ/mol
# GULP energy per Si atom -5569.529636 kJ/mol
# Density = 1.587462 g / cm^3
# Si number density = 15.910837 Si / 1000 Ang^3
#
#
#
# Elastic Constant Matrix: (Units=GPa)
#
#
# Indices 1 2 3 4 5 6 
#
# 1 96.4395 16.2745 51.9474 0.0000 0.0000 0.0000
# 2 16.2745 42.1490 29.4454 0.0000 0.0000 0.0000
# 3 51.9474 29.4454 90.0983 0.0000 0.0000 0.0000
# 4 0.0000 0.0000 0.0000 19.2212 0.0000 0.0000
# 5 0.0000 0.0000 0.0000 0.0000 9.5316 0.0000
# 6 0.0000 0.0000 0.0000 0.0000 0.0000 11.3978
#
#
#
# Elastic Compliance Matrix: (Units=1/GPa)
#
#
# Indices 1 2 3 4 5 6 
#
# 1 0.015044 0.000325 -0.008780 0.000000 0.000000 0.000000
# 2 0.000325 0.030752 -0.010238 0.000000 0.000000 0.000000
# 3 -0.008780 -0.010238 0.019507 0.000000 0.000000 0.000000
# 4 0.000000 0.000000 0.000000 0.052026 0.000000 0.000000
# 5 0.000000 0.000000 0.000000 0.000000 0.104915 0.000000
# 6 0.000000 0.000000 0.000000 0.000000 0.000000 0.087736
#
#
# Mechanical properties :
#
#
# Convention : Reuss Voigt Hill
#
# Bulk Modulus (GPa) = 35.81965 47.11351 41.46658
# Shear Modulus (GPa) = 14.01856 16.76473 15.39165
#
# Velocity S-wave (km/s) = 2.97150 3.24955 3.11363
# Velocity P-wave (km/s) = 5.85958 6.61473 6.24857
#
# Compressibility (1/GPa) = 0.02791764
#
# Stress axis : x y z
#
# Youngs Moduli (GPa) = 66.47329 32.51838 51.26395
#
# Poissons Ratio (x) = -0.01057 0.45009
# Poissons Ratio (y) = -0.02160 0.52482
# Poissons Ratio (z) = 0.58362 0.33291
#
# Static dielectric constant tensor:
#      x y z
#    x 1.579800 0.000000 0.000000 
#    y 0.000000 1.548400 0.000000 
#    z 0.000000 0.000000 1.518320 
# 
# From -- ./inp_files/25024.got.cif
#   From: 2010.05.17/outbox.cif.g08.bks.cpg/sg52_13_cif.got.tgz:25024.got - 2010.06.03 12:15:38.
