data_PCOD9407416
_publ_section_title
;
Structure prediction by ZEFSAII (Michael W. Deem and Ramdas Pophale) SiO2 
 PCOD9407416
Probable space group: P M M A
;
_chemical_formula_sum "Si O2"
_cell_formula_units_Z 64
_cell_length_a 18.000000
_cell_length_b 18.000000
_cell_length_c 12.000000
_cell_angle_alpha 90.000000
_cell_angle_beta 90.000000
_cell_angle_gamma 90.000000
_cell_volume 3888.000000
_symmetry_space_group_name_H-M "P M M A"
_symmetry_group_IT_number 51
_symmetry_cell_setting 'orthorhombic'
loop_
_space_group_symop_operation_xyz
x,y,z
1/2-x,-y,z
1/2+x,-y,-z
-x,y,-z
-x,-y,-z
1/2+x,y,-z
1/2-x,y,z
x,-y,z
loop_
_atom_site_type_symbol
_atom_site_label
_atom_site_fract_x
_atom_site_fract_y
_atom_site_fract_z
Si Si1 0.163136 0.317379 0.054297
Si Si2 0.959224 0.086105 0.683494
Si Si3 0.582165 0.180693 0.889884
Si Si4 0.561034 0.283493 0.160193
Si Si5 0.115958 0.839891 0.695188
Si Si6 0.965062 0.416840 0.874830
Si Si7 0.669995 0.084122 0.506360
Si Si8 0.836685 0.911875 0.074710
O O1 0.250000 0.330181 0.039558
O O2 0.119673 0.300413 0.938084
O O3 0.145445 0.243102 0.124298
O O4 0.117479 0.384185 0.110713
O O5 0.923670 0.121554 0.792596
O O6 0.899130 0.093008 0.586939
O O7 0.035412 0.128520 0.661714
O O8 0.976680 0.000000 0.700430
O O9 0.504742 0.227617 0.882573
O O10 0.606426 0.134062 0.998097
O O11 0.603129 0.242699 0.259639
O O12 0.516795 0.358297 0.189280
O O13 0.166268 0.855483 0.589988
O O14 0.146813 0.886545 0.799670
O O15 0.966172 0.500000 0.831045
O O16 0.000000 0.417357 0.000000
O O17 0.750000 0.088175 0.565025
O O18 0.664641 0.000000 0.457580
O O19 0.750000 0.894566 0.047835
O O20 0.847438 0.000000 0.062336
#
# Coordination Sequence:
#
# PCOD9407416 Si02
#       8
#     8   8   8   8   8   8   8   8
#     4  10  18  28  44  67  97 128 157 195 239 281
#     4  10  21  34  50  66  85 122 169 211 250 291
#     4  10  19  32  47  65  94 130 163 202 241 294
#     4   9  19  31  47  69  96 126 162 193 239 295
#     4  11  20  32  50  69  92 121 158 205 247 298
#     4   8  15  29  47  66  93 128 159 186 220 274
#     4  10  21  36  50  65  90 122 160 209 261 303
#     4  11  22  31  44  69  96 125 161 204 253 296
#
# _framework density 16.460905
#
# number of rings (size 3 to 8) (size 9 to 14) (size 15 to 20)
#    0.000    2.125    1.250    3.750    1.750    3.750 
#    0.000    3.125    0.000    0.000    0.000    0.000 
#    0.000   18.000    0.000    2.625    0.000    0.625 
#
# Total GULP energy -356553.102981 kJ/mol
# GULP energy per Si atom -5571.142234 kJ/mol
# Density = 1.642344 g / cm^3
# Si number density = 16.460905 Si / 1000 Ang^3
#
#
#
# Elastic Constant Matrix: (Units=GPa)
#
#
# Indices 1 2 3 4 5 6 
#
# 1 85.4118 10.1263 -1.6134 0.0000 0.0000 0.0000
# 2 10.1263 24.2731 -16.4690 0.0000 0.0000 0.0000
# 3 -1.6134 -16.4690 8.3462 0.0000 0.0000 0.0000
# 4 0.0000 0.0000 0.0000 9.1244 0.0000 0.0000
# 5 0.0000 0.0000 0.0000 0.0000 7.7672 0.0000
# 6 0.0000 0.0000 0.0000 0.0000 0.0000 14.8162
#
#
#
# Elastic Compliance Matrix: (Units=1/GPa)
#
#
# Indices 1 2 3 4 5 6 
#
# 1 0.010994 0.009281 0.020439 0.000000 0.000000 0.000000
# 2 0.009281 -0.113762 -0.222684 0.000000 0.000000 0.000000
# 3 0.020439 -0.222684 -0.315640 0.000000 0.000000 0.000000
# 4 0.000000 0.000000 0.000000 0.109596 0.000000 0.000000
# 5 0.000000 0.000000 0.000000 0.000000 0.128746 0.000000
# 6 0.000000 0.000000 0.000000 0.000000 0.000000 0.067494
#
#
# Mechanical properties :
#
#
# Convention : Reuss Voigt Hill
#
# Bulk Modulus (GPa) = -1.24326 11.34657 5.05166
# Shear Modulus (GPa) = 953.68544 14.74073 484.21308
#
# Velocity S-wave (km/s) = 24.09609 2.99574 17.16968
# Velocity P-wave (km/s) = 27.81017 4.34441 19.90326
#
# Compressibility (1/GPa) = -0.80433594
#
# Stress axis : x y z
#
# Youngs Moduli (GPa) = 90.96120 -8.79029 -3.16817
#
# Poissons Ratio (x) = 0.08158 0.06475
# Poissons Ratio (y) = -0.84422 -0.70550
# Poissons Ratio (z) = -1.85915 -1.95746
#
# Static dielectric constant tensor:
#      x y z
#    x 1.570700 0.000000 0.000000 
#    y 0.000000 1.567910 0.000000 
#    z 0.000000 0.000000 1.560510 
# 
# From -- ./inp_files/17692.got.cif
#   From: 2010.05.17/outbox.ucp.g08.bks.cvg/sg51_9_cif.got.tgz:17692.got - 2010.06.11 16:27:58.
