data_PCOD9407586
_publ_section_title
;
Structure prediction by ZEFSAII (Michael W. Deem and Ramdas Pophale) SiO2 
 PCOD9407586
Probable space group: P M M A
;
_chemical_formula_sum "Si O2"
_cell_formula_units_Z 64
_cell_length_a 18.000000
_cell_length_b 9.000000
_cell_length_c 21.000000
_cell_angle_alpha 90.000000
_cell_angle_beta 90.000000
_cell_angle_gamma 90.000000
_cell_volume 3402.000000
_symmetry_space_group_name_H-M "P M M A"
_symmetry_group_IT_number 51
_symmetry_cell_setting 'orthorhombic'
loop_
_space_group_symop_operation_xyz
x,y,z
1/2-x,-y,z
1/2+x,-y,-z
-x,y,-z
-x,-y,-z
1/2+x,y,-z
1/2-x,y,z
x,-y,z
loop_
_atom_site_type_symbol
_atom_site_label
_atom_site_fract_x
_atom_site_fract_y
_atom_site_fract_z
Si Si1 0.578014 0.674721 0.207583
Si Si2 0.074184 0.179442 0.413695
Si Si3 0.403537 0.820103 0.554178
Si Si4 0.407779 0.325118 0.168557
Si Si5 0.835612 0.679011 0.701359
Si Si6 0.167498 0.179227 0.682268
Si Si7 0.662756 0.325565 0.081281
Si Si8 0.920533 0.177525 0.969046
O O1 0.595742 0.500000 0.214802
O O2 0.490715 0.689426 0.196612
O O3 0.607582 0.759157 0.268885
O O4 0.618550 0.728813 0.143346
O O5 0.109865 0.228656 0.481540
O O6 0.111484 0.250978 0.352140
O O7 0.987099 0.217291 0.422845
O O8 0.079480 0.000000 0.408629
O O9 0.349004 0.770997 0.610059
O O10 0.401028 0.000000 0.551519
O O11 0.393031 0.500000 0.156623
O O12 0.355311 0.273022 0.226347
O O13 0.406615 0.242826 0.101056
O O14 0.750000 0.714902 0.687089
O O15 0.844847 0.500000 0.700025
O O16 0.250000 0.226249 0.702315
O O17 0.164430 0.000000 0.682977
O O18 0.750000 0.314756 0.093410
O O19 0.643555 0.500000 0.071761
O O20 0.639744 0.236648 0.018870
O O21 0.920090 0.000000 0.965549
O O22 0.000000 0.224604 0.000000
#
# Coordination Sequence:
#
# PCOD9407586 Si02
#       8
#     8   8   8   8   8   8   8   8
#     4  10  20  35  56  79 104 137 182 229 265 313
#     4   9  17  33  58  81 103 140 186 230 272 321
#     4   8  16  32  53  79 109 139 180 229 273 321
#     4  10  21  38  61  81 104 145 188 223 267 327
#     4  10  22  38  54  79 115 147 180 228 283 331
#     4  10  20  32  48  73 107 144 176 213 268 328
#     4  10  21  37  58  82 109 145 185 224 270 325
#     4  11  23  38  58  86 116 143 176 225 279 327
#
# _framework density 18.812463000000001
#
# number of rings (size 3 to 8) (size 9 to 14) (size 15 to 20)
#    0.000    2.250    1.250    2.250    0.000    4.250 
#    0.000    4.375    0.000    0.000    0.000    0.000 
#    0.000    0.000    0.000    0.000    0.000    0.000 
#
# Total GULP energy -357067.441427 kJ/mol
# GULP energy per Si atom -5579.178772 kJ/mol
# Density = 1.876965 g / cm^3
# Si number density = 18.812463 Si / 1000 Ang^3
#
#
#
# Elastic Constant Matrix: (Units=GPa)
#
#
# Indices 1 2 3 4 5 6 
#
# 1 24.7205 13.4798 17.3807 0.0000 0.0000 0.0000
# 2 13.4798 16.0782 19.9535 0.0000 0.0000 0.0000
# 3 17.3807 19.9535 105.3909 0.0000 0.0000 0.0000
# 4 0.0000 0.0000 0.0000 32.8580 0.0000 0.0000
# 5 0.0000 0.0000 0.0000 0.0000 -2.5561 0.0000
# 6 0.0000 0.0000 0.0000 0.0000 0.0000 18.1844
#
#
#
# Elastic Compliance Matrix: (Units=1/GPa)
#
#
# Indices 1 2 3 4 5 6 
#
# 1 0.074550 -0.061754 -0.000603 0.000000 0.000000 0.000000
# 2 -0.061754 0.132452 -0.014893 0.000000 0.000000 0.000000
# 3 -0.000603 -0.014893 0.012407 0.000000 0.000000 0.000000
# 4 0.000000 0.000000 0.000000 0.030434 0.000000 0.000000
# 5 0.000000 0.000000 0.000000 0.000000 -0.391220 0.000000
# 6 0.000000 0.000000 0.000000 0.000000 0.000000 0.054992
#
#
# Mechanical properties :
#
#
# Convention : Reuss Voigt Hill
#
# Bulk Modulus (GPa) = 15.40579 27.53528 21.47054
# Shear Modulus (GPa) = 55.70980 16.05563 35.88271
#
# Velocity S-wave (km/s) = 5.44771 2.92457 4.37211
# Velocity P-wave (km/s) = 6.91209 5.10614 6.07658
#
# Compressibility (1/GPa) = 0.06491065
#
# Stress axis : x y z
#
# Youngs Moduli (GPa) = 13.41383 7.54992 80.59653
#
# Poissons Ratio (x) = 0.46624 0.04858
# Poissons Ratio (y) = 0.82836 1.20029
# Poissons Ratio (z) = 0.00809 0.11244
#
# Static dielectric constant tensor:
#      x y z
#    x 1.669810 0.000000 0.000000 
#    y 0.000000 1.641500 0.000000 
#    z 0.000000 0.000000 1.637740 
# 
# From -- ./inp_files/33969.got.cif
#   From: 2010.05.17/outbox.ucp.g08.bks.cvg/sg51_17_cif.got.tgz:33969.got - 2010.06.11 16:27:58.
