data_PCOD9407930
_publ_section_title
;
Structure prediction by ZEFSAII (Michael W. Deem and Ramdas Pophale) SiO2 
 PCOD9407930
Probable space group: P N N A
;
_chemical_formula_sum "Si O2"
_cell_formula_units_Z 52
_cell_length_a 7.982512
_cell_length_b 27.256395
_cell_length_c 12.381887
_cell_angle_alpha 90.000000
_cell_angle_beta 90.000000
_cell_angle_gamma 90.000000
_cell_volume 2693.982875
_symmetry_space_group_name_H-M "P N N A"
_symmetry_group_IT_number 52
_symmetry_cell_setting 'orthorhombic'
loop_
_space_group_symop_operation_xyz
x,y,z
1/2-x,-y,z
x,1/2-y,1/2-z
1/2-x,1/2+y,1/2-z
-x,-y,-z
1/2+x,y,-z
-x,1/2+y,1/2+z
1/2+x,1/2-y,1/2+z
loop_
_atom_site_type_symbol
_atom_site_label
_atom_site_fract_x
_atom_site_fract_y
_atom_site_fract_z
Si Si1 0.625257 0.910615 0.051459
Si Si2 0.918175 0.846941 0.103186
Si Si3 0.443560 0.206235 0.431139
Si Si4 0.776523 0.750000 0.750000
Si Si5 0.721273 0.647604 0.773719
Si Si6 0.816315 0.948558 0.839590
Si Si7 0.278151 0.254034 0.874294
O O1 0.776885 0.888447 0.120118
O O2 0.505210 0.946899 0.115985
O O3 0.512873 0.865148 0.005511
O O4 0.702260 0.935484 0.944559
O O5 0.816598 0.796222 0.092631
O O6 0.057137 0.846043 0.196878
O O7 0.343288 0.244619 0.354886
O O8 0.345649 0.157196 0.395198
O O9 0.427722 0.227914 0.550214
O O10 0.633483 0.205624 0.393152
O O11 0.842697 0.694114 0.745399
O O12 0.797746 0.595874 0.744506
O O13 0.750000 0.000000 0.797074
O O14 0.323973 0.250000 0.750000
#
# Coordination Sequence:
#
# PCOD9407930 Si02
#       7
#     8   8   8   4   8   8   8
#     4   9  20  27  50  75 105 148 187 229 283 335
#     4  10  16  31  48  72 107 146 183 222 277 328
#     4  10  20  35  55  75 114 146 187 226 281 329
#     4   8  16  36  52  72 112 144 178 216 284 324
#     4   9  17  34  52  69 108 152 169 234 275 326
#     4  10  19  33  50  77 110 147 194 238 286 338
#     4  12  20  36  53  80 116 154 186 233 276 341
#
# _framework density 19.302275999999999
#
# number of rings (size 3 to 8) (size 9 to 14) (size 15 to 20)
#    0.923    1.231    3.846    1.385    4.308    0.000 
#    4.154    0.000    0.000    0.000    0.000    1.077 
#    0.000    0.000    0.000    0.000    0.000    0.000 
#
# Total GULP energy -289549.396745 kJ/mol
# GULP energy per Si atom -5568.257630 kJ/mol
# Density = 1.925834 g / cm^3
# Si number density = 19.302276 Si / 1000 Ang^3
#
#
#
# Elastic Constant Matrix: (Units=GPa)
#
#
# Indices 1 2 3 4 5 6 
#
# 1 46.0188 1.0284 6.0628 0.0000 0.0000 0.0000
# 2 1.0284 73.1193 4.1827 0.0000 0.0000 0.0000
# 3 6.0628 4.1827 78.3796 0.0000 0.0000 0.0000
# 4 0.0000 0.0000 0.0000 18.2530 0.0000 0.0000
# 5 0.0000 0.0000 0.0000 0.0000 14.1886 0.0000
# 6 0.0000 0.0000 0.0000 0.0000 0.0000 14.8604
#
#
#
# Elastic Compliance Matrix: (Units=1/GPa)
#
#
# Indices 1 2 3 4 5 6 
#
# 1 0.021957 -0.000212 -0.001687 0.000000 0.000000 0.000000
# 2 -0.000212 0.013720 -0.000716 0.000000 0.000000 0.000000
# 3 -0.001687 -0.000716 0.012927 0.000000 0.000000 0.000000
# 4 0.000000 0.000000 0.000000 0.054785 0.000000 0.000000
# 5 0.000000 0.000000 0.000000 0.000000 0.070479 0.000000
# 6 0.000000 0.000000 0.000000 0.000000 0.000000 0.067293
#
#
# Mechanical properties :
#
#
# Convention : Reuss Voigt Hill
#
# Bulk Modulus (GPa) = 23.05512 24.45169 23.75341
# Shear Modulus (GPa) = 19.16807 21.87667 20.52237
#
# Velocity S-wave (km/s) = 3.15468 3.37021 3.26423
# Velocity P-wave (km/s) = 5.02390 5.27634 5.15166
#
# Compressibility (1/GPa) = 0.04337432
#
# Stress axis : x y z
#
# Youngs Moduli (GPa) = 45.54299 72.88516 77.35680
#
# Poissons Ratio (x) = 0.01547 0.13051
# Poissons Ratio (y) = 0.00967 0.05537
# Poissons Ratio (z) = 0.07684 0.05217
#
# Static dielectric constant tensor:
#      x y z
#    x 1.755060 0.000000 0.000000 
#    y 0.000000 1.716320 0.000000 
#    z 0.000000 0.000000 1.709030 
# 
# From -- ./inp_files/25172.got.cif
#   From: 2010.05.17/outbox.cif.g08.bks.cpg/sg52_13_cif.got.tgz:25172.got - 2010.06.03 12:15:38.
