data_PCOD9407186
_publ_section_title
;
Structure prediction by ZEFSAII (Michael W. Deem and Ramdas Pophale) SiO2 
 PCOD9407186
Probable space group: P M M A
;
_chemical_formula_sum "Si O2"
_cell_formula_units_Z 56
_cell_length_a 14.362676
_cell_length_b 9.193227
_cell_length_c 21.455188
_cell_angle_alpha 90.000000
_cell_angle_beta 90.000000
_cell_angle_gamma 90.000000
_cell_volume 2832.928880
_symmetry_space_group_name_H-M "P M M A"
_symmetry_group_IT_number 51
_symmetry_cell_setting 'orthorhombic'
loop_
_space_group_symop_operation_xyz
x,y,z
1/2-x,-y,z
1/2+x,-y,-z
-x,y,-z
-x,-y,-z
1/2+x,y,-z
1/2-x,y,z
x,-y,z
loop_
_atom_site_type_symbol
_atom_site_label
_atom_site_fract_x
_atom_site_fract_y
_atom_site_fract_z
Si Si1 0.528314 0.825768 0.723482
Si Si2 0.140137 0.674974 0.665053
Si Si3 0.861529 0.165861 0.954449
Si Si4 0.032200 0.671870 0.152300
Si Si5 0.859736 0.826504 0.599430
Si Si6 0.863252 0.332207 0.475392
Si Si7 0.140752 0.171320 0.898875
O O1 0.425619 0.761786 0.711347
O O2 0.567370 0.753432 0.785924
O O3 0.587490 0.783778 0.662299
O O4 0.527174 0.000000 0.729015
O O5 0.250000 0.702640 0.674074
O O6 0.126357 0.500000 0.669955
O O7 0.113227 0.720253 0.594117
O O8 0.750000 0.171332 0.947138
O O9 0.910028 0.275462 0.907660
O O10 0.892507 0.000000 0.940287
O O11 0.880340 0.192753 0.027472
O O12 0.035601 0.500000 0.160022
O O13 0.927553 0.728315 0.139911
O O14 0.750000 0.791004 0.605780
O O15 0.896039 0.753654 0.535956
O O16 0.867811 0.000000 0.592712
O O17 0.750000 0.328265 0.476528
O O18 0.891263 0.500000 0.480626
O O19 0.250000 0.201347 0.889104
O O20 0.124989 0.000000 0.885126
#
# Coordination Sequence:
#
# PCOD9407186 Si02
#       7
#     8   8   8   8   8   8   8
#     4  11  24  39  55  77 106 146 193 231 270 325
#     4   9  19  37  58  80 109 142 177 222 276 332
#     4   9  19  38  64  90 115 146 184 226 272 323
#     4  12  25  38  55  82 117 153 187 228 278 329
#     4   9  19  36  56  78 105 137 177 227 276 321
#     4   8  15  30  54  81 106 136 173 215 272 336
#     4   9  19  38  64  90 114 145 186 227 270 325
#
# _framework density 19.767527999999999
#
# number of rings (size 3 to 8) (size 9 to 14) (size 15 to 20)
#    0.000    2.429    0.000    3.857    0.000    6.571 
#    0.000    7.143    0.000    0.000    0.000    0.000 
#    0.000    0.000    0.000    0.000    0.000    0.000 
#
# Total GULP energy -312794.360229 kJ/mol
# GULP energy per Si atom -5585.613576 kJ/mol
# Density = 1.972254 g / cm^3
# Si number density = 19.767528 Si / 1000 Ang^3
#
#
#
# Elastic Constant Matrix: (Units=GPa)
#
#
# Indices 1 2 3 4 5 6 
#
# 1 35.4968 15.4821 14.4021 0.0000 0.0000 0.0000
# 2 15.4821 54.6473 37.2178 0.0000 0.0000 0.0000
# 3 14.4021 37.2178 59.2539 0.0000 0.0000 0.0000
# 4 0.0000 0.0000 0.0000 35.8686 0.0000 0.0000
# 5 0.0000 0.0000 0.0000 0.0000 18.1298 0.0000
# 6 0.0000 0.0000 0.0000 0.0000 0.0000 1.1716
#
#
#
# Elastic Compliance Matrix: (Units=1/GPa)
#
#
# Indices 1 2 3 4 5 6 
#
# 1 0.032603 -0.006710 -0.003710 0.000000 0.000000 0.000000
# 2 -0.006710 0.033360 -0.019323 0.000000 0.000000 0.000000
# 3 -0.003710 -0.019323 0.029915 0.000000 0.000000 0.000000
# 4 0.000000 0.000000 0.000000 0.027880 0.000000 0.000000
# 5 0.000000 0.000000 0.000000 0.000000 0.055158 0.000000
# 6 0.000000 0.000000 0.000000 0.000000 0.000000 0.853549
#
#
# Mechanical properties :
#
#
# Convention : Reuss Voigt Hill
#
# Bulk Modulus (GPa) = 27.47787 31.51135 29.49461
# Shear Modulus (GPa) = 4.52865 16.52040 10.52453
#
# Velocity S-wave (km/s) = 1.51523 2.89404 2.30992
# Velocity P-wave (km/s) = 4.12213 5.20988 4.69760
#
# Compressibility (1/GPa) = 0.03639292
#
# Stress axis : x y z
#
# Youngs Moduli (GPa) = 30.67161 29.97582 33.42806
#
# Poissons Ratio (x) = 0.20115 0.12401
# Poissons Ratio (y) = 0.20582 0.64592
# Poissons Ratio (z) = 0.11378 0.57922
#
# Static dielectric constant tensor:
#      x y z
#    x 1.717780 0.000000 0.000000 
#    y 0.000000 1.652390 0.000000 
#    z 0.000000 0.000000 1.698930 
# 
# From -- ./inp_files/33310.got.cif
#   From: 2010.05.17/outbox.cif.g08.bks.cpg/sg51_17_cif.got.tgz:33310.got - 2010.06.03 11:52:47.
