data_PCOD9407444
_publ_section_title
;
Structure prediction by ZEFSAII (Michael W. Deem and Ramdas Pophale) SiO2 
 PCOD9407444
Probable space group: P M M A
;
_chemical_formula_sum "Si O2"
_cell_formula_units_Z 64
_cell_length_a 15.000000
_cell_length_b 9.000000
_cell_length_c 24.000000
_cell_angle_alpha 90.000000
_cell_angle_beta 90.000000
_cell_angle_gamma 90.000000
_cell_volume 3240.000000
_symmetry_space_group_name_H-M "P M M A"
_symmetry_group_IT_number 51
_symmetry_cell_setting 'orthorhombic'
loop_
_space_group_symop_operation_xyz
x,y,z
1/2-x,-y,z
1/2+x,-y,-z
-x,y,-z
-x,-y,-z
1/2+x,y,-z
1/2-x,y,z
x,-y,z
loop_
_atom_site_type_symbol
_atom_site_label
_atom_site_fract_x
_atom_site_fract_y
_atom_site_fract_z
Si Si1 0.956595 0.176953 0.115626
Si Si2 0.347439 0.820883 0.103790
Si Si3 0.484918 0.676708 0.683880
Si Si4 0.600877 0.326645 0.523032
Si Si5 0.648443 0.177127 0.639571
Si Si6 0.155151 0.318990 0.594997
Si Si7 0.647229 0.324718 0.213289
Si Si8 0.351554 0.675843 0.981930
O O1 0.888324 0.228298 0.162621
O O2 0.923730 0.255050 0.059234
O O3 0.058313 0.221787 0.131387
O O4 0.954058 0.000000 0.108218
O O5 0.250000 0.773659 0.127016
O O6 0.346416 0.000000 0.101323
O O7 0.353438 0.755772 0.041509
O O8 0.500110 0.500000 0.677722
O O9 0.578600 0.758200 0.683701
O O10 0.428608 0.731736 0.630381
O O11 0.419700 0.699511 0.735584
O O12 0.500000 0.322154 0.500000
O O13 0.622502 0.500000 0.533939
O O14 0.620339 0.238125 0.578783
O O15 0.653136 0.270893 0.468860
O O16 0.750000 0.223442 0.650598
O O17 0.644031 0.000000 0.639392
O O18 0.250000 0.278549 0.621160
O O19 0.150231 0.500000 0.594305
O O20 0.750000 0.292742 0.227474
O O21 0.642403 0.500000 0.198278
O O22 0.250000 0.696308 0.959333
O O23 0.366053 0.500000 0.988647
#
# Coordination Sequence:
#
# PCOD9407444 Si02
#       8
#     8   8   8   8   8   8   8   8
#     4  11  22  35  55  82 112 150 192 230 272 328
#     4   9  19  36  55  77 109 149 191 231 273 324
#     4  10  20  38  61  82 105 137 183 232 276 325
#     4  10  18  32  55  83 111 143 184 225 266 320
#     4  11  24  39  55  79 114 152 186 224 274 328
#     4   9  16  28  51  81 108 135 172 219 269 321
#     4  10  22  40  62  87 113 140 174 224 283 334
#     4  10  20  33  52  81 116 151 187 230 281 333
#
# _framework density 19.753086
#
# number of rings (size 3 to 8) (size 9 to 14) (size 15 to 20)
#    0.000    2.000    1.250    2.625    0.000    8.750 
#    0.000    0.625    0.000    3.375    0.000    0.000 
#    0.000    0.000    0.000    0.000    0.000    0.000 
#
# Total GULP energy -357046.300523 kJ/mol
# GULP energy per Si atom -5578.848446 kJ/mol
# Density = 1.970813 g / cm^3
# Si number density = 19.753086 Si / 1000 Ang^3
#
#
#
# Elastic Constant Matrix: (Units=GPa)
#
#
# Indices 1 2 3 4 5 6 
#
# 1 125.1129 23.9178 11.3297 0.0000 0.0000 0.0000
# 2 23.9178 4.5682 8.1318 0.0000 0.0000 0.0000
# 3 11.3297 8.1318 -2.3400 0.0000 0.0000 0.0000
# 4 0.0000 0.0000 0.0000 29.9155 0.0000 0.0000
# 5 0.0000 0.0000 0.0000 0.0000 18.2516 0.0000
# 6 0.0000 0.0000 0.0000 0.0000 0.0000 28.2372
#
#
#
# Elastic Compliance Matrix: (Units=1/GPa)
#
#
# Indices 1 2 3 4 5 6 
#
# 1 0.017257 -0.033271 -0.032067 0.000000 0.000000 0.000000
# 2 -0.033271 0.094608 0.167684 0.000000 0.000000 0.000000
# 3 -0.032067 0.167684 0.000116 0.000000 0.000000 0.000000
# 4 0.000000 0.000000 0.000000 0.033427 0.000000 0.000000
# 5 0.000000 0.000000 0.000000 0.000000 0.054790 0.000000
# 6 0.000000 0.000000 0.000000 0.000000 0.000000 0.035414
#
#
# Mechanical properties :
#
#
# Convention : Reuss Voigt Hill
#
# Bulk Modulus (GPa) = 3.15783 23.78887 13.47335
# Shear Modulus (GPa) = 36.63633 20.87832 28.75733
#
# Velocity S-wave (km/s) = 4.31131 3.25463 3.81969
# Velocity P-wave (km/s) = 5.13667 5.11788 5.12728
#
# Compressibility (1/GPa) = 0.31667351
#
# Stress axis : x y z
#
# Youngs Moduli (GPa) = 57.94749 10.56996 8646.61280
#
# Poissons Ratio (x) = 0.35167 277.26750
# Poissons Ratio (y) = 1.92797 -1449.89951
# Poissons Ratio (z) = 1.85818 -1.77241
#
# Static dielectric constant tensor:
#      x y z
#    x 1.773120 0.000000 0.000000 
#    y 0.000000 1.657540 0.000000 
#    z 0.000000 0.000000 1.690910 
# 
# From -- ./inp_files/35731.got.cif
#   From: 2010.05.17/outbox.ucp.g08.bks.cvg/sg51_18_cif.got.tgz:35731.got - 2010.06.11 16:27:58.
