data_PCOD9407950
_publ_section_title
;
Structure prediction by ZEFSAII (Michael W. Deem and Ramdas Pophale) SiO2 
 PCOD9407950
Probable space group: P N N A
;
_chemical_formula_sum "Si O2"
_cell_formula_units_Z 44
_cell_length_a 15.972959
_cell_length_b 5.319705
_cell_length_c 25.525464
_cell_angle_alpha 90.000000
_cell_angle_beta 90.000000
_cell_angle_gamma 90.000000
_cell_volume 2168.935174
_symmetry_space_group_name_H-M "P N N A"
_symmetry_group_IT_number 52
_symmetry_cell_setting 'orthorhombic'
loop_
_space_group_symop_operation_xyz
x,y,z
1/2-x,-y,z
x,1/2-y,1/2-z
1/2-x,1/2+y,1/2-z
-x,-y,-z
1/2+x,y,-z
-x,1/2+y,1/2+z
1/2+x,1/2-y,1/2+z
loop_
_atom_site_type_symbol
_atom_site_label
_atom_site_fract_x
_atom_site_fract_y
_atom_site_fract_z
Si Si1 0.039210 0.044624 0.656687
Si Si2 0.450840 0.963481 0.446084
Si Si3 0.800401 0.752291 0.187012
Si Si4 0.113075 0.647018 0.302077
Si Si5 0.154145 0.967910 0.081362
Si Si6 0.488181 0.250000 0.750000
O O1 0.021036 0.946880 0.599534
O O2 0.067075 0.860602 0.703347
O O3 0.109637 0.255016 0.658801
O O4 0.948266 0.135422 0.676599
O O5 0.397545 0.708091 0.439445
O O6 0.500000 0.000000 0.500000
O O7 0.391452 0.208801 0.436317
O O8 0.750000 0.500000 0.172074
O O9 0.812644 0.750000 0.250000
O O10 0.750000 0.000000 0.173093
O O11 0.161230 0.750000 0.250000
O O12 0.154936 0.540734 0.354444
O O13 0.048847 0.444021 0.279154
O O14 0.250000 0.000000 0.063954
#
# Coordination Sequence:
#
# PCOD9407950 Si02
#       6
#     8   8   8   8   8   4
#     4  10  21  35  60  85 121 162 216 260 311 389
#     4  11  24  45  70  95 124 174 228 270 321 393
#     4  10  22  34  51  81 120 158 198 253 322 373
#     4   9  19  34  56  92 128 171 207 249 308 400
#     4  11  23  44  67 100 134 169 213 274 337 381
#     4  10  16  32  60  86 122 156 220 242 314 380
#
# _framework density 20.286452000000001
#
# number of rings (size 3 to 8) (size 9 to 14) (size 15 to 20)
#    0.000    1.818    1.818    2.727    6.364    0.000 
#    1.636    2.727    0.000    0.000    0.000    0.000 
#    0.000    0.000    0.000    0.000    0.000    0.000 
#
# Total GULP energy -245351.898413 kJ/mol
# GULP energy per Si atom -5576.179509 kJ/mol
# Density = 2.024028 g / cm^3
# Si number density = 20.286452 Si / 1000 Ang^3
#
#
#
# Elastic Constant Matrix: (Units=GPa)
#
#
# Indices 1 2 3 4 5 6 
#
# 1 92.0754 38.0244 46.6157 0.0000 0.0000 0.0000
# 2 38.0244 117.0096 43.5062 0.0000 0.0000 0.0000
# 3 46.6157 43.5062 121.3374 0.0000 0.0000 0.0000
# 4 0.0000 0.0000 0.0000 22.1753 0.0000 0.0000
# 5 0.0000 0.0000 0.0000 0.0000 0.8586 0.0000
# 6 0.0000 0.0000 0.0000 0.0000 0.0000 13.3327
#
#
#
# Elastic Compliance Matrix: (Units=1/GPa)
#
#
# Indices 1 2 3 4 5 6 
#
# 1 0.014350 -0.003015 -0.004432 0.000000 0.000000 0.000000
# 2 -0.003015 0.010495 -0.002604 0.000000 0.000000 0.000000
# 3 -0.004432 -0.002604 0.010878 0.000000 0.000000 0.000000
# 4 0.000000 0.000000 0.000000 0.045095 0.000000 0.000000
# 5 0.000000 0.000000 0.000000 0.000000 1.164649 0.000000
# 6 0.000000 0.000000 0.000000 0.000000 0.000000 0.075004
#
#
# Mechanical properties :
#
#
# Convention : Reuss Voigt Hill
#
# Bulk Modulus (GPa) = 64.02430 65.19055 64.60742
# Shear Modulus (GPa) = 3.71532 20.75840 12.23686
#
# Velocity S-wave (km/s) = 1.35477 3.20232 2.45868
# Velocity P-wave (km/s) = 5.83745 6.77332 6.32273
#
# Compressibility (1/GPa) = 0.01561907
#
# Stress axis : x y z
#
# Youngs Moduli (GPa) = 69.68844 95.28722 91.92959
#
# Poissons Ratio (x) = 0.28733 0.40740
# Poissons Ratio (y) = 0.21014 0.23942
# Poissons Ratio (z) = 0.30884 0.24817
#
# Static dielectric constant tensor:
#      x y z
#    x 1.714870 0.000000 0.000000 
#    y 0.000000 1.673160 0.000000 
#    z 0.000000 0.000000 1.747430 
# 
# From -- ./inp_files/44919.got.cif
#   From: 2010.05.17/outbox.cif.g08.bks.cpg/sg52_23_cif.got.tgz:44919.got - 2010.06.03 12:15:38.
