data_PCOD9407233
_publ_section_title
;
Structure prediction by ZEFSAII (Michael W. Deem and Ramdas Pophale) SiO2 
 PCOD9407233
Probable space group: P M M A
;
_chemical_formula_sum "Si O2"
_cell_formula_units_Z 64
_cell_length_a 13.908848
_cell_length_b 7.463595
_cell_length_c 22.990054
_cell_angle_alpha 90.000000
_cell_angle_beta 90.000000
_cell_angle_gamma 90.000000
_cell_volume 2386.597699
_symmetry_space_group_name_H-M "P M M A"
_symmetry_group_IT_number 51
_symmetry_cell_setting 'orthorhombic'
loop_
_space_group_symop_operation_xyz
x,y,z
1/2-x,-y,z
1/2+x,-y,-z
-x,y,-z
-x,-y,-z
1/2+x,y,-z
1/2-x,y,z
x,-y,z
loop_
_atom_site_type_symbol
_atom_site_label
_atom_site_fract_x
_atom_site_fract_y
_atom_site_fract_z
Si Si1 0.894062 0.797238 0.524020
Si Si2 0.366112 0.215483 0.221594
Si Si3 0.361768 0.286252 0.722253
Si Si4 0.360926 0.797306 0.597195
Si Si5 0.361490 0.785683 0.096846
Si Si6 0.638484 0.285576 0.029952
Si Si7 0.366431 0.211611 0.347528
Si Si8 0.632560 0.286581 0.154370
O O1 0.855782 0.703573 0.465739
O O2 0.894154 0.715671 0.588424
O O3 0.000000 0.812997 0.500000
O O4 0.852496 0.000000 0.530479
O O5 0.250000 0.244529 0.219580
O O6 0.402846 0.282120 0.158626
O O7 0.398821 0.287303 0.284700
O O8 0.378800 0.000000 0.224000
O O9 0.250000 0.223220 0.723807
O O10 0.357777 0.500000 0.726607
O O11 0.407786 0.253946 0.658704
O O12 0.404254 0.215030 0.783225
O O13 0.250000 0.800735 0.612874
O O14 0.394178 0.000000 0.586552
O O15 0.250000 0.720095 0.094148
O O16 0.405476 0.746561 0.033695
O O17 0.358132 0.000000 0.101649
O O18 0.750000 0.220571 0.026511
O O19 0.641259 0.500000 0.035767
O O20 0.599043 0.213941 0.091699
O O21 0.250000 0.222982 0.347037
O O22 0.392323 0.000000 0.348054
O O23 0.750000 0.265818 0.154070
O O24 0.614915 0.500000 0.154552
#
# Coordination Sequence:
#
# PCOD9407233 Si02
#       8
#     8   8   8   8   8   8   8   8
#     4   9  16  24  34  50  73  98 120 145 180 218
#     4   7  10  16  26  40  57  77 104 140 175 201
#     4   8  13  22  36  51  66  88 120 153 179 205
#     4   9  16  25  37  54  75  96 118 147 182 216
#     4   8  12  17  24  36  56  80 106 137 169 197
#     4   8  12  17  25  37  55  82 113 139 164 199
#     4   8  12  19  32  48  65  88 120 153 180 209
#     4   7  10  17  28  41  58  82 113 145 171 197
#
# _framework density 26.816417000000001
#
# number of rings (size 3 to 8) (size 9 to 14) (size 15 to 20)
#    0.000    4.000    0.000    3.375    0.000    1.500 
#    0.000    0.625    0.000    4.125    0.000    0.875 
#    0.000    5.000    0.000    1.125    0.000   27.250 
#
# Total GULP energy -356374.923329 kJ/mol
# GULP energy per Si atom -5568.358177 kJ/mol
# Density = 2.675538 g / cm^3
# Si number density = 26.816417 Si / 1000 Ang^3
#
#
#
# Elastic Constant Matrix: (Units=GPa)
#
#
# Indices 1 2 3 4 5 6 
#
# 1 63.7121 -2.9551 36.5596 0.0000 0.0000 0.0000
# 2 -2.9551 73.5597 23.7903 0.0000 0.0000 0.0000
# 3 36.5596 23.7903 429.8592 0.0000 0.0000 0.0000
# 4 0.0000 0.0000 0.0000 -7.9285 0.0000 0.0000
# 5 0.0000 0.0000 0.0000 0.0000 39.5999 0.0000
# 6 0.0000 0.0000 0.0000 0.0000 0.0000 -5.1938
#
#
#
# Elastic Compliance Matrix: (Units=1/GPa)
#
#
# Indices 1 2 3 4 5 6 
#
# 1 0.016595 0.001144 -0.001475 0.000000 0.000000 0.000000
# 2 0.001144 0.013921 -0.000868 0.000000 0.000000 0.000000
# 3 -0.001475 -0.000868 0.002500 0.000000 0.000000 0.000000
# 4 0.000000 0.000000 0.000000 -0.126128 0.000000 0.000000
# 5 0.000000 0.000000 0.000000 0.000000 0.025253 0.000000
# 6 0.000000 0.000000 0.000000 0.000000 0.000000 -0.192537
#
#
# Mechanical properties :
#
#
# Convention : Reuss Voigt Hill
#
# Bulk Modulus (GPa) = 32.66047 75.76894 54.21471
# Shear Modulus (GPa) = -20.17815 39.27793 9.54989
#
# Velocity S-wave (km/s) = -2.74607 3.83129 1.88916
# Velocity P-wave (km/s) = 1.46670 6.92010 5.00195
#
# Compressibility (1/GPa) = 0.03061806
#
# Stress axis : x y z
#
# Youngs Moduli (GPa) = 60.25959 71.83400 400.03381
#
# Poissons Ratio (x) = -0.08215 0.58993
# Poissons Ratio (y) = -0.06891 0.34711
# Poissons Ratio (z) = 0.08886 0.06233
#
# Static dielectric constant tensor:
#      x y z
#    x 1.917980 0.000000 0.000000 
#    y 0.000000 2.066280 0.000000 
#    z 0.000000 0.000000 2.502710 
# 
# From -- ./inp_files/30705.got.cif
#   From: 2010.05.17/outbox.cif.g08.bks.cpg/sg51_16_cif.got.tgz:30705.got - 2010.06.03 11:52:47.
