data_PCOD9407217
_publ_section_title
;
Structure prediction by ZEFSAII (Michael W. Deem and Ramdas Pophale) SiO2 
 PCOD9407217
Probable space group: P M M A
;
_chemical_formula_sum "Si O2"
_cell_formula_units_Z 40
_cell_length_a 14.231590
_cell_length_b 10.404494
_cell_length_c 15.838085
_cell_angle_alpha 90.000000
_cell_angle_beta 90.000000
_cell_angle_gamma 90.000000
_cell_volume 2345.184727
_symmetry_space_group_name_H-M "P M M A"
_symmetry_group_IT_number 51
_symmetry_cell_setting 'orthorhombic'
loop_
_space_group_symop_operation_xyz
x,y,z
1/2-x,-y,z
1/2+x,-y,-z
-x,y,-z
-x,-y,-z
1/2+x,y,-z
1/2-x,y,z
x,-y,z
loop_
_atom_site_type_symbol
_atom_site_label
_atom_site_fract_x
_atom_site_fract_y
_atom_site_fract_z
Si Si1 0.354812 0.655547 0.967456
Si Si2 0.750000 0.500000 0.462946
Si Si3 0.947491 0.251238 0.676569
Si Si4 0.040005 0.000000 0.596496
Si Si5 0.750000 0.000000 0.461609
Si Si6 0.458382 0.500000 0.594630
Si Si7 0.463581 0.655991 0.137084
Si Si8 0.750000 0.750622 0.581046
O O1 0.250000 0.704184 0.951647
O O2 0.352483 0.500000 0.965602
O O3 0.433448 0.691072 0.899104
O O4 0.392198 0.688018 0.060988
O O5 0.845858 0.500000 0.410072
O O6 0.750000 0.624938 0.522388
O O7 0.942989 0.270940 0.776808
O O8 0.843481 0.249770 0.637195
O O9 0.000881 0.124893 0.644251
O O10 0.002770 0.374115 0.640235
O O11 0.152927 0.000000 0.590208
O O12 0.000000 0.000000 0.500000
O O13 0.750000 0.874913 0.521246
O O14 0.500000 0.500000 0.500000
O O15 0.459980 0.500000 0.150223
#
# Coordination Sequence:
#
# PCOD9407217 Si02
#       8
#     8   2   8   4   2   4   8   4
#     4   8  15  31  54  78 113 154 183 218 280 349
#     4  12  24  36  56  80 110 154 186 232 310 348
#     4  12  23  38  59  86 116 148 191 249 283 340
#     4  12  24  44  62  79 112 157 198 238 286 341
#     4  12  24  44  64  76 102 160 212 230 284 348
#     4  12  22  40  54  81 118 147 186 240 302 337
#     4   9  18  33  52  84 119 145 183 234 284 334
#     4  12  22  36  60  84 108 147 199 241 291 338
#
# _framework density 17.056225999999999
#
# number of rings (size 3 to 8) (size 9 to 14) (size 15 to 20)
#    0.000    1.400    5.000    3.000    1.400    0.000 
#    3.600    0.000    0.000    2.400    0.000    1.400 
#    0.000    0.000    0.000    0.000    0.000    0.000 
#
# Total GULP energy -223304.040287 kJ/mol
# GULP energy per Si atom -5582.601007 kJ/mol
# Density = 1.701741 g / cm^3
# Si number density = 17.056226 Si / 1000 Ang^3
#
#
#
# Elastic Constant Matrix: (Units=GPa)
#
#
# Indices 1 2 3 4 5 6 
#
# 1 168.7886 42.8568 32.9377 0.0000 0.0000 0.0000
# 2 42.8568 111.2841 42.9655 0.0000 0.0000 0.0000
# 3 32.9377 42.9655 68.5820 0.0000 0.0000 0.0000
# 4 0.0000 0.0000 0.0000 27.4675 0.0000 0.0000
# 5 0.0000 0.0000 0.0000 0.0000 -5.8784 0.0000
# 6 0.0000 0.0000 0.0000 0.0000 0.0000 60.8342
#
#
#
# Elastic Compliance Matrix: (Units=1/GPa)
#
#
# Indices 1 2 3 4 5 6 
#
# 1 0.006797 -0.001790 -0.002143 0.000000 0.000000 0.000000
# 2 -0.001790 0.012325 -0.006861 0.000000 0.000000 0.000000
# 3 -0.002143 -0.006861 0.019909 0.000000 0.000000 0.000000
# 4 0.000000 0.000000 0.000000 0.036407 0.000000 0.000000
# 5 0.000000 0.000000 0.000000 0.000000 -0.170114 0.000000
# 6 0.000000 0.000000 0.000000 0.000000 0.000000 0.016438
#
#
# Mechanical properties :
#
#
# Convention : Reuss Voigt Hill
#
# Bulk Modulus (GPa) = 57.33446 65.13052 61.23249
# Shear Modulus (GPa) = -98.35650 31.81096 -33.27277
#
# Velocity S-wave (km/s) = -7.60205 4.32332 -4.42154
# Velocity P-wave (km/s) = 6.58536 7.94923 3.14827
#
# Compressibility (1/GPa) = 0.01744152
#
# Stress axis : x y z
#
# Youngs Moduli (GPa) = 147.11660 81.13883 50.22929
#
# Poissons Ratio (x) = 0.14527 0.10764
# Poissons Ratio (y) = 0.26340 0.34464
# Poissons Ratio (z) = 0.31525 0.55671
#
# Static dielectric constant tensor:
#      x y z
#    x 1.649960 0.000000 0.000000 
#    y 0.000000 1.556790 0.000000 
#    z 0.000000 0.000000 1.563160 
# 
# From -- ./inp_files/23897.got.cif
#   From: 2010.05.17/outbox.cif.g08.bks.cpg/sg51_12_cif.got.tgz:23897.got - 2010.06.03 11:52:47.
