data_PCOD9407789
_publ_section_title
;
Structure prediction by ZEFSAII (Michael W. Deem and Ramdas Pophale) SiO2 
 PCOD9407789
Probable space group: P M M A
;
_chemical_formula_sum "Si O2"
_cell_formula_units_Z 40
_cell_length_a 9.000000
_cell_length_b 15.000000
_cell_length_c 15.000000
_cell_angle_alpha 90.000000
_cell_angle_beta 90.000000
_cell_angle_gamma 90.000000
_cell_volume 2025.000000
_symmetry_space_group_name_H-M "P M M A"
_symmetry_group_IT_number 51
_symmetry_cell_setting 'orthorhombic'
loop_
_space_group_symop_operation_xyz
x,y,z
1/2-x,-y,z
1/2+x,-y,-z
-x,y,-z
-x,-y,-z
1/2+x,y,-z
1/2-x,y,z
x,-y,z
loop_
_atom_site_type_symbol
_atom_site_label
_atom_site_fract_x
_atom_site_fract_y
_atom_site_fract_z
Si Si1 0.929153 0.691331 0.590646
Si Si2 0.915961 0.189961 0.760477
Si Si3 0.086808 0.662774 0.086905
Si Si4 0.088053 0.105379 0.910037
Si Si5 0.913903 0.500000 0.166161
Si Si6 0.419049 0.500000 0.622043
O O1 0.750000 0.686393 0.587034
O O2 0.969007 0.755215 0.674075
O O3 0.000000 0.728225 0.500000
O O4 0.995120 0.591290 0.599767
O O5 0.750000 0.154426 0.741420
O O6 0.903355 0.261103 0.840148
O O7 0.018716 0.120868 0.812193
O O8 0.250000 0.632592 0.061444
O O9 0.000349 0.584573 0.133573
O O10 0.000000 0.688948 0.000000
O O11 0.250000 0.149816 0.913270
O O12 0.102564 0.000000 0.918636
O O13 0.000000 0.130508 0.000000
O O14 0.750000 0.500000 0.128298
O O15 0.906947 0.500000 0.271916
O O16 0.250000 0.500000 0.584129
#
# Coordination Sequence:
#
# PCOD9407789 Si02
#       6
#     8   8   8   8   4   4
#     4  11  23  40  60  84 113 147 190 239 292 341
#     4  10  22  38  58  83 112 147 185 231 282 333
#     4  11  22  36  52  74 106 144 185 227 275 327
#     4  10  21  37  60  90 122 154 187 225 272 330
#     4  11  22  35  52  74 102 142 188 229 275 327
#     4  11  22  37  58  82 108 146 194 241 291 337
#
# _framework density 19.753086
#
# number of rings (size 3 to 8) (size 9 to 14) (size 15 to 20)
#    0.000    1.400    2.000    3.600    0.000    6.800 
#    0.000    0.000    0.000    0.600    0.000    0.000 
#    0.000    0.000    0.000    0.000    0.000    0.000 
#
# Total GULP energy -222879.708011 kJ/mol
# GULP energy per Si atom -5571.992700 kJ/mol
# Density = 1.970813 g / cm^3
# Si number density = 19.753086 Si / 1000 Ang^3
#
#
#
# Elastic Constant Matrix: (Units=GPa)
#
#
# Indices 1 2 3 4 5 6 
#
# 1 102.9410 8.9415 41.8807 0.0000 0.0000 0.0000
# 2 8.9415 -2.5957 10.0606 0.0000 0.0000 0.0000
# 3 41.8807 10.0606 148.4300 0.0000 0.0000 0.0000
# 4 0.0000 0.0000 0.0000 3756.3095 0.0000 0.0000
# 5 0.0000 0.0000 0.0000 0.0000 29.6619 0.0000
# 6 0.0000 0.0000 0.0000 0.0000 0.0000 13.6156
#
#
#
# Elastic Compliance Matrix: (Units=1/GPa)
#
#
# Indices 1 2 3 4 5 6 
#
# 1 0.009757 0.018168 -0.003985 0.000000 0.000000 0.000000
# 2 0.018168 -0.271272 0.013261 0.000000 0.000000 0.000000
# 3 -0.003985 0.013261 0.006963 0.000000 0.000000 0.000000
# 4 0.000000 0.000000 0.000000 0.000266 0.000000 0.000000
# 5 0.000000 0.000000 0.000000 0.000000 0.033713 0.000000
# 6 0.000000 0.000000 0.000000 0.000000 0.000000 0.073445
#
#
# Mechanical properties :
#
#
# Convention : Reuss Voigt Hill
#
# Bulk Modulus (GPa) = -5.00840 41.17118 18.08139
# Shear Modulus (GPa) = -18.61712 772.44355 376.91322
#
# Velocity S-wave (km/s) = -3.07333 19.79643 13.82847
# Velocity P-wave (km/s) = 3.89035 23.31136 16.25246
#
# Compressibility (1/GPa) = -0.19966463
#
# Stress axis : x y z
#
# Youngs Moduli (GPa) = 102.48714 -3.68633 143.62362
#
# Poissons Ratio (x) = 0.06697 0.57227
# Poissons Ratio (y) = -1.86196 -1.90454
# Poissons Ratio (z) = 0.40836 0.04888
#
# Static dielectric constant tensor:
#      x y z
#    x 1.691690 0.000000 0.000000 
#    y 0.000000 1.694280 0.000000 
#    z 0.000000 0.000000 1.678790 
# 
# From -- ./inp_files/20551.got.cif
#   From: 2010.05.17/outbox.ucp.g08.bks.cvg/sg51_11_cif.got.tgz:20551.got - 2010.06.11 16:27:58.
