data_PCOD9407052
_publ_section_title
;
Structure prediction by ZEFSAII (Michael W. Deem and Ramdas Pophale) SiO2 
 PCOD9407052
Probable space group: P M M A
;
_chemical_formula_sum "Si O2"
_cell_formula_units_Z 56
_cell_length_a 15.317161
_cell_length_b 18.845521
_cell_length_c 10.183707
_cell_angle_alpha 90.000000
_cell_angle_beta 90.000000
_cell_angle_gamma 90.000000
_cell_volume 2939.627633
_symmetry_space_group_name_H-M "P M M A"
_symmetry_group_IT_number 51
_symmetry_cell_setting 'orthorhombic'
loop_
_space_group_symop_operation_xyz
x,y,z
1/2-x,-y,z
1/2+x,-y,-z
-x,y,-z
-x,-y,-z
1/2+x,y,-z
1/2-x,y,z
x,-y,z
loop_
_atom_site_type_symbol
_atom_site_label
_atom_site_fract_x
_atom_site_fract_y
_atom_site_fract_z
Si Si1 0.143310 0.920998 0.370235
Si Si2 0.102415 0.235155 0.003621
Si Si3 0.497634 0.416095 0.658176
Si Si4 0.648941 0.312837 0.257785
Si Si5 0.151756 0.315032 0.266357
Si Si6 0.647516 0.213212 0.481891
Si Si7 0.855478 0.079457 0.934529
O O1 0.250000 0.916723 0.368320
O O2 0.109747 0.860367 0.466366
O O3 0.116809 0.911578 0.218159
O O4 0.119432 0.000000 0.412594
O O5 0.138827 0.263725 0.141675
O O6 0.116003 0.150359 0.990673
O O7 0.144549 0.279801 0.886336
O O8 0.000000 0.249626 0.000000
O O9 0.500000 0.404346 0.500000
O O10 0.501134 0.500000 0.680934
O O11 0.410668 0.381019 0.718215
O O12 0.578944 0.375296 0.723439
O O13 0.750000 0.327310 0.292868
O O14 0.610278 0.252406 0.355479
O O15 0.250000 0.344450 0.262562
O O16 0.143552 0.267116 0.396483
O O17 0.750000 0.200203 0.451283
O O18 0.750000 0.079094 0.936758
O O19 0.883831 0.000000 0.978494
#
# Coordination Sequence:
#
# PCOD9407052 Si02
#       7
#     8   8   8   8   8   8   8
#     4   8  13  24  47  80 113 148 197 253 297 339
#     4  12  23  37  60  88 122 165 210 258 307 357
#     4  11  24  42  66  98 127 153 194 246 303 368
#     4  11  23  40  60  90 127 163 199 244 309 370
#     4  11  21  39  64  90 119 157 205 248 294 358
#     4   9  17  31  56  84 114 153 199 244 291 352
#     4   9  17  31  53  82 116 157 207 257 303 356
#
# _framework density 19.050031000000001
#
# number of rings (size 3 to 8) (size 9 to 14) (size 15 to 20)
#    0.000    1.857    4.286    2.143    0.000    0.857 
#    0.000    3.571    0.000    4.286    0.000    3.000 
#    0.000    0.000    0.000    0.000    0.000    0.000 
#
# Total GULP energy -312463.144987 kJ/mol
# GULP energy per Si atom -5579.699018 kJ/mol
# Density = 1.900667 g / cm^3
# Si number density = 19.050031 Si / 1000 Ang^3
#
#
#
# Elastic Constant Matrix: (Units=GPa)
#
#
# Indices 1 2 3 4 5 6 
#
# 1 82.1724 35.5975 2.3518 0.0000 0.0000 0.0000
# 2 35.5975 114.8329 13.0924 0.0000 0.0000 0.0000
# 3 2.3518 13.0924 51.0740 0.0000 0.0000 0.0000
# 4 0.0000 0.0000 0.0000 21.7185 0.0000 0.0000
# 5 0.0000 0.0000 0.0000 0.0000 16.4666 0.0000
# 6 0.0000 0.0000 0.0000 0.0000 0.0000 54.5718
#
#
#
# Elastic Compliance Matrix: (Units=1/GPa)
#
#
# Indices 1 2 3 4 5 6 
#
# 1 0.014069 -0.004416 0.000484 0.000000 0.000000 0.000000
# 2 -0.004416 0.010357 -0.002452 0.000000 0.000000 0.000000
# 3 0.000484 -0.002452 0.020186 0.000000 0.000000 0.000000
# 4 0.000000 0.000000 0.000000 0.046044 0.000000 0.000000
# 5 0.000000 0.000000 0.000000 0.000000 0.060729 0.000000
# 6 0.000000 0.000000 0.000000 0.000000 0.000000 0.018324
#
#
# Mechanical properties :
#
#
# Convention : Reuss Voigt Hill
#
# Bulk Modulus (GPa) = 31.40314 38.90695 35.15504
# Shear Modulus (GPa) = 25.89456 31.68721 28.79088
#
# Velocity S-wave (km/s) = 3.69086 4.08287 3.89180
# Velocity P-wave (km/s) = 5.88928 6.53409 6.22004
#
# Compressibility (1/GPa) = 0.03184395
#
# Stress axis : x y z
#
# Youngs Moduli (GPa) = 71.07861 96.55398 49.54031
#
# Poissons Ratio (x) = 0.42643 -0.02399
# Poissons Ratio (y) = 0.31392 0.12145
# Poissons Ratio (z) = -0.03442 0.23671
#
# Static dielectric constant tensor:
#      x y z
#    x 1.685760 0.000000 0.000000 
#    y 0.000000 1.660250 0.000000 
#    z 0.000000 0.000000 1.653400 
# 
# From -- ./inp_files/8541.got.cif
#   From: 2010.05.17/outbox.cif.g08.bks.cpg/sg51_5_cif.got.tgz:8541.got - 2010.06.03 11:52:47.
