data_PCOD9407831
_publ_section_title
;
Structure prediction by ZEFSAII (Michael W. Deem and Ramdas Pophale) SiO2 
 PCOD9407831
Probable space group: P M M A
;
_chemical_formula_sum "Si O2"
_cell_formula_units_Z 32
_cell_length_a 15.000000
_cell_length_b 12.000000
_cell_length_c 9.000000
_cell_angle_alpha 90.000000
_cell_angle_beta 90.000000
_cell_angle_gamma 90.000000
_cell_volume 1620.000000
_symmetry_space_group_name_H-M "P M M A"
_symmetry_group_IT_number 51
_symmetry_cell_setting 'orthorhombic'
loop_
_space_group_symop_operation_xyz
x,y,z
1/2-x,-y,z
1/2+x,-y,-z
-x,y,-z
-x,-y,-z
1/2+x,y,-z
1/2-x,y,z
x,-y,z
loop_
_atom_site_type_symbol
_atom_site_label
_atom_site_fract_x
_atom_site_fract_y
_atom_site_fract_z
Si Si1 0.148839 0.000000 0.516098
Si Si2 0.250000 0.743186 0.931332
Si Si3 0.584284 0.184147 0.256591
Si Si4 0.551515 0.000000 0.794486
Si Si5 0.850833 0.500000 0.599550
Si Si6 0.250000 0.000000 0.066984
Si Si7 0.500000 0.667794 0.500000
Si Si8 0.250000 0.500000 0.104821
O O1 0.135110 0.104694 0.624832
O O2 0.250000 0.000000 0.455565
O O3 0.077471 0.000000 0.382444
O O4 0.158101 0.750464 0.837503
O O5 0.250000 0.622030 0.019614
O O6 0.250000 0.871362 0.000467
O O7 0.513403 0.104431 0.173289
O O8 0.524656 0.263758 0.355515
O O9 0.649456 0.000000 0.865073
O O10 0.750000 0.500000 0.536630
O O11 0.911047 0.601058 0.543790
O O12 0.833093 0.500000 0.777494
#
# Coordination Sequence:
#
# PCOD9407831 Si02
#       8
#     4   4   8   4   4   2   4   2
#     4  11  18  37  65 103 140 172 217 301 363 403
#     4  12  28  46  70 100 146 192 240 276 348 420
#     4  11  23  40  68 104 136 172 231 294 350 419
#     4  11  23  39  68 104 141 182 235 288 361 417
#     4   9  25  46  69  95 138 170 238 290 342 415
#     4  12  28  46  66 100 140 196 238 284 336 420
#     4  11  22  43  74 106 122 175 228 303 366 397
#     4  10  28  52  68  98 148 202 228 272 340 436
#
# _framework density 19.753086
#
# number of rings (size 3 to 8) (size 9 to 14) (size 15 to 20)
#    0.375    0.750    4.375    2.250    5.250    4.000 
#    0.000    1.250    0.000    0.000    0.000    0.000 
#    0.000    0.000    0.000    0.000    0.000    0.000 
#
# Total GULP energy -178145.921463 kJ/mol
# GULP energy per Si atom -5567.060046 kJ/mol
# Density = 1.970813 g / cm^3
# Si number density = 19.753086 Si / 1000 Ang^3
#
#
#
# Elastic Constant Matrix: (Units=GPa)
#
#
# Indices 1 2 3 4 5 6 
#
# 1 171.3106 50.3292 38.3850 0.0000 0.0000 0.0000
# 2 50.3292 124.2982 42.4649 0.0000 0.0000 0.0000
# 3 38.3850 42.4649 64.5614 0.0000 0.0000 0.0000
# 4 0.0000 0.0000 0.0000 -48.2411 0.0000 0.0000
# 5 0.0000 0.0000 0.0000 0.0000 53.3217 0.0000
# 6 0.0000 0.0000 0.0000 0.0000 0.0000 -8.9434
#
#
#
# Elastic Compliance Matrix: (Units=1/GPa)
#
#
# Indices 1 2 3 4 5 6 
#
# 1 0.007044 -0.001833 -0.002982 0.000000 0.000000 0.000000
# 2 -0.001833 0.010854 -0.006049 0.000000 0.000000 0.000000
# 3 -0.002982 -0.006049 0.021241 0.000000 0.000000 0.000000
# 4 0.000000 0.000000 0.000000 -0.020729 0.000000 0.000000
# 5 0.000000 0.000000 0.000000 0.000000 0.018754 0.000000
# 6 0.000000 0.000000 0.000000 0.000000 0.000000 -0.111815
#
#
# Mechanical properties :
#
#
# Convention : Reuss Voigt Hill
#
# Bulk Modulus (GPa) = 57.43911 69.16980 63.30446
# Shear Modulus (GPa) = -106.11714 14.49355 -45.81180
#
# Velocity S-wave (km/s) = -7.33747 2.71169 -4.82105
# Velocity P-wave (km/s) = 6.53015 6.70057 1.06177
#
# Compressibility (1/GPa) = 0.01740974
#
# Stress axis : x y z
#
# Youngs Moduli (GPa) = 141.96078 92.13057 47.07866
#
# Poissons Ratio (x) = 0.16891 0.14040
# Poissons Ratio (y) = 0.26027 0.28479
# Poissons Ratio (z) = 0.42336 0.55732
#
# Static dielectric constant tensor:
#      x y z
#    x 1.669500 0.000000 0.000000 
#    y 0.000000 1.775290 0.000000 
#    z 0.000000 0.000000 1.726660 
# 
# From -- ./inp_files/7692.got.cif
#   From: 2010.05.17/outbox.ucp.g08.bks.cvg/sg51_4_cif.got.tgz:7692.got - 2010.06.11 16:27:58.
