data_PCOD9407735
_publ_section_title
;
Structure prediction by ZEFSAII (Michael W. Deem and Ramdas Pophale) SiO2 
 PCOD9407735
Probable space group: P M M A
;
_chemical_formula_sum "Si O2"
_cell_formula_units_Z 48
_cell_length_a 24.000000
_cell_length_b 9.000000
_cell_length_c 12.000000
_cell_angle_alpha 90.000000
_cell_angle_beta 90.000000
_cell_angle_gamma 90.000000
_cell_volume 2592.000000
_symmetry_space_group_name_H-M "P M M A"
_symmetry_group_IT_number 51
_symmetry_cell_setting 'orthorhombic'
loop_
_space_group_symop_operation_xyz
x,y,z
1/2-x,-y,z
1/2+x,-y,-z
-x,y,-z
-x,-y,-z
1/2+x,y,-z
1/2-x,y,z
x,-y,z
loop_
_atom_site_type_symbol
_atom_site_label
_atom_site_fract_x
_atom_site_fract_y
_atom_site_fract_z
Si Si1 0.997944 0.674989 0.626759
Si Si2 0.394579 0.824536 0.710155
Si Si3 0.628703 0.327373 0.703247
Si Si4 0.312293 0.829719 0.105995
Si Si5 0.685641 0.823989 0.498225
Si Si6 0.311079 0.675976 0.872597
O O1 0.012377 0.500000 0.625294
O O2 0.935510 0.690219 0.669886
O O3 0.000000 0.731203 0.500000
O O4 0.044313 0.758898 0.696361
O O5 0.357129 0.791145 0.601147
O O6 0.361144 0.752748 0.810269
O O7 0.397107 0.000000 0.722824
O O8 0.639200 0.500000 0.729779
O O9 0.643367 0.223078 0.805677
O O10 0.667114 0.275072 0.601553
O O11 0.250000 0.819828 0.156832
O O12 0.320326 0.000000 0.070290
O O13 0.313482 0.723052 0.000556
O O14 0.750000 0.797119 0.467230
O O15 0.680490 0.000000 0.526079
O O16 0.250000 0.726833 0.829769
O O17 0.314169 0.500000 0.859975
#
# Coordination Sequence:
#
# PCOD9407735 Si02
#       6
#     8   8   8   8   8   8
#     4  10  21  39  58  79 113 154 194 237 286 338
#     4  11  22  36  58  85 115 150 192 237 284 339
#     4  11  22  36  57  83 112 148 191 237 282 334
#     4  10  21  38  60  85 116 151 186 231 286 341
#     4  10  21  35  52  79 115 149 182 227 282 339
#     4  10  21  38  61  87 116 151 190 232 282 341
#
# _framework density 18.518519000000001
#
# number of rings (size 3 to 8) (size 9 to 14) (size 15 to 20)
#    0.000    1.667    1.667    3.000    0.000    7.333 
#    0.000    0.833    0.000    5.000    0.000    0.000 
#    0.000    0.000    0.000    0.000    0.000    0.000 
#
# Total GULP energy -267947.427341 kJ/mol
# GULP energy per Si atom -5582.238070 kJ/mol
# Density = 1.847637 g / cm^3
# Si number density = 18.518519 Si / 1000 Ang^3
#
#
#
# Elastic Constant Matrix: (Units=GPa)
#
#
# Indices 1 2 3 4 5 6 
#
# 1 23.9710 9.4487 11.5472 0.0000 0.0000 0.0000
# 2 9.4487 -68.6391 30.6843 0.0000 0.0000 0.0000
# 3 11.5472 30.6843 27.3587 0.0000 0.0000 0.0000
# 4 0.0000 0.0000 0.0000 28.8802 0.0000 0.0000
# 5 0.0000 0.0000 0.0000 0.0000 24.5890 0.0000
# 6 0.0000 0.0000 0.0000 0.0000 0.0000 22.0384
#
#
#
# Elastic Compliance Matrix: (Units=1/GPa)
#
#
# Indices 1 2 3 4 5 6 
#
# 1 0.052039 -0.001768 -0.019981 0.000000 0.000000 0.000000
# 2 -0.001768 -0.009644 0.011562 0.000000 0.000000 0.000000
# 3 -0.019981 0.011562 0.032017 0.000000 0.000000 0.000000
# 4 0.000000 0.000000 0.000000 0.034626 0.000000 0.000000
# 5 0.000000 0.000000 0.000000 0.000000 0.040669 0.000000
# 6 0.000000 0.000000 0.000000 0.000000 0.000000 0.045375
#
#
# Mechanical properties :
#
#
# Convention : Reuss Voigt Hill
#
# Bulk Modulus (GPa) = 18.50520 9.56122 14.03321
# Shear Modulus (GPa) = 21.41616 10.50220 15.95918
#
# Velocity S-wave (km/s) = 3.40438 2.38401 2.93882
# Velocity P-wave (km/s) = 5.04654 3.57103 4.37149
#
# Compressibility (1/GPa) = 0.05403887
#
# Stress axis : x y z
#
# Youngs Moduli (GPa) = 19.21632 -103.69527 31.23357
#
# Poissons Ratio (x) = -0.18338 0.62406
# Poissons Ratio (y) = 0.03398 -0.36113
# Poissons Ratio (z) = 0.38395 1.19895
#
# Static dielectric constant tensor:
#      x y z
#    x 1.578470 0.000000 0.000000 
#    y 0.000000 1.648290 0.000000 
#    z 0.000000 0.000000 1.651610 
# 
# From -- ./inp_files/18549.got.cif
#   From: 2010.05.17/outbox.ucp.g08.bks.cvg/sg51_10_cif.got.tgz:18549.got - 2010.06.11 16:27:58.
