data_PCOD9407105
_publ_section_title
;
Structure prediction by ZEFSAII (Michael W. Deem and Ramdas Pophale) SiO2 
 PCOD9407105
Probable space group: P M M A
;
_chemical_formula_sum "Si O2"
_cell_formula_units_Z 58
_cell_length_a 15.337789
_cell_length_b 7.759058
_cell_length_c 23.999481
_cell_angle_alpha 90.000000
_cell_angle_beta 90.000000
_cell_angle_gamma 90.000000
_cell_volume 2856.101302
_symmetry_space_group_name_H-M "P M M A"
_symmetry_group_IT_number 51
_symmetry_cell_setting 'orthorhombic'
loop_
_space_group_symop_operation_xyz
x,y,z
1/2-x,-y,z
1/2+x,-y,-z
-x,y,-z
-x,-y,-z
1/2+x,y,-z
1/2-x,y,z
x,-y,z
loop_
_atom_site_type_symbol
_atom_site_label
_atom_site_fract_x
_atom_site_fract_y
_atom_site_fract_z
Si Si1 0.598203 0.201035 0.996620
Si Si2 0.022727 0.708317 0.417339
Si Si3 0.654751 0.704425 0.118521
Si Si4 0.497748 0.806630 0.196347
Si Si5 0.603657 0.698348 0.701423
Si Si6 0.155759 0.700024 0.120716
Si Si7 0.648033 0.289597 0.481511
Si Si8 0.250000 0.000000 0.282628
O O1 0.637591 0.216895 0.057730
O O2 0.593950 0.000000 0.981252
O O3 0.500000 0.271154 0.000000
O O4 0.647416 0.289934 0.945928
O O5 0.020098 0.500000 0.421532
O O6 0.054698 0.749533 0.355658
O O7 0.098014 0.763304 0.461350
O O8 0.924942 0.765090 0.435442
O O9 0.750000 0.758421 0.138048
O O10 0.652873 0.500000 0.109807
O O11 0.582730 0.749026 0.163481
O O12 0.465108 0.697054 0.248069
O O13 0.421600 0.798565 0.150059
O O14 0.509817 0.000000 0.216316
O O15 0.637616 0.500000 0.694952
O O16 0.674317 0.845109 0.715332
O O17 0.250000 0.768889 0.138132
O O18 0.149674 0.500000 0.137269
O O19 0.750000 0.232137 0.477206
O O20 0.651577 0.500000 0.480789
#
# Coordination Sequence:
#
# PCOD9407105 Si02
#       8
#     8   8   8   8   8   8   8   2
#     4  11  22  37  58  89 120 155 192 243 310 376
#     4   8  16  30  52  87 128 168 212 265 319 374
#     4  11  24  42  66  91 117 155 206 259 314 378
#     4  12  25  43  63  90 122 160 206 256 313 375
#     4  11  24  43  65  93 131 169 212 266 318 375
#     4  11  24  39  59  86 117 156 197 243 304 371
#     4   8  13  25  50  88 128 167 217 265 313 378
#     4  12  26  44  64 100 122 174 222 258 314 384
#
# _framework density 20.307403999999998
#
# number of rings (size 3 to 8) (size 9 to 14) (size 15 to 20)
#    0.000    1.655    2.069    3.931    1.931    4.414 
#    0.000    0.690    0.000    4.138    0.000    0.000 
#    0.000    0.000    0.000    0.000    0.000    0.000 
#
# Total GULP energy -323259.722551 kJ/mol
# GULP energy per Si atom -5573.443492 kJ/mol
# Density = 2.026118 g / cm^3
# Si number density = 20.307404 Si / 1000 Ang^3
#
#
#
# Elastic Constant Matrix: (Units=GPa)
#
#
# Indices 1 2 3 4 5 6 
#
# 1 137.2741 0.3762 27.6424 0.0000 0.0000 0.0000
# 2 0.3762 58.3291 -3.5842 0.0000 0.0000 0.0000
# 3 27.6424 -3.5842 85.3406 0.0000 0.0000 0.0000
# 4 0.0000 0.0000 0.0000 81.8199 0.0000 0.0000
# 5 0.0000 0.0000 0.0000 0.0000 2.3988 0.0000
# 6 0.0000 0.0000 0.0000 0.0000 0.0000 31.1862
#
#
#
# Elastic Compliance Matrix: (Units=1/GPa)
#
#
# Indices 1 2 3 4 5 6 
#
# 1 0.007795 -0.000206 -0.002534 0.000000 0.000000 0.000000
# 2 -0.000206 0.017194 0.000789 0.000000 0.000000 0.000000
# 3 -0.002534 0.000789 0.012572 0.000000 0.000000 0.000000
# 4 0.000000 0.000000 0.000000 0.012222 0.000000 0.000000
# 5 0.000000 0.000000 0.000000 0.000000 0.416869 0.000000
# 6 0.000000 0.000000 0.000000 0.000000 0.000000 0.032065
#
#
# Mechanical properties :
#
#
# Convention : Reuss Voigt Hill
#
# Bulk Modulus (GPa) = 29.70942 36.64584 33.17763
# Shear Modulus (GPa) = 9.73068 40.18160 24.95614
#
# Velocity S-wave (km/s) = 2.19137 4.45305 3.50940
# Velocity P-wave (km/s) = 4.58960 6.67265 5.72663
#
# Compressibility (1/GPa) = 0.03365936
#
# Stress axis : x y z
#
# Youngs Moduli (GPa) = 128.27986 58.16010 79.54465
#
# Poissons Ratio (x) = 0.01198 0.20154
# Poissons Ratio (y) = 0.02642 -0.06275
# Poissons Ratio (z) = 0.32502 -0.04588
#
# Static dielectric constant tensor:
#      x y z
#    x 1.753920 0.000000 0.000000 
#    y 0.000000 1.750960 0.000000 
#    z 0.000000 0.000000 1.727330 
# 
# From -- ./inp_files/35577.got.cif
#   From: 2010.05.17/outbox.cif.g08.bks.cpg/sg51_18_cif.got.tgz:35577.got - 2010.06.03 11:52:47.
