data_PCOD9407104
_publ_section_title
;
Structure prediction by ZEFSAII (Michael W. Deem and Ramdas Pophale) SiO2 
 PCOD9407104
Probable space group: P M M A
;
_chemical_formula_sum "Si O2"
_cell_formula_units_Z 64
_cell_length_a 15.313617
_cell_length_b 9.008209
_cell_length_c 24.426209
_cell_angle_alpha 90.000000
_cell_angle_beta 90.000000
_cell_angle_gamma 90.000000
_cell_volume 3369.553091
_symmetry_space_group_name_H-M "P M M A"
_symmetry_group_IT_number 51
_symmetry_cell_setting 'orthorhombic'
loop_
_space_group_symop_operation_xyz
x,y,z
1/2-x,-y,z
1/2+x,-y,-z
-x,y,-z
-x,-y,-z
1/2+x,y,-z
1/2-x,y,z
x,-y,z
loop_
_atom_site_type_symbol
_atom_site_label
_atom_site_fract_x
_atom_site_fract_y
_atom_site_fract_z
Si Si1 0.114772 0.170811 0.618834
Si Si2 0.147899 0.670651 0.504089
Si Si3 0.590912 0.170119 0.603385
Si Si4 0.510259 0.821856 0.790250
Si Si5 0.511656 0.819643 0.915982
Si Si6 0.148412 0.819131 0.991533
Si Si7 0.349904 0.326300 0.289177
Si Si8 0.848277 0.674917 0.267913
O O1 0.139296 0.245546 0.561530
O O2 0.148131 0.263228 0.670305
O O3 0.009829 0.169898 0.621380
O O4 0.144588 0.000000 0.621086
O O5 0.250000 0.670778 0.488586
O O6 0.118887 0.500000 0.509747
O O7 0.098096 0.753203 0.455505
O O8 0.641376 0.258985 0.650118
O O9 0.621578 0.000000 0.599710
O O10 0.521010 0.773536 0.853256
O O11 0.585457 0.757498 0.751522
O O12 0.418886 0.762599 0.767133
O O13 0.511874 0.000000 0.787620
O O14 0.418651 0.773802 0.942875
O O15 0.511168 0.000000 0.917116
O O16 0.593743 0.774361 0.954025
O O17 0.250000 0.769007 0.988785
O O18 0.151363 0.000000 0.991080
O O19 0.250000 0.311228 0.270799
O O20 0.372978 0.500000 0.291274
O O21 0.750000 0.695273 0.246750
O O22 0.868734 0.500000 0.268386
#
# Coordination Sequence:
#
# PCOD9407104 Si02
#       8
#     8   8   8   8   8   8   8   8
#     4  11  23  39  60  86 113 144 187 241 299 354
#     4  11  24  39  56  82 114 149 190 234 286 354
#     4  11  23  39  60  86 113 144 187 241 299 354
#     4  11  22  37  58  87 121 156 195 244 297 346
#     4   8  16  28  45  76 115 151 191 234 281 341
#     4   8  13  25  46  73 111 156 192 228 280 338
#     4  11  24  41  61  84 113 154 200 244 294 354
#     4  11  24  41  61  84 113 154 200 244 294 354
#
# _framework density 18.993617
#
# number of rings (size 3 to 8) (size 9 to 14) (size 15 to 20)
#    0.000    1.750    1.250    4.125    0.000   10.000 
#    0.000    2.500    0.000    0.000    0.000    7.000 
#    0.000   12.000    0.000    0.000    0.000    0.000 
#
# Total GULP energy -357449.808930 kJ/mol
# GULP energy per Si atom -5585.153265 kJ/mol
# Density = 1.895039 g / cm^3
# Si number density = 18.993617 Si / 1000 Ang^3
#
#
#
# Elastic Constant Matrix: (Units=GPa)
#
#
# Indices 1 2 3 4 5 6 
#
# 1 83.4597 27.1839 15.1626 0.0000 0.0000 0.0000
# 2 27.1839 86.5936 24.5837 0.0000 0.0000 0.0000
# 3 15.1626 24.5837 93.2748 0.0000 0.0000 0.0000
# 4 0.0000 0.0000 0.0000 -31.4344 0.0000 0.0000
# 5 0.0000 0.0000 0.0000 0.0000 110.7064 0.0000
# 6 0.0000 0.0000 0.0000 0.0000 0.0000 29.8238
#
#
#
# Elastic Compliance Matrix: (Units=1/GPa)
#
#
# Indices 1 2 3 4 5 6 
#
# 1 0.013462 -0.003896 -0.001161 0.000000 0.000000 0.000000
# 2 -0.003896 0.013610 -0.002954 0.000000 0.000000 0.000000
# 3 -0.001161 -0.002954 0.011688 0.000000 0.000000 0.000000
# 4 0.000000 0.000000 0.000000 -0.031812 0.000000 0.000000
# 5 0.000000 0.000000 0.000000 0.000000 0.009033 0.000000
# 6 0.000000 0.000000 0.000000 0.000000 0.000000 0.033530
#
#
# Mechanical properties :
#
#
# Convention : Reuss Voigt Hill
#
# Bulk Modulus (GPa) = 43.98065 44.13205 44.05635
# Shear Modulus (GPa) = 68.38745 34.91236 51.64991
#
# Velocity S-wave (km/s) = 6.00697 4.29197 5.22038
# Velocity P-wave (km/s) = 8.44496 6.91715 7.71895
#
# Compressibility (1/GPa) = 0.02273727
#
# Stress axis : x y z
#
# Youngs Moduli (GPa) = 74.28371 73.47607 85.55573
#
# Poissons Ratio (x) = 0.28628 0.09937
# Poissons Ratio (y) = 0.28943 0.25270
# Poissons Ratio (z) = 0.08628 0.21702
#
# Static dielectric constant tensor:
#      x y z
#    x 1.677550 0.000000 0.000000 
#    y 0.000000 1.640650 0.000000 
#    z 0.000000 0.000000 1.631540 
# 
# From -- ./inp_files/35766.got.cif
#   From: 2010.05.17/outbox.cif.g08.bks.cpg/sg51_18_cif.got.tgz:35766.got - 2010.06.03 11:52:47.
