data_PCOD9407914
_publ_section_title
;
Structure prediction by ZEFSAII (Michael W. Deem and Ramdas Pophale) SiO2 
 PCOD9407914
Probable space group: P N N A
;
_chemical_formula_sum "Si O2"
_cell_formula_units_Z 48
_cell_length_a 5.203225
_cell_length_b 30.401666
_cell_length_c 11.779154
_cell_angle_alpha 90.000000
_cell_angle_beta 90.000000
_cell_angle_gamma 90.000000
_cell_volume 1863.305601
_symmetry_space_group_name_H-M "P N N A"
_symmetry_group_IT_number 52
_symmetry_cell_setting 'orthorhombic'
loop_
_space_group_symop_operation_xyz
x,y,z
1/2-x,-y,z
x,1/2-y,1/2-z
1/2-x,1/2+y,1/2-z
-x,-y,-z
1/2+x,y,-z
-x,1/2+y,1/2+z
1/2+x,1/2-y,1/2+z
loop_
_atom_site_type_symbol
_atom_site_label
_atom_site_fract_x
_atom_site_fract_y
_atom_site_fract_z
Si Si1 0.683485 0.634618 0.926640
Si Si2 0.332139 0.359694 0.605710
Si Si3 0.690910 0.453881 0.361093
Si Si4 0.305688 0.952838 0.288792
Si Si5 0.165482 0.676265 0.353340
Si Si6 0.293269 0.729302 0.075792
O O1 0.740497 0.589325 0.863547
O O2 0.737580 0.682068 0.866370
O O3 0.392124 0.635562 0.971239
O O4 0.246965 0.408750 0.575296
O O5 0.378156 0.332975 0.490455
O O6 0.601557 0.356780 0.669613
O O7 0.115660 0.338336 0.686032
O O8 0.750000 0.500000 0.421555
O O9 0.403477 0.452969 0.313236
O O10 0.903344 0.452631 0.258843
O O11 0.250000 0.000000 0.348018
O O12 0.242108 0.726980 0.352518
O O13 0.581007 0.730381 0.025814
#
# Coordination Sequence:
#
# PCOD9407914 Si02
#       6
#     8   8   8   8   8   8
#     4  10  21  33  56  85 103 133 165 220 263 305
#     4  10  18  30  52  77 101 134 182 209 254 303
#     4  10  21  37  55  73 102 146 178 206 254 315
#     4  10  21  38  56  75 105 140 175 211 256 313
#     4  10  17  30  50  79 102 133 171 224 255 293
#     4  10  16  30  49  77 104 133 166 201 261 315
#
# _framework density 25.760670000000001
#
# number of rings (size 3 to 8) (size 9 to 14) (size 15 to 20)
#    0.000    2.000    3.333    2.000    0.000    0.667 
#    0.000    3.333    0.000    6.000    0.000    0.000 
#    0.000    0.000    0.000    0.000    0.000    0.000 
#
# Total GULP energy -268510.984465 kJ/mol
# GULP energy per Si atom -5593.978843 kJ/mol
# Density = 2.570204 g / cm^3
# Si number density = 25.760670 Si / 1000 Ang^3
#
#
#
# Elastic Constant Matrix: (Units=GPa)
#
#
# Indices 1 2 3 4 5 6 
#
# 1 127.0545 -25.1620 -1.5751 0.0000 0.0000 0.0000
# 2 -25.1620 198.0833 32.3991 0.0000 0.0000 0.0000
# 3 -1.5751 32.3991 23.1381 0.0000 0.0000 0.0000
# 4 0.0000 0.0000 0.0000 41.3864 0.0000 0.0000
# 5 0.0000 0.0000 0.0000 0.0000 23.8873 0.0000
# 6 0.0000 0.0000 0.0000 0.0000 0.0000 40.9248
#
#
#
# Elastic Compliance Matrix: (Units=1/GPa)
#
#
# Indices 1 2 3 4 5 6 
#
# 1 0.008097 0.001217 -0.001153 0.000000 0.000000 0.000000
# 2 0.001217 0.006731 -0.009342 0.000000 0.000000 0.000000
# 3 -0.001153 -0.009342 0.056222 0.000000 0.000000 0.000000
# 4 0.000000 0.000000 0.000000 0.024163 0.000000 0.000000
# 5 0.000000 0.000000 0.000000 0.000000 0.041863 0.000000
# 6 0.000000 0.000000 0.000000 0.000000 0.000000 0.024435
#
#
# Mechanical properties :
#
#
# Convention : Reuss Voigt Hill
#
# Bulk Modulus (GPa) = 19.04985 39.95553 29.50269
# Shear Modulus (GPa) = 25.30804 44.08063 34.69434
#
# Velocity S-wave (km/s) = 3.13777 4.14110 3.67385
# Velocity P-wave (km/s) = 4.53194 6.19750 5.42897
#
# Compressibility (1/GPa) = 0.05249385
#
# Stress axis : x y z
#
# Youngs Moduli (GPa) = 123.49642 148.56507 17.78665
#
# Poissons Ratio (x) = -0.18083 0.02051
# Poissons Ratio (y) = -0.15032 0.16617
# Poissons Ratio (z) = 0.14241 1.38794
#
# Static dielectric constant tensor:
#      x y z
#    x 2.081140 0.000000 0.000000 
#    y 0.000000 2.051360 0.000000 
#    z 0.000000 0.000000 2.135600 
# 
# From -- ./inp_files/23706.got.cif
#   From: 2010.05.17/outbox.cif.g08.bks.cpg/sg52_12_cif.got.tgz:23706.got - 2010.06.03 12:15:38.
