data_PCOD9407953
_publ_section_title
;
Structure prediction by ZEFSAII (Michael W. Deem and Ramdas Pophale) SiO2 
 PCOD9407953
Probable space group: P N N A
;
_chemical_formula_sum "Si O2"
_cell_formula_units_Z 56
_cell_length_a 5.801451
_cell_length_b 16.015320
_cell_length_c 32.623340
_cell_angle_alpha 90.000000
_cell_angle_beta 90.000000
_cell_angle_gamma 90.000000
_cell_volume 3031.102840
_symmetry_space_group_name_H-M "P N N A"
_symmetry_group_IT_number 52
_symmetry_cell_setting 'orthorhombic'
loop_
_space_group_symop_operation_xyz
x,y,z
1/2-x,-y,z
x,1/2-y,1/2-z
1/2-x,1/2+y,1/2-z
-x,-y,-z
1/2+x,y,-z
-x,1/2+y,1/2+z
1/2+x,1/2-y,1/2+z
loop_
_atom_site_type_symbol
_atom_site_label
_atom_site_fract_x
_atom_site_fract_y
_atom_site_fract_z
Si Si1 0.605488 0.924724 0.336148
Si Si2 0.505352 0.154310 0.865403
Si Si3 0.223128 0.311932 0.107625
Si Si4 0.239113 0.600241 0.021428
Si Si5 0.750000 0.000000 0.727221
Si Si6 0.100065 0.616451 0.299093
Si Si7 0.383911 0.772718 0.673684
Si Si8 0.250000 0.000000 0.850937
O O1 0.458207 0.872624 0.369086
O O2 0.764472 0.857497 0.312777
O O3 0.750000 0.000000 0.356128
O O4 0.446950 0.967166 0.302465
O O5 0.626747 0.217293 0.896857
O O6 0.685742 0.128216 0.830076
O O7 0.309970 0.213328 0.846027
O O8 0.388422 0.067537 0.877735
O O9 0.280655 0.353404 0.064796
O O10 0.436385 0.300856 0.138699
O O11 0.250000 0.500000 0.026914
O O12 0.495618 0.620368 0.002257
O O13 0.672092 0.925845 0.757106
O O14 0.003429 0.710045 0.294865
O O15 0.919871 0.554222 0.321824
#
# Coordination Sequence:
#
# PCOD9407953 Si02
#       8
#     8   8   8   8   4   8   8   4
#     4  11  25  39  56  81 112 163 211 249 320 370
#     4   9  18  34  58  91 114 158 196 255 314 358
#     4  10  22  41  61  85 127 156 203 255 305 391
#     4  10  24  41  66 101 126 164 211 258 316 373
#     4  12  24  38  56  84 112 161 213 260 322 372
#     4  10  20  37  60  80 118 150 205 270 307 363
#     4   9  21  39  59  83 112 158 203 254 315 363
#     4  10  16  32  62  86 114 153 201 256 308 364
#
# _framework density 18.475124000000001
#
# number of rings (size 3 to 8) (size 9 to 14) (size 15 to 20)
#    0.000    2.000    1.429    0.857    8.000    0.571 
#    0.000   17.143    0.000    0.000    0.000    1.000 
#    0.000    0.000    0.000    0.000    0.000    0.000 
#
# Total GULP energy -312188.020924 kJ/mol
# GULP energy per Si atom -5574.786088 kJ/mol
# Density = 1.843307 g / cm^3
# Si number density = 18.475124 Si / 1000 Ang^3
#
#
#
# Elastic Constant Matrix: (Units=GPa)
#
#
# Indices 1 2 3 4 5 6 
#
# 1 105.9884 63.7837 33.8664 0.0000 0.0000 0.0000
# 2 63.7837 128.5401 43.3490 0.0000 0.0000 0.0000
# 3 33.8664 43.3490 72.9138 0.0000 0.0000 0.0000
# 4 0.0000 0.0000 0.0000 56.6985 0.0000 0.0000
# 5 0.0000 0.0000 0.0000 0.0000 -3.6978 0.0000
# 6 0.0000 0.0000 0.0000 0.0000 0.0000 44.1299
#
#
#
# Elastic Compliance Matrix: (Units=1/GPa)
#
#
# Indices 1 2 3 4 5 6 
#
# 1 0.013943 -0.005922 -0.002955 0.000000 0.000000 0.000000
# 2 -0.005922 0.012246 -0.004530 0.000000 0.000000 0.000000
# 3 -0.002955 -0.004530 0.017781 0.000000 0.000000 0.000000
# 4 0.000000 0.000000 0.000000 0.017637 0.000000 0.000000
# 5 0.000000 0.000000 0.000000 0.000000 -0.270432 0.000000
# 6 0.000000 0.000000 0.000000 0.000000 0.000000 0.022660
#
#
# Mechanical properties :
#
#
# Convention : Reuss Voigt Hill
#
# Bulk Modulus (GPa) = 58.29183 65.49338 61.89261
# Shear Modulus (GPa) = -32.54540 30.52234 -1.01153
#
# Velocity S-wave (km/s) = -4.20167 4.06899 -0.74074
# Velocity P-wave (km/s) = 2.84276 7.58960 5.73076
#
# Compressibility (1/GPa) = 0.01715506
#
# Stress axis : x y z
#
# Youngs Moduli (GPa) = 71.71897 81.65906 56.24106
#
# Poissons Ratio (x) = 0.48360 0.16621
# Poissons Ratio (y) = 0.42474 0.25476
# Poissons Ratio (z) = 0.21196 0.36990
#
# Static dielectric constant tensor:
#      x y z
#    x 1.804490 0.000000 0.000000 
#    y 0.000000 1.644430 0.000000 
#    z 0.000000 0.000000 1.574270 
# 
# From -- ./inp_files/43823.got.cif
#   From: 2010.05.17/outbox.cif.g08.bks.cpg/sg52_22_cif.got.tgz:43823.got - 2010.06.03 12:15:38.
