data_PCOD9407990
_publ_section_title
;
Structure prediction by ZEFSAII (Michael W. Deem and Ramdas Pophale) SiO2 
 PCOD9407990
Probable space group: P N N A
;
_chemical_formula_sum "Si O2"
_cell_formula_units_Z 40
_cell_length_a 27.880014
_cell_length_b 5.147605
_cell_length_c 17.308663
_cell_angle_alpha 90.000000
_cell_angle_beta 90.000000
_cell_angle_gamma 90.000000
_cell_volume 2484.057954
_symmetry_space_group_name_H-M "P N N A"
_symmetry_group_IT_number 52
_symmetry_cell_setting 'orthorhombic'
loop_
_space_group_symop_operation_xyz
x,y,z
1/2-x,-y,z
x,1/2-y,1/2-z
1/2-x,1/2+y,1/2-z
-x,-y,-z
1/2+x,y,-z
-x,1/2+y,1/2+z
1/2+x,1/2-y,1/2+z
loop_
_atom_site_type_symbol
_atom_site_label
_atom_site_fract_x
_atom_site_fract_y
_atom_site_fract_z
Si Si1 0.362133 0.715439 0.120439
Si Si2 0.466784 0.098765 0.570738
Si Si3 0.008404 0.876609 0.146591
Si Si4 0.604764 0.780150 0.951739
Si Si5 0.783189 0.750000 0.750000
Si Si6 0.443467 0.750000 0.250000
O O1 0.359582 0.433505 0.082723
O O2 0.317735 0.778805 0.175652
O O3 0.408408 0.706571 0.177596
O O4 0.372309 0.935932 0.056701
O O5 0.488179 0.366092 0.603404
O O6 0.416011 0.176079 0.532711
O O7 0.500000 0.000000 0.500000
O O8 0.471546 0.860326 0.631133
O O9 0.057901 0.796430 0.104071
O O10 0.024104 0.003670 0.228292
O O11 0.750000 0.500000 0.758625
#
# Coordination Sequence:
#
# PCOD9407990 Si02
#       6
#     8   8   8   8   4   4
#     4  10  20  30  46  60  75 106 135 174 218 251
#     4  10  17  26  38  55  76 101 129 169 215 240
#     4  10  18  25  38  55  78 106 130 170 212 238
#     4  10  17  29  42  58  76  97 137 173 207 254
#     4  11  22  36  48  64  86 104 132 174 224 278
#     4   9  18  28  38  56  80 104 142 170 200 252
#
# _framework density 16.102685999999999
#
# number of rings (size 3 to 8) (size 9 to 14) (size 15 to 20)
#    0.000    2.000    0.000    9.600    0.000   10.400 
#    0.000    0.000    0.000    0.000    0.000    0.000 
#    0.000    0.000    0.000    0.000    0.000    0.000 
#
# Total GULP energy -222889.344088 kJ/mol
# GULP energy per Si atom -5572.233602 kJ/mol
# Density = 1.606604 g / cm^3
# Si number density = 16.102686 Si / 1000 Ang^3
#
#
#
# Elastic Constant Matrix: (Units=GPa)
#
#
# Indices 1 2 3 4 5 6 
#
# 1 47.6686 26.4075 25.4255 0.0000 0.0000 0.0000
# 2 26.4075 132.0111 27.5954 0.0000 0.0000 0.0000
# 3 25.4255 27.5954 38.4737 0.0000 0.0000 0.0000
# 4 0.0000 0.0000 0.0000 31.3244 0.0000 0.0000
# 5 0.0000 0.0000 0.0000 0.0000 14.1430 0.0000
# 6 0.0000 0.0000 0.0000 0.0000 0.0000 24.2894
#
#
#
# Elastic Compliance Matrix: (Units=1/GPa)
#
#
# Indices 1 2 3 4 5 6 
#
# 1 0.033035 -0.002405 -0.020106 0.000000 0.000000 0.000000
# 2 -0.002405 0.009086 -0.004928 0.000000 0.000000 0.000000
# 3 -0.020106 -0.004928 0.042813 0.000000 0.000000 0.000000
# 4 0.000000 0.000000 0.000000 0.031924 0.000000 0.000000
# 5 0.000000 0.000000 0.000000 0.000000 0.070706 0.000000
# 6 0.000000 0.000000 0.000000 0.000000 0.000000 0.041170
#
#
# Mechanical properties :
#
#
# Convention : Reuss Voigt Hill
#
# Bulk Modulus (GPa) = 33.27062 41.89002 37.58032
# Shear Modulus (GPa) = 17.02811 23.19968 20.11390
#
# Velocity S-wave (km/s) = 3.25540 3.79982 3.53810
# Velocity P-wave (km/s) = 5.90225 6.73218 6.33083
#
# Compressibility (1/GPa) = 0.03005655
#
# Stress axis : x y z
#
# Youngs Moduli (GPa) = 30.27106 110.05509 23.35719
#
# Poissons Ratio (x) = 0.26472 0.46962
# Poissons Ratio (y) = 0.07281 0.11510
# Poissons Ratio (z) = 0.60863 0.54231
#
# Static dielectric constant tensor:
#      x y z
#    x 1.516190 0.000000 0.000000 
#    y 0.000000 1.604820 0.000000 
#    z 0.000000 0.000000 1.644700 
# 
# From -- ./inp_files/33964.got.cif
#   From: 2010.05.17/outbox.cif.g08.bks.cpg/sg52_17_cif.got.tgz:33964.got - 2010.06.03 12:15:38.
