data_PCOD9407672
_publ_section_title
;
Structure prediction by ZEFSAII (Michael W. Deem and Ramdas Pophale) SiO2 
 PCOD9407672
Probable space group: P M M A
;
_chemical_formula_sum "Si O2"
_cell_formula_units_Z 64
_cell_length_a 9.000000
_cell_length_b 24.000000
_cell_length_c 15.000000
_cell_angle_alpha 90.000000
_cell_angle_beta 90.000000
_cell_angle_gamma 90.000000
_cell_volume 3240.000000
_symmetry_space_group_name_H-M "P M M A"
_symmetry_group_IT_number 51
_symmetry_cell_setting 'orthorhombic'
loop_
_space_group_symop_operation_xyz
x,y,z
1/2-x,-y,z
1/2+x,-y,-z
-x,y,-z
-x,-y,-z
1/2+x,y,-z
1/2-x,y,z
x,-y,z
loop_
_atom_site_type_symbol
_atom_site_label
_atom_site_fract_x
_atom_site_fract_y
_atom_site_fract_z
Si Si1 0.572288 0.848814 0.780082
Si Si2 0.582182 0.270715 0.585407
Si Si3 0.426349 0.564180 0.404563
Si Si4 0.085273 0.137500 0.415815
Si Si5 0.923887 0.062337 0.095828
Si Si6 0.424961 0.614743 0.761179
Si Si7 0.914611 0.565238 0.916495
Si Si8 0.575899 0.735342 0.228237
O O1 0.750000 0.847322 0.774858
O O2 0.513517 0.865307 0.681555
O O3 0.511379 0.893626 0.846778
O O4 0.515757 0.787577 0.805764
O O5 0.500000 0.295401 0.500000
O O6 0.750000 0.292250 0.600282
O O7 0.599475 0.204207 0.569691
O O8 0.474988 0.272972 0.669642
O O9 0.500000 0.573003 0.500000
O O10 0.250000 0.569176 0.411350
O O11 0.460928 0.500000 0.377600
O O12 0.490078 0.605257 0.330788
O O13 0.250000 0.113254 0.412002
O O14 0.000000 0.113922 0.500000
O O15 0.750000 0.076336 0.088373
O O16 0.935571 0.000000 0.134279
O O17 0.000000 0.061372 0.000000
O O18 0.250000 0.610953 0.744923
O O19 0.485931 0.570216 0.829630
O O20 0.454919 0.674108 0.808766
O O21 0.750000 0.589089 0.901932
O O22 0.896356 0.500000 0.935362
O O23 0.000000 0.591115 0.000000
O O24 0.750000 0.747513 0.222399
#
# Coordination Sequence:
#
# PCOD9407672 Si02
#       8
#     8   8   8   8   8   8   8   8
#     4  10  20  35  56  82 113 149 187 229 278 328
#     4   9  16  27  44  66  94 132 178 225 270 312
#     4  10  21  37  57  81 110 147 192 241 293 348
#     4   8  15  26  43  70 101 135 176 218 259 304
#     4  10  21  38  62  91 119 147 182 227 278 331
#     4  11  23  37  55  80 111 147 185 228 278 332
#     4  10  21  38  61  86 108 132 167 215 271 328
#     4  10  21  35  50  73 107 146 187 227 271 328
#
# _framework density 19.753086
#
# number of rings (size 3 to 8) (size 9 to 14) (size 15 to 20)
#    0.000    2.250    0.000    3.750    0.000    9.750 
#    0.000    0.625    0.000    3.375    0.000    0.000 
#    0.000    0.000    0.000    0.000    0.000    0.000 
#
# Total GULP energy -356556.027028 kJ/mol
# GULP energy per Si atom -5571.187922 kJ/mol
# Density = 1.970813 g / cm^3
# Si number density = 19.753086 Si / 1000 Ang^3
#
#
#
# Elastic Constant Matrix: (Units=GPa)
#
#
# Indices 1 2 3 4 5 6 
#
# 1 60.2787 47.6871 32.3585 0.0000 0.0000 0.0000
# 2 47.6871 66.6789 39.4977 0.0000 0.0000 0.0000
# 3 32.3585 39.4977 50.0263 0.0000 0.0000 0.0000
# 4 0.0000 0.0000 0.0000 18.5733 0.0000 0.0000
# 5 0.0000 0.0000 0.0000 0.0000 18.4815 0.0000
# 6 0.0000 0.0000 0.0000 0.0000 0.0000 355.5779
#
#
#
# Elastic Compliance Matrix: (Units=1/GPa)
#
#
# Indices 1 2 3 4 5 6 
#
# 1 0.039155 -0.024422 -0.006044 0.000000 0.000000 0.000000
# 2 -0.024422 0.043407 -0.018474 0.000000 0.000000 0.000000
# 3 -0.006044 -0.018474 0.038485 0.000000 0.000000 0.000000
# 4 0.000000 0.000000 0.000000 0.053841 0.000000 0.000000
# 5 0.000000 0.000000 0.000000 0.000000 0.054108 0.000000
# 6 0.000000 0.000000 0.000000 0.000000 0.000000 0.002812
#
#
# Mechanical properties :
#
#
# Convention : Reuss Voigt Hill
#
# Bulk Modulus (GPa) = 43.16790 46.23005 44.69898
# Shear Modulus (GPa) = 14.81867 82.35591 48.58729
#
# Velocity S-wave (km/s) = 2.74194 6.46399 4.96495
# Velocity P-wave (km/s) = 5.65027 8.89751 7.45289
#
# Compressibility (1/GPa) = 0.02316536
#
# Stress axis : x y z
#
# Youngs Moduli (GPa) = 25.53947 23.03780 25.98395
#
# Poissons Ratio (x) = 0.56264 0.15705
# Poissons Ratio (y) = 0.62373 0.48004
# Poissons Ratio (z) = 0.15437 0.42561
#
# Static dielectric constant tensor:
#      x y z
#    x 1.717200 0.000000 0.000000 
#    y 0.000000 1.749580 0.000000 
#    z 0.000000 0.000000 1.664270 
# 
# From -- ./inp_files/22222.got.cif
#   From: 2010.05.17/outbox.ucp.g08.bks.cvg/sg51_12_cif.got.tgz:22222.got - 2010.06.11 16:27:58.
