data_PCOD9407705
_publ_section_title
;
Structure prediction by ZEFSAII (Michael W. Deem and Ramdas Pophale) SiO2 
 PCOD9407705
Probable space group: P M M A
;
_chemical_formula_sum "Si O2"
_cell_formula_units_Z 48
_cell_length_a 18.000000
_cell_length_b 15.000000
_cell_length_c 9.000000
_cell_angle_alpha 90.000000
_cell_angle_beta 90.000000
_cell_angle_gamma 90.000000
_cell_volume 2430.000000
_symmetry_space_group_name_H-M "P M M A"
_symmetry_group_IT_number 51
_symmetry_cell_setting 'orthorhombic'
loop_
_space_group_symop_operation_xyz
x,y,z
1/2-x,-y,z
1/2+x,-y,-z
-x,y,-z
-x,-y,-z
1/2+x,y,-z
1/2-x,y,z
x,-y,z
loop_
_atom_site_type_symbol
_atom_site_label
_atom_site_fract_x
_atom_site_fract_y
_atom_site_fract_z
Si Si1 0.835298 0.755255 0.179884
Si Si2 0.436361 0.099754 0.879888
Si Si3 0.087619 0.603421 0.981429
Si Si4 0.454226 0.099463 0.350758
Si Si5 0.160497 0.399307 0.296698
Si Si6 0.335829 0.770950 0.470157
O O1 0.750000 0.739046 0.143330
O O2 0.868706 0.836721 0.085156
O O3 0.840584 0.780732 0.352977
O O4 0.881300 0.667755 0.143376
O O5 0.485308 0.145742 0.752567
O O6 0.411623 0.000000 0.835341
O O7 0.500000 0.091493 0.000000
O O8 0.103586 0.500000 0.949046
O O9 0.126981 0.625979 0.137435
O O10 0.000000 0.614727 0.000000
O O11 0.500000 0.088689 0.500000
O O12 0.383016 0.156501 0.383796
O O13 0.436474 0.000000 0.291700
O O14 0.250000 0.400200 0.285829
O O15 0.135842 0.500000 0.331931
O O16 0.138874 0.326942 0.418889
O O17 0.250000 0.780330 0.428876
#
# Coordination Sequence:
#
# PCOD9407705 Si02
#       6
#     8   8   8   8   8   8
#     4  11  23  37  57  86 117 150 187 233 287 337
#     4  10  22  40  60  84 114 150 191 234 282 338
#     4  10  22  39  59  84 112 147 192 235 279 336
#     4  10  20  37  59  81 110 151 190 228 282 339
#     4   9  19  37  58  80 111 150 186 226 282 339
#     4  10  22  36  55  86 116 148 191 237 283 335
#
# _framework density 19.753086
#
# number of rings (size 3 to 8) (size 9 to 14) (size 15 to 20)
#    0.000    2.000    1.667    1.000    4.667    2.333 
#    0.000    3.333    0.000    6.500    0.000    0.000 
#    0.000    0.000    0.000    0.000    0.000    0.000 
#
# Total GULP energy -267318.213152 kJ/mol
# GULP energy per Si atom -5569.129441 kJ/mol
# Density = 1.970813 g / cm^3
# Si number density = 19.753086 Si / 1000 Ang^3
#
#
#
# Elastic Constant Matrix: (Units=GPa)
#
#
# Indices 1 2 3 4 5 6 
#
# 1 28.7313 44.9383 10.1890 0.0000 0.0000 0.0000
# 2 44.9383 56.7927 8.1143 0.0000 0.0000 0.0000
# 3 10.1890 8.1143 9.1451 0.0000 0.0000 0.0000
# 4 0.0000 0.0000 0.0000 88.9606 0.0000 0.0000
# 5 0.0000 0.0000 0.0000 0.0000 15.2302 0.0000
# 6 0.0000 0.0000 0.0000 0.0000 0.0000 384.0613
#
#
#
# Elastic Compliance Matrix: (Units=1/GPa)
#
#
# Indices 1 2 3 4 5 6 
#
# 1 -0.116207 0.084116 0.054837 0.000000 0.000000 0.000000
# 2 0.084116 -0.040723 -0.057585 0.000000 0.000000 0.000000
# 3 0.054837 -0.057585 0.099346 0.000000 0.000000 0.000000
# 4 0.000000 0.000000 0.000000 0.011241 0.000000 0.000000
# 5 0.000000 0.000000 0.000000 0.000000 0.065659 0.000000
# 6 0.000000 0.000000 0.000000 0.000000 0.000000 0.002604
#
#
# Mechanical properties :
#
#
# Convention : Reuss Voigt Hill
#
# Bulk Modulus (GPa) = 9.51001 24.57248 17.04124
# Shear Modulus (GPa) = -47.27453 99.74559 26.23553
#
# Velocity S-wave (km/s) = -4.89742 7.11378 3.64837
# Velocity P-wave (km/s) = 5.21102 8.94099 5.13744
#
# Compressibility (1/GPa) = 0.10515237
#
# Stress axis : x y z
#
# Youngs Moduli (GPa) = -8.60536 -24.55623 10.06584
#
# Poissons Ratio (x) = 2.06557 -0.55199
# Poissons Ratio (y) = 0.72385 0.57964
# Poissons Ratio (z) = 0.47190 -1.41408
#
# Static dielectric constant tensor:
#      x y z
#    x 1.734660 0.000000 0.000000 
#    y 0.000000 1.841570 0.000000 
#    z 0.000000 0.000000 1.702950 
# 
# From -- ./inp_files/9557.got.cif
#   From: 2010.05.17/outbox.ucp.g08.bks.cvg/sg51_5_cif.got.tgz:9557.got - 2010.06.11 16:27:58.
