data_PCOD9407493
_publ_section_title
;
Structure prediction by ZEFSAII (Michael W. Deem and Ramdas Pophale) SiO2 
 PCOD9407493
Probable space group: P M M A
;
_chemical_formula_sum "Si O2"
_cell_formula_units_Z 56
_cell_length_a 9.000000
_cell_length_b 15.000000
_cell_length_c 21.000000
_cell_angle_alpha 90.000000
_cell_angle_beta 90.000000
_cell_angle_gamma 90.000000
_cell_volume 2835.000000
_symmetry_space_group_name_H-M "P M M A"
_symmetry_group_IT_number 51
_symmetry_cell_setting 'orthorhombic'
loop_
_space_group_symop_operation_xyz
x,y,z
1/2-x,-y,z
1/2+x,-y,-z
-x,y,-z
-x,-y,-z
1/2+x,y,-z
1/2-x,y,z
x,-y,z
loop_
_atom_site_type_symbol
_atom_site_label
_atom_site_fract_x
_atom_site_fract_y
_atom_site_fract_z
Si Si1 0.927956 0.396898 0.062220
Si Si2 0.076031 0.401698 0.276534
Si Si3 0.914646 0.402880 0.404124
Si Si4 0.571399 0.284099 0.179040
Si Si5 0.428807 0.094059 0.808965
Si Si6 0.420203 0.203740 0.562073
Si Si7 0.423055 0.898833 0.328466
O O1 0.750000 0.390602 0.058509
O O2 0.969799 0.500000 0.065074
O O3 0.981314 0.351094 0.125647
O O4 0.000000 0.355611 0.000000
O O5 0.250000 0.395300 0.264635
O O6 0.022732 0.500000 0.253407
O O7 0.040127 0.400071 0.350954
O O8 0.993128 0.320027 0.244398
O O9 0.750000 0.401058 0.372150
O O10 0.922560 0.500000 0.436635
O O11 0.920961 0.311290 0.441660
O O12 0.750000 0.286521 0.182936
O O13 0.522935 0.185495 0.159773
O O14 0.250000 0.093114 0.808428
O O15 0.486649 0.100899 0.737004
O O16 0.482040 0.000000 0.836194
O O17 0.500000 0.166831 0.500000
O O18 0.250000 0.174459 0.566306
O O19 0.508388 0.171009 0.623272
O O20 0.250000 0.880266 0.315905
O O21 0.433988 0.000000 0.354905
#
# Coordination Sequence:
#
# PCOD9407493 Si02
#       7
#     8   8   8   8   8   8   8
#     4   9  18  32  49  70  98 133 172 210 246 287
#     4  10  20  31  46  73 104 130 159 199 247 295
#     4   9  19  36  54  71  96 131 166 199 241 295
#     4  10  19  31  50  74 100 133 169 204 246 294
#     4   9  18  33  53  77 103 130 162 201 245 295
#     4  11  23  37  54  75  98 127 164 205 247 293
#     4  10  21  37  56  77 102 131 161 198 248 301
#
# _framework density 19.753086
#
# number of rings (size 3 to 8) (size 9 to 14) (size 15 to 20)
#    0.000    2.286    0.000    2.571    0.000    8.571 
#    0.000    1.429    0.000    0.429    0.000    0.000 
#    0.000    0.000    0.000    0.000    0.000    0.000 
#
# Total GULP energy -311831.433308 kJ/mol
# GULP energy per Si atom -5568.418452 kJ/mol
# Density = 1.970813 g / cm^3
# Si number density = 19.753086 Si / 1000 Ang^3
#
#
#
# Elastic Constant Matrix: (Units=GPa)
#
#
# Indices 1 2 3 4 5 6 
#
# 1 -23.6110 33.0537 1.2487 0.0000 0.0000 0.0000
# 2 33.0537 59.8567 6.9440 0.0000 0.0000 0.0000
# 3 1.2487 6.9440 22.3003 0.0000 0.0000 0.0000
# 4 0.0000 0.0000 0.0000 -15.3158 0.0000 0.0000
# 5 0.0000 0.0000 0.0000 0.0000 16.5936 0.0000
# 6 0.0000 0.0000 0.0000 0.0000 0.0000 89.0368
#
#
#
# Elastic Compliance Matrix: (Units=1/GPa)
#
#
# Indices 1 2 3 4 5 6 
#
# 1 -0.023711 0.013424 -0.002853 0.000000 0.000000 0.000000
# 2 0.013424 0.009732 -0.003782 0.000000 0.000000 0.000000
# 3 -0.002853 -0.003782 0.046180 0.000000 0.000000 0.000000
# 4 0.000000 0.000000 0.000000 -0.065292 0.000000 0.000000
# 5 0.000000 0.000000 0.000000 0.000000 0.060264 0.000000
# 6 0.000000 0.000000 0.000000 0.000000 0.000000 0.011231
#
#
# Mechanical properties :
#
#
# Convention : Reuss Voigt Hill
#
# Bulk Modulus (GPa) = 21.84325 15.67097 18.75711
# Shear Modulus (GPa) = 124.73251 19.21622 71.97436
#
# Velocity S-wave (km/s) = 7.95506 3.12239 6.04286
# Velocity P-wave (km/s) = 9.77033 4.57709 7.62919
#
# Compressibility (1/GPa) = 0.04578073
#
# Stress axis : x y z
#
# Youngs Moduli (GPa) = -42.17490 102.75152 21.65441
#
# Poissons Ratio (x) = -1.37937 0.06177
# Poissons Ratio (y) = 0.56617 0.08190
# Poissons Ratio (z) = -0.12031 0.38862
#
# Static dielectric constant tensor:
#      x y z
#    x 1.682600 0.000000 0.000000 
#    y 0.000000 1.771430 0.000000 
#    z 0.000000 0.000000 1.656880 
# 
# From -- ./inp_files/31863.got.cif
#   From: 2010.05.17/outbox.ucp.g08.bks.cvg/sg51_16_cif.got.tgz:31863.got - 2010.06.11 16:27:58.
