data_PCOD9407074
_publ_section_title
;
Structure prediction by ZEFSAII (Michael W. Deem and Ramdas Pophale) SiO2 
 PCOD9407074
Probable space group: P M M A
;
_chemical_formula_sum "Si O2"
_cell_formula_units_Z 56
_cell_length_a 8.628550
_cell_length_b 14.898442
_cell_length_c 23.949954
_cell_angle_alpha 90.000000
_cell_angle_beta 90.000000
_cell_angle_gamma 90.000000
_cell_volume 3078.813330
_symmetry_space_group_name_H-M "P M M A"
_symmetry_group_IT_number 51
_symmetry_cell_setting 'orthorhombic'
loop_
_space_group_symop_operation_xyz
x,y,z
1/2-x,-y,z
1/2+x,-y,-z
-x,y,-z
-x,-y,-z
1/2+x,y,-z
1/2-x,y,z
x,-y,z
loop_
_atom_site_type_symbol
_atom_site_label
_atom_site_fract_x
_atom_site_fract_y
_atom_site_fract_z
Si Si1 0.564913 0.897307 0.227423
Si Si2 0.928399 0.396566 0.238383
Si Si3 0.433299 0.355713 0.356625
Si Si4 0.062289 0.601795 0.062581
Si Si5 0.434457 0.000000 0.563358
Si Si6 0.432909 0.855528 0.351098
Si Si7 0.564598 0.500000 0.438385
Si Si8 0.430773 0.738697 0.156173
O O1 0.750000 0.891965 0.231830
O O2 0.497136 0.873956 0.288705
O O3 0.510155 0.828137 0.179825
O O4 0.520581 0.000000 0.214263
O O5 0.750000 0.368162 0.228570
O O6 0.943949 0.500000 0.221667
O O7 0.970741 0.387088 0.302883
O O8 0.044499 0.333531 0.205232
O O9 0.250000 0.373227 0.348097
O O10 0.454360 0.249526 0.363521
O O11 0.496874 0.413064 0.407425
O O12 0.250000 0.603556 0.062505
O O13 0.016264 0.500000 0.081181
O O14 0.008274 0.683094 0.102433
O O15 0.000000 0.613035 0.000000
O O16 0.500000 0.000000 0.500000
O O17 0.489164 0.084378 0.601066
O O18 0.250000 0.000000 0.559604
O O19 0.250000 0.875735 0.350537
O O20 0.750000 0.500000 0.436268
O O21 0.500000 0.500000 0.500000
O O22 0.250000 0.757761 0.147570
#
# Coordination Sequence:
#
# PCOD9407074 Si02
#       8
#     8   8   8   8   4   8   4   8
#     4  11  23  38  59  87 119 155 196 245 301 358
#     4  11  22  34  53  83 118 154 192 236 287 343
#     4  11  23  39  61  86 114 150 190 236 292 348
#     4   9  19  36  58  86 122 164 206 247 294 349
#     4  12  26  44  66  90 118 152 191 242 299 360
#     4  11  23  40  64  90 117 151 192 239 298 360
#     4  12  26  44  64  84 112 152 197 242 289 350
#     4  11  22  36  57  87 121 158 199 246 297 355
#
# _framework density 18.188825999999999
#
# number of rings (size 3 to 8) (size 9 to 14) (size 15 to 20)
#    0.000    1.143    2.857    3.857    0.000    5.714 
#    0.000    1.429    0.000    0.429    0.000    0.000 
#    0.000    0.000    0.000    0.000    0.000    0.000 
#
# Total GULP energy -312809.930636 kJ/mol
# GULP energy per Si atom -5585.891618 kJ/mol
# Density = 1.814743 g / cm^3
# Si number density = 18.188826 Si / 1000 Ang^3
#
#
#
# Elastic Constant Matrix: (Units=GPa)
#
#
# Indices 1 2 3 4 5 6 
#
# 1 67.0996 50.9214 22.7676 0.0000 0.0000 0.0000
# 2 50.9214 134.0312 65.3848 0.0000 0.0000 0.0000
# 3 22.7676 65.3848 117.8061 0.0000 0.0000 0.0000
# 4 0.0000 0.0000 0.0000 49.2072 0.0000 0.0000
# 5 0.0000 0.0000 0.0000 0.0000 30.0770 0.0000
# 6 0.0000 0.0000 0.0000 0.0000 0.0000 24.5047
#
#
#
# Elastic Compliance Matrix: (Units=1/GPa)
#
#
# Indices 1 2 3 4 5 6 
#
# 1 0.020963 -0.008211 0.000506 0.000000 0.000000 0.000000
# 2 -0.008211 0.013447 -0.005877 0.000000 0.000000 0.000000
# 3 0.000506 -0.005877 0.011652 0.000000 0.000000 0.000000
# 4 0.000000 0.000000 0.000000 0.020322 0.000000 0.000000
# 5 0.000000 0.000000 0.000000 0.000000 0.033248 0.000000
# 6 0.000000 0.000000 0.000000 0.000000 0.000000 0.040808
#
#
# Mechanical properties :
#
#
# Convention : Reuss Voigt Hill
#
# Bulk Modulus (GPa) = 52.91267 66.34272 59.62770
# Shear Modulus (GPa) = 28.75143 32.74868 30.75005
#
# Velocity S-wave (km/s) = 3.98014 4.24781 4.11615
# Velocity P-wave (km/s) = 7.09055 7.78538 7.44608
#
# Compressibility (1/GPa) = 0.01889907
#
# Stress axis : x y z
#
# Youngs Moduli (GPa) = 47.70345 74.36417 85.81922
#
# Poissons Ratio (x) = 0.61061 -0.04342
# Poissons Ratio (y) = 0.39170 0.50433
# Poissons Ratio (z) = -0.02414 0.43701
#
# Static dielectric constant tensor:
#      x y z
#    x 1.623190 0.000000 0.000000 
#    y 0.000000 1.634080 0.000000 
#    z 0.000000 0.000000 1.593370 
# 
# From -- ./inp_files/32085.got.cif
#   From: 2010.05.17/outbox.cif.g08.bks.cpg/sg51_17_cif.got.tgz:32085.got - 2010.06.03 11:52:47.
