data_PCOD9407909
_publ_section_title
;
Structure prediction by ZEFSAII (Michael W. Deem and Ramdas Pophale) SiO2 
 PCOD9407909
Probable space group: P N N A
;
_chemical_formula_sum "Si O2"
_cell_formula_units_Z 36
_cell_length_a 8.938549
_cell_length_b 7.608577
_cell_length_c 19.589311
_cell_angle_alpha 90.000000
_cell_angle_beta 90.000000
_cell_angle_gamma 90.000000
_cell_volume 1332.261956
_symmetry_space_group_name_H-M "P N N A"
_symmetry_group_IT_number 52
_symmetry_cell_setting 'orthorhombic'
loop_
_space_group_symop_operation_xyz
x,y,z
1/2-x,-y,z
x,1/2-y,1/2-z
1/2-x,1/2+y,1/2-z
-x,-y,-z
1/2+x,y,-z
-x,1/2+y,1/2+z
1/2+x,1/2-y,1/2+z
loop_
_atom_site_type_symbol
_atom_site_label
_atom_site_fract_x
_atom_site_fract_y
_atom_site_fract_z
Si Si1 0.259048 0.750596 0.638087
Si Si2 0.490335 0.748346 0.049124
Si Si3 0.994962 0.250000 0.250000
Si Si4 0.543554 0.620071 0.600626
Si Si5 0.555276 0.960537 0.655748
O O1 0.167529 0.761683 0.567698
O O2 0.123017 0.730054 0.689312
O O3 0.383028 0.598653 0.637078
O O4 0.378535 0.905865 0.655647
O O5 0.421806 0.581927 0.088573
O O6 0.410865 0.925240 0.079078
O O7 0.495374 0.776441 0.968511
O O8 0.083662 0.078300 0.277004
O O9 0.628006 0.767251 0.645658
#
# Coordination Sequence:
#
# PCOD9407909 Si02
#       5
#     8   8   4   8   8
#     4   9  20  31  45  71  95 132 161 194 247 298
#     4  10  16  32  47  60  97 129 157 204 234 286
#     4  10  16  30  46  62 100 130 156 188 242 298
#     4   9  20  29  45  69  90 130 164 192 244 291
#     4   9  20  31  43  68  95 130 160 196 238 295
#
# _framework density 27.021712000000001
#
# number of rings (size 3 to 8) (size 9 to 14) (size 15 to 20)
#    1.333    1.333    0.000    4.000    0.000    7.111 
#    0.000    0.000    0.000    0.000    0.000    0.000 
#    0.000    7.111   74.667    0.444   17.778    2.667 
#
# Total GULP energy -200411.307514 kJ/mol
# GULP energy per Si atom -5566.980764 kJ/mol
# Density = 2.696021 g / cm^3
# Si number density = 27.021712 Si / 1000 Ang^3
#
#
#
# Elastic Constant Matrix: (Units=GPa)
#
#
# Indices 1 2 3 4 5 6 
#
# 1 92.1108 6.6128 3.5809 0.0000 0.0000 0.0000
# 2 6.6128 202.2551 66.6556 0.0000 0.0000 0.0000
# 3 3.5809 66.6556 57.6782 0.0000 0.0000 0.0000
# 4 0.0000 0.0000 0.0000 26.6703 0.0000 0.0000
# 5 0.0000 0.0000 0.0000 0.0000 4.3060 0.0000
# 6 0.0000 0.0000 0.0000 0.0000 0.0000 21.3983
#
#
#
# Elastic Compliance Matrix: (Units=1/GPa)
#
#
# Indices 1 2 3 4 5 6 
#
# 1 0.010889 -0.000215 -0.000427 0.000000 0.000000 0.000000
# 2 -0.000215 0.007990 -0.009220 0.000000 0.000000 0.000000
# 3 -0.000427 -0.009220 0.028019 0.000000 0.000000 0.000000
# 4 0.000000 0.000000 0.000000 0.037495 0.000000 0.000000
# 5 0.000000 0.000000 0.000000 0.000000 0.232235 0.000000
# 6 0.000000 0.000000 0.000000 0.000000 0.000000 0.046733
#
#
# Mechanical properties :
#
#
# Convention : Reuss Voigt Hill
#
# Bulk Modulus (GPa) = 36.80198 56.19364 46.49781
# Shear Modulus (GPa) = 12.75044 28.82126 20.78585
#
# Velocity S-wave (km/s) = 2.17459 3.26942 2.77650
# Velocity P-wave (km/s) = 4.46700 5.92394 5.24629
#
# Compressibility (1/GPa) = 0.02717245
#
# Stress axis : x y z
#
# Youngs Moduli (GPa) = 91.83956 125.15814 35.68968
#
# Poissons Ratio (x) = 0.02693 0.01525
# Poissons Ratio (y) = 0.01976 0.32906
# Poissons Ratio (z) = 0.03925 1.15397
#
# Static dielectric constant tensor:
#      x y z
#    x 2.139330 0.000000 0.000000 
#    y 0.000000 2.335120 0.000000 
#    z 0.000000 0.000000 2.382580 
# 
# From -- ./inp_files/32810.got.cif
#   From: 2010.05.17/outbox.cif.g08.bks.cpg/sg52_17_cif.got.tgz:32810.got - 2010.06.03 12:15:38.
