data_PCOD9407744
_publ_section_title
;
Structure prediction by ZEFSAII (Michael W. Deem and Ramdas Pophale) SiO2 
 PCOD9407744
Probable space group: P M M A
;
_chemical_formula_sum "Si O2"
_cell_formula_units_Z 48
_cell_length_a 9.000000
_cell_length_b 18.000000
_cell_length_c 15.000000
_cell_angle_alpha 90.000000
_cell_angle_beta 90.000000
_cell_angle_gamma 90.000000
_cell_volume 2430.000000
_symmetry_space_group_name_H-M "P M M A"
_symmetry_group_IT_number 51
_symmetry_cell_setting 'orthorhombic'
loop_
_space_group_symop_operation_xyz
x,y,z
1/2-x,-y,z
1/2+x,-y,-z
-x,y,-z
-x,-y,-z
1/2+x,y,-z
1/2-x,y,z
x,-y,z
loop_
_atom_site_type_symbol
_atom_site_label
_atom_site_fract_x
_atom_site_fract_y
_atom_site_fract_z
Si Si1 0.423709 0.152816 0.650968
Si Si2 0.929177 0.413635 0.245892
Si Si3 0.072517 0.000000 0.403144
Si Si4 0.571732 0.311864 0.411928
Si Si5 0.425985 0.000000 0.094739
Si Si6 0.423405 0.681016 0.091081
Si Si7 0.575176 0.161111 0.826795
O O1 0.250000 0.138705 0.632941
O O2 0.514101 0.076714 0.638892
O O3 0.476635 0.225538 0.598093
O O4 0.456111 0.177764 0.751020
O O5 0.750000 0.412551 0.239278
O O6 0.975451 0.500000 0.249598
O O7 0.972018 0.365283 0.331837
O O8 0.999080 0.367718 0.165937
O O9 0.000000 0.000000 0.500000
O O10 0.250000 0.000000 0.404453
O O11 0.500000 0.342946 0.500000
O O12 0.750000 0.309874 0.416176
O O13 0.462121 0.921872 0.140922
O O14 0.250000 0.000000 0.084612
O O15 0.500000 0.000000 0.000000
O O16 0.250000 0.664372 0.090511
O O17 0.437422 0.770114 0.106308
O O18 0.500000 0.661207 0.000000
O O19 0.750000 0.160300 0.796527
#
# Coordination Sequence:
#
# PCOD9407744 Si02
#       7
#     8   8   4   8   4   8   8
#     4  11  22  38  61  88 119 160 208 253 306 363
#     4  10  22  43  67  91 123 161 202 254 314 373
#     4  12  25  40  57  83 121 161 209 259 306 361
#     4  10  22  39  62  93 125 161 203 250 304 368
#     4  10  21  36  53  79 115 153 199 245 296 351
#     4  11  23  39  63  93 126 165 210 256 311 370
#     4  10  21  37  58  86 120 161 203 251 304 361
#
# _framework density 19.753086
#
# number of rings (size 3 to 8) (size 9 to 14) (size 15 to 20)
#    0.000    1.500    1.667    3.250    0.000    6.333 
#    0.000    0.000    0.000    0.000    0.000    0.000 
#    0.000    0.000    0.000    0.000    0.000    0.000 
#
# Total GULP energy -267690.636152 kJ/mol
# GULP energy per Si atom -5576.888253 kJ/mol
# Density = 1.970813 g / cm^3
# Si number density = 19.753086 Si / 1000 Ang^3
#
#
#
# Elastic Constant Matrix: (Units=GPa)
#
#
# Indices 1 2 3 4 5 6 
#
# 1 13.8123 45.1581 42.0403 0.0000 0.0000 0.0000
# 2 45.1581 140.4276 67.0920 0.0000 0.0000 0.0000
# 3 42.0403 67.0920 137.8788 0.0000 0.0000 0.0000
# 4 0.0000 0.0000 0.0000 237.9064 0.0000 0.0000
# 5 0.0000 0.0000 0.0000 0.0000 28.8440 0.0000
# 6 0.0000 0.0000 0.0000 0.0000 0.0000 24.9850
#
#
#
# Elastic Compliance Matrix: (Units=1/GPa)
#
#
# Indices 1 2 3 4 5 6 
#
# 1 -0.214264 0.049105 0.041436 0.000000 0.000000 0.000000
# 2 0.049105 -0.001976 -0.014011 0.000000 0.000000 0.000000
# 3 0.041436 -0.014011 0.001436 0.000000 0.000000 0.000000
# 4 0.000000 0.000000 0.000000 0.004203 0.000000 0.000000
# 5 0.000000 0.000000 0.000000 0.000000 0.034669 0.000000
# 6 0.000000 0.000000 0.000000 0.000000 0.000000 0.040024
#
#
# Mechanical properties :
#
#
# Convention : Reuss Voigt Hill
#
# Bulk Modulus (GPa) = -16.19612 66.74440 25.27414
# Shear Modulus (GPa) = -16.15255 67.53562 25.69154
#
# Velocity S-wave (km/s) = -2.86269 5.85356 3.61034
# Velocity P-wave (km/s) = 4.37535 8.91898 5.49566
#
# Compressibility (1/GPa) = -0.06174317
#
# Stress axis : x y z
#
# Youngs Moduli (GPa) = -4.66713 -506.09219 696.16846
#
# Poissons Ratio (x) = 24.85185 -28.84643
# Poissons Ratio (y) = 0.22918 9.75409
# Poissons Ratio (z) = 0.19339 -7.09091
#
# Static dielectric constant tensor:
#      x y z
#    x 1.673180 0.000000 0.000000 
#    y 0.000000 1.749510 0.000000 
#    z 0.000000 0.000000 1.823010 
# 
# From -- ./inp_files/21196.got.cif
#   From: 2010.05.17/outbox.ucp.g08.bks.cvg/sg51_11_cif.got.tgz:21196.got - 2010.06.11 16:27:58.
