data_PCOD9407392
_publ_section_title
;
Structure prediction by ZEFSAII (Michael W. Deem and Ramdas Pophale) SiO2 
 PCOD9407392
Probable space group: P M M A
;
_chemical_formula_sum "Si O2"
_cell_formula_units_Z 48
_cell_length_a 9.691668
_cell_length_b 7.475152
_cell_length_c 31.847218
_cell_angle_alpha 90.000000
_cell_angle_beta 90.000000
_cell_angle_gamma 90.000000
_cell_volume 2307.225575
_symmetry_space_group_name_H-M "P M M A"
_symmetry_group_IT_number 51
_symmetry_cell_setting 'orthorhombic'
loop_
_space_group_symop_operation_xyz
x,y,z
1/2-x,-y,z
1/2+x,-y,-z
-x,y,-z
-x,-y,-z
1/2+x,y,-z
1/2-x,y,z
x,-y,z
loop_
_atom_site_type_symbol
_atom_site_label
_atom_site_fract_x
_atom_site_fract_y
_atom_site_fract_z
Si Si1 0.092518 0.786268 0.367920
Si Si2 0.593291 0.285494 0.537924
Si Si3 0.907092 0.286168 0.882797
Si Si4 0.906813 0.214155 0.787123
Si Si5 0.591184 0.718752 0.040008
Si Si6 0.091573 0.219306 0.709764
O O1 0.250000 0.716234 0.364507
O O2 0.040902 0.751316 0.415092
O O3 0.992966 0.720856 0.331246
O O4 0.100751 0.000000 0.363006
O O5 0.500000 0.216659 0.500000
O O6 0.750000 0.215985 0.535510
O O7 0.599713 0.500000 0.533742
O O8 0.750000 0.216749 0.888273
O O9 0.899713 0.500000 0.887964
O O10 0.950175 0.251397 0.834889
O O11 0.013360 0.220791 0.917769
O O12 0.750000 0.283165 0.781621
O O13 0.010392 0.278763 0.751430
O O14 0.900069 0.000000 0.782641
O O15 0.750000 0.777287 0.037504
O O16 0.593554 0.500000 0.040124
O O17 0.500000 0.772801 0.000000
O O18 0.250000 0.276892 0.709246
O O19 0.092255 0.000000 0.709698
#
# Coordination Sequence:
#
# PCOD9407392 Si02
#       6
#     8   8   8   8   8   8
#     4   9  17  30  48  68  89 114 146 183 220 258
#     4   9  18  32  48  66  90 120 150 179 215 261
#     4   9  17  29  45  66  91 116 144 181 222 261
#     4   9  17  30  48  67  88 118 152 181 214 262
#     4   9  16  26  42  64  89 117 148 182 221 264
#     4   9  17  29  46  68  91 115 146 184 222 259
#
# _framework density 20.804206000000001
#
# number of rings (size 3 to 8) (size 9 to 14) (size 15 to 20)
#    0.000    3.000    0.000    1.000    0.000    5.667 
#    0.000    0.833    0.000    5.500    0.000    0.000 
#    0.000    0.000    0.000    0.000    0.000    0.000 
#
# Total GULP energy -267897.126495 kJ/mol
# GULP energy per Si atom -5581.190135 kJ/mol
# Density = 2.075685 g / cm^3
# Si number density = 20.804206 Si / 1000 Ang^3
#
#
#
# Elastic Constant Matrix: (Units=GPa)
#
#
# Indices 1 2 3 4 5 6 
#
# 1 155.1736 5.9057 155.8552 0.0000 0.0000 0.0000
# 2 5.9057 59.1303 -1.0943 0.0000 0.0000 0.0000
# 3 155.8552 -1.0943 233.0568 0.0000 0.0000 0.0000
# 4 0.0000 0.0000 0.0000 19.4047 0.0000 0.0000
# 5 0.0000 0.0000 0.0000 0.0000 35.8289 0.0000
# 6 0.0000 0.0000 0.0000 0.0000 0.0000 0.6372
#
#
#
# Elastic Compliance Matrix: (Units=1/GPa)
#
#
# Indices 1 2 3 4 5 6 
#
# 1 0.019920 -0.002236 -0.013332 0.000000 0.000000 0.000000
# 2 -0.002236 0.017164 0.001576 0.000000 0.000000 0.000000
# 3 -0.013332 0.001576 0.013214 0.000000 0.000000 0.000000
# 4 0.000000 0.000000 0.000000 0.051534 0.000000 0.000000
# 5 0.000000 0.000000 0.000000 0.000000 0.027910 0.000000
# 6 0.000000 0.000000 0.000000 0.000000 0.000000 1.569489
#
#
# Mechanical properties :
#
#
# Convention : Reuss Voigt Hill
#
# Bulk Modulus (GPa) = 44.81491 85.41043 65.11267
# Shear Modulus (GPa) = 2.88242 30.28709 16.58476
#
# Velocity S-wave (km/s) = 1.17835 3.81965 2.82651
# Velocity P-wave (km/s) = 4.84142 7.78438 6.48213
#
# Compressibility (1/GPa) = 0.02231400
#
# Stress axis : x y z
#
# Youngs Moduli (GPa) = 50.20128 58.26042 75.67893
#
# Poissons Ratio (x) = 0.13028 1.00893
# Poissons Ratio (y) = 0.11226 -0.11928
# Poissons Ratio (z) = 0.66927 -0.09182
#
# Static dielectric constant tensor:
#      x y z
#    x 1.720420 0.000000 0.000000 
#    y 0.000000 1.793900 0.000000 
#    z 0.000000 0.000000 1.712150 
# 
# From -- ./inp_files/34516.got.cif
#   From: 2010.05.17/outbox.cif.g08.bks.cpg/sg51_18_cif.got.tgz:34516.got - 2010.06.03 11:52:47.
