data_PCOD9407539
_publ_section_title
;
Structure prediction by ZEFSAII (Michael W. Deem and Ramdas Pophale) SiO2 
 PCOD9407539
Probable space group: P M M A
;
_chemical_formula_sum "Si O2"
_cell_formula_units_Z 64
_cell_length_a 15.000000
_cell_length_b 9.000000
_cell_length_c 24.000000
_cell_angle_alpha 90.000000
_cell_angle_beta 90.000000
_cell_angle_gamma 90.000000
_cell_volume 3240.000000
_symmetry_space_group_name_H-M "P M M A"
_symmetry_group_IT_number 51
_symmetry_cell_setting 'orthorhombic'
loop_
_space_group_symop_operation_xyz
x,y,z
1/2-x,-y,z
1/2+x,-y,-z
-x,y,-z
-x,-y,-z
1/2+x,y,-z
1/2-x,y,z
x,-y,z
loop_
_atom_site_type_symbol
_atom_site_label
_atom_site_fract_x
_atom_site_fract_y
_atom_site_fract_z
Si Si1 0.352628 0.668623 0.233751
Si Si2 0.401066 0.675763 0.891687
Si Si3 0.906265 0.824597 0.879034
Si Si4 0.502099 0.821850 0.297173
Si Si5 0.470556 0.819335 0.581182
Si Si6 0.149245 0.818843 0.480539
Si Si7 0.844266 0.172871 0.212795
Si Si8 0.607803 0.328788 0.989006
O O1 0.250000 0.667803 0.249500
O O2 0.384677 0.500000 0.226453
O O3 0.363501 0.751284 0.174988
O O4 0.410026 0.749544 0.280191
O O5 0.420360 0.500000 0.893351
O O6 0.492660 0.764996 0.882807
O O7 0.343367 0.721972 0.839862
O O8 0.356936 0.714708 0.950621
O O9 0.865273 0.770994 0.937390
O O10 0.904349 0.000000 0.873746
O O11 0.539396 0.770829 0.355974
O O12 0.572860 0.785021 0.250019
O O13 0.491971 0.000000 0.298589
O O14 0.569374 0.774020 0.560809
O O15 0.391729 0.772315 0.540138
O O16 0.469910 0.000000 0.579003
O O17 0.250000 0.766287 0.470324
O O18 0.152325 0.000000 0.479251
O O19 0.750000 0.181958 0.243756
O O20 0.855190 0.000000 0.195433
O O21 0.629390 0.500000 0.976240
O O22 0.500000 0.321722 0.000000
#
# Coordination Sequence:
#
# PCOD9407539 Si02
#       8
#     8   8   8   8   8   8   8   8
#     4  11  24  40  57  77 104 141 183 227 275 330
#     4  10  19  33  54  77 104 140 181 222 270 329
#     4  11  20  32  54  81 107 136 172 219 276 332
#     4  10  20  35  55  79 109 145 182 228 279 323
#     4   8  15  26  42  70 105 140 181 219 260 317
#     4   8  13  23  41  68 106 147 180 216 261 308
#     4  10  21  35  51  75 107 142 182 229 281 331
#     4   8  16  30  49  75 104 136 174 216 266 329
#
# _framework density 19.753086
#
# number of rings (size 3 to 8) (size 9 to 14) (size 15 to 20)
#    0.000    2.500    1.250    3.375    0.000    5.000 
#    0.000    4.375    0.000    0.750    0.000    1.750 
#    0.000    1.000    0.000    0.000    0.000    0.000 
#
# Total GULP energy -356608.450664 kJ/mol
# GULP energy per Si atom -5572.007042 kJ/mol
# Density = 1.970813 g / cm^3
# Si number density = 19.753086 Si / 1000 Ang^3
#
#
#
# Elastic Constant Matrix: (Units=GPa)
#
#
# Indices 1 2 3 4 5 6 
#
# 1 40.8276 9.0194 -23.7935 0.0000 0.0000 0.0000
# 2 9.0194 -15.0961 19.9761 0.0000 0.0000 0.0000
# 3 -23.7935 19.9761 35.7417 0.0000 0.0000 0.0000
# 4 0.0000 0.0000 0.0000 49.4568 0.0000 0.0000
# 5 0.0000 0.0000 0.0000 0.0000 -21.4853 0.0000
# 6 0.0000 0.0000 0.0000 0.0000 0.0000 24.6649
#
#
#
# Elastic Compliance Matrix: (Units=1/GPa)
#
#
# Indices 1 2 3 4 5 6 
#
# 1 0.022751 0.019335 0.004339 0.000000 0.000000 0.000000
# 2 0.019335 -0.021648 0.024970 0.000000 0.000000 0.000000
# 3 0.004339 0.024970 0.016911 0.000000 0.000000 0.000000
# 4 0.000000 0.000000 0.000000 0.020220 0.000000 0.000000
# 5 0.000000 0.000000 0.000000 0.000000 -0.046544 0.000000
# 6 0.000000 0.000000 0.000000 0.000000 0.000000 0.040543
#
#
# Mechanical properties :
#
#
# Convention : Reuss Voigt Hill
#
# Bulk Modulus (GPa) = 8.67290 7.98638 8.32964
# Shear Modulus (GPa) = -187.82170 14.27870 -86.77150
#
# Velocity S-wave (km/s) = -9.76172 2.69152 -6.63502
# Velocity P-wave (km/s) = 11.07496 3.70283 7.38051
#
# Compressibility (1/GPa) = 0.11530165
#
# Stress axis : x y z
#
# Youngs Moduli (GPa) = 43.95475 -46.19330 59.13276
#
# Poissons Ratio (x) = 0.89313 -0.25658
# Poissons Ratio (y) = -0.84985 -1.47656
# Poissons Ratio (z) = -0.19072 1.15346
#
# Static dielectric constant tensor:
#      x y z
#    x 1.788510 0.000000 0.000000 
#    y 0.000000 1.664890 0.000000 
#    z 0.000000 0.000000 1.731720 
# 
# From -- ./inp_files/35778.got.cif
#   From: 2010.05.17/outbox.ucp.g08.bks.cvg/sg51_18_cif.got.tgz:35778.got - 2010.06.11 16:27:58.
