data_PCOD9407860
_publ_section_title
;
Structure prediction by ZEFSAII (Michael W. Deem and Ramdas Pophale) SiO2 
 PCOD9407860
Probable space group: P N N A
;
_chemical_formula_sum "Si O2"
_cell_formula_units_Z 44
_cell_length_a 31.649076
_cell_length_b 7.836920
_cell_length_c 7.043812
_cell_angle_alpha 90.000000
_cell_angle_beta 90.000000
_cell_angle_gamma 90.000000
_cell_volume 1747.085683
_symmetry_space_group_name_H-M "P N N A"
_symmetry_group_IT_number 52
_symmetry_cell_setting 'orthorhombic'
loop_
_space_group_symop_operation_xyz
x,y,z
1/2-x,-y,z
x,1/2-y,1/2-z
1/2-x,1/2+y,1/2-z
-x,-y,-z
1/2+x,y,-z
-x,1/2+y,1/2+z
1/2+x,1/2-y,1/2+z
loop_
_atom_site_type_symbol
_atom_site_label
_atom_site_fract_x
_atom_site_fract_y
_atom_site_fract_z
Si Si1 0.839819 0.509838 0.397275
Si Si2 0.431426 0.623017 0.030653
Si Si3 0.337823 0.619792 0.047285
Si Si4 0.750000 0.500000 0.948122
Si Si5 0.496429 0.250000 0.750000
Si Si6 0.931809 0.484418 0.386941
Si Si7 0.724769 0.750000 0.250000
O O1 0.842002 0.568299 0.175681
O O2 0.832665 0.674671 0.529764
O O3 0.884816 0.423088 0.439185
O O4 0.802959 0.374239 0.380456
O O5 0.385441 0.586697 0.121394
O O6 0.434447 0.515187 0.840043
O O7 0.433363 0.824121 0.970444
O O8 0.471851 0.607917 0.163698
O O9 0.297332 0.518728 0.135471
O O10 0.751777 0.655707 0.094495
O O11 0.467956 0.343634 0.589767
#
# Coordination Sequence:
#
# PCOD9407860 Si02
#       7
#     8   8   8   4   4   8   4
#     4   8  14  25  39  56  88 118 139 179 233 273
#     4   9  19  33  46  66  99 125 152 198 240 271
#     4   8  15  27  39  56  83 117 146 182 230 269
#     4  10  16  22  38  60  86 116 148 182 228 286
#     4  12  19  28  50  74  90 126 172 190 219 286
#     4   9  18  32  47  67  96 127 156 193 237 278
#     4  10  15  20  34  64  88 108 142 184 227 282
#
# _framework density 25.184799000000002
#
# number of rings (size 3 to 8) (size 9 to 14) (size 15 to 20)
#    0.000    2.909    0.000    6.000    0.000    0.000 
#    0.000    0.000    0.000    0.000    0.000    5.091 
#    0.000    0.000    0.000    0.000    0.000    4.364 
#
# Total GULP energy -245446.234188 kJ/mol
# GULP energy per Si atom -5578.323504 kJ/mol
# Density = 2.512748 g / cm^3
# Si number density = 25.184799 Si / 1000 Ang^3
#
#
#
# Elastic Constant Matrix: (Units=GPa)
#
#
# Indices 1 2 3 4 5 6 
#
# 1 195.7840 25.1540 4.1847 0.0000 0.0000 0.0000
# 2 25.1540 42.3070 -8.8191 0.0000 0.0000 0.0000
# 3 4.1847 -8.8191 41.8942 0.0000 0.0000 0.0000
# 4 0.0000 0.0000 0.0000 22.2118 0.0000 0.0000
# 5 0.0000 0.0000 0.0000 0.0000 6.8116 0.0000
# 6 0.0000 0.0000 0.0000 0.0000 0.0000 47.8646
#
#
#
# Elastic Compliance Matrix: (Units=1/GPa)
#
#
# Indices 1 2 3 4 5 6 
#
# 1 0.005599 -0.003604 -0.001318 0.000000 0.000000 0.000000
# 2 -0.003604 0.027041 0.006052 0.000000 0.000000 0.000000
# 3 -0.001318 0.006052 0.025275 0.000000 0.000000 0.000000
# 4 0.000000 0.000000 0.000000 0.045021 0.000000 0.000000
# 5 0.000000 0.000000 0.000000 0.000000 0.146808 0.000000
# 6 0.000000 0.000000 0.000000 0.000000 0.000000 0.020892
#
#
# Mechanical properties :
#
#
# Convention : Reuss Voigt Hill
#
# Bulk Modulus (GPa) = 16.61766 35.66938 26.14352
# Shear Modulus (GPa) = 17.33504 32.67531 25.00517
#
# Velocity S-wave (km/s) = 2.62642 3.60588 3.15440
# Velocity P-wave (km/s) = 3.97619 5.61519 4.86520
#
# Compressibility (1/GPa) = 0.06017693
#
# Stress axis : x y z
#
# Youngs Moduli (GPa) = 178.60934 36.98105 39.56424
#
# Poissons Ratio (x) = 0.13326 0.05214
# Poissons Ratio (y) = 0.64362 -0.23945
# Poissons Ratio (z) = 0.23538 -0.22382
#
# Static dielectric constant tensor:
#      x y z
#    x 2.065230 0.000000 0.000000 
#    y 0.000000 1.999040 0.000000 
#    z 0.000000 0.000000 2.021530 
# 
# From -- ./inp_files/15423.got.cif
#   From: 2010.05.17/outbox.cif.g08.bks.cpg/sg52_8_cif.got.tgz:15423.got - 2010.06.03 12:15:38.
