data_PCOD9407366
_publ_section_title
;
Structure prediction by ZEFSAII (Michael W. Deem and Ramdas Pophale) SiO2 
 PCOD9407366
Probable space group: P M M A
;
_chemical_formula_sum "Si O2"
_cell_formula_units_Z 56
_cell_length_a 20.635698
_cell_length_b 9.322813
_cell_length_c 18.388724
_cell_angle_alpha 90.000000
_cell_angle_beta 90.000000
_cell_angle_gamma 90.000000
_cell_volume 3537.673358
_symmetry_space_group_name_H-M "P M M A"
_symmetry_group_IT_number 51
_symmetry_cell_setting 'orthorhombic'
loop_
_space_group_symop_operation_xyz
x,y,z
1/2-x,-y,z
1/2+x,-y,-z
-x,y,-z
-x,-y,-z
1/2+x,y,-z
1/2-x,y,z
x,-y,z
loop_
_atom_site_type_symbol
_atom_site_label
_atom_site_fract_x
_atom_site_fract_y
_atom_site_fract_z
Si Si1 0.062227 0.834770 0.654049
Si Si2 0.921536 0.334492 0.489077
Si Si3 0.094495 0.834827 0.367815
Si Si4 0.109072 0.330767 0.223458
Si Si5 0.432897 0.325070 0.961957
Si Si6 0.954343 0.669442 0.201651
Si Si7 0.823580 0.674904 0.925883
O O1 0.090961 0.747723 0.586163
O O2 0.073596 0.757801 0.730902
O O3 0.983925 0.833452 0.642644
O O4 0.082990 0.000000 0.653942
O O5 0.901234 0.500000 0.486226
O O6 0.892682 0.252409 0.558482
O O7 0.000000 0.333843 0.500000
O O8 0.122068 0.757912 0.296324
O O9 0.114721 0.000000 0.373640
O O10 0.120964 0.500000 0.236675
O O11 0.149709 0.283304 0.153387
O O12 0.032726 0.316855 0.203902
O O13 0.433655 0.500000 0.961599
O O14 0.431049 0.281639 0.877752
O O15 0.500000 0.279799 0.000000
O O16 0.372819 0.277814 0.011245
O O17 0.940140 0.500000 0.210815
O O18 0.750000 0.721825 0.937170
O O19 0.824572 0.500000 0.926442
#
# Coordination Sequence:
#
# PCOD9407366 Si02
#       7
#     8   8   8   8   8   8   8
#     4   9  16  24  34  51  79 109 136 170 212 251
#     4   9  15  23  35  52  76 107 141 171 203 247
#     4   9  16  24  35  52  76 107 140 171 205 246
#     4   9  15  24  38  56  78 105 139 175 210 250
#     4   9  14  23  39  59  81 108 142 179 219 263
#     4   9  15  23  38  57  77 105 142 177 209 254
#     4   9  16  25  39  61  86 109 138 181 226 260
#
# _framework density 15.829613999999999
#
# number of rings (size 3 to 8) (size 9 to 14) (size 15 to 20)
#    0.000    3.000    1.429    1.286    0.000    5.143 
#    0.000    0.000    0.000    1.714    0.000    0.000 
#    0.000    1.143    0.000    9.714    0.000    4.429 
#
# Total GULP energy -311827.783221 kJ/mol
# GULP energy per Si atom -5568.353272 kJ/mol
# Density = 1.579359 g / cm^3
# Si number density = 15.829614 Si / 1000 Ang^3
#
#
#
# Elastic Constant Matrix: (Units=GPa)
#
#
# Indices 1 2 3 4 5 6 
#
# 1 41.2832 24.6344 48.7884 0.0000 0.0000 0.0000
# 2 24.6344 82.5225 81.9421 0.0000 0.0000 0.0000
# 3 48.7884 81.9421 194.9956 0.0000 0.0000 0.0000
# 4 0.0000 0.0000 0.0000 -1.5834 0.0000 0.0000
# 5 0.0000 0.0000 0.0000 0.0000 9.3461 0.0000
# 6 0.0000 0.0000 0.0000 0.0000 0.0000 3.0100
#
#
#
# Elastic Compliance Matrix: (Units=1/GPa)
#
#
# Indices 1 2 3 4 5 6 
#
# 1 0.034818 -0.002992 -0.007454 0.000000 0.000000 0.000000
# 2 -0.002992 0.021052 -0.008098 0.000000 0.000000 0.000000
# 3 -0.007454 -0.008098 0.010396 0.000000 0.000000 0.000000
# 4 0.000000 0.000000 0.000000 -0.631546 0.000000 0.000000
# 5 0.000000 0.000000 0.000000 0.000000 0.106996 0.000000
# 6 0.000000 0.000000 0.000000 0.000000 0.000000 0.332224
#
#
# Mechanical properties :
#
#
# Convention : Reuss Voigt Hill
#
# Bulk Modulus (GPa) = 34.27260 69.94789 52.11024
# Shear Modulus (GPa) = -63.09487 13.05031 -25.02228
#
# Velocity S-wave (km/s) = -6.32023 2.87439 -3.98015
# Velocity P-wave (km/s) = 5.61805 7.43640 3.44512
#
# Compressibility (1/GPa) = 0.02917783
#
# Stress axis : x y z
#
# Youngs Moduli (GPa) = 28.72115 47.50109 96.18727
#
# Poissons Ratio (x) = 0.14212 0.71700
# Poissons Ratio (y) = 0.08593 0.77893
# Poissons Ratio (z) = 0.21409 0.38467
#
# Static dielectric constant tensor:
#      x y z
#    x 1.504260 0.000000 0.000000 
#    y 0.000000 1.523360 0.000000 
#    z 0.000000 0.000000 1.528670 
# 
# From -- ./inp_files/30372.got.cif
#   From: 2010.05.17/outbox.cif.g08.bks.cpg/sg51_16_cif.got.tgz:30372.got - 2010.06.03 11:52:47.
