data_PCOD9407734
_publ_section_title
;
Structure prediction by ZEFSAII (Michael W. Deem and Ramdas Pophale) SiO2 
 PCOD9407734
Probable space group: P M M A
;
_chemical_formula_sum "Si O2"
_cell_formula_units_Z 64
_cell_length_a 21.000000
_cell_length_b 9.000000
_cell_length_c 18.000000
_cell_angle_alpha 90.000000
_cell_angle_beta 90.000000
_cell_angle_gamma 90.000000
_cell_volume 3402.000000
_symmetry_space_group_name_H-M "P M M A"
_symmetry_group_IT_number 51
_symmetry_cell_setting 'orthorhombic'
loop_
_space_group_symop_operation_xyz
x,y,z
1/2-x,-y,z
1/2+x,-y,-z
-x,y,-z
-x,-y,-z
1/2+x,y,-z
1/2-x,y,z
x,-y,z
loop_
_atom_site_type_symbol
_atom_site_label
_atom_site_fract_x
_atom_site_fract_y
_atom_site_fract_z
Si Si1 0.677954 0.321122 0.274839
Si Si2 0.914204 0.680913 0.716675
Si Si3 0.324728 0.679179 0.418059
Si Si4 0.326477 0.832652 0.570011
Si Si5 0.042881 0.321453 0.779486
Si Si6 0.822213 0.322998 0.848335
Si Si7 0.320137 0.821031 0.990338
Si Si8 0.455271 0.177304 0.929456
O O1 0.750000 0.267634 0.254701
O O2 0.679766 0.500000 0.270982
O O3 0.663272 0.268863 0.358427
O O4 0.615454 0.266762 0.231202
O O5 0.913666 0.500000 0.716181
O O6 0.872220 0.728149 0.646768
O O7 0.874888 0.726795 0.789794
O O8 0.988010 0.727464 0.721745
O O9 0.250000 0.716209 0.403109
O O10 0.327263 0.500000 0.424827
O O11 0.346560 0.753980 0.494456
O O12 0.250000 0.843785 0.564318
O O13 0.351795 0.000000 0.579054
O O14 0.045073 0.500000 0.777432
O O15 0.020071 0.265593 0.859045
O O16 0.750000 0.301022 0.818601
O O17 0.829576 0.500000 0.861058
O O18 0.826621 0.239555 0.926258
O O19 0.250000 0.773127 0.961805
O O20 0.382749 0.773525 0.946240
O O21 0.320862 0.000000 0.992080
O O22 0.455456 0.000000 0.915057
O O23 0.500000 0.204119 0.000000
#
# Coordination Sequence:
#
# PCOD9407734 Si02
#       8
#     8   8   8   8   8   8   8   8
#     4   9  18  34  54  74  97 126 161 201 245 291
#     4   9  17  30  47  69  98 128 159 195 234 279
#     4   9  16  28  49  74  99 130 163 192 228 277
#     4   9  17  30  50  76 102 127 160 201 239 278
#     4  10  21  35  52  74  97 123 159 202 243 283
#     4   9  16  27  46  71  96 123 156 193 232 277
#     4   9  18  32  48  67  92 121 154 193 237 285
#     4  10  21  36  52  70  95 128 162 195 236 289
#
# _framework density 18.812463000000001
#
# number of rings (size 3 to 8) (size 9 to 14) (size 15 to 20)
#    0.000    2.750    0.000    1.500    0.000    4.750 
#    0.000    1.875    0.000    6.750    0.000    0.000 
#    0.000    0.000    0.000    0.000    0.000    0.000 
#
# Total GULP energy -356476.426111 kJ/mol
# GULP energy per Si atom -5569.944158 kJ/mol
# Density = 1.876965 g / cm^3
# Si number density = 18.812463 Si / 1000 Ang^3
#
#
#
# Elastic Constant Matrix: (Units=GPa)
#
#
# Indices 1 2 3 4 5 6 
#
# 1 87.2021 7.8977 25.6917 0.0000 0.0000 0.0000
# 2 7.8977 -12.7967 -4.6001 0.0000 0.0000 0.0000
# 3 25.6917 -4.6001 47.6468 0.0000 0.0000 0.0000
# 4 0.0000 0.0000 0.0000 47.2785 0.0000 0.0000
# 5 0.0000 0.0000 0.0000 0.0000 18.1522 0.0000
# 6 0.0000 0.0000 0.0000 0.0000 0.0000 7.1411
#
#
#
# Elastic Compliance Matrix: (Units=1/GPa)
#
#
# Indices 1 2 3 4 5 6 
#
# 1 0.012272 0.009619 -0.005689 0.000000 0.000000 0.000000
# 2 0.009619 -0.067984 -0.011750 0.000000 0.000000 0.000000
# 3 -0.005689 -0.011750 0.022921 0.000000 0.000000 0.000000
# 4 0.000000 0.000000 0.000000 0.021151 0.000000 0.000000
# 5 0.000000 0.000000 0.000000 0.000000 0.055090 0.000000
# 6 0.000000 0.000000 0.000000 0.000000 0.000000 0.140035
#
#
# Mechanical properties :
#
#
# Convention : Reuss Voigt Hill
#
# Bulk Modulus (GPa) = -20.64789 20.00341 -0.32224
# Shear Modulus (GPa) = 27.32522 20.71854 24.02188
#
# Velocity S-wave (km/s) = 3.81531 3.32221 3.57727
# Velocity P-wave (km/s) = 2.89988 5.03709 4.10984
#
# Compressibility (1/GPa) = -0.04843111
#
# Stress axis : x y z
#
# Youngs Moduli (GPa) = 81.48314 -14.70928 43.62853
#
# Poissons Ratio (x) = 0.14149 0.24819
# Poissons Ratio (y) = -0.78380 0.51265
# Poissons Ratio (z) = 0.46354 -0.17284
#
# Static dielectric constant tensor:
#      x y z
#    x 1.691200 0.000000 0.000000 
#    y 0.000000 1.628390 0.000000 
#    z 0.000000 0.000000 1.644630 
# 
# From -- ./inp_files/30637.got.cif
#   From: 2010.05.17/outbox.ucp.g08.bks.cvg/sg51_16_cif.got.tgz:30637.got - 2010.06.11 16:27:58.
