data_PCOD9407764
_publ_section_title
;
Structure prediction by ZEFSAII (Michael W. Deem and Ramdas Pophale) SiO2 
 PCOD9407764
Probable space group: P M M A
;
_chemical_formula_sum "Si O2"
_cell_formula_units_Z 32
_cell_length_a 15.000000
_cell_length_b 12.000000
_cell_length_c 9.000000
_cell_angle_alpha 90.000000
_cell_angle_beta 90.000000
_cell_angle_gamma 90.000000
_cell_volume 1620.000000
_symmetry_space_group_name_H-M "P M M A"
_symmetry_group_IT_number 51
_symmetry_cell_setting 'orthorhombic'
loop_
_space_group_symop_operation_xyz
x,y,z
1/2-x,-y,z
1/2+x,-y,-z
-x,y,-z
-x,-y,-z
1/2+x,y,-z
1/2-x,y,z
x,-y,z
loop_
_atom_site_type_symbol
_atom_site_label
_atom_site_fract_x
_atom_site_fract_y
_atom_site_fract_z
Si Si1 0.250000 0.760356 0.083053
Si Si2 0.750000 0.246421 0.587261
Si Si3 0.750000 0.000000 0.952276
Si Si4 0.601499 0.000000 0.203410
Si Si5 0.594904 0.627127 0.419792
Si Si6 0.574636 0.755447 0.117913
Si Si7 0.750000 0.000000 0.459179
O O1 0.250000 0.705014 0.243938
O O2 0.250000 0.888319 0.136318
O O3 0.334356 0.748675 0.976255
O O4 0.836286 0.295325 0.505683
O O5 0.750000 0.114181 0.551223
O O6 0.666295 0.000000 0.061264
O O7 0.554406 0.119785 0.184178
O O8 0.663691 0.000000 0.349138
O O9 0.500000 0.630790 0.500000
O O10 0.627326 0.500000 0.418451
O O11 0.582468 0.672952 0.254618
O O12 0.500000 0.726097 0.000000
#
# Coordination Sequence:
#
# PCOD9407764 Si02
#       7
#     4   4   2   4   8   8   2
#     4  10  21  36  59  90 123 159 205 253 305 375
#     4  12  22  41  66  94 128 167 207 260 323 382
#     4   7  15  30  52  78 122 154 180 236 300 354
#     4   9  17  34  58  92 123 156 196 251 309 373
#     4  11  25  44  64  90 126 169 218 269 316 368
#     4  11  21  39  64  91 125 166 206 256 318 380
#     4  11  19  36  66  96 126 162 206 256 312 392
#
# _framework density 19.753086
#
# number of rings (size 3 to 8) (size 9 to 14) (size 15 to 20)
#    0.000    1.500    2.500    4.125    0.000    0.500 
#    0.000    7.500    0.000    0.000    0.000    0.000 
#    0.000    0.000    0.000    0.000    0.000    0.000 
#
# Total GULP energy -178395.155972 kJ/mol
# GULP energy per Si atom -5574.848624 kJ/mol
# Density = 1.970813 g / cm^3
# Si number density = 19.753086 Si / 1000 Ang^3
#
#
#
# Elastic Constant Matrix: (Units=GPa)
#
#
# Indices 1 2 3 4 5 6 
#
# 1 85.8388 33.5653 45.8303 0.0000 0.0000 0.0000
# 2 33.5653 105.4401 51.0944 0.0000 0.0000 0.0000
# 3 45.8303 51.0944 156.7918 0.0000 0.0000 0.0000
# 4 0.0000 0.0000 0.0000 810.7073 0.0000 0.0000
# 5 0.0000 0.0000 0.0000 0.0000 -11.3536 0.0000
# 6 0.0000 0.0000 0.0000 0.0000 0.0000 4.8662
#
#
#
# Elastic Compliance Matrix: (Units=1/GPa)
#
#
# Indices 1 2 3 4 5 6 
#
# 1 0.014591 -0.003062 -0.003267 0.000000 0.000000 0.000000
# 2 -0.003062 0.011905 -0.002985 0.000000 0.000000 0.000000
# 3 -0.003267 -0.002985 0.008306 0.000000 0.000000 0.000000
# 4 0.000000 0.000000 0.000000 0.001233 0.000000 0.000000
# 5 0.000000 0.000000 0.000000 0.000000 -0.088077 0.000000
# 6 0.000000 0.000000 0.000000 0.000000 0.000000 0.205498
#
#
# Mechanical properties :
#
#
# Convention : Reuss Voigt Hill
#
# Bulk Modulus (GPa) = 61.82497 67.67228 64.74863
# Shear Modulus (GPa) = 28.17303 175.34934 101.76118
#
# Velocity S-wave (km/s) = 3.78068 9.43204 7.18529
# Velocity P-wave (km/s) = 7.10105 12.36735 10.08405
#
# Compressibility (1/GPa) = 0.01617469
#
# Stress axis : x y z
#
# Youngs Moduli (GPa) = 68.53341 83.99842 120.40157
#
# Poissons Ratio (x) = 0.25718 0.39339
# Poissons Ratio (y) = 0.20983 0.35935
# Poissons Ratio (z) = 0.22392 0.25070
#
# Static dielectric constant tensor:
#      x y z
#    x 1.652280 0.000000 0.000000 
#    y 0.000000 1.727870 0.000000 
#    z 0.000000 0.000000 1.638680 
# 
# From -- ./inp_files/7674.got.cif
#   From: 2010.05.17/outbox.ucp.g08.bks.cvg/sg51_4_cif.got.tgz:7674.got - 2010.06.11 16:27:58.
