data_PCOD9407172
_publ_section_title
;
Structure prediction by ZEFSAII (Michael W. Deem and Ramdas Pophale) SiO2 
 PCOD9407172
Probable space group: P M M A
;
_chemical_formula_sum "Si O2"
_cell_formula_units_Z 64
_cell_length_a 15.538442
_cell_length_b 23.070319
_cell_length_c 8.121613
_cell_angle_alpha 90.000000
_cell_angle_beta 90.000000
_cell_angle_gamma 90.000000
_cell_volume 2911.409950
_symmetry_space_group_name_H-M "P M M A"
_symmetry_group_IT_number 51
_symmetry_cell_setting 'orthorhombic'
loop_
_space_group_symop_operation_xyz
x,y,z
1/2-x,-y,z
1/2+x,-y,-z
-x,y,-z
-x,-y,-z
1/2+x,y,-z
1/2-x,y,z
x,-y,z
loop_
_atom_site_type_symbol
_atom_site_label
_atom_site_fract_x
_atom_site_fract_y
_atom_site_fract_z
Si Si1 0.843316 0.109367 0.754933
Si Si2 0.657051 0.855090 0.376043
Si Si3 0.061010 0.257242 0.635609
Si Si4 0.848041 0.342339 0.713631
Si Si5 0.978579 0.934188 0.183795
Si Si6 0.348863 0.361004 0.681059
Si Si7 0.573850 0.776358 0.859558
Si Si8 0.495662 0.566180 0.198301
O O1 0.750000 0.086337 0.808208
O O2 0.837908 0.126515 0.564548
O O3 0.924529 0.067237 0.749887
O O4 0.865412 0.167606 0.861949
O O5 0.750000 0.863420 0.294760
O O6 0.637735 0.786633 0.392767
O O7 0.586631 0.892800 0.279387
O O8 0.099791 0.305867 0.755614
O O9 0.000000 0.287816 0.500000
O O10 0.988267 0.214099 0.703753
O O11 0.750000 0.356167 0.765834
O O12 0.845223 0.341790 0.512378
O O13 0.876717 0.282771 0.806142
O O14 0.918530 0.390975 0.753209
O O15 0.945296 0.000000 0.179033
O O16 0.000000 0.912901 0.000000
O O17 0.250000 0.369291 0.734917
O O18 0.413760 0.413123 0.721161
O O19 0.500000 0.770464 0.000000
O O20 0.477839 0.500000 0.248432
O O21 0.500000 0.568360 0.000000
#
# Coordination Sequence:
#
# PCOD9407172 Si02
#       8
#     8   8   8   8   8   8   8   8
#     4  11  23  41  66  96 129 169 215 266 320 382
#     4  11  23  40  66  98 129 166 215 268 320 382
#     4  12  19  37  65  92 132 171 204 250 312 381
#     4  11  23  41  66  96 129 169 215 266 320 382
#     4  11  25  45  65  89 126 170 215 271 332 389
#     4  11  23  40  66  98 129 166 215 268 320 382
#     4  12  23  39  63  96 136 173 210 252 316 381
#     4  11  25  45  65  89 126 170 215 271 332 389
#
# _framework density 21.982475000000001
#
# number of rings (size 3 to 8) (size 9 to 14) (size 15 to 20)
#    0.000    0.750    5.000    2.250    0.000    6.000 
#    0.000    6.250    0.000    0.000    0.000    0.000 
#    0.000    0.000    0.000    0.000    0.000    0.000 
#
# Total GULP energy -356523.617881 kJ/mol
# GULP energy per Si atom -5570.681529 kJ/mol
# Density = 2.193244 g / cm^3
# Si number density = 21.982475 Si / 1000 Ang^3
#
#
#
# Elastic Constant Matrix: (Units=GPa)
#
#
# Indices 1 2 3 4 5 6 
#
# 1 185.5578 62.4169 21.7898 0.0000 0.0000 0.0000
# 2 62.4169 110.7229 24.2571 0.0000 0.0000 0.0000
# 3 21.7898 24.2571 36.8392 0.0000 0.0000 0.0000
# 4 0.0000 0.0000 0.0000 18.0763 0.0000 0.0000
# 5 0.0000 0.0000 0.0000 0.0000 18.4699 0.0000
# 6 0.0000 0.0000 0.0000 0.0000 0.0000 -86.7180
#
#
#
# Elastic Compliance Matrix: (Units=1/GPa)
#
#
# Indices 1 2 3 4 5 6 
#
# 1 0.006744 -0.003421 -0.001736 0.000000 0.000000 0.000000
# 2 -0.003421 0.012290 -0.006069 0.000000 0.000000 0.000000
# 3 -0.001736 -0.006069 0.032168 0.000000 0.000000 0.000000
# 4 0.000000 0.000000 0.000000 0.055321 0.000000 0.000000
# 5 0.000000 0.000000 0.000000 0.000000 0.054142 0.000000
# 6 0.000000 0.000000 0.000000 0.000000 0.000000 -0.011532
#
#
# Mechanical properties :
#
#
# Convention : Reuss Voigt Hill
#
# Bulk Modulus (GPa) = 34.78341 61.11638 47.94990
# Shear Modulus (GPa) = 27.59864 4.94271 16.27067
#
# Velocity S-wave (km/s) = 3.54712 1.50112 2.72355
# Velocity P-wave (km/s) = 5.71259 5.55582 5.63475
#
# Compressibility (1/GPa) = 0.02874934
#
# Stress axis : x y z
#
# Youngs Moduli (GPa) = 148.28290 81.36866 31.08696
#
# Poissons Ratio (x) = 0.27839 0.05397
# Poissons Ratio (y) = 0.50732 0.18866
# Poissons Ratio (z) = 0.25743 0.49380
#
# Static dielectric constant tensor:
#      x y z
#    x 1.743580 0.000000 0.000000 
#    y 0.000000 1.810560 0.000000 
#    z 0.000000 0.000000 2.014670 
# 
# From -- ./inp_files/8706.got.cif
#   From: 2010.05.17/outbox.cif.g08.bks.cpg/sg51_5_cif.got.tgz:8706.got - 2010.06.03 11:52:47.
