data_PCOD9407946
_publ_section_title
;
Structure prediction by ZEFSAII (Michael W. Deem and Ramdas Pophale) SiO2 
 PCOD9407946
Probable space group: P N N A
;
_chemical_formula_sum "Si O2"
_cell_formula_units_Z 60
_cell_length_a 30.528163
_cell_length_b 10.330426
_cell_length_c 9.736956
_cell_angle_alpha 90.000000
_cell_angle_beta 90.000000
_cell_angle_gamma 90.000000
_cell_volume 3070.733383
_symmetry_space_group_name_H-M "P N N A"
_symmetry_group_IT_number 52
_symmetry_cell_setting 'orthorhombic'
loop_
_space_group_symop_operation_xyz
x,y,z
1/2-x,-y,z
x,1/2-y,1/2-z
1/2-x,1/2+y,1/2-z
-x,-y,-z
1/2+x,y,-z
-x,1/2+y,1/2+z
1/2+x,1/2-y,1/2+z
loop_
_atom_site_type_symbol
_atom_site_label
_atom_site_fract_x
_atom_site_fract_y
_atom_site_fract_z
Si Si1 0.839091 0.942921 0.308155
Si Si2 0.561668 0.396942 0.265195
Si Si3 0.288519 0.074752 0.931834
Si Si4 0.226298 0.250000 0.750000
Si Si5 0.940154 0.280027 0.906954
Si Si6 0.518368 0.447725 0.832582
Si Si7 0.146072 0.785681 0.586748
Si Si8 0.974359 0.671127 0.535640
O O1 0.889388 0.902965 0.291009
O O2 0.806587 0.827817 0.349683
O O3 0.821039 0.983611 0.156543
O O4 0.836991 0.067211 0.405801
O O5 0.543356 0.250000 0.250000
O O6 0.532022 0.504728 0.191747
O O7 0.557712 0.401032 0.429743
O O8 0.258465 0.149315 0.820828
O O9 0.319958 0.187726 0.985961
O O10 0.250000 0.000000 0.014708
O O11 0.927624 0.250000 0.750000
O O12 0.958652 0.425942 0.892768
O O13 0.899869 0.276191 0.010754
O O14 0.977628 0.182589 0.964328
O O15 0.529255 0.404024 0.678179
O O16 0.531148 0.323112 0.924018
O O17 0.141340 0.750000 0.750000
#
# Coordination Sequence:
#
# PCOD9407946 Si02
#       8
#     8   8   8   4   8   8   8   8
#     4  10  20  30  54  85 120 151 185 248 301 365
#     4  12  22  37  54  85 121 158 209 252 307 357
#     4   9  18  34  55  85 117 148 185 239 307 372
#     4  10  16  32  52  84 122 142 182 238 318 360
#     4  12  24  39  58  87 121 163 213 252 297 365
#     4  11  24  39  58  82 115 170 210 261 298 361
#     4  10  22  37  59  90 118 155 197 247 308 362
#     4  11  24  39  59  78 119 170 211 253 311 349
#
# _framework density 19.539304999999999
#
# number of rings (size 3 to 8) (size 9 to 14) (size 15 to 20)
#    0.000    1.333    5.333    1.600    7.467    0.000 
#    0.000    0.000    0.000    0.000    3.467    0.000 
#    8.000    0.000    0.000    0.000    0.000    0.000 
#
# Total GULP energy -334231.409074 kJ/mol
# GULP energy per Si atom -5570.523485 kJ/mol
# Density = 1.949483 g / cm^3
# Si number density = 19.539305 Si / 1000 Ang^3
#
#
#
# Elastic Constant Matrix: (Units=GPa)
#
#
# Indices 1 2 3 4 5 6 
#
# 1 87.1593 4.5735 10.1384 0.0000 0.0000 0.0000
# 2 4.5735 64.0955 10.4242 0.0000 0.0000 0.0000
# 3 10.1384 10.4242 63.6762 0.0000 0.0000 0.0000
# 4 0.0000 0.0000 0.0000 22.2479 0.0000 0.0000
# 5 0.0000 0.0000 0.0000 0.0000 11.9357 0.0000
# 6 0.0000 0.0000 0.0000 0.0000 0.0000 29.7270
#
#
#
# Elastic Compliance Matrix: (Units=1/GPa)
#
#
# Indices 1 2 3 4 5 6 
#
# 1 0.011708 -0.000547 -0.001775 0.000000 0.000000 0.000000
# 2 -0.000547 0.016054 -0.002541 0.000000 0.000000 0.000000
# 3 -0.001775 -0.002541 0.016403 0.000000 0.000000 0.000000
# 4 0.000000 0.000000 0.000000 0.044948 0.000000 0.000000
# 5 0.000000 0.000000 0.000000 0.000000 0.083782 0.000000
# 6 0.000000 0.000000 0.000000 0.000000 0.000000 0.033639
#
#
# Mechanical properties :
#
#
# Convention : Reuss Voigt Hill
#
# Bulk Modulus (GPa) = 29.03578 29.46701 29.25140
# Shear Modulus (GPa) = 21.95485 25.43512 23.69498
#
# Velocity S-wave (km/s) = 3.35569 3.61188 3.48614
# Velocity P-wave (km/s) = 5.46870 5.70157 5.58634
#
# Compressibility (1/GPa) = 0.03444026
#
# Stress axis : x y z
#
# Youngs Moduli (GPa) = 85.40904 62.28972 60.96440
#
# Poissons Ratio (x) = 0.03406 0.10819
# Poissons Ratio (y) = 0.04670 0.15492
# Poissons Ratio (z) = 0.15157 0.15828
#
# Static dielectric constant tensor:
#      x y z
#    x 1.698080 0.000000 0.000000 
#    y 0.000000 1.812900 0.000000 
#    z 0.000000 0.000000 1.732170 
# 
# From -- ./inp_files/15683.got.cif
#   From: 2010.05.17/outbox.cif.g08.bks.cpg/sg52_8_cif.got.tgz:15683.got - 2010.06.03 12:15:38.
