data_PCOD9407152
_publ_section_title
;
Structure prediction by ZEFSAII (Michael W. Deem and Ramdas Pophale) SiO2 
 PCOD9407152
Probable space group: P M M A
;
_chemical_formula_sum "Si O2"
_cell_formula_units_Z 48
_cell_length_a 8.258559
_cell_length_b 31.820380
_cell_length_c 9.624044
_cell_angle_alpha 90.000000
_cell_angle_beta 90.000000
_cell_angle_gamma 90.000000
_cell_volume 2529.107197
_symmetry_space_group_name_H-M "P M M A"
_symmetry_group_IT_number 51
_symmetry_cell_setting 'orthorhombic'
loop_
_space_group_symop_operation_xyz
x,y,z
1/2-x,-y,z
1/2+x,-y,-z
-x,y,-z
-x,-y,-z
1/2+x,y,-z
1/2-x,y,z
x,-y,z
loop_
_atom_site_type_symbol
_atom_site_label
_atom_site_fract_x
_atom_site_fract_y
_atom_site_fract_z
Si Si1 0.943862 0.203547 0.158782
Si Si2 0.054333 0.546456 0.841229
Si Si3 0.445659 0.623910 0.657534
Si Si4 0.443816 0.875268 0.341568
Si Si5 0.445727 0.281673 0.658360
Si Si6 0.054368 0.952171 0.155677
O O1 0.750000 0.204296 0.159401
O O2 0.003528 0.245794 0.236583
O O3 0.999819 0.163779 0.248614
O O4 0.000000 0.201056 0.000000
O O5 0.250000 0.546934 0.837141
O O6 0.001081 0.500000 0.791063
O O7 0.994014 0.585889 0.752639
O O8 0.000000 0.550620 0.000000
O O9 0.500000 0.617010 0.500000
O O10 0.250000 0.623859 0.662506
O O11 0.500181 0.671079 0.697523
O O12 0.500000 0.871669 0.500000
O O13 0.250000 0.875885 0.340912
O O14 0.502945 0.918148 0.267413
O O15 0.500000 0.273213 0.500000
O O16 0.250000 0.281371 0.659165
O O17 0.250000 0.952405 0.157382
O O18 0.998185 0.000000 0.182880
O O19 0.000000 0.940418 0.000000
#
# Coordination Sequence:
#
# PCOD9407152 Si02
#       6
#     8   8   8   8   8   8
#     4  11  23  38  56  79 107 138 175 217 262 311
#     4   9  18  32  49  70  98 131 166 206 251 299
#     4   9  18  33  51  73 101 131 166 207 252 302
#     4  11  23  38  57  81 110 143 179 219 264 312
#     4   9  19  35  54  75 101 134 169 208 254 305
#     4   9  19  36  57  81 109 141 177 217 261 309
#
# _framework density 18.979030000000002
#
# number of rings (size 3 to 8) (size 9 to 14) (size 15 to 20)
#    0.000    2.333    0.000    2.000    0.000    7.333 
#    0.000    0.000    0.000    0.000    0.000    0.000 
#    0.000    0.000    0.000    0.000    0.000    0.000 
#
# Total GULP energy -267882.427175 kJ/mol
# GULP energy per Si atom -5580.883899 kJ/mol
# Density = 1.893583 g / cm^3
# Si number density = 18.979030 Si / 1000 Ang^3
#
#
#
# Elastic Constant Matrix: (Units=GPa)
#
#
# Indices 1 2 3 4 5 6 
#
# 1 15.7487 24.2627 16.3499 0.0000 0.0000 0.0000
# 2 24.2627 179.8249 130.6747 0.0000 0.0000 0.0000
# 3 16.3499 130.6747 150.4804 0.0000 0.0000 0.0000
# 4 0.0000 0.0000 0.0000 44.2133 0.0000 0.0000
# 5 0.0000 0.0000 0.0000 0.0000 33.2887 0.0000
# 6 0.0000 0.0000 0.0000 0.0000 0.0000 97.1370
#
#
#
# Elastic Compliance Matrix: (Units=1/GPa)
#
#
# Indices 1 2 3 4 5 6 
#
# 1 0.080350 -0.012189 0.001854 0.000000 0.000000 0.000000
# 2 -0.012189 0.016921 -0.013369 0.000000 0.000000 0.000000
# 3 0.001854 -0.013369 0.018054 0.000000 0.000000 0.000000
# 4 0.000000 0.000000 0.000000 0.022618 0.000000 0.000000
# 5 0.000000 0.000000 0.000000 0.000000 0.030040 0.000000
# 6 0.000000 0.000000 0.000000 0.000000 0.000000 0.010295
#
#
# Mechanical properties :
#
#
# Convention : Reuss Voigt Hill
#
# Bulk Modulus (GPa) = 14.72387 76.51431 45.61909
# Shear Modulus (GPa) = 20.13503 46.57893 33.35698
#
# Velocity S-wave (km/s) = 3.26069 4.95939 4.19689
# Velocity P-wave (km/s) = 4.68519 8.55551 6.89738
#
# Compressibility (1/GPa) = 0.06791693
#
# Stress axis : x y z
#
# Youngs Moduli (GPa) = 12.44555 59.09907 55.39038
#
# Poissons Ratio (x) = 0.72033 -0.10271
# Poissons Ratio (y) = 0.15169 0.74054
# Poissons Ratio (z) = -0.02308 0.79012
#
# Static dielectric constant tensor:
#      x y z
#    x 1.663070 0.000000 0.000000 
#    y 0.000000 1.691660 0.000000 
#    z 0.000000 0.000000 1.601740 
# 
# From -- ./inp_files/5995.got.cif
#   From: 2010.05.17/outbox.cif.g08.bks.cpg/sg51_3_cif.got.tgz:5995.got - 2010.06.03 11:52:47.
