data_PCOD9407840
_publ_section_title
;
Structure prediction by ZEFSAII (Michael W. Deem and Ramdas Pophale) SiO2 
 PCOD9407840
Probable space group: P M M A
;
_chemical_formula_sum "Si O2"
_cell_formula_units_Z 48
_cell_length_a 15.000000
_cell_length_b 12.000000
_cell_length_c 15.000000
_cell_angle_alpha 90.000000
_cell_angle_beta 90.000000
_cell_angle_gamma 90.000000
_cell_volume 2700.000000
_symmetry_space_group_name_H-M "P M M A"
_symmetry_group_IT_number 51
_symmetry_cell_setting 'orthorhombic'
loop_
_space_group_symop_operation_xyz
x,y,z
1/2-x,-y,z
1/2+x,-y,-z
-x,y,-z
-x,-y,-z
1/2+x,y,-z
1/2-x,y,z
x,-y,z
loop_
_atom_site_type_symbol
_atom_site_label
_atom_site_fract_x
_atom_site_fract_y
_atom_site_fract_z
Si Si1 0.470963 0.864877 0.125445
Si Si2 0.853810 0.500000 0.798258
Si Si3 0.040592 0.289746 0.283878
Si Si4 0.854907 0.631045 0.554457
Si Si5 0.149210 0.633556 0.657171
Si Si6 0.106919 0.500000 0.995184
Si Si7 0.642893 0.757587 0.035095
O O1 0.448989 0.820262 0.224265
O O2 0.570745 0.818212 0.100661
O O3 0.467573 0.000000 0.115676
O O4 0.400042 0.802818 0.058851
O O5 0.750000 0.500000 0.768320
O O6 0.907389 0.391436 0.764918
O O7 0.855211 0.500000 0.904910
O O8 0.084818 0.293436 0.381984
O O9 0.935494 0.315954 0.293127
O O10 0.750000 0.642657 0.576683
O O11 0.879670 0.500000 0.568577
O O12 0.863199 0.653280 0.449079
O O13 0.250000 0.671112 0.682257
O O14 0.146811 0.500000 0.669771
O O15 0.133614 0.378096 0.955580
O O16 0.000000 0.500000 0.000000
O O17 0.750000 0.783381 0.042388
#
# Coordination Sequence:
#
# PCOD9407840 Si02
#       7
#     8   4   8   8   8   4   8
#     4  11  26  42  56  81 112 148 204 246 272 323
#     4  12  22  32  52  87 121 143 174 225 291 356
#     4  12  20  33  56  80 113 152 183 225 287 335
#     4   9  17  30  52  83 116 146 178 219 278 350
#     4   9  18  32  51  82 118 147 180 222 274 346
#     4  12  20  38  60  92 120 144 171 223 295 362
#     4  11  22  41  66  85 112 149 185 231 289 343
#
# _framework density 17.777778000000001
#
# number of rings (size 3 to 8) (size 9 to 14) (size 15 to 20)
#    0.000    1.333    5.000    3.750    0.000    4.000 
#    0.000    0.000    0.000    2.000    0.000    2.333 
#    0.000    0.000    0.000    0.000    0.000    0.000 
#
# Total GULP energy -267831.756264 kJ/mol
# GULP energy per Si atom -5579.828255 kJ/mol
# Density = 1.773731 g / cm^3
# Si number density = 17.777778 Si / 1000 Ang^3
#
#
#
# Elastic Constant Matrix: (Units=GPa)
#
#
# Indices 1 2 3 4 5 6 
#
# 1 130.5683 29.2002 20.9633 0.0000 0.0000 0.0000
# 2 29.2002 105.0468 17.2963 0.0000 0.0000 0.0000
# 3 20.9633 17.2963 35.2490 0.0000 0.0000 0.0000
# 4 0.0000 0.0000 0.0000 21.3339 0.0000 0.0000
# 5 0.0000 0.0000 0.0000 0.0000 25.3440 0.0000
# 6 0.0000 0.0000 0.0000 0.0000 0.0000 17.1655
#
#
#
# Elastic Compliance Matrix: (Units=1/GPa)
#
#
# Indices 1 2 3 4 5 6 
#
# 1 0.008742 -0.001712 -0.004359 0.000000 0.000000 0.000000
# 2 -0.001712 0.010692 -0.004228 0.000000 0.000000 0.000000
# 3 -0.004359 -0.004228 0.033036 0.000000 0.000000 0.000000
# 4 0.000000 0.000000 0.000000 0.046874 0.000000 0.000000
# 5 0.000000 0.000000 0.000000 0.000000 0.039457 0.000000
# 6 0.000000 0.000000 0.000000 0.000000 0.000000 0.058256
#
#
# Mechanical properties :
#
#
# Convention : Reuss Voigt Hill
#
# Bulk Modulus (GPa) = 31.37554 45.08709 38.23131
# Shear Modulus (GPa) = 21.90307 26.32897 24.11602
#
# Velocity S-wave (km/s) = 3.51386 3.85256 3.68710
# Velocity P-wave (km/s) = 5.84380 6.72355 6.29905
#
# Compressibility (1/GPa) = 0.03187196
#
# Stress axis : x y z
#
# Youngs Moduli (GPa) = 114.39624 93.53070 30.26962
#
# Poissons Ratio (x) = 0.16015 0.13193
# Poissons Ratio (y) = 0.19588 0.12798
# Poissons Ratio (z) = 0.49861 0.39545
#
# Static dielectric constant tensor:
#      x y z
#    x 1.626030 0.000000 0.000000 
#    y 0.000000 1.577670 0.000000 
#    z 0.000000 0.000000 1.669820 
# 
# From -- ./inp_files/24063.got.cif
#   From: 2010.05.17/outbox.ucp.g08.bks.cvg/sg51_13_cif.got.tgz:24063.got - 2010.06.11 16:27:58.
