data_PCOD9407443
_publ_section_title
;
Structure prediction by ZEFSAII (Michael W. Deem and Ramdas Pophale) SiO2 
 PCOD9407443
Probable space group: P M M A
;
_chemical_formula_sum "Si O2"
_cell_formula_units_Z 64
_cell_length_a 9.000000
_cell_length_b 21.000000
_cell_length_c 21.000000
_cell_angle_alpha 90.000000
_cell_angle_beta 90.000000
_cell_angle_gamma 90.000000
_cell_volume 3969.000000
_symmetry_space_group_name_H-M "P M M A"
_symmetry_group_IT_number 51
_symmetry_cell_setting 'orthorhombic'
loop_
_space_group_symop_operation_xyz
x,y,z
1/2-x,-y,z
1/2+x,-y,-z
-x,y,-z
-x,-y,-z
1/2+x,y,-z
1/2-x,y,z
x,-y,z
loop_
_atom_site_type_symbol
_atom_site_label
_atom_site_fract_x
_atom_site_fract_y
_atom_site_fract_z
Si Si1 0.430134 0.430225 0.617330
Si Si2 0.073021 0.248504 0.792695
Si Si3 0.926578 0.604045 0.238039
Si Si4 0.572337 0.428468 0.892445
Si Si5 0.571283 0.706009 0.433688
Si Si6 0.571224 0.076001 0.570063
Si Si7 0.930217 0.295221 0.067404
Si Si8 0.569790 0.819400 0.335376
O O1 0.250000 0.430106 0.612302
O O2 0.483490 0.500000 0.595040
O O3 0.463048 0.422109 0.692377
O O4 0.482148 0.365803 0.582848
O O5 0.250000 0.237982 0.796860
O O6 0.051286 0.319570 0.764233
O O7 0.023511 0.256287 0.867482
O O8 0.020649 0.198197 0.737898
O O9 0.750000 0.592539 0.225868
O O10 0.023063 0.574851 0.181536
O O11 0.750000 0.419548 0.898854
O O12 0.534997 0.500000 0.916302
O O13 0.487271 0.368171 0.922932
O O14 0.500000 0.726917 0.500000
O O15 0.750000 0.704383 0.439619
O O16 0.537655 0.756368 0.377896
O O17 0.500000 0.090637 0.500000
O O18 0.750000 0.085153 0.566881
O O19 0.503439 0.121469 0.625733
O O20 0.543349 0.000000 0.582082
O O21 0.750000 0.294896 0.064367
O O22 0.000000 0.272508 0.000000
O O23 0.750000 0.828102 0.334649
#
# Coordination Sequence:
#
# PCOD9407443 Si02
#       8
#     8   8   8   8   8   8   8   8
#     4   9  16  27  45  64  82 112 156 202 248 300
#     4   8  15  29  50  73  95 122 156 198 243 289
#     4   9  15  28  48  67  85 111 152 198 246 297
#     4  10  20  31  43  63  91 119 151 195 248 305
#     4  10  20  32  46  65  91 121 158 204 248 292
#     4  10  21  36  53  77 110 144 176 207 243 290
#     4  10  20  34  52  70  94 125 159 198 245 299
#     4  10  18  32  54  76 101 130 166 208 245 287
#
# _framework density 16.124969
#
# number of rings (size 3 to 8) (size 9 to 14) (size 15 to 20)
#    0.000    2.500    1.250    2.625    0.000    4.250 
#    0.000    3.750    0.000    0.750    0.000    0.000 
#    0.000    0.500    0.000    1.125    0.000    2.000 
#
# Total GULP energy -356582.229344 kJ/mol
# GULP energy per Si atom -5571.597333 kJ/mol
# Density = 1.608827 g / cm^3
# Si number density = 16.124969 Si / 1000 Ang^3
#
#
#
# Elastic Constant Matrix: (Units=GPa)
#
#
# Indices 1 2 3 4 5 6 
#
# 1 39.0803 22.5611 25.9480 0.0000 0.0000 0.0000
# 2 22.5611 78.3658 44.0043 0.0000 0.0000 0.0000
# 3 25.9480 44.0043 116.3944 0.0000 0.0000 0.0000
# 4 0.0000 0.0000 0.0000 21.4656 0.0000 0.0000
# 5 0.0000 0.0000 0.0000 0.0000 25.9654 0.0000
# 6 0.0000 0.0000 0.0000 0.0000 0.0000 21.4531
#
#
#
# Elastic Compliance Matrix: (Units=1/GPa)
#
#
# Indices 1 2 3 4 5 6 
#
# 1 0.032614 -0.006737 -0.004724 0.000000 0.000000 0.000000
# 2 -0.006737 0.017591 -0.005149 0.000000 0.000000 0.000000
# 3 -0.004724 -0.005149 0.011591 0.000000 0.000000 0.000000
# 4 0.000000 0.000000 0.000000 0.046586 0.000000 0.000000
# 5 0.000000 0.000000 0.000000 0.000000 0.038513 0.000000
# 6 0.000000 0.000000 0.000000 0.000000 0.000000 0.046613
#
#
# Mechanical properties :
#
#
# Convention : Reuss Voigt Hill
#
# Bulk Modulus (GPa) = 34.99237 46.54080 40.76659
# Shear Modulus (GPa) = 21.16373 23.19863 22.18118
#
# Velocity S-wave (km/s) = 3.62675 3.79711 3.71290
# Velocity P-wave (km/s) = 6.26782 6.93897 6.61191
#
# Compressibility (1/GPa) = 0.02857766
#
# Stress axis : x y z
#
# Youngs Moduli (GPa) = 30.66170 56.84616 86.27319
#
# Poissons Ratio (x) = 0.38297 0.40753
# Poissons Ratio (y) = 0.20657 0.44420
# Poissons Ratio (z) = 0.14484 0.29269
#
# Static dielectric constant tensor:
#      x y z
#    x 1.539510 0.000000 0.000000 
#    y 0.000000 1.551600 0.000000 
#    z 0.000000 0.000000 1.565070 
# 
# From -- ./inp_files/32677.got.cif
#   From: 2010.05.17/outbox.ucp.g08.bks.cvg/sg51_17_cif.got.tgz:32677.got - 2010.06.11 16:27:58.
