data_PCOD9407600
_publ_section_title
;
Structure prediction by ZEFSAII (Michael W. Deem and Ramdas Pophale) SiO2 
 PCOD9407600
Probable space group: P M M A
;
_chemical_formula_sum "Si O2"
_cell_formula_units_Z 32
_cell_length_a 9.000000
_cell_length_b 9.000000
_cell_length_c 21.000000
_cell_angle_alpha 90.000000
_cell_angle_beta 90.000000
_cell_angle_gamma 90.000000
_cell_volume 1701.000000
_symmetry_space_group_name_H-M "P M M A"
_symmetry_group_IT_number 51
_symmetry_cell_setting 'orthorhombic'
loop_
_space_group_symop_operation_xyz
x,y,z
1/2-x,-y,z
1/2+x,-y,-z
-x,y,-z
-x,-y,-z
1/2+x,y,-z
1/2-x,y,z
x,-y,z
loop_
_atom_site_type_symbol
_atom_site_label
_atom_site_fract_x
_atom_site_fract_y
_atom_site_fract_z
Si Si1 0.579189 0.676080 0.806829
Si Si2 0.074301 0.171792 0.691415
Si Si3 0.919548 0.818564 0.563329
Si Si4 0.927810 0.173339 0.935939
O O1 0.750000 0.728336 0.797111
O O2 0.580124 0.500000 0.808954
O O3 0.479735 0.734790 0.750441
O O4 0.524945 0.740149 0.873576
O O5 0.250000 0.173940 0.684621
O O6 0.001343 0.229159 0.626878
O O7 0.027117 0.000000 0.700977
O O8 0.750000 0.772073 0.564048
O O9 0.000000 0.766388 0.500000
O O10 0.923784 0.000000 0.562586
O O11 0.750000 0.182443 0.941202
O O12 0.969016 0.000000 0.929136
O O13 0.000000 0.232515 0.000000
#
# Coordination Sequence:
#
# PCOD9407600 Si02
#       4
#     8   8   8   8
#     4  10  21  36  53  74 102 137 175 213 255 305
#     4  10  20  33  51  76 104 135 173 215 258 306
#     4   9  16  27  46  73 104 135 168 210 258 305
#     4   9  18  33  53  76 102 132 167 208 253 302
#
# _framework density 18.812463000000001
#
# number of rings (size 3 to 8) (size 9 to 14) (size 15 to 20)
#    0.000    2.500    0.000    2.250    0.000    7.500 
#    0.000    2.500    0.000    0.750    0.000    0.000 
#    0.000    0.000    0.000    0.000    0.000    0.000 
#
# Total GULP energy -178458.171738 kJ/mol
# GULP energy per Si atom -5576.817867 kJ/mol
# Density = 1.876965 g / cm^3
# Si number density = 18.812463 Si / 1000 Ang^3
#
#
#
# Elastic Constant Matrix: (Units=GPa)
#
#
# Indices 1 2 3 4 5 6 
#
# 1 46.0063 30.4038 77.1766 0.0000 0.0000 0.0000
# 2 30.4038 18.2473 50.3436 0.0000 0.0000 0.0000
# 3 77.1766 50.3436 179.9763 0.0000 0.0000 0.0000
# 4 0.0000 0.0000 0.0000 -50.2676 0.0000 0.0000
# 5 0.0000 0.0000 0.0000 0.0000 33.7804 0.0000
# 6 0.0000 0.0000 0.0000 0.0000 0.0000 21.4141
#
#
#
# Elastic Compliance Matrix: (Units=1/GPa)
#
#
# Indices 1 2 3 4 5 6 
#
# 1 -0.173980 0.368251 -0.028403 0.000000 0.000000 0.000000
# 2 0.368251 -0.539351 -0.007042 0.000000 0.000000 0.000000
# 3 -0.028403 -0.007042 0.019706 0.000000 0.000000 0.000000
# 4 0.000000 0.000000 0.000000 -0.019894 0.000000 0.000000
# 5 0.000000 0.000000 0.000000 0.000000 0.029603 0.000000
# 6 0.000000 0.000000 0.000000 0.000000 0.000000 0.046698
#
#
# Mechanical properties :
#
#
# Convention : Reuss Voigt Hill
#
# Bulk Modulus (GPa) = -35.69522 62.23089 13.26783
# Shear Modulus (GPa) = -3.81049 6.73911 1.46431
#
# Velocity S-wave (km/s) = -1.42475 1.89474 0.88321
# Velocity P-wave (km/s) = 4.66068 6.15939 2.84747
#
# Compressibility (1/GPa) = -0.02801495
#
# Stress axis : x y z
#
# Youngs Moduli (GPa) = -5.74777 -1.85408 50.74655
#
# Poissons Ratio (x) = 0.68277 1.44135
# Poissons Ratio (y) = 2.11662 0.35737
# Poissons Ratio (z) = -0.16325 -0.01306
#
# Static dielectric constant tensor:
#      x y z
#    x 1.641300 0.000000 0.000000 
#    y 0.000000 1.634580 0.000000 
#    z 0.000000 0.000000 1.624050 
# 
# From -- ./inp_files/26941.got.cif
#   From: 2010.05.17/outbox.ucp.g08.bks.cvg/sg51_14_cif.got.tgz:26941.got - 2010.06.11 16:27:58.
