data_PCOD9407258
_publ_section_title
;
Structure prediction by ZEFSAII (Michael W. Deem and Ramdas Pophale) SiO2 
 PCOD9407258
Probable space group: P M M A
;
_chemical_formula_sum "Si O2"
_cell_formula_units_Z 40
_cell_length_a 28.583265
_cell_length_b 7.487039
_cell_length_c 7.294203
_cell_angle_alpha 90.000000
_cell_angle_beta 90.000000
_cell_angle_gamma 90.000000
_cell_volume 1560.988763
_symmetry_space_group_name_H-M "P M M A"
_symmetry_group_IT_number 51
_symmetry_cell_setting 'orthorhombic'
loop_
_space_group_symop_operation_xyz
x,y,z
1/2-x,-y,z
1/2+x,-y,-z
-x,y,-z
-x,-y,-z
1/2+x,y,-z
1/2-x,y,z
x,-y,z
loop_
_atom_site_type_symbol
_atom_site_label
_atom_site_fract_x
_atom_site_fract_y
_atom_site_fract_z
Si Si1 0.349453 0.205116 0.515178
Si Si2 0.449246 0.207012 0.532949
Si Si3 0.250000 0.219448 0.564546
Si Si4 0.949379 0.797760 0.030052
Si Si5 0.847759 0.288884 0.057656
Si Si6 0.250000 0.294951 0.000216
O O1 0.399949 0.286634 0.464843
O O2 0.298321 0.281302 0.471571
O O3 0.348782 0.204259 0.739177
O O4 0.350539 0.000000 0.452681
O O5 0.500000 0.290661 0.500000
O O6 0.445382 0.201272 0.751346
O O7 0.451511 0.000000 0.467572
O O8 0.250000 0.284598 0.775752
O O9 0.250000 0.000000 0.568237
O O10 0.898569 0.732385 0.966368
O O11 0.953327 0.000000 0.958778
O O12 0.000000 0.708716 0.000000
O O13 0.841151 0.500000 0.086422
O O14 0.801377 0.217904 0.954976
O O15 0.250000 0.500000 0.061959
#
# Coordination Sequence:
#
# PCOD9407258 Si02
#       6
#     8   8   4   8   8   4
#     4   8  13  21  33  50  72  95 119 147 181 219
#     4   8  13  22  37  55  72  93 122 151 178 213
#     4   8  12  18  30  48  69  92 116 144 178 216
#     4   9  17  28  40  55  76 101 128 156 186 221
#     4   9  15  23  36  54  76  99 123 152 187 224
#     4   8  14  22  32  50  75  98 118 146 186 226
#
# _framework density 25.624784999999999
#
# number of rings (size 3 to 8) (size 9 to 14) (size 15 to 20)
#    0.000    3.600    0.000    1.800    0.000    1.200 
#    0.000    0.000    0.000    9.600    0.000    1.400 
#    0.000    6.400    0.000   32.800    0.000    6.400 
#
# Total GULP energy -222738.132546 kJ/mol
# GULP energy per Si atom -5568.453314 kJ/mol
# Density = 2.556646 g / cm^3
# Si number density = 25.624785 Si / 1000 Ang^3
#
#
#
# Elastic Constant Matrix: (Units=GPa)
#
#
# Indices 1 2 3 4 5 6 
#
# 1 378.1171 18.8490 5.9941 0.0000 0.0000 0.0000
# 2 18.8490 87.7987 -7.1370 0.0000 0.0000 0.0000
# 3 5.9941 -7.1370 86.0066 0.0000 0.0000 0.0000
# 4 0.0000 0.0000 0.0000 -7.5417 0.0000 0.0000
# 5 0.0000 0.0000 0.0000 0.0000 11.1342 0.0000
# 6 0.0000 0.0000 0.0000 0.0000 0.0000 10.0487
#
#
#
# Elastic Compliance Matrix: (Units=1/GPa)
#
#
# Indices 1 2 3 4 5 6 
#
# 1 0.002678 -0.000594 -0.000236 0.000000 0.000000 0.000000
# 2 -0.000594 0.011599 0.001004 0.000000 0.000000 0.000000
# 3 -0.000236 0.001004 0.011727 0.000000 0.000000 0.000000
# 4 0.000000 0.000000 0.000000 -0.132596 0.000000 0.000000
# 5 0.000000 0.000000 0.000000 0.000000 0.089813 0.000000
# 6 0.000000 0.000000 0.000000 0.000000 0.000000 0.099516
#
#
# Mechanical properties :
#
#
# Convention : Reuss Voigt Hill
#
# Bulk Modulus (GPa) = 37.94873 65.25938 51.60405
# Shear Modulus (GPa) = 54.84074 38.34266 46.59170
#
# Velocity S-wave (km/s) = 4.63119 3.87241 4.26869
# Velocity P-wave (km/s) = 6.59081 6.74661 6.66916
#
# Compressibility (1/GPa) = 0.02635135
#
# Stress axis : x y z
#
# Youngs Moduli (GPa) = 373.40748 86.21550 85.27501
#
# Poissons Ratio (x) = 0.05122 0.02012
# Poissons Ratio (y) = 0.22185 -0.08561
# Poissons Ratio (z) = 0.08810 -0.08655
#
# Static dielectric constant tensor:
#      x y z
#    x 2.189600 0.000000 0.000000 
#    y 0.000000 2.066950 0.000000 
#    z 0.000000 0.000000 2.055750 
# 
# From -- ./inp_files/18941.got.cif
#   From: 2010.05.17/outbox.cif.g08.bks.cpg/sg51_10_cif.got.tgz:18941.got - 2010.06.03 11:52:47.
