data_PCOD9407448
_publ_section_title
;
Structure prediction by ZEFSAII (Michael W. Deem and Ramdas Pophale) SiO2 
 PCOD9407448
Probable space group: P M M A
;
_chemical_formula_sum "Si O2"
_cell_formula_units_Z 64
_cell_length_a 18.000000
_cell_length_b 15.000000
_cell_length_c 12.000000
_cell_angle_alpha 90.000000
_cell_angle_beta 90.000000
_cell_angle_gamma 90.000000
_cell_volume 3240.000000
_symmetry_space_group_name_H-M "P M M A"
_symmetry_group_IT_number 51
_symmetry_cell_setting 'orthorhombic'
loop_
_space_group_symop_operation_xyz
x,y,z
1/2-x,-y,z
1/2+x,-y,-z
-x,y,-z
-x,-y,-z
1/2+x,y,-z
1/2-x,y,z
x,-y,z
loop_
_atom_site_type_symbol
_atom_site_label
_atom_site_fract_x
_atom_site_fract_y
_atom_site_fract_z
Si Si1 0.832649 0.397750 0.389091
Si Si2 0.045151 0.604560 0.885492
Si Si3 0.162962 0.737667 0.957375
Si Si4 0.878446 0.601608 0.638013
Si Si5 0.664393 0.773477 0.781241
Si Si6 0.479539 0.297459 0.665196
Si Si7 0.534646 0.104166 0.690294
Si Si8 0.062976 0.099807 0.910011
O O1 0.750000 0.375276 0.349184
O O2 0.850349 0.500000 0.353962
O O3 0.833987 0.399271 0.523091
O O4 0.895634 0.327976 0.355695
O O5 0.046099 0.500000 0.850169
O O6 0.124765 0.647541 0.913654
O O7 0.009980 0.672979 0.795402
O O8 0.000000 0.608560 0.000000
O O9 0.250000 0.735999 0.936934
O O10 0.124276 0.824115 0.903599
O O11 0.149672 0.752622 0.089333
O O12 0.878858 0.500000 0.683746
O O13 0.847964 0.680142 0.716256
O O14 0.961458 0.635565 0.609302
O O15 0.750000 0.800190 0.769494
O O16 0.611996 0.852283 0.733615
O O17 0.498708 0.194894 0.634017
O O18 0.480080 0.094292 0.794532
O O19 0.542217 0.000000 0.644788
O O20 0.091237 0.000000 0.939453
O O21 0.000000 0.124690 0.000000
#
# Coordination Sequence:
#
# PCOD9407448 Si02
#       8
#     8   8   8   8   8   8   8   8
#     4  10  21  37  59  87 116 145 181 230 288 340
#     4  11  22  36  54  77 110 152 192 226 265 325
#     4  11  22  34  49  76 114 149 185 229 277 331
#     4  10  20  36  59  86 113 144 184 233 281 332
#     4  10  21  34  53  82 115 149 186 231 284 338
#     4  11  21  36  59  84 111 143 192 234 277 333
#     4  10  20  35  57  80 106 143 186 234 282 332
#     4  10  18  33  56  76 101 141 188 236 282 323
#
# _framework density 19.753086
#
# number of rings (size 3 to 8) (size 9 to 14) (size 15 to 20)
#    0.000    1.625    2.500    3.750    0.000    4.500 
#    0.000    2.500    0.000    6.375    0.000    0.000 
#    0.000    0.000    0.000    0.000    0.000    0.000 
#
# Total GULP energy -356790.661030 kJ/mol
# GULP energy per Si atom -5574.854079 kJ/mol
# Density = 1.970813 g / cm^3
# Si number density = 19.753086 Si / 1000 Ang^3
#
#
#
# Elastic Constant Matrix: (Units=GPa)
#
#
# Indices 1 2 3 4 5 6 
#
# 1 106.9763 38.7413 19.4672 0.0000 0.0000 0.0000
# 2 38.7413 141.7188 10.9651 0.0000 0.0000 0.0000
# 3 19.4672 10.9651 47.9764 0.0000 0.0000 0.0000
# 4 0.0000 0.0000 0.0000 29.3612 0.0000 0.0000
# 5 0.0000 0.0000 0.0000 0.0000 21.2693 0.0000
# 6 0.0000 0.0000 0.0000 0.0000 0.0000 32.9054
#
#
#
# Elastic Compliance Matrix: (Units=1/GPa)
#
#
# Indices 1 2 3 4 5 6 
#
# 1 0.011034 -0.002718 -0.003856 0.000000 0.000000 0.000000
# 2 -0.002718 0.007853 -0.000692 0.000000 0.000000 0.000000
# 3 -0.003856 -0.000692 0.022566 0.000000 0.000000 0.000000
# 4 0.000000 0.000000 0.000000 0.034059 0.000000 0.000000
# 5 0.000000 0.000000 0.000000 0.000000 0.047016 0.000000
# 6 0.000000 0.000000 0.000000 0.000000 0.000000 0.030390
#
#
# Mechanical properties :
#
#
# Convention : Reuss Voigt Hill
#
# Bulk Modulus (GPa) = 37.14532 48.33543 42.74038
# Shear Modulus (GPa) = 28.34092 31.87370 30.10731
#
# Velocity S-wave (km/s) = 3.79193 4.02133 3.90831
# Velocity P-wave (km/s) = 6.16582 6.78855 6.48466
#
# Compressibility (1/GPa) = 0.02692129
#
# Stress axis : x y z
#
# Youngs Moduli (GPa) = 90.63007 127.34376 44.31376
#
# Poissons Ratio (x) = 0.34611 0.17087
# Poissons Ratio (y) = 0.24633 0.03066
# Poissons Ratio (z) = 0.34947 0.08811
#
# Static dielectric constant tensor:
#      x y z
#    x 1.730730 0.000000 0.000000 
#    y 0.000000 1.693220 0.000000 
#    z 0.000000 0.000000 1.785920 
# 
# From -- ./inp_files/17530.got.cif
#   From: 2010.05.17/outbox.ucp.g08.bks.cvg/sg51_9_cif.got.tgz:17530.got - 2010.06.11 16:27:58.
