data_PCOD9407465
_publ_section_title
;
Structure prediction by ZEFSAII (Michael W. Deem and Ramdas Pophale) SiO2 
 PCOD9407465
Probable space group: P M M A
;
_chemical_formula_sum "Si O2"
_cell_formula_units_Z 64
_cell_length_a 30.000000
_cell_length_b 9.000000
_cell_length_c 15.000000
_cell_angle_alpha 90.000000
_cell_angle_beta 90.000000
_cell_angle_gamma 90.000000
_cell_volume 4050.000000
_symmetry_space_group_name_H-M "P M M A"
_symmetry_group_IT_number 51
_symmetry_cell_setting 'orthorhombic'
loop_
_space_group_symop_operation_xyz
x,y,z
1/2-x,-y,z
1/2+x,-y,-z
-x,y,-z
-x,-y,-z
1/2+x,y,-z
1/2-x,y,z
x,-y,z
loop_
_atom_site_type_symbol
_atom_site_label
_atom_site_fract_x
_atom_site_fract_y
_atom_site_fract_z
Si Si1 0.038385 0.822859 0.200003
Si Si2 0.442175 0.325095 0.826603
Si Si3 0.602900 0.325429 0.660661
Si Si4 0.949119 0.674037 0.475311
Si Si5 0.609223 0.177092 0.326198
Si Si6 0.299501 0.679173 0.385552
Si Si7 0.446090 0.167820 0.004719
Si Si8 0.799434 0.178331 0.419028
O O1 0.070016 0.767481 0.277837
O O2 0.062576 0.787651 0.106062
O O3 0.990090 0.745475 0.200120
O O4 0.031366 0.000000 0.202724
O O5 0.445071 0.500000 0.816068
O O6 0.404807 0.255840 0.764120
O O7 0.432191 0.279061 0.928054
O O8 0.600611 0.500000 0.685562
O O9 0.583019 0.313953 0.560934
O O10 0.654645 0.275914 0.663170
O O11 0.950124 0.500000 0.447411
O O12 0.927417 0.772081 0.398571
O O13 0.000000 0.715267 0.500000
O O14 0.658199 0.222650 0.360424
O O15 0.608144 0.000000 0.316239
O O16 0.250000 0.720986 0.349774
O O17 0.300853 0.500000 0.390843
O O18 0.302454 0.744858 0.484863
O O19 0.429752 0.000000 0.987221
O O20 0.500000 0.161482 0.000000
O O21 0.750000 0.212291 0.381828
O O22 0.802036 0.000000 0.431548
#
# Coordination Sequence:
#
# PCOD9407465 Si02
#       8
#     8   8   8   8   8   8   8   8
#     4  10  20  33  50  71  97 127 159 195 234 279
#     4  11  21  32  49  71  97 127 159 195 233 279
#     4  10  19  30  45  68  97 128 160 196 236 279
#     4  10  20  32  44  62  93 130 163 195 229 269
#     4  11  21  32  48  69  94 126 160 196 236 282
#     4   9  17  30  48  68  91 122 159 198 240 282
#     4   8  16  32  50  69  94 122 154 195 237 275
#     4   9  18  32  49  69  92 120 157 200 242 281
#
# _framework density 15.802469
#
# number of rings (size 3 to 8) (size 9 to 14) (size 15 to 20)
#    0.000    2.250    1.250    3.375    0.000    5.500 
#    0.000    0.000    0.000    0.000    0.000    0.875 
#    0.000    1.000    0.000    0.000    0.000    0.000 
#
# Total GULP energy -356721.695988 kJ/mol
# GULP energy per Si atom -5573.776500 kJ/mol
# Density = 1.576650 g / cm^3
# Si number density = 15.802469 Si / 1000 Ang^3
#
#
#
# Elastic Constant Matrix: (Units=GPa)
#
#
# Indices 1 2 3 4 5 6 
#
# 1 52.0554 9.7469 -6.7456 0.0000 0.0000 0.0000
# 2 9.7469 35.1170 20.7979 0.0000 0.0000 0.0000
# 3 -6.7456 20.7979 33.0985 0.0000 0.0000 0.0000
# 4 0.0000 0.0000 0.0000 29.5481 0.0000 0.0000
# 5 0.0000 0.0000 0.0000 0.0000 6.7470 0.0000
# 6 0.0000 0.0000 0.0000 0.0000 0.0000 -0.8520
#
#
#
# Elastic Compliance Matrix: (Units=1/GPa)
#
#
# Indices 1 2 3 4 5 6 
#
# 1 0.023918 -0.015172 0.014408 0.000000 0.000000 0.000000
# 2 -0.015172 0.054979 -0.037639 0.000000 0.000000 0.000000
# 3 0.014408 -0.037639 0.056800 0.000000 0.000000 0.000000
# 4 0.000000 0.000000 0.000000 0.033843 0.000000 0.000000
# 5 0.000000 0.000000 0.000000 0.000000 0.148214 0.000000
# 6 0.000000 0.000000 0.000000 0.000000 0.000000 -1.173697
#
#
# Mechanical properties :
#
#
# Convention : Reuss Voigt Hill
#
# Bulk Modulus (GPa) = 16.98022 18.65214 17.81618
# Shear Modulus (GPa) = -6.58321 13.52006 3.46842
#
# Velocity S-wave (km/s) = -2.04328 2.92818 1.48311
# Velocity P-wave (km/s) = 2.28078 4.82299 3.77248
#
# Compressibility (1/GPa) = 0.05889207
#
# Stress axis : x y z
#
# Youngs Moduli (GPa) = 41.80935 18.18892 17.60560
#
# Poissons Ratio (x) = 0.27596 -0.25366
# Poissons Ratio (y) = 0.63432 0.66265
# Poissons Ratio (z) = -0.60239 0.68461
#
# Static dielectric constant tensor:
#      x y z
#    x 1.529820 0.000000 0.000000 
#    y 0.000000 1.530850 0.000000 
#    z 0.000000 0.000000 1.536470 
# 
# From -- ./inp_files/26735.got.cif
#   From: 2010.05.17/outbox.ucp.g08.bks.cvg/sg51_14_cif.got.tgz:26735.got - 2010.06.11 16:27:58.
