data_PCOD9407342
_publ_section_title
;
Structure prediction by ZEFSAII (Michael W. Deem and Ramdas Pophale) SiO2 
 PCOD9407342
Probable space group: P M M A
;
_chemical_formula_sum "Si O2"
_cell_formula_units_Z 56
_cell_length_a 19.247808
_cell_length_b 7.516876
_cell_length_c 19.854040
_cell_angle_alpha 90.000000
_cell_angle_beta 90.000000
_cell_angle_gamma 90.000000
_cell_volume 2872.549733
_symmetry_space_group_name_H-M "P M M A"
_symmetry_group_IT_number 51
_symmetry_cell_setting 'orthorhombic'
loop_
_space_group_symop_operation_xyz
x,y,z
1/2-x,-y,z
1/2+x,-y,-z
-x,y,-z
-x,-y,-z
1/2+x,y,-z
1/2-x,y,z
x,-y,z
loop_
_atom_site_type_symbol
_atom_site_label
_atom_site_fract_x
_atom_site_fract_y
_atom_site_fract_z
Si Si1 0.641491 0.200602 0.242103
Si Si2 0.669805 0.782387 0.965131
Si Si3 0.676409 0.295387 0.387843
Si Si4 0.011213 0.289439 0.283407
Si Si5 0.024762 0.282545 0.572777
Si Si6 0.440388 0.213417 0.143927
Si Si7 0.095688 0.217976 0.896728
O O1 0.672988 0.295049 0.306570
O O2 0.559119 0.196965 0.258177
O O3 0.642613 0.276409 0.166959
O O4 0.668646 0.000000 0.241409
O O5 0.750000 0.724569 0.963648
O O6 0.623208 0.723660 0.901816
O O7 0.670626 0.000000 0.965149
O O8 0.629518 0.728195 0.033103
O O9 0.750000 0.212786 0.408353
O O10 0.676834 0.500000 0.410509
O O11 0.603471 0.219135 0.412905
O O12 0.996507 0.500000 0.284577
O O13 0.020915 0.234064 0.361196
O O14 0.064962 0.257679 0.223233
O O15 0.025402 0.500000 0.571034
O O16 0.000000 0.220899 0.500000
O O17 0.515714 0.276311 0.115353
O O18 0.442067 0.000000 0.138641
O O19 0.095100 0.000000 0.894788
#
# Coordination Sequence:
#
# PCOD9407342 Si02
#       7
#     8   8   8   8   8   8   8
#     4   9  16  26  42  64  88 113 141 175 213 254
#     4   9  16  25  39  60  83 108 143 186 225 256
#     4   9  17  28  42  62  89 119 146 173 211 261
#     4   9  16  27  45  66  86 109 137 172 215 260
#     4   8  14  26  45  66  85 107 139 176 209 246
#     4   9  16  27  44  63  83 109 143 181 217 257
#     4   8  14  24  39  60  84 108 138 179 220 254
#
# _framework density 19.494875
#
# number of rings (size 3 to 8) (size 9 to 14) (size 15 to 20)
#    0.000    3.286    0.000    3.000    0.000    2.571 
#    0.000    1.429    0.000   19.714    0.000    2.000 
#    0.000    0.000    0.000    0.000    0.000    0.000 
#
# Total GULP energy -311831.150584 kJ/mol
# GULP energy per Si atom -5568.413403 kJ/mol
# Density = 1.945050 g / cm^3
# Si number density = 19.494875 Si / 1000 Ang^3
#
#
#
# Elastic Constant Matrix: (Units=GPa)
#
#
# Indices 1 2 3 4 5 6 
#
# 1 96.3642 5.2886 81.2244 0.0000 0.0000 0.0000
# 2 5.2886 53.0888 1.3221 0.0000 0.0000 0.0000
# 3 81.2244 1.3221 186.7403 0.0000 0.0000 0.0000
# 4 0.0000 0.0000 0.0000 15.4333 0.0000 0.0000
# 5 0.0000 0.0000 0.0000 0.0000 2.1537 0.0000
# 6 0.0000 0.0000 0.0000 0.0000 0.0000 5.6830
#
#
#
# Elastic Compliance Matrix: (Units=1/GPa)
#
#
# Indices 1 2 3 4 5 6 
#
# 1 0.016497 -0.001465 -0.007165 0.000000 0.000000 0.000000
# 2 -0.001465 0.018970 0.000503 0.000000 0.000000 0.000000
# 3 -0.007165 0.000503 0.008468 0.000000 0.000000 0.000000
# 4 0.000000 0.000000 0.000000 0.064795 0.000000 0.000000
# 5 0.000000 0.000000 0.000000 0.000000 0.464308 0.000000
# 6 0.000000 0.000000 0.000000 0.000000 0.000000 0.175962
#
#
# Mechanical properties :
#
#
# Convention : Reuss Voigt Hill
#
# Bulk Modulus (GPa) = 36.12664 56.87371 46.50018
# Shear Modulus (GPa) = 6.45593 21.21122 13.83358
#
# Velocity S-wave (km/s) = 1.82176 3.30213 2.66672
# Velocity P-wave (km/s) = 4.79548 6.61632 5.77808
#
# Compressibility (1/GPa) = 0.02768040
#
# Stress axis : x y z
#
# Youngs Moduli (GPa) = 60.61636 52.71543 118.09090
#
# Poissons Ratio (x) = 0.07723 0.84615
# Poissons Ratio (y) = 0.08880 -0.05939
# Poissons Ratio (z) = 0.43433 -0.02651
#
# Static dielectric constant tensor:
#      x y z
#    x 1.688820 0.000000 0.000000 
#    y 0.000000 1.762990 0.000000 
#    z 0.000000 0.000000 1.701000 
# 
# From -- ./inp_files/33685.got.cif
#   From: 2010.05.17/outbox.cif.g08.bks.cpg/sg51_17_cif.got.tgz:33685.got - 2010.06.03 11:52:47.
