data_PCOD9407663
_publ_section_title
;
Structure prediction by ZEFSAII (Michael W. Deem and Ramdas Pophale) SiO2 
 PCOD9407663
Probable space group: P M M A
;
_chemical_formula_sum "Si O2"
_cell_formula_units_Z 48
_cell_length_a 18.000000
_cell_length_b 9.000000
_cell_length_c 15.000000
_cell_angle_alpha 90.000000
_cell_angle_beta 90.000000
_cell_angle_gamma 90.000000
_cell_volume 2430.000000
_symmetry_space_group_name_H-M "P M M A"
_symmetry_group_IT_number 51
_symmetry_cell_setting 'orthorhombic'
loop_
_space_group_symop_operation_xyz
x,y,z
1/2-x,-y,z
1/2+x,-y,-z
-x,y,-z
-x,-y,-z
1/2+x,y,-z
1/2-x,y,z
x,-y,z
loop_
_atom_site_type_symbol
_atom_site_label
_atom_site_fract_x
_atom_site_fract_y
_atom_site_fract_z
Si Si1 0.334543 0.818555 0.278644
Si Si2 0.830320 0.174286 0.026767
Si Si3 0.056116 0.821502 0.123801
Si Si4 0.340429 0.830682 0.471856
Si Si5 0.664613 0.322123 0.351010
Si Si6 0.904507 0.324210 0.173745
O O1 0.250000 0.768776 0.262856
O O2 0.391711 0.772623 0.204555
O O3 0.362099 0.771244 0.375633
O O4 0.332283 0.000000 0.279732
O O5 0.750000 0.189546 0.981506
O O6 0.836073 0.273451 0.113431
O O7 0.838625 0.000000 0.049746
O O8 0.897091 0.217554 0.962917
O O9 0.977182 0.749121 0.133810
O O10 0.048369 0.000000 0.124697
O O11 0.250000 0.833883 0.469054
O O12 0.362946 0.732620 0.554232
O O13 0.365733 0.000000 0.483327
O O14 0.750000 0.269846 0.338292
O O15 0.666505 0.500000 0.348487
O O16 0.612173 0.268159 0.272570
O O17 0.911937 0.500000 0.173653
#
# Coordination Sequence:
#
# PCOD9407663 Si02
#       6
#     8   8   8   8   8   8
#     4   8  14  28  52  79 104 131 166 209 256 304
#     4  10  21  37  58  82 103 127 166 213 256 301
#     4  10  20  35  55  78 105 136 168 205 252 305
#     4   8  14  26  48  77 102 125 161 210 257 298
#     4   9  18  33  51  70  95 131 173 212 251 296
#     4  11  23  37  52  73 105 142 174 207 252 303
#
# _framework density 19.753086
#
# number of rings (size 3 to 8) (size 9 to 14) (size 15 to 20)
#    0.000    2.667    0.000    3.000    0.000    7.000 
#    0.000    3.333    0.000    7.500    0.000    0.000 
#    0.000    0.000    0.000    0.000    0.000    0.000 
#
# Total GULP energy -267382.119909 kJ/mol
# GULP energy per Si atom -5570.460831 kJ/mol
# Density = 1.970813 g / cm^3
# Si number density = 19.753086 Si / 1000 Ang^3
#
#
#
# Elastic Constant Matrix: (Units=GPa)
#
#
# Indices 1 2 3 4 5 6 
#
# 1 76.6621 15.0047 56.0427 0.0000 0.0000 0.0000
# 2 15.0047 -19.1249 30.0728 0.0000 0.0000 0.0000
# 3 56.0427 30.0728 127.6688 0.0000 0.0000 0.0000
# 4 0.0000 0.0000 0.0000 29.8010 0.0000 0.0000
# 5 0.0000 0.0000 0.0000 0.0000 12.6905 0.0000
# 6 0.0000 0.0000 0.0000 0.0000 0.0000 128.8613
#
#
#
# Elastic Compliance Matrix: (Units=1/GPa)
#
#
# Indices 1 2 3 4 5 6 
#
# 1 0.019163 0.001319 -0.008722 0.000000 0.000000 0.000000
# 2 0.001319 -0.038065 0.008387 0.000000 0.000000 0.000000
# 3 -0.008722 0.008387 0.009686 0.000000 0.000000 0.000000
# 4 0.000000 0.000000 0.000000 0.033556 0.000000 0.000000
# 5 0.000000 0.000000 0.000000 0.000000 0.078799 0.000000
# 6 0.000000 0.000000 0.000000 0.000000 0.000000 0.007760
#
#
# Mechanical properties :
#
#
# Convention : Reuss Voigt Hill
#
# Bulk Modulus (GPa) = -137.95582 43.04961 -47.45310
# Shear Modulus (GPa) = 46.94138 39.87627 43.40882
#
# Velocity S-wave (km/s) = 4.88013 4.49791 4.69291
# Velocity P-wave (km/s) = 6.18365 6.98685 2.29984
#
# Compressibility (1/GPa) = -0.00724870
#
# Stress axis : x y z
#
# Youngs Moduli (GPa) = 52.18515 -26.27113 103.24216
#
# Poissons Ratio (x) = 0.03464 0.90052
# Poissons Ratio (y) = -0.06882 -0.86593
# Poissons Ratio (z) = 0.45518 0.22035
#
# Static dielectric constant tensor:
#      x y z
#    x 1.677560 0.000000 0.000000 
#    y 0.000000 1.657470 0.000000 
#    z 0.000000 0.000000 1.752080 
# 
# From -- ./inp_files/24782.got.cif
#   From: 2010.05.17/outbox.ucp.g08.bks.cvg/sg51_13_cif.got.tgz:24782.got - 2010.06.11 16:27:58.
