data_PCOD9407328
_publ_section_title
;
Structure prediction by ZEFSAII (Michael W. Deem and Ramdas Pophale) SiO2 
 PCOD9407328
Probable space group: P M M A
;
_chemical_formula_sum "Si O2"
_cell_formula_units_Z 48
_cell_length_a 7.513719
_cell_length_b 9.687525
_cell_length_c 32.507660
_cell_angle_alpha 90.000000
_cell_angle_beta 90.000000
_cell_angle_gamma 90.000000
_cell_volume 2366.211138
_symmetry_space_group_name_H-M "P M M A"
_symmetry_group_IT_number 51
_symmetry_cell_setting 'orthorhombic'
loop_
_space_group_symop_operation_xyz
x,y,z
1/2-x,-y,z
1/2+x,-y,-z
-x,y,-z
-x,-y,-z
1/2+x,y,-z
1/2-x,y,z
x,-y,z
loop_
_atom_site_type_symbol
_atom_site_label
_atom_site_fract_x
_atom_site_fract_y
_atom_site_fract_z
Si Si1 0.468063 0.341184 0.622620
Si Si2 0.536925 0.842860 0.453326
Si Si3 0.536347 0.840463 0.209643
Si Si4 0.538490 0.843115 0.879979
Si Si5 0.536555 0.342815 0.954143
Si Si6 0.967147 0.160979 0.299706
O O1 0.250000 0.341271 0.622643
O O2 0.524866 0.500000 0.623231
O O3 0.527813 0.260142 0.581800
O O4 0.525758 0.256197 0.662844
O O5 0.500000 0.797860 0.500000
O O6 0.750000 0.849844 0.448850
O O7 0.468112 0.000000 0.448366
O O8 0.750000 0.841631 0.210698
O O9 0.486467 0.779337 0.165545
O O10 0.476735 0.787093 0.254260
O O11 0.473731 0.000000 0.208342
O O12 0.750000 0.853958 0.885963
O O13 0.466961 0.751333 0.917190
O O14 0.465428 0.000000 0.880237
O O15 0.750000 0.349836 0.949893
O O16 0.467437 0.500000 0.951973
O O17 0.500000 0.288322 0.000000
O O18 0.750000 0.160833 0.300261
O O19 0.020109 0.000000 0.304640
#
# Coordination Sequence:
#
# PCOD9407328 Si02
#       6
#     8   8   8   8   8   8
#     4   9  16  25  39  61  87 112 139 173 212 251
#     4   9  17  29  45  64  85 110 141 175 210 250
#     4   8  14  25  42  64  87 110 137 170 208 247
#     4   9  17  29  45  65  88 112 139 172 209 249
#     4   9  18  32  47  62  83 112 143 173 207 248
#     4   8  13  23  40  59  79 106 140 174 206 243
#
# _framework density 20.285594
#
# number of rings (size 3 to 8) (size 9 to 14) (size 15 to 20)
#    0.000    3.333    0.000    1.500    0.000    3.333 
#    0.000    0.833    0.000    2.000    0.000    4.667 
#    0.000    0.000    0.000    0.000    0.000    0.000 
#
# Total GULP energy -267489.025134 kJ/mol
# GULP energy per Si atom -5572.688024 kJ/mol
# Density = 2.023942 g / cm^3
# Si number density = 20.285594 Si / 1000 Ang^3
#
#
#
# Elastic Constant Matrix: (Units=GPa)
#
#
# Indices 1 2 3 4 5 6 
#
# 1 50.9015 4.5616 1.2636 0.0000 0.0000 0.0000
# 2 4.5616 91.3993 116.1274 0.0000 0.0000 0.0000
# 3 1.2636 116.1274 248.3542 0.0000 0.0000 0.0000
# 4 0.0000 0.0000 0.0000 -20.3081 0.0000 0.0000
# 5 0.0000 0.0000 0.0000 0.0000 18.1689 0.0000
# 6 0.0000 0.0000 0.0000 0.0000 0.0000 -4.8719
#
#
#
# Elastic Compliance Matrix: (Units=1/GPa)
#
#
# Indices 1 2 3 4 5 6 
#
# 1 0.019814 -0.002121 0.000891 0.000000 0.000000 0.000000
# 2 -0.002121 0.027182 -0.012699 0.000000 0.000000 0.000000
# 3 0.000891 -0.012699 0.009960 0.000000 0.000000 0.000000
# 4 0.000000 0.000000 0.000000 -0.049241 0.000000 0.000000
# 5 0.000000 0.000000 0.000000 0.000000 0.055039 0.000000
# 6 0.000000 0.000000 0.000000 0.000000 0.000000 -0.205259
#
#
# Mechanical properties :
#
#
# Convention : Reuss Voigt Hill
#
# Bulk Modulus (GPa) = 34.36727 70.50666 52.43697
# Shear Modulus (GPa) = -47.64183 16.51129 -15.56527
#
# Velocity S-wave (km/s) = -4.85145 2.85606 -2.77304
# Velocity P-wave (km/s) = 3.79520 6.76081 3.95633
#
# Compressibility (1/GPa) = 0.02909745
#
# Stress axis : x y z
#
# Youngs Moduli (GPa) = 50.47006 36.78972 100.40310
#
# Poissons Ratio (x) = 0.07802 -0.08944
# Poissons Ratio (y) = 0.10703 1.27501
# Poissons Ratio (z) = -0.04496 0.46719
#
# Static dielectric constant tensor:
#      x y z
#    x 1.776450 0.000000 0.000000 
#    y 0.000000 1.694790 0.000000 
#    z 0.000000 0.000000 1.733160 
# 
# From -- ./inp_files/35292.got.cif
#   From: 2010.05.17/outbox.cif.g08.bks.cpg/sg51_18_cif.got.tgz:35292.got - 2010.06.03 11:52:47.
