data_PCOD9407821
_publ_section_title
;
Structure prediction by ZEFSAII (Michael W. Deem and Ramdas Pophale) SiO2 
 PCOD9407821
Probable space group: P M M A
;
_chemical_formula_sum "Si O2"
_cell_formula_units_Z 48
_cell_length_a 9.000000
_cell_length_b 9.000000
_cell_length_c 30.000000
_cell_angle_alpha 90.000000
_cell_angle_beta 90.000000
_cell_angle_gamma 90.000000
_cell_volume 2430.000000
_symmetry_space_group_name_H-M "P M M A"
_symmetry_group_IT_number 51
_symmetry_cell_setting 'orthorhombic'
loop_
_space_group_symop_operation_xyz
x,y,z
1/2-x,-y,z
1/2+x,-y,-z
-x,y,-z
-x,-y,-z
1/2+x,y,-z
1/2-x,y,z
x,-y,z
loop_
_atom_site_type_symbol
_atom_site_label
_atom_site_fract_x
_atom_site_fract_y
_atom_site_fract_z
Si Si1 0.424470 0.176134 0.190630
Si Si2 0.990705 0.334428 0.893323
Si Si3 0.072413 0.172492 0.635402
Si Si4 0.750000 0.170858 0.948488
Si Si5 0.073123 0.325222 0.727107
Si Si6 0.750000 0.654621 0.036249
Si Si7 0.919934 0.181321 0.544599
O O1 0.250000 0.213256 0.183402
O O2 0.522236 0.261287 0.153937
O O3 0.478488 0.231126 0.238249
O O4 0.440629 0.000000 0.186099
O O5 0.931698 0.500000 0.885522
O O6 0.883110 0.228780 0.919498
O O7 0.117887 0.344485 0.929457
O O8 0.250000 0.173892 0.629916
O O9 0.034379 0.272583 0.677518
O O10 0.999492 0.226423 0.589922
O O11 0.028376 0.000000 0.643650
O O12 0.750000 0.000000 0.949331
O O13 0.750000 0.223978 0.998969
O O14 0.250000 0.297036 0.733555
O O15 0.047077 0.500000 0.733258
O O16 0.750000 0.500000 0.009358
O O17 0.750000 0.227260 0.544577
O O18 0.000000 0.233612 0.500000
O O19 0.924907 0.000000 0.544043
#
# Coordination Sequence:
#
# PCOD9407821 Si02
#       7
#     8   8   8   4   8   4   8
#     4  11  24  41  61  87 117 148 187 236 289 345
#     4  11  23  41  64  88 118 155 193 237 288 345
#     4   9  17  31  51  76 108 144 183 230 284 336
#     4  12  24  40  62  90 122 156 196 238 285 340
#     4  10  22  39  60  85 114 150 192 235 284 346
#     4  10  24  42  62  90 118 152 196 238 285 344
#     4   9  16  26  44  73 108 145 185 231 284 340
#
# _framework density 19.753086
#
# number of rings (size 3 to 8) (size 9 to 14) (size 15 to 20)
#    0.000    1.833    0.833    3.250    1.167    8.000 
#    0.000    1.667    0.000    0.500    0.000    0.000 
#    0.000    0.000    0.000    0.000    0.000    0.000 
#
# Total GULP energy -267541.934855 kJ/mol
# GULP energy per Si atom -5573.790309 kJ/mol
# Density = 1.970813 g / cm^3
# Si number density = 19.753086 Si / 1000 Ang^3
#
#
#
# Elastic Constant Matrix: (Units=GPa)
#
#
# Indices 1 2 3 4 5 6 
#
# 1 0.6663 30.3633 30.0730 0.0000 0.0000 0.0000
# 2 30.3633 85.5698 43.4431 0.0000 0.0000 0.0000
# 3 30.0730 43.4431 125.9255 0.0000 0.0000 0.0000
# 4 0.0000 0.0000 0.0000 25.9973 0.0000 0.0000
# 5 0.0000 0.0000 0.0000 0.0000 17.3810 0.0000
# 6 0.0000 0.0000 0.0000 0.0000 0.0000 9.9469
#
#
#
# Elastic Compliance Matrix: (Units=1/GPa)
#
#
# Indices 1 2 3 4 5 6 
#
# 1 -0.082127 0.023258 0.011590 0.000000 0.000000 0.000000
# 2 0.023258 0.007581 -0.008170 0.000000 0.000000 0.000000
# 3 0.011590 -0.008170 0.007992 0.000000 0.000000 0.000000
# 4 0.000000 0.000000 0.000000 0.038466 0.000000 0.000000
# 5 0.000000 0.000000 0.000000 0.000000 0.057534 0.000000
# 6 0.000000 0.000000 0.000000 0.000000 0.000000 0.100534
#
#
# Mechanical properties :
#
#
# Convention : Reuss Voigt Hill
#
# Bulk Modulus (GPa) = -75.76431 46.65782 -14.55324
# Shear Modulus (GPa) = 69.22846 17.88385 43.55616
#
# Velocity S-wave (km/s) = 5.92647 3.01220 4.70087
# Velocity P-wave (km/s) = 2.89685 5.98077 4.69901
#
# Compressibility (1/GPa) = -0.01319883
#
# Stress axis : x y z
#
# Youngs Moduli (GPa) = -12.17621 131.90216 125.12575
#
# Poissons Ratio (x) = -3.06777 -1.45015
# Poissons Ratio (y) = 0.28319 1.02226
# Poissons Ratio (z) = 0.14112 1.07762
#
# Static dielectric constant tensor:
#      x y z
#    x 1.687310 0.000000 0.000000 
#    y 0.000000 1.833560 0.000000 
#    z 0.000000 0.000000 1.660730 
# 
# From -- ./inp_files/37188.got.cif
#   From: 2010.05.17/outbox.ucp.g08.bks.cvg/sg51_19_cif.got.tgz:37188.got - 2010.06.11 16:27:58.
