data_PCOD9407447
_publ_section_title
;
Structure prediction by ZEFSAII (Michael W. Deem and Ramdas Pophale) SiO2 
 PCOD9407447
Probable space group: P M M A
;
_chemical_formula_sum "Si O2"
_cell_formula_units_Z 56
_cell_length_a 9.000000
_cell_length_b 15.000000
_cell_length_c 21.000000
_cell_angle_alpha 90.000000
_cell_angle_beta 90.000000
_cell_angle_gamma 90.000000
_cell_volume 2835.000000
_symmetry_space_group_name_H-M "P M M A"
_symmetry_group_IT_number 51
_symmetry_cell_setting 'orthorhombic'
loop_
_space_group_symop_operation_xyz
x,y,z
1/2-x,-y,z
1/2+x,-y,-z
-x,y,-z
-x,-y,-z
1/2+x,y,-z
1/2-x,y,z
x,-y,z
loop_
_atom_site_type_symbol
_atom_site_label
_atom_site_fract_x
_atom_site_fract_y
_atom_site_fract_z
Si Si1 0.577980 0.339742 0.263407
Si Si2 0.926915 0.769776 0.934338
Si Si3 0.925377 0.594472 0.402481
Si Si4 0.924230 0.601902 0.119276
Si Si5 0.574371 0.163704 0.694559
Si Si6 0.069649 0.903940 0.172997
Si Si7 0.428945 0.206130 0.565130
O O1 0.750000 0.305391 0.264290
O O2 0.565685 0.401014 0.325680
O O3 0.553404 0.384265 0.195312
O O4 0.462471 0.261163 0.276647
O O5 0.750000 0.777626 0.938663
O O6 0.982923 0.826868 0.873816
O O7 0.975066 0.669408 0.919376
O O8 0.000000 0.799994 0.000000
O O9 0.750000 0.593594 0.418620
O O10 0.992619 0.500000 0.424055
O O11 0.981706 0.689908 0.426932
O O12 0.750000 0.621272 0.106717
O O13 0.954120 0.500000 0.103148
O O14 0.750000 0.152612 0.683297
O O15 0.523322 0.103339 0.753533
O O16 0.487325 0.157055 0.628352
O O17 0.250000 0.897944 0.174687
O O18 0.027753 0.000000 0.146594
O O19 0.500000 0.171469 0.500000
O O20 0.250000 0.204358 0.563264
#
# Coordination Sequence:
#
# PCOD9407447 Si02
#       7
#     8   8   8   8   8   8   8
#     4   9  16  28  49  75 106 141 181 228 277 329
#     4  11  23  40  60  84 116 154 191 235 285 339
#     4   8  14  25  42  66  97 134 176 222 271 320
#     4  10  20  34  55  82 113 152 196 240 286 335
#     4  10  18  32  56  82 109 142 180 225 277 334
#     4   9  19  37  62  90 117 146 182 226 284 350
#     4  10  20  33  50  74 105 145 187 231 278 334
#
# _framework density 19.753086
#
# number of rings (size 3 to 8) (size 9 to 14) (size 15 to 20)
#    0.000    2.429    1.429    2.571    0.000    2.857 
#    0.000    0.000    0.000   20.571    0.000    0.000 
#    0.000    0.000    0.000    0.000    0.000    0.000 
#
# Total GULP energy -312112.486636 kJ/mol
# GULP energy per Si atom -5573.437261 kJ/mol
# Density = 1.970813 g / cm^3
# Si number density = 19.753086 Si / 1000 Ang^3
#
#
#
# Elastic Constant Matrix: (Units=GPa)
#
#
# Indices 1 2 3 4 5 6 
#
# 1 38.3601 18.0071 36.8737 0.0000 0.0000 0.0000
# 2 18.0071 40.8978 28.4241 0.0000 0.0000 0.0000
# 3 36.8737 28.4241 119.3702 0.0000 0.0000 0.0000
# 4 0.0000 0.0000 0.0000 -10.7434 0.0000 0.0000
# 5 0.0000 0.0000 0.0000 0.0000 28.6229 0.0000
# 6 0.0000 0.0000 0.0000 0.0000 0.0000 38.1625
#
#
#
# Elastic Compliance Matrix: (Units=1/GPa)
#
#
# Indices 1 2 3 4 5 6 
#
# 1 0.040857 -0.011046 -0.009991 0.000000 0.000000 0.000000
# 2 -0.011046 0.032286 -0.004276 0.000000 0.000000 0.000000
# 3 -0.009991 -0.004276 0.012482 0.000000 0.000000 0.000000
# 4 0.000000 0.000000 0.000000 -0.093080 0.000000 0.000000
# 5 0.000000 0.000000 0.000000 0.000000 0.034937 0.000000
# 6 0.000000 0.000000 0.000000 0.000000 0.000000 0.026204
#
#
# Mechanical properties :
#
#
# Convention : Reuss Voigt Hill
#
# Bulk Modulus (GPa) = 28.57086 40.58197 34.57642
# Shear Modulus (GPa) = 43.11176 18.89660 31.00418
#
# Velocity S-wave (km/s) = 4.67683 3.09632 3.96610
# Velocity P-wave (km/s) = 6.60750 5.77686 6.20609
#
# Compressibility (1/GPa) = 0.03500069
#
# Stress axis : x y z
#
# Youngs Moduli (GPa) = 24.47534 30.97291 80.11768
#
# Poissons Ratio (x) = 0.34212 0.80044
# Poissons Ratio (y) = 0.27035 0.34257
# Poissons Ratio (z) = 0.24453 0.13244
#
# Static dielectric constant tensor:
#      x y z
#    x 1.662670 0.000000 0.000000 
#    y 0.000000 1.736600 0.000000 
#    z 0.000000 0.000000 1.704860 
# 
# From -- ./inp_files/31925.got.cif
#   From: 2010.05.17/outbox.ucp.g08.bks.cvg/sg51_16_cif.got.tgz:31925.got - 2010.06.11 16:27:58.
