data_PCOD9407181
_publ_section_title
;
Structure prediction by ZEFSAII (Michael W. Deem and Ramdas Pophale) SiO2 
 PCOD9407181
Probable space group: P M M A
;
_chemical_formula_sum "Si O2"
_cell_formula_units_Z 48
_cell_length_a 9.574504
_cell_length_b 30.405065
_cell_length_c 8.961293
_cell_angle_alpha 90.000000
_cell_angle_beta 90.000000
_cell_angle_gamma 90.000000
_cell_volume 2608.752621
_symmetry_space_group_name_H-M "P M M A"
_symmetry_group_IT_number 51
_symmetry_cell_setting 'orthorhombic'
loop_
_space_group_symop_operation_xyz
x,y,z
1/2-x,-y,z
1/2+x,-y,-z
-x,y,-z
-x,-y,-z
1/2+x,y,-z
1/2-x,y,z
x,-y,z
loop_
_atom_site_type_symbol
_atom_site_label
_atom_site_fract_x
_atom_site_fract_y
_atom_site_fract_z
Si Si1 0.580372 0.768770 0.342700
Si Si2 0.582895 0.047227 0.156192
Si Si3 0.079760 0.306376 0.157363
Si Si4 0.508005 0.602959 0.677071
Si Si5 0.414979 0.143666 0.846181
Si Si6 0.250000 0.551575 0.174732
Si Si7 0.750000 0.445983 0.174752
O O1 0.500000 0.767773 0.500000
O O2 0.750000 0.760223 0.354175
O O3 0.498760 0.733707 0.239898
O O4 0.561494 0.816389 0.266136
O O5 0.750000 0.046905 0.129863
O O6 0.550769 0.095358 0.222455
O O7 0.549093 0.000000 0.231869
O O8 0.500000 0.047076 0.000000
O O9 0.250000 0.300840 0.143771
O O10 0.046562 0.350090 0.252047
O O11 0.000000 0.311269 0.000000
O O12 0.500000 0.607251 0.500000
O O13 0.623714 0.569689 0.732241
O O14 0.375622 0.579157 0.747056
O O15 0.250000 0.143957 0.883413
O O16 0.500000 0.149339 0.000000
O O17 0.250000 0.500000 0.169861
O O18 0.250000 0.565500 0.001507
O O19 0.750000 0.500000 0.190362
#
# Coordination Sequence:
#
# PCOD9407181 Si02
#       7
#     8   8   8   8   8   4   4
#     4  11  24  41  62  87 120 159 202 254 309 367
#     4   8  13  23  42  70 105 143 185 237 294 353
#     4  12  26  45  69  95 124 160 205 253 310 379
#     4  12  26  42  66  97 131 166 207 258 314 371
#     4   9  18  32  52  81 113 149 195 244 301 364
#     4  11  23  45  67  93 129 169 215 257 308 367
#     4  11  25  43  69  97 129 173 215 259 306 369
#
# _framework density 18.399598000000001
#
# number of rings (size 3 to 8) (size 9 to 14) (size 15 to 20)
#    0.000    1.500    0.833    4.500    2.333    6.000 
#    0.000    0.000    0.000    0.500    0.000    0.000 
#    0.000    0.000    0.000    0.000    0.000    0.167 
#
# Total GULP energy -267436.163507 kJ/mol
# GULP energy per Si atom -5571.586740 kJ/mol
# Density = 1.835772 g / cm^3
# Si number density = 18.399598 Si / 1000 Ang^3
#
#
#
# Elastic Constant Matrix: (Units=GPa)
#
#
# Indices 1 2 3 4 5 6 
#
# 1 141.3644 50.8011 61.9946 0.0000 0.0000 0.0000
# 2 50.8011 91.5391 63.9046 0.0000 0.0000 0.0000
# 3 61.9946 63.9046 147.4593 0.0000 0.0000 0.0000
# 4 0.0000 0.0000 0.0000 -20.0726 0.0000 0.0000
# 5 0.0000 0.0000 0.0000 0.0000 25.0964 0.0000
# 6 0.0000 0.0000 0.0000 0.0000 0.0000 29.9317
#
#
#
# Elastic Compliance Matrix: (Units=1/GPa)
#
#
# Indices 1 2 3 4 5 6 
#
# 1 0.009405 -0.003526 -0.002426 0.000000 0.000000 0.000000
# 2 -0.003526 0.016985 -0.005878 0.000000 0.000000 0.000000
# 3 -0.002426 -0.005878 0.010349 0.000000 0.000000 0.000000
# 4 0.000000 0.000000 0.000000 -0.049819 0.000000 0.000000
# 5 0.000000 0.000000 0.000000 0.000000 0.039846 0.000000
# 6 0.000000 0.000000 0.000000 0.000000 0.000000 0.033409
#
#
# Mechanical properties :
#
#
# Convention : Reuss Voigt Hill
#
# Bulk Modulus (GPa) = 76.46272 81.52927 78.99599
# Shear Modulus (GPa) = 56.69256 20.56860 38.63058
#
# Velocity S-wave (km/s) = 5.55686 3.34710 4.58704
# Velocity P-wave (km/s) = 9.10047 7.70351 8.43097
#
# Compressibility (1/GPa) = 0.01307827
#
# Stress axis : x y z
#
# Youngs Moduli (GPa) = 106.32807 58.87636 96.62754
#
# Poissons Ratio (x) = 0.20758 0.23442
# Poissons Ratio (y) = 0.37488 0.56802
# Poissons Ratio (z) = 0.25795 0.34610
#
# Static dielectric constant tensor:
#      x y z
#    x 1.591610 0.000000 0.000000 
#    y 0.000000 1.606830 0.000000 
#    z 0.000000 0.000000 1.610680 
# 
# From -- ./inp_files/6248.got.cif
#   From: 2010.05.17/outbox.cif.g08.bks.cpg/sg51_4_cif.got.tgz:6248.got - 2010.06.03 11:52:47.
