data_PCOD9407317
_publ_section_title
;
Structure prediction by ZEFSAII (Michael W. Deem and Ramdas Pophale) SiO2 
 PCOD9407317
Probable space group: P M M A
;
_chemical_formula_sum "Si O2"
_cell_formula_units_Z 32
_cell_length_a 7.418361
_cell_length_b 7.646114
_cell_length_c 25.830600
_cell_angle_alpha 90.000000
_cell_angle_beta 90.000000
_cell_angle_gamma 90.000000
_cell_volume 1465.153837
_symmetry_space_group_name_H-M "P M M A"
_symmetry_group_IT_number 51
_symmetry_cell_setting 'orthorhombic'
loop_
_space_group_symop_operation_xyz
x,y,z
1/2-x,-y,z
1/2+x,-y,-z
-x,y,-z
-x,-y,-z
1/2+x,y,-z
1/2-x,y,z
x,-y,z
loop_
_atom_site_type_symbol
_atom_site_label
_atom_site_fract_x
_atom_site_fract_y
_atom_site_fract_z
Si Si1 0.029512 0.000000 0.253026
Si Si2 0.534575 0.697894 0.941467
Si Si3 0.969812 0.703136 0.668882
Si Si4 0.528942 0.000000 0.865766
Si Si5 0.965026 0.299016 0.555772
O O1 0.971176 0.169924 0.285469
O O2 0.250000 0.000000 0.252670
O O3 0.971102 0.000000 0.193662
O O4 0.750000 0.688930 0.935717
O O5 0.463120 0.500000 0.937091
O O6 0.468721 0.830779 0.898105
O O7 0.500000 0.760915 0.000000
O O8 0.750000 0.704688 0.669646
O O9 0.023746 0.500000 0.674514
O O10 0.026902 0.769596 0.611573
O O11 0.750000 0.000000 0.865817
O O12 0.750000 0.306810 0.559418
O O13 0.034075 0.500000 0.553051
O O14 0.000000 0.214045 0.500000
#
# Coordination Sequence:
#
# PCOD9407317 Si02
#       5
#     4   8   8   4   8
#     4   9  16  25  38  57  81 109 138 167 204 246
#     4   9  17  29  45  66  91 115 139 170 207 246
#     4   8  14  24  37  54  78 106 134 166 204 246
#     4   9  17  27  40  61  87 113 142 175 208 242
#     4   8  13  22  37  57  79 102 130 165 205 248
#
# _framework density 21.840710999999999
#
# number of rings (size 3 to 8) (size 9 to 14) (size 15 to 20)
#    0.000    3.500    0.000    1.875    0.000    1.000 
#    0.000    5.625    0.000    0.000    0.000    3.500 
#    0.000    8.000    0.000    0.000    0.000    0.000 
#
# Total GULP energy -178419.969680 kJ/mol
# GULP energy per Si atom -5575.624053 kJ/mol
# Density = 2.179100 g / cm^3
# Si number density = 21.840711 Si / 1000 Ang^3
#
#
#
# Elastic Constant Matrix: (Units=GPa)
#
#
# Indices 1 2 3 4 5 6 
#
# 1 68.8113 3.0972 4.0231 0.0000 0.0000 0.0000
# 2 3.0972 114.0766 120.2436 0.0000 0.0000 0.0000
# 3 4.0231 120.2436 273.8086 0.0000 0.0000 0.0000
# 4 0.0000 0.0000 0.0000 453.9909 0.0000 0.0000
# 5 0.0000 0.0000 0.0000 0.0000 16.1002 0.0000
# 6 0.0000 0.0000 0.0000 0.0000 0.0000 -20.1127
#
#
#
# Elastic Compliance Matrix: (Units=1/GPa)
#
#
# Indices 1 2 3 4 5 6 
#
# 1 0.014551 -0.000316 -0.000075 0.000000 0.000000 0.000000
# 2 -0.000316 0.016328 -0.007166 0.000000 0.000000 0.000000
# 3 -0.000075 -0.007166 0.006800 0.000000 0.000000 0.000000
# 4 0.000000 0.000000 0.000000 0.002203 0.000000 0.000000
# 5 0.000000 0.000000 0.000000 0.000000 0.062111 0.000000
# 6 0.000000 0.000000 0.000000 0.000000 0.000000 -0.049720
#
#
# Mechanical properties :
#
#
# Convention : Reuss Voigt Hill
#
# Bulk Modulus (GPa) = 44.31543 79.04714 61.68129
# Shear Modulus (GPa) = 66.74855 111.95118 89.34987
#
# Velocity S-wave (km/s) = 5.53425 7.16724 6.40301
# Velocity P-wave (km/s) = 7.82122 10.23541 9.10865
#
# Compressibility (1/GPa) = 0.02256551
#
# Stress axis : x y z
#
# Youngs Moduli (GPa) = 68.72335 61.24563 147.05620
#
# Poissons Ratio (x) = 0.01935 0.01104
# Poissons Ratio (y) = 0.02171 1.05376
# Poissons Ratio (z) = 0.00516 0.43887
#
# Static dielectric constant tensor:
#      x y z
#    x 1.863470 0.000000 0.000000 
#    y 0.000000 1.798570 0.000000 
#    z 0.000000 0.000000 1.779700 
# 
# From -- ./inp_files/28743.got.cif
#   From: 2010.05.17/outbox.cif.g08.bks.cpg/sg51_15_cif.got.tgz:28743.got - 2010.06.03 11:52:47.
