data_PCOD9407849
_publ_section_title
;
Structure prediction by ZEFSAII (Michael W. Deem and Ramdas Pophale) SiO2 
 PCOD9407849
Probable space group: P N N A
;
_chemical_formula_sum "Si O2"
_cell_formula_units_Z 44
_cell_length_a 8.979646
_cell_length_b 15.472544
_cell_length_c 14.937006
_cell_angle_alpha 90.000000
_cell_angle_beta 90.000000
_cell_angle_gamma 90.000000
_cell_volume 2075.317259
_symmetry_space_group_name_H-M "P N N A"
_symmetry_group_IT_number 52
_symmetry_cell_setting 'orthorhombic'
loop_
_space_group_symop_operation_xyz
x,y,z
1/2-x,-y,z
x,1/2-y,1/2-z
1/2-x,1/2+y,1/2-z
-x,-y,-z
1/2+x,y,-z
-x,1/2+y,1/2+z
1/2+x,1/2-y,1/2+z
loop_
_atom_site_type_symbol
_atom_site_label
_atom_site_fract_x
_atom_site_fract_y
_atom_site_fract_z
Si Si1 0.223524 0.133205 0.046960
Si Si2 0.968234 0.250000 0.750000
Si Si3 0.464715 0.250000 0.750000
Si Si4 0.750000 0.000000 0.649804
Si Si5 0.033431 0.928714 0.196832
Si Si6 0.103527 0.905260 0.874485
Si Si7 0.784705 0.686990 0.885883
O O1 0.339178 0.097098 0.122753
O O2 0.219757 0.237959 0.040902
O O3 0.058882 0.107469 0.077128
O O4 0.277000 0.099571 0.952580
O O5 0.044473 0.163080 0.783294
O O6 0.858431 0.287659 0.826089
O O7 0.384783 0.173180 0.803616
O O8 0.574009 0.295419 0.822150
O O9 0.619844 0.970145 0.718179
O O10 0.783888 0.914125 0.592881
O O11 0.918821 0.001485 0.168558
#
# Coordination Sequence:
#
# PCOD9407849 Si02
#       7
#     8   4   4   4   8   8   8
#     4  10  20  30  47  78 113 137 171 227 286 327
#     4   7  14  22  40  69 106 127 170 215 258 309
#     4   9  16  30  48  69  98 143 180 207 254 335
#     4  10  12  24  50  72 106 126 182 226 256 308
#     4  10  15  27  46  78 107 139 167 226 278 320
#     4  11  19  32  52  76 112 139 179 225 281 325
#     4   8  14  25  43  72  97 130 171 221 258 309
#
# _framework density 21.201577
#
# number of rings (size 3 to 8) (size 9 to 14) (size 15 to 20)
#    0.000    2.545    3.636    2.727    0.000    0.000 
#    0.000    0.000    0.000   15.273    0.000    0.000 
#    0.000    1.455    0.000    0.000    0.000    0.000 
#
# Total GULP energy -245464.187081 kJ/mol
# GULP energy per Si atom -5578.731525 kJ/mol
# Density = 2.115332 g / cm^3
# Si number density = 21.201577 Si / 1000 Ang^3
#
#
#
# Elastic Constant Matrix: (Units=GPa)
#
#
# Indices 1 2 3 4 5 6 
#
# 1 69.8638 28.0351 20.0095 0.0000 0.0000 0.0000
# 2 28.0351 234.8273 35.8885 0.0000 0.0000 0.0000
# 3 20.0095 35.8885 41.4898 0.0000 0.0000 0.0000
# 4 0.0000 0.0000 0.0000 26.9549 0.0000 0.0000
# 5 0.0000 0.0000 0.0000 0.0000 15.6060 0.0000
# 6 0.0000 0.0000 0.0000 0.0000 0.0000 1.8745
#
#
#
# Elastic Compliance Matrix: (Units=1/GPa)
#
#
# Indices 1 2 3 4 5 6 
#
# 1 0.016765 -0.000882 -0.007322 0.000000 0.000000 0.000000
# 2 -0.000882 0.004954 -0.003859 0.000000 0.000000 0.000000
# 3 -0.007322 -0.003859 0.030972 0.000000 0.000000 0.000000
# 4 0.000000 0.000000 0.000000 0.037099 0.000000 0.000000
# 5 0.000000 0.000000 0.000000 0.000000 0.064078 0.000000
# 6 0.000000 0.000000 0.000000 0.000000 0.000000 0.533487
#
#
# Mechanical properties :
#
#
# Convention : Reuss Voigt Hill
#
# Bulk Modulus (GPa) = 35.01054 57.11635 46.06345
# Shear Modulus (GPa) = 6.93480 26.37025 16.65252
#
# Velocity S-wave (km/s) = 1.81052 3.53056 2.80561
# Velocity P-wave (km/s) = 4.57380 6.60439 5.68057
#
# Compressibility (1/GPa) = 0.02856282
#
# Stress axis : x y z
#
# Youngs Moduli (GPa) = 59.64897 201.87291 32.28751
#
# Poissons Ratio (x) = 0.17815 0.23641
# Poissons Ratio (y) = 0.05264 0.12461
# Poissons Ratio (z) = 0.43674 0.77908
#
# Static dielectric constant tensor:
#      x y z
#    x 1.788750 0.000000 0.000000 
#    y 0.000000 1.813450 0.000000 
#    z 0.000000 0.000000 1.755530 
# 
# From -- ./inp_files/31192.got.cif
#   From: 2010.05.17/outbox.cif.g08.bks.cpg/sg52_16_cif.got.tgz:31192.got - 2010.06.03 12:15:38.
