data_PCOD9407820
_publ_section_title
;
Structure prediction by ZEFSAII (Michael W. Deem and Ramdas Pophale) SiO2 
 PCOD9407820
Probable space group: P M M A
;
_chemical_formula_sum "Si O2"
_cell_formula_units_Z 64
_cell_length_a 21.000000
_cell_length_b 18.000000
_cell_length_c 9.000000
_cell_angle_alpha 90.000000
_cell_angle_beta 90.000000
_cell_angle_gamma 90.000000
_cell_volume 3402.000000
_symmetry_space_group_name_H-M "P M M A"
_symmetry_group_IT_number 51
_symmetry_cell_setting 'orthorhombic'
loop_
_space_group_symop_operation_xyz
x,y,z
1/2-x,-y,z
1/2+x,-y,-z
-x,y,-z
-x,-y,-z
1/2+x,y,-z
1/2-x,y,z
x,-y,z
loop_
_atom_site_type_symbol
_atom_site_label
_atom_site_fract_x
_atom_site_fract_y
_atom_site_fract_z
Si Si1 0.174168 0.237168 0.011704
Si Si2 0.571047 0.199581 0.481818
Si Si3 0.822851 0.086204 0.513286
Si Si4 0.106201 0.685071 0.274092
Si Si5 0.177860 0.584266 0.502382
Si Si6 0.617032 0.678750 0.264331
Si Si7 0.995243 0.581251 0.175116
Si Si8 0.173842 0.918999 0.129521
O O1 0.250000 0.234259 0.999349
O O2 0.143935 0.272701 0.867416
O O3 0.153910 0.290160 0.146463
O O4 0.149412 0.153976 0.047185
O O5 0.500000 0.169284 0.500000
O O6 0.623908 0.138487 0.444103
O O7 0.591237 0.241382 0.632294
O O8 0.574550 0.266088 0.363731
O O9 0.750000 0.110764 0.482793
O O10 0.832541 0.088807 0.692158
O O11 0.828419 0.000000 0.468622
O O12 0.135768 0.621912 0.377375
O O13 0.042809 0.646921 0.216177
O O14 0.250000 0.582161 0.450098
O O15 0.158320 0.500000 0.538738
O O16 0.171790 0.641045 0.638571
O O17 0.574242 0.609898 0.214961
O O18 0.009300 0.500000 0.242886
O O19 0.000000 0.574145 0.000000
O O20 0.250000 0.921052 0.103311
O O21 0.147555 0.000000 0.085684
#
# Coordination Sequence:
#
# PCOD9407820 Si02
#       8
#     8   8   8   8   8   8   8   8
#     4  11  21  35  58  88 116 148 188 239 294 345
#     4  11  22  36  58  87 119 157 195 240 293 342
#     4   9  18  34  58  86 116 155 202 243 282 340
#     4  11  21  37  59  84 109 146 197 242 281 339
#     4  10  22  39  56  78 113 151 186 233 291 350
#     4  11  23  38  56  83 116 151 187 233 296 359
#     4  11  22  38  60  83 108 145 194 243 287 341
#     4   8  15  30  54  83 111 144 188 234 278 329
#
# _framework density 18.812463000000001
#
# number of rings (size 3 to 8) (size 9 to 14) (size 15 to 20)
#    0.000    1.750    3.750    2.250    0.000    2.750 
#    0.000    2.500    0.000    4.500    0.000    2.625 
#    0.000    0.000    0.000    0.000    0.000    0.000 
#
# Total GULP energy -356549.170408 kJ/mol
# GULP energy per Si atom -5571.080788 kJ/mol
# Density = 1.876965 g / cm^3
# Si number density = 18.812463 Si / 1000 Ang^3
#
#
#
# Elastic Constant Matrix: (Units=GPa)
#
#
# Indices 1 2 3 4 5 6 
#
# 1 68.5236 24.8548 7.2568 0.0000 0.0000 0.0000
# 2 24.8548 88.4613 8.3835 0.0000 0.0000 0.0000
# 3 7.2568 8.3835 40.7676 0.0000 0.0000 0.0000
# 4 0.0000 0.0000 0.0000 30.9776 0.0000 0.0000
# 5 0.0000 0.0000 0.0000 0.0000 9.1867 0.0000
# 6 0.0000 0.0000 0.0000 0.0000 0.0000 34.2153
#
#
#
# Elastic Compliance Matrix: (Units=1/GPa)
#
#
# Indices 1 2 3 4 5 6 
#
# 1 0.016410 -0.004420 -0.002012 0.000000 0.000000 0.000000
# 2 -0.004420 0.012720 -0.001829 0.000000 0.000000 0.000000
# 3 -0.002012 -0.001829 0.025264 0.000000 0.000000 0.000000
# 4 0.000000 0.000000 0.000000 0.032281 0.000000 0.000000
# 5 0.000000 0.000000 0.000000 0.000000 0.108853 0.000000
# 6 0.000000 0.000000 0.000000 0.000000 0.000000 0.029227
#
#
# Mechanical properties :
#
#
# Convention : Reuss Voigt Hill
#
# Bulk Modulus (GPa) = 26.40538 30.97140 28.68839
# Shear Modulus (GPa) = 19.69286 25.35974 22.52630
#
# Velocity S-wave (km/s) = 3.23894 3.67553 3.46412
# Velocity P-wave (km/s) = 5.29662 5.87467 5.59312
#
# Compressibility (1/GPa) = 0.03787107
#
# Stress axis : x y z
#
# Youngs Moduli (GPa) = 60.93923 78.61906 39.58270
#
# Poissons Ratio (x) = 0.34749 0.07964
# Poissons Ratio (y) = 0.26935 0.07239
# Poissons Ratio (z) = 0.12261 0.14379
#
# Static dielectric constant tensor:
#      x y z
#    x 1.626820 0.000000 0.000000 
#    y 0.000000 1.575090 0.000000 
#    z 0.000000 0.000000 1.657520 
# 
# From -- ./inp_files/11183.got.cif
#   From: 2010.05.17/outbox.ucp.g08.bks.cvg/sg51_6_cif.got.tgz:11183.got - 2010.06.11 16:27:58.
