data_PCOD9407016
_publ_section_title
;
Structure prediction by ZEFSAII (Michael W. Deem and Ramdas Pophale) SiO2 
 PCOD9407016
Probable space group: P M M A
;
_chemical_formula_sum "Si O2"
_cell_formula_units_Z 40
_cell_length_a 8.520634
_cell_length_b 27.340505
_cell_length_c 9.409919
_cell_angle_alpha 90.000000
_cell_angle_beta 90.000000
_cell_angle_gamma 90.000000
_cell_volume 2192.120018
_symmetry_space_group_name_H-M "P M M A"
_symmetry_group_IT_number 51
_symmetry_cell_setting 'orthorhombic'
loop_
_space_group_symop_operation_xyz
x,y,z
1/2-x,-y,z
1/2+x,-y,-z
-x,y,-z
-x,-y,-z
1/2+x,y,-z
1/2-x,y,z
x,-y,z
loop_
_atom_site_type_symbol
_atom_site_label
_atom_site_fract_x
_atom_site_fract_y
_atom_site_fract_z
Si Si1 0.560529 0.444912 0.340976
Si Si2 0.938712 0.158370 0.337202
Si Si3 0.938472 0.352068 0.159481
Si Si4 0.936782 0.260893 0.661528
Si Si5 0.560395 0.052602 0.337262
O O1 0.500000 0.435411 0.500000
O O2 0.750000 0.444425 0.344189
O O3 0.509930 0.500000 0.299935
O O4 0.507744 0.402126 0.236255
O O5 0.750000 0.161711 0.337775
O O6 0.987013 0.105375 0.274009
O O7 0.000000 0.157403 0.500000
O O8 0.007472 0.208499 0.276465
O O9 0.750000 0.351353 0.159551
O O10 0.999170 0.305799 0.247865
O O11 0.000000 0.350121 0.000000
O O12 0.750000 0.261830 0.657025
O O13 0.000000 0.264801 0.500000
O O14 0.500000 0.052475 0.500000
O O15 0.750000 0.052801 0.340454
O O16 0.509618 0.000000 0.273820
#
# Coordination Sequence:
#
# PCOD9407016 Si02
#       5
#     8   8   8   8   8
#     4   9  19  36  58  83 109 137 170 207 246 292
#     4   9  15  24  39  60  87 120 160 203 247 296
#     4  11  23  38  55  77 106 137 171 210 255 304
#     4  11  21  34  52  73  99 132 172 215 258 303
#     4   8  13  20  31  50  79 115 152 191 238 292
#
# _framework density 18.247174999999999
#
# number of rings (size 3 to 8) (size 9 to 14) (size 15 to 20)
#    0.000    2.400    0.000    4.800    0.000    4.400 
#    0.000    0.000    0.000    0.000    0.000    0.000 
#    0.000    0.800    0.000    2.200    0.000   10.200 
#
# Total GULP energy -222874.002932 kJ/mol
# GULP energy per Si atom -5571.850073 kJ/mol
# Density = 1.820564 g / cm^3
# Si number density = 18.247175 Si / 1000 Ang^3
#
#
#
# Elastic Constant Matrix: (Units=GPa)
#
#
# Indices 1 2 3 4 5 6 
#
# 1 62.2597 48.0765 20.0366 0.0000 0.0000 0.0000
# 2 48.0765 222.3598 82.3105 0.0000 0.0000 0.0000
# 3 20.0366 82.3105 56.3447 0.0000 0.0000 0.0000
# 4 0.0000 0.0000 0.0000 -4.2545 0.0000 0.0000
# 5 0.0000 0.0000 0.0000 0.0000 20.1725 0.0000
# 6 0.0000 0.0000 0.0000 0.0000 0.0000 1.1668
#
#
#
# Elastic Compliance Matrix: (Units=1/GPa)
#
#
# Indices 1 2 3 4 5 6 
#
# 1 0.019353 -0.003564 -0.001676 0.000000 0.000000 0.000000
# 2 -0.003564 0.010449 -0.013997 0.000000 0.000000 0.000000
# 3 -0.001676 -0.013997 0.038791 0.000000 0.000000 0.000000
# 4 0.000000 0.000000 0.000000 -0.235044 0.000000 0.000000
# 5 0.000000 0.000000 0.000000 0.000000 0.049572 0.000000
# 6 0.000000 0.000000 0.000000 0.000000 0.000000 0.857058
#
#
# Mechanical properties :
#
#
# Convention : Reuss Voigt Hill
#
# Bulk Modulus (GPa) = 33.20050 71.31240 52.25645
# Shear Modulus (GPa) = 6.33961 16.11966 11.22963
#
# Velocity S-wave (km/s) = 1.86597 2.97544 2.48345
# Velocity P-wave (km/s) = 4.78297 7.13936 6.07648
#
# Compressibility (1/GPa) = 0.03012003
#
# Stress axis : x y z
#
# Youngs Moduli (GPa) = 51.67113 95.70273 25.77921
#
# Poissons Ratio (x) = 0.34110 0.04319
# Poissons Ratio (y) = 0.18416 0.36083
# Poissons Ratio (z) = 0.08658 1.33954
#
# Static dielectric constant tensor:
#      x y z
#    x 1.610340 0.000000 0.000000 
#    y 0.000000 1.707720 0.000000 
#    z 0.000000 0.000000 1.559890 
# 
# From -- ./inp_files/5485.got.cif
#   From: 2010.05.17/outbox.cif.g08.bks.cpg/sg51_3_cif.got.tgz:5485.got - 2010.06.03 11:52:47.
