data_PCOD9407684
_publ_section_title
;
Structure prediction by ZEFSAII (Michael W. Deem and Ramdas Pophale) SiO2 
 PCOD9407684
Probable space group: P M M A
;
_chemical_formula_sum "Si O2"
_cell_formula_units_Z 64
_cell_length_a 18.000000
_cell_length_b 9.000000
_cell_length_c 21.000000
_cell_angle_alpha 90.000000
_cell_angle_beta 90.000000
_cell_angle_gamma 90.000000
_cell_volume 3402.000000
_symmetry_space_group_name_H-M "P M M A"
_symmetry_group_IT_number 51
_symmetry_cell_setting 'orthorhombic'
loop_
_space_group_symop_operation_xyz
x,y,z
1/2-x,-y,z
1/2+x,-y,-z
-x,y,-z
-x,-y,-z
1/2+x,y,-z
1/2-x,y,z
x,-y,z
loop_
_atom_site_type_symbol
_atom_site_label
_atom_site_fract_x
_atom_site_fract_y
_atom_site_fract_z
Si Si1 0.838410 0.180243 0.336359
Si Si2 0.836216 0.180994 0.942425
Si Si3 0.838121 0.172497 0.698066
Si Si4 0.839208 0.829544 0.085153
Si Si5 0.576557 0.177361 0.465451
Si Si6 0.093534 0.322656 0.792324
Si Si7 0.435521 0.177473 0.177362
Si Si8 0.338966 0.667097 0.427395
O O1 0.750000 0.217845 0.345762
O O2 0.891473 0.227254 0.396221
O O3 0.869537 0.249679 0.270719
O O4 0.842090 0.000000 0.331862
O O5 0.750000 0.228605 0.931197
O O6 0.893369 0.226502 0.887234
O O7 0.834523 0.000000 0.941896
O O8 0.860801 0.223555 0.014038
O O9 0.750000 0.195570 0.706367
O O10 0.878933 0.197762 0.764166
O O11 0.866760 0.273820 0.640651
O O12 0.849275 0.000000 0.679507
O O13 0.750000 0.835489 0.083889
O O14 0.863941 0.730308 0.143971
O O15 0.866572 0.000000 0.094101
O O16 0.500000 0.232394 0.500000
O O17 0.637836 0.223536 0.516797
O O18 0.569112 0.000000 0.460097
O O19 0.094892 0.500000 0.786041
O O20 0.010220 0.262767 0.804352
O O21 0.451163 0.000000 0.171922
O O22 0.250000 0.664776 0.423372
O O23 0.365481 0.500000 0.440358
#
# Coordination Sequence:
#
# PCOD9407684 Si02
#       8
#     8   8   8   8   8   8   8   8
#     4  10  22  42  66  88 113 149 194 242 288 336
#     4   8  15  31  59  91 115 141 187 244 293 339
#     4   9  18  33  56  83 110 145 189 235 280 331
#     4   9  18  36  62  87 111 143 188 241 293 345
#     4  10  22  39  62  91 118 145 182 233 289 342
#     4  12  26  39  54  81 118 156 193 238 287 339
#     4  10  20  35  57  83 115 151 190 237 288 344
#     4  10  21  36  55  81 115 153 189 226 273 334
#
# _framework density 18.812463000000001
#
# number of rings (size 3 to 8) (size 9 to 14) (size 15 to 20)
#    0.000    2.250    0.000    3.375    1.750    6.500 
#    0.000    3.125    0.000    1.875    0.000    0.000 
#    0.000    0.000    0.000    0.000    0.000    0.000 
#
# Total GULP energy -356921.961203 kJ/mol
# GULP energy per Si atom -5576.905644 kJ/mol
# Density = 1.876965 g / cm^3
# Si number density = 18.812463 Si / 1000 Ang^3
#
#
#
# Elastic Constant Matrix: (Units=GPa)
#
#
# Indices 1 2 3 4 5 6 
#
# 1 70.7319 26.6041 60.2305 0.0000 0.0000 0.0000
# 2 26.6041 18.8717 32.7941 0.0000 0.0000 0.0000
# 3 60.2305 32.7941 152.9975 0.0000 0.0000 0.0000
# 4 0.0000 0.0000 0.0000 -1.4705 0.0000 0.0000
# 5 0.0000 0.0000 0.0000 0.0000 1.1296 0.0000
# 6 0.0000 0.0000 0.0000 0.0000 0.0000 12.6055
#
#
#
# Elastic Compliance Matrix: (Units=1/GPa)
#
#
# Indices 1 2 3 4 5 6 
#
# 1 0.032066 -0.037079 -0.004676 0.000000 0.000000 0.000000
# 2 -0.037079 0.127319 -0.012693 0.000000 0.000000 0.000000
# 3 -0.004676 -0.012693 0.011097 0.000000 0.000000 0.000000
# 4 0.000000 0.000000 0.000000 -0.680030 0.000000 0.000000
# 5 0.000000 0.000000 0.000000 0.000000 0.885243 0.000000
# 6 0.000000 0.000000 0.000000 0.000000 0.000000 0.079331
#
#
# Mechanical properties :
#
#
# Convention : Reuss Voigt Hill
#
# Bulk Modulus (GPa) = 16.23747 53.53982 34.88864
# Shear Modulus (GPa) = 8.55506 10.65108 9.60307
#
# Velocity S-wave (km/s) = 2.13481 2.38202 2.26179
# Velocity P-wave (km/s) = 3.83752 6.00724 5.04051
#
# Compressibility (1/GPa) = 0.06158596
#
# Stress axis : x y z
#
# Youngs Moduli (GPa) = 31.18583 7.85431 90.11159
#
# Poissons Ratio (x) = 0.29123 0.42133
# Poissons Ratio (y) = 1.15635 1.14378
# Poissons Ratio (z) = 0.14581 0.09969
#
# Static dielectric constant tensor:
#      x y z
#    x 1.675690 0.000000 0.000000 
#    y 0.000000 1.638800 0.000000 
#    z 0.000000 0.000000 1.645800 
# 
# From -- ./inp_files/33933.got.cif
#   From: 2010.05.17/outbox.ucp.g08.bks.cvg/sg51_17_cif.got.tgz:33933.got - 2010.06.11 16:27:58.
