data_PCOD9407056
_publ_section_title
;
Structure prediction by ZEFSAII (Michael W. Deem and Ramdas Pophale) SiO2 
 PCOD9407056
Probable space group: P M M A
;
_chemical_formula_sum "Si O2"
_cell_formula_units_Z 32
_cell_length_a 17.594593
_cell_length_b 15.828674
_cell_length_c 5.602243
_cell_angle_alpha 90.000000
_cell_angle_beta 90.000000
_cell_angle_gamma 90.000000
_cell_volume 1560.219503
_symmetry_space_group_name_H-M "P M M A"
_symmetry_group_IT_number 51
_symmetry_cell_setting 'orthorhombic'
loop_
_space_group_symop_operation_xyz
x,y,z
1/2-x,-y,z
1/2+x,-y,-z
-x,y,-z
-x,-y,-z
1/2+x,y,-z
1/2-x,y,z
x,-y,z
loop_
_atom_site_type_symbol
_atom_site_label
_atom_site_fract_x
_atom_site_fract_y
_atom_site_fract_z
Si Si1 0.660140 0.331282 0.522274
Si Si2 0.418467 0.000000 0.123783
Si Si3 0.413654 0.847284 0.475211
Si Si4 0.666248 0.000000 0.278390
Si Si5 0.411316 0.601425 0.979196
O O1 0.750000 0.346946 0.509897
O O2 0.641251 0.231822 0.538955
O O3 0.628252 0.370494 0.771194
O O4 0.623013 0.363345 0.271219
O O5 0.418585 0.088734 0.257258
O O6 0.500000 0.000000 0.000000
O O7 0.336258 0.000000 0.002688
O O8 0.500000 0.815029 0.500000
O O9 0.381666 0.915600 0.664460
O O10 0.750000 0.000000 0.383614
O O11 0.406964 0.500000 0.965260
O O12 0.500000 0.626828 0.000000
#
# Coordination Sequence:
#
# PCOD9407056 Si02
#       5
#     8   4   8   4   8
#     4  12  27  44  70 107 144 181 230 293 356 414
#     4  11  21  40  66  92 123 176 229 276 332 402
#     4  11  23  41  65  91 129 175 224 274 331 406
#     4  11  23  39  61  91 129 167 213 276 335 388
#     4  11  25  48  75 103 138 184 234 283 348 431
#
# _framework density 20.509933
#
# number of rings (size 3 to 8) (size 9 to 14) (size 15 to 20)
#    0.000    0.750    2.500    5.250    3.500    9.000 
#    0.000    0.000    0.000    0.000    0.000    0.000 
#    0.000    0.000    0.000    0.000    0.000    0.000 
#
# Total GULP energy -178227.268568 kJ/mol
# GULP energy per Si atom -5569.602143 kJ/mol
# Density = 2.046325 g / cm^3
# Si number density = 20.509933 Si / 1000 Ang^3
#
#
#
# Elastic Constant Matrix: (Units=GPa)
#
#
# Indices 1 2 3 4 5 6 
#
# 1 169.4565 36.6959 86.4532 0.0000 0.0000 0.0000
# 2 36.6959 97.5285 53.1133 0.0000 0.0000 0.0000
# 3 86.4532 53.1133 151.6644 0.0000 0.0000 0.0000
# 4 0.0000 0.0000 0.0000 38.8652 0.0000 0.0000
# 5 0.0000 0.0000 0.0000 0.0000 34.0743 0.0000
# 6 0.0000 0.0000 0.0000 0.0000 0.0000 -12.6955
#
#
#
# Elastic Compliance Matrix: (Units=1/GPa)
#
#
# Indices 1 2 3 4 5 6 
#
# 1 0.008357 -0.000680 -0.004526 0.000000 0.000000 0.000000
# 2 -0.000680 0.012725 -0.004069 0.000000 0.000000 0.000000
# 3 -0.004526 -0.004069 0.010598 0.000000 0.000000 0.000000
# 4 0.000000 0.000000 0.000000 0.025730 0.000000 0.000000
# 5 0.000000 0.000000 0.000000 0.000000 0.029348 0.000000
# 6 0.000000 0.000000 0.000000 0.000000 0.000000 -0.078768
#
#
# Mechanical properties :
#
#
# Convention : Reuss Voigt Hill
#
# Bulk Modulus (GPa) = 76.15145 85.68601 80.91873
# Shear Modulus (GPa) = 161.72320 28.20792 94.96556
#
# Velocity S-wave (km/s) = 8.88945 3.71257 6.81196
# Velocity P-wave (km/s) = 11.94038 7.76183 10.07022
#
# Compressibility (1/GPa) = 0.01313173
#
# Stress axis : x y z
#
# Youngs Moduli (GPa) = 119.65337 78.58514 94.35425
#
# Poissons Ratio (x) = 0.05342 0.42704
# Poissons Ratio (y) = 0.08134 0.38391
# Poissons Ratio (z) = 0.54155 0.31975
#
# Static dielectric constant tensor:
#      x y z
#    x 1.680840 0.000000 0.000000 
#    y 0.000000 1.698090 0.000000 
#    z 0.000000 0.000000 1.811260 
# 
# From -- ./inp_files/1866.got.cif
#   From: 2010.05.17/outbox.cif.g08.bks.cpg/sg51_1_cif.got.tgz:1866.got - 2010.06.03 11:52:47.
