data_PCOD9407133
_publ_section_title
;
Structure prediction by ZEFSAII (Michael W. Deem and Ramdas Pophale) SiO2 
 PCOD9407133
Probable space group: P M M A
;
_chemical_formula_sum "Si O2"
_cell_formula_units_Z 48
_cell_length_a 14.636289
_cell_length_b 11.466584
_cell_length_c 15.083871
_cell_angle_alpha 90.000000
_cell_angle_beta 90.000000
_cell_angle_gamma 90.000000
_cell_volume 2531.499481
_symmetry_space_group_name_H-M "P M M A"
_symmetry_group_IT_number 51
_symmetry_cell_setting 'orthorhombic'
loop_
_space_group_symop_operation_xyz
x,y,z
1/2-x,-y,z
1/2+x,-y,-z
-x,y,-z
-x,-y,-z
1/2+x,y,-z
1/2-x,y,z
x,-y,z
loop_
_atom_site_type_symbol
_atom_site_label
_atom_site_fract_x
_atom_site_fract_y
_atom_site_fract_z
Si Si1 0.979858 0.290547 0.235185
Si Si2 0.852235 0.863169 0.342622
Si Si3 0.641178 0.361400 0.872289
Si Si4 0.052630 0.374241 0.406630
Si Si5 0.852848 0.639542 0.072886
Si Si6 0.359794 0.866993 0.450415
O O1 0.927632 0.180556 0.274910
O O2 0.920224 0.331675 0.151966
O O3 0.081900 0.287853 0.196273
O O4 0.985717 0.371736 0.322033
O O5 0.750000 0.810113 0.329891
O O6 0.880615 0.846049 0.445165
O O7 0.843239 0.000000 0.331956
O O8 0.750000 0.350755 0.860359
O O9 0.618171 0.500000 0.861590
O O10 0.619187 0.324392 0.973415
O O11 0.104123 0.500000 0.402284
O O12 0.104395 0.249527 0.402400
O O13 0.000000 0.374374 0.500000
O O14 0.750000 0.684058 0.090452
O O15 0.847678 0.500000 0.067053
O O16 0.250000 0.870203 0.442633
O O17 0.392891 0.000000 0.427046
#
# Coordination Sequence:
#
# PCOD9407133 Si02
#       6
#     8   8   8   8   8   8
#     4  12  20  32  57  82 108 150 189 228 279 347
#     4   9  19  36  57  82 109 140 187 244 293 338
#     4   9  19  35  54  78 110 148 189 231 276 333
#     4  11  23  35  47  78 124 158 185 224 283 345
#     4   9  18  33  54  82 111 138 178 233 285 335
#     4   9  19  39  62  78 100 147 206 251 285 331
#
# _framework density 18.961093999999999
#
# number of rings (size 3 to 8) (size 9 to 14) (size 15 to 20)
#    0.000    2.167    1.667    4.500    0.000    3.333 
#    0.000    0.000    0.000    2.500    0.000    2.333 
#    0.000    2.667    0.000    0.000    0.000    0.000 
#
# Total GULP energy -267283.968980 kJ/mol
# GULP energy per Si atom -5568.416020 kJ/mol
# Density = 1.891794 g / cm^3
# Si number density = 18.961094 Si / 1000 Ang^3
#
#
#
# Elastic Constant Matrix: (Units=GPa)
#
#
# Indices 1 2 3 4 5 6 
#
# 1 59.7030 34.1369 49.3228 0.0000 0.0000 0.0000
# 2 34.1369 95.3817 30.2086 0.0000 0.0000 0.0000
# 3 49.3228 30.2086 115.2242 0.0000 0.0000 0.0000
# 4 0.0000 0.0000 0.0000 19.5357 0.0000 0.0000
# 5 0.0000 0.0000 0.0000 0.0000 15.3106 0.0000
# 6 0.0000 0.0000 0.0000 0.0000 0.0000 26.0464
#
#
#
# Elastic Compliance Matrix: (Units=1/GPa)
#
#
# Indices 1 2 3 4 5 6 
#
# 1 0.029897 -0.007249 -0.010897 0.000000 0.000000 0.000000
# 2 -0.007249 0.013191 -0.000355 0.000000 0.000000 0.000000
# 3 -0.010897 -0.000355 0.013437 0.000000 0.000000 0.000000
# 4 0.000000 0.000000 0.000000 0.051188 0.000000 0.000000
# 5 0.000000 0.000000 0.000000 0.000000 0.065314 0.000000
# 6 0.000000 0.000000 0.000000 0.000000 0.000000 0.038393
#
#
# Mechanical properties :
#
#
# Convention : Reuss Voigt Hill
#
# Bulk Modulus (GPa) = 51.22504 55.29396 53.25950
# Shear Modulus (GPa) = 19.61322 22.62123 21.11722
#
# Velocity S-wave (km/s) = 3.21969 3.45778 3.34085
# Velocity P-wave (km/s) = 6.39503 6.72062 6.55984
#
# Compressibility (1/GPa) = 0.01952170
#
# Stress axis : x y z
#
# Youngs Moduli (GPa) = 33.44841 75.80887 74.42380
#
# Poissons Ratio (x) = 0.54952 0.81101
# Poissons Ratio (y) = 0.24246 0.02645
# Poissons Ratio (z) = 0.36449 0.02695
#
# Static dielectric constant tensor:
#      x y z
#    x 1.724570 0.000000 0.000000 
#    y 0.000000 1.677510 0.000000 
#    z 0.000000 0.000000 1.670420 
# 
# From -- ./inp_files/24025.got.cif
#   From: 2010.05.17/outbox.cif.g08.bks.cpg/sg51_13_cif.got.tgz:24025.got - 2010.06.03 11:52:47.
