data_PCOD9407457
_publ_section_title
;
Structure prediction by ZEFSAII (Michael W. Deem and Ramdas Pophale) SiO2 
 PCOD9407457
Probable space group: P M M A
;
_chemical_formula_sum "Si O2"
_cell_formula_units_Z 48
_cell_length_a 15.000000
_cell_length_b 9.000000
_cell_length_c 18.000000
_cell_angle_alpha 90.000000
_cell_angle_beta 90.000000
_cell_angle_gamma 90.000000
_cell_volume 2430.000000
_symmetry_space_group_name_H-M "P M M A"
_symmetry_group_IT_number 51
_symmetry_cell_setting 'orthorhombic'
loop_
_space_group_symop_operation_xyz
x,y,z
1/2-x,-y,z
1/2+x,-y,-z
-x,y,-z
-x,-y,-z
1/2+x,y,-z
1/2-x,y,z
x,-y,z
loop_
_atom_site_type_symbol
_atom_site_label
_atom_site_fract_x
_atom_site_fract_y
_atom_site_fract_z
Si Si1 0.250000 0.323781 0.938208
Si Si2 0.102708 0.333136 0.474301
Si Si3 0.045949 0.824002 0.330473
Si Si4 0.056063 0.324784 0.929962
Si Si5 0.653758 0.823064 0.377857
Si Si6 0.750000 0.827144 0.906007
Si Si7 0.599796 0.328707 0.816588
O O1 0.250000 0.500000 0.921482
O O2 0.154011 0.260953 0.913971
O O3 0.250000 0.286639 0.025430
O O4 0.133578 0.500000 0.455323
O O5 0.097180 0.221911 0.405370
O O6 0.151901 0.264182 0.544614
O O7 0.000000 0.344810 0.500000
O O8 0.086813 0.724097 0.266454
O O9 0.939845 0.787598 0.337821
O O10 0.054131 0.000000 0.316370
O O11 0.070449 0.500000 0.949072
O O12 0.994030 0.318422 0.858888
O O13 0.000000 0.261204 0.000000
O O14 0.750000 0.792132 0.340322
O O15 0.649674 0.000000 0.392419
O O16 0.834891 0.784045 0.857485
O O17 0.750000 0.000000 0.928381
O O18 0.630803 0.500000 0.822451
#
# Coordination Sequence:
#
# PCOD9407457 Si02
#       7
#     4   8   8   8   8   4   8
#     4  10  18  36  62  86 114 149 192 235 278 338
#     4   9  17  31  53  79 105 136 178 229 277 323
#     4  10  20  36  56  79 112 151 187 228 280 340
#     4   9  17  32  59  88 111 146 191 234 279 330
#     4   9  18  34  56  80 109 149 190 227 276 337
#     4  12  24  38  58  86 114 145 184 233 292 348
#     4  11  22  39  60  84 114 151 191 235 286 341
#
# _framework density 19.753086
#
# number of rings (size 3 to 8) (size 9 to 14) (size 15 to 20)
#    0.000    2.167    1.667    2.250    0.000    3.000 
#    3.000    2.500    0.000    0.000    0.000    0.000 
#    0.000    0.000    0.000    0.000    0.000    0.000 
#
# Total GULP energy -267409.825136 kJ/mol
# GULP energy per Si atom -5571.038024 kJ/mol
# Density = 1.970813 g / cm^3
# Si number density = 19.753086 Si / 1000 Ang^3
#
#
#
# Elastic Constant Matrix: (Units=GPa)
#
#
# Indices 1 2 3 4 5 6 
#
# 1 67.7289 -8.5702 -23.5045 0.0000 0.0000 0.0000
# 2 -8.5702 22.6825 -9.3391 0.0000 0.0000 0.0000
# 3 -23.5045 -9.3391 16.9956 0.0000 0.0000 0.0000
# 4 0.0000 0.0000 0.0000 -1.3130 0.0000 0.0000
# 5 0.0000 0.0000 0.0000 0.0000 12.4229 0.0000
# 6 0.0000 0.0000 0.0000 0.0000 0.0000 -170.3891
#
#
#
# Elastic Compliance Matrix: (Units=1/GPa)
#
#
# Indices 1 2 3 4 5 6 
#
# 1 0.112118 0.137257 0.230479 0.000000 0.000000 0.000000
# 2 0.137257 0.225011 0.313467 0.000000 0.000000 0.000000
# 3 0.230479 0.313467 0.549835 0.000000 0.000000 0.000000
# 4 0.000000 0.000000 0.000000 -0.761602 0.000000 0.000000
# 5 0.000000 0.000000 0.000000 0.000000 0.080497 0.000000
# 6 0.000000 0.000000 0.000000 0.000000 0.000000 -0.005869
#
#
# Mechanical properties :
#
#
# Convention : Reuss Voigt Hill
#
# Bulk Modulus (GPa) = 0.44457 2.73105 1.58781
# Shear Modulus (GPa) = -12.11751 -21.93447 -17.02599
#
# Velocity S-wave (km/s) = -2.47948 -3.33593 -2.93907
# Velocity P-wave (km/s) = 2.82339 3.66774 3.27291
#
# Compressibility (1/GPa) = 2.24937066
#
# Stress axis : x y z
#
# Youngs Moduli (GPa) = 8.91920 4.44422 1.81873
#
# Poissons Ratio (x) = -0.61000 -0.41918
# Poissons Ratio (y) = -1.22422 -0.57011
# Poissons Ratio (z) = -2.05569 -1.39312
#
# Static dielectric constant tensor:
#      x y z
#    x 1.772730 0.000000 0.000000 
#    y 0.000000 1.678990 0.000000 
#    z 0.000000 0.000000 1.698270 
# 
# From -- ./inp_files/29571.got.cif
#   From: 2010.05.17/outbox.ucp.g08.bks.cvg/sg51_15_cif.got.tgz:29571.got - 2010.06.11 16:27:58.
