data_PCOD9407467
_publ_section_title
;
Structure prediction by ZEFSAII (Michael W. Deem and Ramdas Pophale) SiO2 
 PCOD9407467
Probable space group: P M M A
;
_chemical_formula_sum "Si O2"
_cell_formula_units_Z 64
_cell_length_a 9.000000
_cell_length_b 24.000000
_cell_length_c 15.000000
_cell_angle_alpha 90.000000
_cell_angle_beta 90.000000
_cell_angle_gamma 90.000000
_cell_volume 3240.000000
_symmetry_space_group_name_H-M "P M M A"
_symmetry_group_IT_number 51
_symmetry_cell_setting 'orthorhombic'
loop_
_space_group_symop_operation_xyz
x,y,z
1/2-x,-y,z
1/2+x,-y,-z
-x,y,-z
-x,-y,-z
1/2+x,y,-z
1/2-x,y,z
x,-y,z
loop_
_atom_site_type_symbol
_atom_site_label
_atom_site_fract_x
_atom_site_fract_y
_atom_site_fract_z
Si Si1 0.428512 0.562699 0.714328
Si Si2 0.070507 0.838401 0.096218
Si Si3 0.072203 0.099184 0.598439
Si Si4 0.075281 0.401714 0.912946
Si Si5 0.085374 0.327891 0.331054
Si Si6 0.583000 0.290318 0.873217
Si Si7 0.427898 0.938719 0.226710
Si Si8 0.575426 0.777791 0.405734
O O1 0.250000 0.570023 0.707816
O O2 0.466071 0.500000 0.686395
O O3 0.469103 0.571008 0.818852
O O4 0.511320 0.611747 0.662597
O O5 0.250000 0.840368 0.091325
O O6 0.032931 0.774010 0.121947
O O7 0.023216 0.886702 0.165214
O O8 0.000000 0.849040 0.000000
O O9 0.250000 0.092477 0.590007
O O10 0.040062 0.162072 0.635503
O O11 0.000000 0.091651 0.500000
O O12 0.003656 0.062595 0.676467
O O13 0.250000 0.407100 0.920956
O O14 0.029176 0.336521 0.909720
O O15 0.000000 0.426849 0.000000
O O16 0.250000 0.327319 0.371611
O O17 0.098127 0.310461 0.228074
O O18 0.985048 0.278717 0.366778
O O19 0.750000 0.294305 0.913699
O O20 0.250000 0.933309 0.238889
O O21 0.456814 0.000000 0.185654
O O22 0.500000 0.782767 0.500000
O O23 0.750000 0.774334 0.413335
#
# Coordination Sequence:
#
# PCOD9407467 Si02
#       8
#     8   8   8   8   8   8   8   8
#     4   9  19  35  51  68  95 134 177 217 258 305
#     4  10  21  36  54  77 105 140 183 230 280 329
#     4  10  21  37  60  89 118 147 179 218 267 325
#     4  10  19  30  46  69  97 128 164 208 258 311
#     4  10  19  32  53  79 106 137 173 215 262 312
#     4   9  18  32  50  73 101 132 167 211 264 320
#     4  10  22  40  59  79 108 147 188 230 276 326
#     4  10  20  34  54  82 113 141 169 204 252 310
#
# _framework density 19.753086
#
# number of rings (size 3 to 8) (size 9 to 14) (size 15 to 20)
#    0.000    2.250    0.000    2.625    0.000    6.750 
#    0.000    0.000    0.000    0.375    0.000    0.000 
#    0.000    0.000    0.000    0.000    0.000    0.000 
#
# Total GULP energy -356626.865964 kJ/mol
# GULP energy per Si atom -5572.294781 kJ/mol
# Density = 1.970813 g / cm^3
# Si number density = 19.753086 Si / 1000 Ang^3
#
#
#
# Elastic Constant Matrix: (Units=GPa)
#
#
# Indices 1 2 3 4 5 6 
#
# 1 23.2862 35.4988 12.3962 0.0000 0.0000 0.0000
# 2 35.4988 110.4867 37.9857 0.0000 0.0000 0.0000
# 3 12.3962 37.9857 24.6364 0.0000 0.0000 0.0000
# 4 0.0000 0.0000 0.0000 5.3295 0.0000 0.0000
# 5 0.0000 0.0000 0.0000 0.0000 28.2976 0.0000
# 6 0.0000 0.0000 0.0000 0.0000 0.0000 18.5945
#
#
#
# Elastic Compliance Matrix: (Units=1/GPa)
#
#
# Indices 1 2 3 4 5 6 
#
# 1 0.084193 -0.026572 -0.001393 0.000000 0.000000 0.000000
# 2 -0.026572 0.027647 -0.029258 0.000000 0.000000 0.000000
# 3 -0.001393 -0.029258 0.086403 0.000000 0.000000 0.000000
# 4 0.000000 0.000000 0.000000 0.187637 0.000000 0.000000
# 5 0.000000 0.000000 0.000000 0.000000 0.035339 0.000000
# 6 0.000000 0.000000 0.000000 0.000000 0.000000 0.053779
#
#
# Mechanical properties :
#
#
# Convention : Reuss Voigt Hill
#
# Bulk Modulus (GPa) = 11.93356 36.68561 24.30958
# Shear Modulus (GPa) = 8.09879 15.27955 11.68917
#
# Velocity S-wave (km/s) = 2.02704 2.78425 2.43526
# Velocity P-wave (km/s) = 3.39603 5.38038 4.49897
#
# Compressibility (1/GPa) = 0.08379726
#
# Stress axis : x y z
#
# Youngs Moduli (GPa) = 11.87742 36.17000 11.57370
#
# Poissons Ratio (x) = 0.96110 0.01613
# Poissons Ratio (y) = 0.31561 0.33862
# Poissons Ratio (z) = 0.01655 1.05826
#
# Static dielectric constant tensor:
#      x y z
#    x 1.666490 0.000000 0.000000 
#    y 0.000000 1.752570 0.000000 
#    z 0.000000 0.000000 1.724480 
# 
# From -- ./inp_files/22375.got.cif
#   From: 2010.05.17/outbox.ucp.g08.bks.cvg/sg51_12_cif.got.tgz:22375.got - 2010.06.11 16:27:58.
