data_PCOD9407200
_publ_section_title
;
Structure prediction by ZEFSAII (Michael W. Deem and Ramdas Pophale) SiO2 
 PCOD9407200
Probable space group: P M M A
;
_chemical_formula_sum "Si O2"
_cell_formula_units_Z 56
_cell_length_a 15.973444
_cell_length_b 19.405006
_cell_length_c 8.503088
_cell_angle_alpha 90.000000
_cell_angle_beta 90.000000
_cell_angle_gamma 90.000000
_cell_volume 2635.657773
_symmetry_space_group_name_H-M "P M M A"
_symmetry_group_IT_number 51
_symmetry_cell_setting 'orthorhombic'
loop_
_space_group_symop_operation_xyz
x,y,z
1/2-x,-y,z
1/2+x,-y,-z
-x,y,-z
-x,-y,-z
1/2+x,y,-z
1/2-x,y,z
x,-y,z
loop_
_atom_site_type_symbol
_atom_site_label
_atom_site_fract_x
_atom_site_fract_y
_atom_site_fract_z
Si Si1 0.844376 0.830412 0.167999
Si Si2 0.940122 0.703174 0.120857
Si Si3 0.652760 0.574926 0.081150
Si Si4 0.652030 0.575812 0.462192
Si Si5 0.154740 0.833440 0.212164
Si Si6 0.434144 0.293366 0.380113
Si Si7 0.995464 0.079880 0.311308
O O1 0.750000 0.845667 0.223545
O O2 0.872052 0.751823 0.201364
O O3 0.916052 0.878488 0.241455
O O4 0.843629 0.830826 0.977725
O O5 0.896985 0.641468 0.028362
O O6 0.003316 0.676343 0.250399
O O7 0.000000 0.744504 0.000000
O O8 0.750000 0.580089 0.036231
O O9 0.620955 0.500000 0.029736
O O10 0.648728 0.577907 0.271803
O O11 0.750000 0.577293 0.504839
O O12 0.618016 0.500000 0.510492
O O13 0.610006 0.642593 0.536764
O O14 0.250000 0.850243 0.263109
O O15 0.125958 0.762223 0.297049
O O16 0.082450 0.887542 0.253161
O O17 0.500000 0.257181 0.500000
O O18 0.000000 0.083571 0.500000
O O19 0.988350 0.000000 0.264273
#
# Coordination Sequence:
#
# PCOD9407200 Si02
#       7
#     8   8   8   8   8   8   8
#     4  11  24  44  69  95 131 176 216 257 316 385
#     4  12  22  38  60  86 126 164 210 269 326 385
#     4   9  19  36  56  81 116 162 215 268 326 393
#     4   9  19  36  56  82 118 160 211 271 331 391
#     4  11  24  43  67  97 132 172 217 264 318 381
#     4  12  22  37  61  91 126 163 215 275 327 385
#     4  11  25  46  70 101 138 170 210 262 311 368
#
# _framework density 21.247069
#
# number of rings (size 3 to 8) (size 9 to 14) (size 15 to 20)
#    0.000    1.286    4.286    2.571    0.000    3.429 
#    0.000    2.857    0.000    1.714    0.000    0.000 
#    0.000    0.000    0.000    0.000    0.000    0.000 
#
# Total GULP energy -312639.331694 kJ/mol
# GULP energy per Si atom -5582.845209 kJ/mol
# Density = 2.119871 g / cm^3
# Si number density = 21.247069 Si / 1000 Ang^3
#
#
#
# Elastic Constant Matrix: (Units=GPa)
#
#
# Indices 1 2 3 4 5 6 
#
# 1 165.2969 73.2952 31.5264 0.0000 0.0000 0.0000
# 2 73.2952 133.1026 17.5712 0.0000 0.0000 0.0000
# 3 31.5264 17.5712 47.4769 0.0000 0.0000 0.0000
# 4 0.0000 0.0000 0.0000 14.2284 0.0000 0.0000
# 5 0.0000 0.0000 0.0000 0.0000 28.1637 0.0000
# 6 0.0000 0.0000 0.0000 0.0000 0.0000 13.2935
#
#
#
# Elastic Compliance Matrix: (Units=1/GPa)
#
#
# Indices 1 2 3 4 5 6 
#
# 1 0.008744 -0.004257 -0.004231 0.000000 0.000000 0.000000
# 2 -0.004257 0.009971 -0.000864 0.000000 0.000000 0.000000
# 3 -0.004231 -0.000864 0.024192 0.000000 0.000000 0.000000
# 4 0.000000 0.000000 0.000000 0.070282 0.000000 0.000000
# 5 0.000000 0.000000 0.000000 0.000000 0.035507 0.000000
# 6 0.000000 0.000000 0.000000 0.000000 0.000000 0.075224
#
#
# Mechanical properties :
#
#
# Convention : Reuss Voigt Hill
#
# Bulk Modulus (GPa) = 41.31466 65.62910 53.47188
# Shear Modulus (GPa) = 19.94485 26.03604 22.99045
#
# Velocity S-wave (km/s) = 3.06716 3.50436 3.29303
# Velocity P-wave (km/s) = 5.65954 6.87966 6.29921
#
# Compressibility (1/GPa) = 0.02420448
#
# Stress axis : x y z
#
# Youngs Moduli (GPa) = 114.36277 100.29117 41.33577
#
# Poissons Ratio (x) = 0.42689 0.17489
# Poissons Ratio (y) = 0.48679 0.03570
# Poissons Ratio (z) = 0.48387 0.08663
#
# Static dielectric constant tensor:
#      x y z
#    x 1.763230 0.000000 0.000000 
#    y 0.000000 1.783230 0.000000 
#    z 0.000000 0.000000 1.826700 
# 
# From -- ./inp_files/8508.got.cif
#   From: 2010.05.17/outbox.cif.g08.bks.cpg/sg51_5_cif.got.tgz:8508.got - 2010.06.03 11:52:47.
