data_PCOD9407730
_publ_section_title
;
Structure prediction by ZEFSAII (Michael W. Deem and Ramdas Pophale) SiO2 
 PCOD9407730
Probable space group: P M M A
;
_chemical_formula_sum "Si O2"
_cell_formula_units_Z 64
_cell_length_a 9.000000
_cell_length_b 21.000000
_cell_length_c 18.000000
_cell_angle_alpha 90.000000
_cell_angle_beta 90.000000
_cell_angle_gamma 90.000000
_cell_volume 3402.000000
_symmetry_space_group_name_H-M "P M M A"
_symmetry_group_IT_number 51
_symmetry_cell_setting 'orthorhombic'
loop_
_space_group_symop_operation_xyz
x,y,z
1/2-x,-y,z
1/2+x,-y,-z
-x,y,-z
-x,-y,-z
1/2+x,y,-z
1/2-x,y,z
x,-y,z
loop_
_atom_site_type_symbol
_atom_site_label
_atom_site_fract_x
_atom_site_fract_y
_atom_site_fract_z
Si Si1 0.575757 0.430384 0.294904
Si Si2 0.924129 0.430192 0.114500
Si Si3 0.074313 0.926246 0.800341
Si Si4 0.428076 0.839604 0.075693
Si Si5 0.428368 0.699806 0.124585
Si Si6 0.571672 0.699126 0.703031
Si Si7 0.428880 0.795710 0.424178
Si Si8 0.428807 0.929217 0.361508
O O1 0.750000 0.424260 0.312717
O O2 0.522758 0.500000 0.320503
O O3 0.565127 0.430634 0.204758
O O4 0.487327 0.369474 0.322462
O O5 0.750000 0.426447 0.095262
O O6 0.981652 0.500000 0.089723
O O7 0.005194 0.365388 0.092120
O O8 0.250000 0.912664 0.798872
O O9 0.990515 0.879211 0.855446
O O10 0.005902 0.921278 0.718227
O O11 0.054437 0.000000 0.824133
O O12 0.250000 0.843693 0.073618
O O13 0.470714 0.765308 0.085180
O O14 0.500000 0.864264 0.000000
O O15 0.250000 0.694211 0.123441
O O16 0.476172 0.707677 0.211207
O O17 0.750000 0.698805 0.703577
O O18 0.523153 0.754437 0.647190
O O19 0.500000 0.771612 0.500000
O O20 0.250000 0.792311 0.429053
O O21 0.472073 0.869266 0.411202
O O22 0.250000 0.926547 0.351254
O O23 0.466389 0.000000 0.390335
#
# Coordination Sequence:
#
# PCOD9407730 Si02
#       8
#     8   8   8   8   8   8   8   8
#     4   8  14  25  42  67  97 124 154 197 247 297
#     4   8  14  25  43  70 102 131 160 200 251 303
#     4  10  21  37  58  84 109 133 167 210 254 304
#     4  11  23  38  55  76 105 140 176 214 257 305
#     4   9  18  32  51  74  99 130 168 210 255 303
#     4   9  17  30  48  70  97 128 163 204 249 299
#     4  10  21  35  50  72 103 137 173 212 253 299
#     4   9  18  35  58  80 104 136 170 206 252 302
#
# _framework density 18.812463000000001
#
# number of rings (size 3 to 8) (size 9 to 14) (size 15 to 20)
#    0.000    2.750    0.000    2.250    0.000    5.750 
#    0.000    5.000    0.000    0.750    0.000    0.000 
#    0.000    0.000    0.000    0.000    0.000    0.000 
#
# Total GULP energy -356843.550470 kJ/mol
# GULP energy per Si atom -5575.680476 kJ/mol
# Density = 1.876965 g / cm^3
# Si number density = 18.812463 Si / 1000 Ang^3
#
#
#
# Elastic Constant Matrix: (Units=GPa)
#
#
# Indices 1 2 3 4 5 6 
#
# 1 10.2291 24.4314 12.3446 0.0000 0.0000 0.0000
# 2 24.4314 85.4065 32.2499 0.0000 0.0000 0.0000
# 3 12.3446 32.2499 54.5864 0.0000 0.0000 0.0000
# 4 0.0000 0.0000 0.0000 -24.1231 0.0000 0.0000
# 5 0.0000 0.0000 0.0000 0.0000 17.0194 0.0000
# 6 0.0000 0.0000 0.0000 0.0000 0.0000 27.0345
#
#
#
# Elastic Compliance Matrix: (Units=1/GPa)
#
#
# Indices 1 2 3 4 5 6 
#
# 1 0.332131 -0.085785 -0.024429 0.000000 0.000000 0.000000
# 2 -0.085785 0.037228 -0.002594 0.000000 0.000000 0.000000
# 3 -0.024429 -0.002594 0.025377 0.000000 0.000000 0.000000
# 4 0.000000 0.000000 0.000000 -0.041454 0.000000 0.000000
# 5 0.000000 0.000000 0.000000 0.000000 0.058756 0.000000
# 6 0.000000 0.000000 0.000000 0.000000 0.000000 0.036990
#
#
# Mechanical properties :
#
#
# Convention : Reuss Voigt Hill
#
# Bulk Modulus (GPa) = 5.91298 32.03042 18.97170
# Shear Modulus (GPa) = 6.83979 9.39925 8.11952
#
# Velocity S-wave (km/s) = 1.90884 2.23766 2.07976
# Velocity P-wave (km/s) = 2.82987 4.87230 3.98419
#
# Compressibility (1/GPa) = 0.16911957
#
# Stress axis : x y z
#
# Youngs Moduli (GPa) = 3.01086 26.86155 39.40606
#
# Poissons Ratio (x) = 2.30431 0.96264
# Poissons Ratio (y) = 0.25829 0.10223
# Poissons Ratio (z) = 0.07355 0.06969
#
# Static dielectric constant tensor:
#      x y z
#    x 1.628790 0.000000 0.000000 
#    y 0.000000 1.675150 0.000000 
#    z 0.000000 0.000000 1.626500 
# 
# From -- ./inp_files/28390.got.cif
#   From: 2010.05.17/outbox.ucp.g08.bks.cvg/sg51_15_cif.got.tgz:28390.got - 2010.06.11 16:27:58.
