data_PCOD9407050
_publ_section_title
;
Structure prediction by ZEFSAII (Michael W. Deem and Ramdas Pophale) SiO2 
 PCOD9407050
Probable space group: P M M A
;
_chemical_formula_sum "Si O2"
_cell_formula_units_Z 40
_cell_length_a 8.704913
_cell_length_b 10.384872
_cell_length_c 25.783800
_cell_angle_alpha 90.000000
_cell_angle_beta 90.000000
_cell_angle_gamma 90.000000
_cell_volume 2330.840237
_symmetry_space_group_name_H-M "P M M A"
_symmetry_group_IT_number 51
_symmetry_cell_setting 'orthorhombic'
loop_
_space_group_symop_operation_xyz
x,y,z
1/2-x,-y,z
1/2+x,-y,-z
-x,y,-z
-x,-y,-z
1/2+x,y,-z
1/2-x,y,z
x,-y,z
loop_
_atom_site_type_symbol
_atom_site_label
_atom_site_fract_x
_atom_site_fract_y
_atom_site_fract_z
Si Si1 0.429824 0.843519 0.160452
Si Si2 0.434816 0.000000 0.558030
Si Si3 0.935624 0.250413 0.615867
Si Si4 0.937024 0.149369 0.726053
Si Si5 0.932317 0.151640 0.053223
Si Si6 0.434079 0.500000 0.558360
O O1 0.250000 0.811734 0.156202
O O2 0.489340 0.802880 0.217250
O O3 0.511635 0.795477 0.108483
O O4 0.441431 0.000000 0.161987
O O5 0.500000 0.000000 0.500000
O O6 0.499675 0.874718 0.586889
O O7 0.250000 0.000000 0.557805
O O8 0.750000 0.252545 0.612225
O O9 0.979216 0.233690 0.676432
O O10 0.004946 0.375256 0.588772
O O11 0.750000 0.146357 0.728283
O O12 0.985993 0.000000 0.718182
O O13 0.750000 0.156995 0.050643
O O14 0.979823 0.000000 0.053907
O O15 0.000000 0.207993 0.000000
O O16 0.250000 0.500000 0.556188
O O17 0.500000 0.500000 0.500000
#
# Coordination Sequence:
#
# PCOD9407050 Si02
#       6
#     8   4   8   8   8   4
#     4   8  13  22  37  56  80 112 150 191 237 286
#     4  12  24  38  56  82 110 138 169 210 257 302
#     4  11  21  38  61  83 106 137 174 213 256 309
#     4   8  14  27  49  74  97 124 160 202 246 298
#     4   9  15  21  29  44  70 107 152 197 239 283
#     4  12  26  44  60  80 108 138 173 212 261 316
#
# _framework density 17.161193999999998
#
# number of rings (size 3 to 8) (size 9 to 14) (size 15 to 20)
#    0.000    2.400    1.000    4.800    0.000    2.400 
#    0.000    2.000    0.000    0.000    0.000    0.000 
#    0.000    0.000    0.000    0.900    0.000   10.400 
#
# Total GULP energy -222892.550331 kJ/mol
# GULP energy per Si atom -5572.313758 kJ/mol
# Density = 1.712213 g / cm^3
# Si number density = 17.161194 Si / 1000 Ang^3
#
#
#
# Elastic Constant Matrix: (Units=GPa)
#
#
# Indices 1 2 3 4 5 6 
#
# 1 57.5770 28.0891 57.2930 0.0000 0.0000 0.0000
# 2 28.0891 74.9889 56.7433 0.0000 0.0000 0.0000
# 3 57.2930 56.7433 217.3435 0.0000 0.0000 0.0000
# 4 0.0000 0.0000 0.0000 15.4407 0.0000 0.0000
# 5 0.0000 0.0000 0.0000 0.0000 27.7179 0.0000
# 6 0.0000 0.0000 0.0000 0.0000 0.0000 19.4054
#
#
#
# Elastic Compliance Matrix: (Units=1/GPa)
#
#
# Indices 1 2 3 4 5 6 
#
# 1 0.025247 -0.005509 -0.005217 0.000000 0.000000 0.000000
# 2 -0.005509 0.017821 -0.003200 0.000000 0.000000 0.000000
# 3 -0.005217 -0.003200 0.006812 0.000000 0.000000 0.000000
# 4 0.000000 0.000000 0.000000 0.064764 0.000000 0.000000
# 5 0.000000 0.000000 0.000000 0.000000 0.036078 0.000000
# 6 0.000000 0.000000 0.000000 0.000000 0.000000 0.051532
#
#
# Mechanical properties :
#
#
# Convention : Reuss Voigt Hill
#
# Bulk Modulus (GPa) = 45.40031 70.46226 57.93128
# Shear Modulus (GPa) = 21.05726 26.36508 23.71117
#
# Velocity S-wave (km/s) = 3.50670 3.92384 3.72112
# Velocity P-wave (km/s) = 6.55046 7.85347 7.23137
#
# Compressibility (1/GPa) = 0.02202628
#
# Stress axis : x y z
#
# Youngs Moduli (GPa) = 39.60880 56.11495 146.80593
#
# Poissons Ratio (x) = 0.30916 0.76587
# Poissons Ratio (y) = 0.21822 0.46981
# Poissons Ratio (z) = 0.20663 0.17958
#
# Static dielectric constant tensor:
#      x y z
#    x 1.577510 0.000000 0.000000 
#    y 0.000000 1.571070 0.000000 
#    z 0.000000 0.000000 1.634220 
# 
# From -- ./inp_files/36045.got.cif
#   From: 2010.05.17/outbox.cif.g08.bks.cpg/sg51_19_cif.got.tgz:36045.got - 2010.06.03 11:52:47.
