data_PCOD9407239
_publ_section_title
;
Structure prediction by ZEFSAII (Michael W. Deem and Ramdas Pophale) SiO2 
 PCOD9407239
Probable space group: P M M A
;
_chemical_formula_sum "Si O2"
_cell_formula_units_Z 40
_cell_length_a 9.372139
_cell_length_b 7.390916
_cell_length_c 27.788071
_cell_angle_alpha 90.000000
_cell_angle_beta 90.000000
_cell_angle_gamma 90.000000
_cell_volume 1924.843334
_symmetry_space_group_name_H-M "P M M A"
_symmetry_group_IT_number 51
_symmetry_cell_setting 'orthorhombic'
loop_
_space_group_symop_operation_xyz
x,y,z
1/2-x,-y,z
1/2+x,-y,-z
-x,y,-z
-x,-y,-z
1/2+x,y,-z
1/2-x,y,z
x,-y,z
loop_
_atom_site_type_symbol
_atom_site_label
_atom_site_fract_x
_atom_site_fract_y
_atom_site_fract_z
Si Si1 0.423006 0.715282 0.651518
Si Si2 0.912830 0.214867 0.139840
Si Si3 0.914470 0.717250 0.245318
Si Si4 0.913835 0.221227 0.952594
Si Si5 0.415950 0.721107 0.546962
O O1 0.250000 0.736696 0.652099
O O2 0.451018 0.500000 0.650885
O O3 0.475714 0.783984 0.703512
O O4 0.471532 0.784184 0.599369
O O5 0.750000 0.287962 0.138912
O O6 0.977622 0.241542 0.193141
O O7 0.007265 0.283346 0.095886
O O8 0.901710 0.000000 0.133118
O O9 0.750000 0.783319 0.242812
O O10 0.909722 0.500000 0.248784
O O11 0.750000 0.279112 0.954402
O O12 0.913475 0.000000 0.952276
O O13 0.000000 0.276802 0.000000
O O14 0.500000 0.782063 0.500000
O O15 0.250000 0.771202 0.543067
O O16 0.421055 0.500000 0.547541
#
# Coordination Sequence:
#
# PCOD9407239 Si02
#       5
#     8   8   8   8   8
#     4   7  10  17  29  45  64  88 120 151 175 208
#     4   9  16  25  39  61  84 100 119 154 193 221
#     4   8  13  22  37  55  75 102 132 155 179 220
#     4   9  16  26  41  60  81 104 128 154 186 224
#     4   8  12  17  26  41  61  84 110 142 179 215
#
# _framework density 20.780913000000002
#
# number of rings (size 3 to 8) (size 9 to 14) (size 15 to 20)
#    0.000    3.800    0.000    3.000    0.000    2.400 
#    0.000    0.000    0.000    2.400    0.000    2.800 
#    0.000    0.800    0.000    0.600    0.000    1.200 
#
# Total GULP energy -222671.953726 kJ/mol
# GULP energy per Si atom -5566.798843 kJ/mol
# Density = 2.073361 g / cm^3
# Si number density = 20.780913 Si / 1000 Ang^3
#
#
#
# Elastic Constant Matrix: (Units=GPa)
#
#
# Indices 1 2 3 4 5 6 
#
# 1 61.3377 3.4819 86.9096 0.0000 0.0000 0.0000
# 2 3.4819 69.3410 5.8260 0.0000 0.0000 0.0000
# 3 86.9096 5.8260 293.6220 0.0000 0.0000 0.0000
# 4 0.0000 0.0000 0.0000 12.8223 0.0000 0.0000
# 5 0.0000 0.0000 0.0000 0.0000 29.0916 0.0000
# 6 0.0000 0.0000 0.0000 0.0000 0.0000 -23.3410
#
#
#
# Elastic Compliance Matrix: (Units=1/GPa)
#
#
# Indices 1 2 3 4 5 6 
#
# 1 0.028115 -0.000714 -0.008308 0.000000 0.000000 0.000000
# 2 -0.000714 0.014464 -0.000076 0.000000 0.000000 0.000000
# 3 -0.008308 -0.000076 0.005866 0.000000 0.000000 0.000000
# 4 0.000000 0.000000 0.000000 0.077989 0.000000 0.000000
# 5 0.000000 0.000000 0.000000 0.000000 0.034374 0.000000
# 6 0.000000 0.000000 0.000000 0.000000 0.000000 -0.042843
#
#
# Mechanical properties :
#
#
# Convention : Reuss Voigt Hill
#
# Bulk Modulus (GPa) = 33.05729 68.52618 50.79174
# Shear Modulus (GPa) = 34.18984 25.58680 29.88832
#
# Velocity S-wave (km/s) = 4.06057 3.51274 3.79655
# Velocity P-wave (km/s) = 6.15844 7.03560 6.61158
#
# Compressibility (1/GPa) = 0.03025051
#
# Stress axis : x y z
#
# Youngs Moduli (GPa) = 35.56861 69.13863 170.46806
#
# Poissons Ratio (x) = 0.04935 1.41617
# Poissons Ratio (y) = 0.02539 0.01291
# Poissons Ratio (z) = 0.29549 0.00523
#
# Static dielectric constant tensor:
#      x y z
#    x 1.697120 0.000000 0.000000 
#    y 0.000000 1.834850 0.000000 
#    z 0.000000 0.000000 1.806030 
# 
# From -- ./inp_files/35985.got.cif
#   From: 2010.05.17/outbox.cif.g08.bks.cpg/sg51_18_cif.got.tgz:35985.got - 2010.06.03 11:52:47.
