data_PCOD9407707
_publ_section_title
;
Structure prediction by ZEFSAII (Michael W. Deem and Ramdas Pophale) SiO2 
 PCOD9407707
Probable space group: P M M A
;
_chemical_formula_sum "Si O2"
_cell_formula_units_Z 48
_cell_length_a 15.000000
_cell_length_b 9.000000
_cell_length_c 18.000000
_cell_angle_alpha 90.000000
_cell_angle_beta 90.000000
_cell_angle_gamma 90.000000
_cell_volume 2430.000000
_symmetry_space_group_name_H-M "P M M A"
_symmetry_group_IT_number 51
_symmetry_cell_setting 'orthorhombic'
loop_
_space_group_symop_operation_xyz
x,y,z
1/2-x,-y,z
1/2+x,-y,-z
-x,y,-z
-x,-y,-z
1/2+x,y,-z
1/2-x,y,z
x,-y,z
loop_
_atom_site_type_symbol
_atom_site_label
_atom_site_fract_x
_atom_site_fract_y
_atom_site_fract_z
Si Si1 0.850562 0.167798 0.690717
Si Si2 0.092279 0.180747 0.463317
Si Si3 0.414743 0.820279 0.847192
Si Si4 0.750000 0.819807 0.257293
Si Si5 0.355235 0.831381 0.010811
Si Si6 0.600372 0.674968 0.835934
Si Si7 0.750000 0.818397 0.428474
O O1 0.750000 0.156200 0.661289
O O2 0.902528 0.235926 0.621311
O O3 0.848206 0.256720 0.766555
O O4 0.883114 0.000000 0.707590
O O5 0.166679 0.228876 0.521633
O O6 0.000000 0.217905 0.500000
O O7 0.099864 0.000000 0.456648
O O8 0.335076 0.778156 0.792189
O O9 0.501583 0.735157 0.822629
O O10 0.424409 0.000000 0.844771
O O11 0.398173 0.780516 0.933680
O O12 0.750000 0.767363 0.342699
O O13 0.750000 0.000000 0.260242
O O14 0.250000 0.837029 0.996081
O O15 0.371108 0.736141 0.083801
O O16 0.386532 0.000000 0.026651
O O17 0.606890 0.500000 0.836067
O O18 0.750000 0.000000 0.425453
#
# Coordination Sequence:
#
# PCOD9407707 Si02
#       7
#     8   8   8   4   8   8   4
#     4  10  20  37  59  83 113 149 192 237 282 333
#     4   9  17  29  50  85 120 147 177 228 293 347
#     4  10  20  38  61  87 114 145 186 233 284 338
#     4   9  18  32  57  90 117 142 178 231 289 339
#     4  10  20  38  62  86 113 146 188 234 282 335
#     4  12  26  38  53  82 116 152 195 234 280 337
#     4   9  16  28  48  84 123 144 174 227 287 349
#
# _framework density 19.753086
#
# number of rings (size 3 to 8) (size 9 to 14) (size 15 to 20)
#    0.000    2.000    1.667    2.500    2.333    5.333 
#    0.000    0.417    0.000    0.500    0.000    0.000 
#    0.000    0.000    0.000    0.000    0.000    0.000 
#
# Total GULP energy -267636.834391 kJ/mol
# GULP energy per Si atom -5575.767383 kJ/mol
# Density = 1.970813 g / cm^3
# Si number density = 19.753086 Si / 1000 Ang^3
#
#
#
# Elastic Constant Matrix: (Units=GPa)
#
#
# Indices 1 2 3 4 5 6 
#
# 1 85.4814 16.9691 59.5536 0.0000 0.0000 0.0000
# 2 16.9691 25.2319 45.9599 0.0000 0.0000 0.0000
# 3 59.5536 45.9599 142.4461 0.0000 0.0000 0.0000
# 4 0.0000 0.0000 0.0000 -13.3014 0.0000 0.0000
# 5 0.0000 0.0000 0.0000 0.0000 46.0907 0.0000
# 6 0.0000 0.0000 0.0000 0.0000 0.0000 21.1195
#
#
#
# Elastic Compliance Matrix: (Units=1/GPa)
#
#
# Indices 1 2 3 4 5 6 
#
# 1 0.016639 0.003592 -0.008115 0.000000 0.000000 0.000000
# 2 0.003592 0.096901 -0.032767 0.000000 0.000000 0.000000
# 3 -0.008115 -0.032767 0.020985 0.000000 0.000000 0.000000
# 4 0.000000 0.000000 0.000000 -0.075180 0.000000 0.000000
# 5 0.000000 0.000000 0.000000 0.000000 0.021696 0.000000
# 6 0.000000 0.000000 0.000000 0.000000 0.000000 0.047349
#
#
# Mechanical properties :
#
#
# Convention : Reuss Voigt Hill
#
# Bulk Modulus (GPa) = 16.68185 55.34716 36.01450
# Shear Modulus (GPa) = 22.42617 19.49355 20.95986
#
# Velocity S-wave (km/s) = 3.37311 3.14484 3.26098
# Velocity P-wave (km/s) = 4.86149 6.42394 5.69654
#
# Compressibility (1/GPa) = 0.05994540
#
# Stress axis : x y z
#
# Youngs Moduli (GPa) = 60.09855 10.31978 47.65264
#
# Poissons Ratio (x) = -0.03707 0.38672
# Poissons Ratio (y) = -0.21587 1.56142
# Poissons Ratio (z) = 0.48773 0.33815
#
# Static dielectric constant tensor:
#      x y z
#    x 1.667640 0.000000 0.000000 
#    y 0.000000 1.658910 0.000000 
#    z 0.000000 0.000000 1.701710 
# 
# From -- ./inp_files/29513.got.cif
#   From: 2010.05.17/outbox.ucp.g08.bks.cvg/sg51_15_cif.got.tgz:29513.got - 2010.06.11 16:27:58.
