data_PCOD9407321
_publ_section_title
;
Structure prediction by ZEFSAII (Michael W. Deem and Ramdas Pophale) SiO2 
 PCOD9407321
Probable space group: P M M A
;
_chemical_formula_sum "Si O2"
_cell_formula_units_Z 56
_cell_length_a 7.574566
_cell_length_b 15.496061
_cell_length_c 20.529442
_cell_angle_alpha 90.000000
_cell_angle_beta 90.000000
_cell_angle_gamma 90.000000
_cell_volume 2409.662486
_symmetry_space_group_name_H-M "P M M A"
_symmetry_group_IT_number 51
_symmetry_cell_setting 'orthorhombic'
loop_
_space_group_symop_operation_xyz
x,y,z
1/2-x,-y,z
1/2+x,-y,-z
-x,y,-z
-x,-y,-z
1/2+x,y,-z
1/2-x,y,z
x,-y,z
loop_
_atom_site_type_symbol
_atom_site_label
_atom_site_fract_x
_atom_site_fract_y
_atom_site_fract_z
Si Si1 0.461555 0.909319 0.922423
Si Si2 0.534147 0.596833 0.185102
Si Si3 0.057021 0.102883 0.431197
Si Si4 0.466216 0.716170 0.695770
Si Si5 0.052848 0.902758 0.709663
Si Si6 0.038319 0.599461 0.576021
Si Si7 0.962120 0.723828 0.076271
O O1 0.250000 0.909910 0.914313
O O2 0.529989 0.817310 0.899639
O O3 0.530602 0.000000 0.894816
O O4 0.500000 0.910030 0.000000
O O5 0.750000 0.595465 0.183690
O O6 0.470745 0.500000 0.185358
O O7 0.485487 0.646491 0.250253
O O8 0.472238 0.648381 0.121865
O O9 0.250000 0.135789 0.412987
O O10 0.000000 0.141286 0.500000
O O11 0.935102 0.109009 0.368954
O O12 0.072173 0.000000 0.441364
O O13 0.250000 0.724019 0.693871
O O14 0.531066 0.809514 0.722916
O O15 0.522536 0.674482 0.626275
O O16 0.250000 0.905123 0.738746
O O17 0.975810 0.000000 0.720142
O O18 0.250000 0.596680 0.583573
O O19 0.974784 0.500000 0.589697
O O20 0.000000 0.617919 0.500000
O O21 0.750000 0.726722 0.082237
O O22 0.000000 0.712942 0.000000
#
# Coordination Sequence:
#
# PCOD9407321 Si02
#       7
#     8   8   8   8   8   8   8
#     4   8  13  22  37  59  89 123 155 187 223 263
#     4   9  17  30  49  72  96 123 157 195 234 279
#     4   9  16  26  41  61  86 118 155 192 229 271
#     4   9  17  30  48  69  93 122 156 191 228 275
#     4   9  17  29  44  63  89 119 150 188 233 278
#     4   9  17  30  49  71  92 115 147 190 236 276
#     4   9  17  29  47  72  99 126 158 195 233 275
#
# _framework density 23.239768000000002
#
# number of rings (size 3 to 8) (size 9 to 14) (size 15 to 20)
#    0.000    3.143    0.000    0.857    0.000    4.286 
#    0.000    2.857    0.000    6.000    0.000    0.000 
#    0.000    4.571    0.000    0.000    0.000    0.286 
#
# Total GULP energy -311973.427976 kJ/mol
# GULP energy per Si atom -5570.954071 kJ/mol
# Density = 2.318687 g / cm^3
# Si number density = 23.239768 Si / 1000 Ang^3
#
#
#
# Elastic Constant Matrix: (Units=GPa)
#
#
# Indices 1 2 3 4 5 6 
#
# 1 61.1080 4.1904 -3.0603 0.0000 0.0000 0.0000
# 2 4.1904 239.9046 74.8865 0.0000 0.0000 0.0000
# 3 -3.0603 74.8865 80.4079 0.0000 0.0000 0.0000
# 4 0.0000 0.0000 0.0000 147.0670 0.0000 0.0000
# 5 0.0000 0.0000 0.0000 0.0000 4.1803 0.0000
# 6 0.0000 0.0000 0.0000 0.0000 0.0000 1.7303
#
#
#
# Elastic Compliance Matrix: (Units=1/GPa)
#
#
# Indices 1 2 3 4 5 6 
#
# 1 0.016474 -0.000682 0.001262 0.000000 0.000000 0.000000
# 2 -0.000682 0.005905 -0.005525 0.000000 0.000000 0.000000
# 3 0.001262 -0.005525 0.017631 0.000000 0.000000 0.000000
# 4 0.000000 0.000000 0.000000 0.006800 0.000000 0.000000
# 5 0.000000 0.000000 0.000000 0.000000 0.239215 0.000000
# 6 0.000000 0.000000 0.000000 0.000000 0.000000 0.577929
#
#
# Mechanical properties :
#
#
# Convention : Reuss Voigt Hill
#
# Bulk Modulus (GPa) = 33.20102 59.27261 46.23681
# Shear Modulus (GPa) = 5.65685 50.95578 28.30632
#
# Velocity S-wave (km/s) = 1.56186 4.68761 3.49379
# Velocity P-wave (km/s) = 4.19164 7.40665 6.01782
#
# Compressibility (1/GPa) = 0.03011956
#
# Stress axis : x y z
#
# Youngs Moduli (GPa) = 60.70020 169.34763 56.71936
#
# Poissons Ratio (x) = 0.11543 -0.07157
# Poissons Ratio (y) = 0.04138 0.31340
# Poissons Ratio (z) = -0.07659 0.93573
#
# Static dielectric constant tensor:
#      x y z
#    x 1.898190 0.000000 0.000000 
#    y 0.000000 1.928210 0.000000 
#    z 0.000000 0.000000 2.024550 
# 
# From -- ./inp_files/31894.got.cif
#   From: 2010.05.17/outbox.cif.g08.bks.cpg/sg51_16_cif.got.tgz:31894.got - 2010.06.03 11:52:47.
