data_PCOD9407659
_publ_section_title
;
Structure prediction by ZEFSAII (Michael W. Deem and Ramdas Pophale) SiO2 
 PCOD9407659
Probable space group: P M M A
;
_chemical_formula_sum "Si O2"
_cell_formula_units_Z 56
_cell_length_a 9.000000
_cell_length_b 15.000000
_cell_length_c 21.000000
_cell_angle_alpha 90.000000
_cell_angle_beta 90.000000
_cell_angle_gamma 90.000000
_cell_volume 2835.000000
_symmetry_space_group_name_H-M "P M M A"
_symmetry_group_IT_number 51
_symmetry_cell_setting 'orthorhombic'
loop_
_space_group_symop_operation_xyz
x,y,z
1/2-x,-y,z
1/2+x,-y,-z
-x,y,-z
-x,-y,-z
1/2+x,y,-z
1/2-x,y,z
x,-y,z
loop_
_atom_site_type_symbol
_atom_site_label
_atom_site_fract_x
_atom_site_fract_y
_atom_site_fract_z
Si Si1 0.070602 0.906765 0.669469
Si Si2 0.428285 0.228271 0.564526
Si Si3 0.074283 0.360727 0.234782
Si Si4 0.572914 0.791571 0.062998
Si Si5 0.570976 0.404944 0.103700
Si Si6 0.076148 0.599201 0.632425
Si Si7 0.427903 0.824311 0.797003
O O1 0.250000 0.906076 0.664260
O O2 0.018996 0.826703 0.625891
O O3 0.041369 0.897465 0.744152
O O4 0.012554 0.000000 0.644410
O O5 0.500000 0.195471 0.500000
O O6 0.250000 0.222559 0.559222
O O7 0.470930 0.329182 0.580617
O O8 0.250000 0.372525 0.229769
O O9 0.992114 0.404929 0.175037
O O10 0.014939 0.392766 0.302540
O O11 0.023859 0.258817 0.226332
O O12 0.750000 0.790565 0.055271
O O13 0.521009 0.688254 0.072683
O O14 0.538492 0.840956 0.129250
O O15 0.500000 0.829271 0.000000
O O16 0.750000 0.400979 0.106091
O O17 0.527494 0.500000 0.073782
O O18 0.250000 0.617683 0.648725
O O19 0.064876 0.500000 0.607292
O O20 0.250000 0.801852 0.794030
#
# Coordination Sequence:
#
# PCOD9407659 Si02
#       7
#     8   8   8   8   8   8   8
#     4   9  17  33  61  89 107 131 175 223 262 311
#     4  10  21  37  56  80 111 144 178 217 262 314
#     4  11  20  29  47  76 106 134 172 224 275 311
#     4   9  18  30  47  70  98 135 176 216 260 313
#     4   9  18  32  47  64  93 136 181 221 266 320
#     4  10  20  35  54  73 100 145 189 220 259 312
#     4   9  17  34  56  76 103 139 177 214 258 317
#
# _framework density 19.753086
#
# number of rings (size 3 to 8) (size 9 to 14) (size 15 to 20)
#    0.000    2.429    1.429    2.571    0.000    6.000 
#    0.000    0.000    0.000    1.714    0.000    0.000 
#    0.000    0.000    0.000    0.000    0.000    0.286 
#
# Total GULP energy -311852.862872 kJ/mol
# GULP energy per Si atom -5568.801123 kJ/mol
# Density = 1.970813 g / cm^3
# Si number density = 19.753086 Si / 1000 Ang^3
#
#
#
# Elastic Constant Matrix: (Units=GPa)
#
#
# Indices 1 2 3 4 5 6 
#
# 1 -8.8683 12.3567 13.7544 0.0000 0.0000 0.0000
# 2 12.3567 49.7255 39.9286 0.0000 0.0000 0.0000
# 3 13.7544 39.9286 117.9697 0.0000 0.0000 0.0000
# 4 0.0000 0.0000 0.0000 -24.9018 0.0000 0.0000
# 5 0.0000 0.0000 0.0000 0.0000 21.7222 0.0000
# 6 0.0000 0.0000 0.0000 0.0000 0.0000 -4.5670
#
#
#
# Elastic Compliance Matrix: (Units=1/GPa)
#
#
# Indices 1 2 3 4 5 6 
#
# 1 -0.082577 0.017563 0.003684 0.000000 0.000000 0.000000
# 2 0.017563 0.023881 -0.010130 0.000000 0.000000 0.000000
# 3 0.003684 -0.010130 0.011476 0.000000 0.000000 0.000000
# 4 0.000000 0.000000 0.000000 -0.040158 0.000000 0.000000
# 5 0.000000 0.000000 0.000000 0.000000 0.046036 0.000000
# 6 0.000000 0.000000 0.000000 0.000000 0.000000 -0.218960
#
#
# Mechanical properties :
#
#
# Convention : Reuss Voigt Hill
#
# Bulk Modulus (GPa) = -40.01758 32.32293 -3.84732
# Shear Modulus (GPa) = -17.19023 4.63646 -6.27688
#
# Velocity S-wave (km/s) = -2.95321 1.53372 -1.78454
# Velocity P-wave (km/s) = 5.65079 4.41989 2.48958
#
# Compressibility (1/GPa) = -0.02498902
#
# Stress axis : x y z
#
# Youngs Moduli (GPa) = -12.10990 41.87480 87.13776
#
# Poissons Ratio (x) = -0.73543 -0.32098
# Poissons Ratio (y) = 0.21268 0.88274
# Poissons Ratio (z) = 0.04461 0.42421
#
# Static dielectric constant tensor:
#      x y z
#    x 1.662840 0.000000 0.000000 
#    y 0.000000 1.770560 0.000000 
#    z 0.000000 0.000000 1.673450 
# 
# From -- ./inp_files/32003.got.cif
#   From: 2010.05.17/outbox.ucp.g08.bks.cvg/sg51_17_cif.got.tgz:32003.got - 2010.06.11 16:27:58.
