data_PCOD9407007
_publ_section_title
;
Structure prediction by ZEFSAII (Michael W. Deem and Ramdas Pophale) SiO2 
 PCOD9407007
Probable space group: P M M A
;
_chemical_formula_sum "Si O2"
_cell_formula_units_Z 56
_cell_length_a 8.966701
_cell_length_b 18.925502
_cell_length_c 21.729368
_cell_angle_alpha 90.000000
_cell_angle_beta 90.000000
_cell_angle_gamma 90.000000
_cell_volume 3687.458924
_symmetry_space_group_name_H-M "P M M A"
_symmetry_group_IT_number 51
_symmetry_cell_setting 'orthorhombic'
loop_
_space_group_symop_operation_xyz
x,y,z
1/2-x,-y,z
1/2+x,-y,-z
-x,y,-z
-x,-y,-z
1/2+x,y,-z
1/2-x,y,z
x,-y,z
loop_
_atom_site_type_symbol
_atom_site_label
_atom_site_fract_x
_atom_site_fract_y
_atom_site_fract_z
Si Si1 0.929813 0.417865 0.815223
Si Si2 0.428964 0.659121 0.311675
Si Si3 0.578478 0.709441 0.121715
Si Si4 0.920547 0.211945 0.254644
Si Si5 0.929846 0.082151 0.180859
Si Si6 0.427941 0.158782 0.064265
Si Si7 0.929572 0.582905 0.564542
O O1 0.750000 0.411255 0.820033
O O2 0.969311 0.500000 0.821867
O O3 0.973049 0.389348 0.747052
O O4 0.006316 0.366414 0.864670
O O5 0.250000 0.659029 0.312571
O O6 0.485678 0.738002 0.298810
O O7 0.481487 0.626412 0.375973
O O8 0.750000 0.704552 0.100942
O O9 0.578431 0.748582 0.188266
O O10 0.484272 0.761521 0.078727
O O11 0.750000 0.208868 0.276325
O O12 0.974119 0.133455 0.237328
O O13 0.750000 0.091198 0.172868
O O14 0.010365 0.110516 0.119748
O O15 0.960549 0.000000 0.191219
O O16 0.250000 0.156346 0.061899
O O17 0.500000 0.135855 0.000000
O O18 0.750000 0.588051 0.560638
O O19 0.966555 0.500000 0.573559
O O20 0.000000 0.606039 0.500000
#
# Coordination Sequence:
#
# PCOD9407007 Si02
#       7
#     8   8   8   8   8   8   8
#     4   9  16  26  42  64  87 111 141 178 220 263
#     4   9  16  26  41  60  84 115 148 181 215 254
#     4   9  17  30  45  62  85 111 141 177 217 258
#     4   8  15  27  43  63  85 110 140 174 210 249
#     4   9  18  33  50  68  93 120 142 169 208 252
#     4  11  21  33  49  67  87 113 146 178 209 250
#     4   9  17  28  40  56  82 117 154 188 221 255
#
# _framework density 15.18661
#
# number of rings (size 3 to 8) (size 9 to 14) (size 15 to 20)
#    0.000    2.857    0.000    3.000    0.000    6.571 
#    0.000    0.000    0.000    3.000    0.000    0.000 
#    0.000    0.571    0.000    1.286    0.000    2.000 
#
# Total GULP energy -311926.297314 kJ/mol
# GULP energy per Si atom -5570.112452 kJ/mol
# Density = 1.515204 g / cm^3
# Si number density = 15.186610 Si / 1000 Ang^3
#
#
#
# Elastic Constant Matrix: (Units=GPa)
#
#
# Indices 1 2 3 4 5 6 
#
# 1 37.0524 29.5354 13.4485 0.0000 0.0000 0.0000
# 2 29.5354 113.9605 24.5121 0.0000 0.0000 0.0000
# 3 13.4485 24.5121 34.8162 0.0000 0.0000 0.0000
# 4 0.0000 0.0000 0.0000 16.8996 0.0000 0.0000
# 5 0.0000 0.0000 0.0000 0.0000 19.6009 0.0000
# 6 0.0000 0.0000 0.0000 0.0000 0.0000 22.8658
#
#
#
# Elastic Compliance Matrix: (Units=1/GPa)
#
#
# Indices 1 2 3 4 5 6 
#
# 1 0.036110 -0.007493 -0.008673 0.000000 0.000000 0.000000
# 2 -0.007493 0.011896 -0.005481 0.000000 0.000000 0.000000
# 3 -0.008673 -0.005481 0.035931 0.000000 0.000000 0.000000
# 4 0.000000 0.000000 0.000000 0.059173 0.000000 0.000000
# 5 0.000000 0.000000 0.000000 0.000000 0.051018 0.000000
# 6 0.000000 0.000000 0.000000 0.000000 0.000000 0.043734
#
#
# Mechanical properties :
#
#
# Convention : Reuss Voigt Hill
#
# Bulk Modulus (GPa) = 24.60432 35.64680 30.12556
# Shear Modulus (GPa) = 16.96632 19.76215 18.36423
#
# Velocity S-wave (km/s) = 3.34606 3.61125 3.48118
# Velocity P-wave (km/s) = 5.58253 6.39622 6.00318
#
# Compressibility (1/GPa) = 0.04064327
#
# Stress axis : x y z
#
# Youngs Moduli (GPa) = 27.69351 84.06276 27.83117
#
# Poissons Ratio (x) = 0.62990 0.24137
# Poissons Ratio (y) = 0.20751 0.15254
# Poissons Ratio (z) = 0.24017 0.46073
#
# Static dielectric constant tensor:
#      x y z
#    x 1.514480 0.000000 0.000000 
#    y 0.000000 1.513780 0.000000 
#    z 0.000000 0.000000 1.490640 
# 
# From -- ./inp_files/32211.got.cif
#   From: 2010.05.17/outbox.cif.g08.bks.cpg/sg51_17_cif.got.tgz:32211.got - 2010.06.03 11:52:47.
