data_PCOD9407868
_publ_section_title
;
Structure prediction by ZEFSAII (Michael W. Deem and Ramdas Pophale) SiO2 
 PCOD9407868
Probable space group: P N N A
;
_chemical_formula_sum "Si O2"
_cell_formula_units_Z 40
_cell_length_a 25.992095
_cell_length_b 5.538288
_cell_length_c 13.861084
_cell_angle_alpha 90.000000
_cell_angle_beta 90.000000
_cell_angle_gamma 90.000000
_cell_volume 1995.326714
_symmetry_space_group_name_H-M "P N N A"
_symmetry_group_IT_number 52
_symmetry_cell_setting 'orthorhombic'
loop_
_space_group_symop_operation_xyz
x,y,z
1/2-x,-y,z
x,1/2-y,1/2-z
1/2-x,1/2+y,1/2-z
-x,-y,-z
1/2+x,y,-z
-x,1/2+y,1/2+z
1/2+x,1/2-y,1/2+z
loop_
_atom_site_type_symbol
_atom_site_label
_atom_site_fract_x
_atom_site_fract_y
_atom_site_fract_z
Si Si1 0.882774 0.998931 0.857009
Si Si2 0.637858 0.003549 0.529519
Si Si3 0.000180 0.001328 0.880523
Si Si4 0.960456 0.499707 0.092489
Si Si5 0.250000 0.500000 0.079132
Si Si6 0.199022 0.750000 0.250000
O O1 0.872342 0.243348 0.919517
O O2 0.840880 0.032709 0.772392
O O3 0.943217 0.008154 0.835524
O O4 0.875931 0.744735 0.910256
O O5 0.598155 0.002914 0.442230
O O6 0.699003 0.030494 0.516487
O O7 0.027736 0.250092 0.855968
O O8 0.027025 0.750287 0.856052
O O9 0.000000 0.000000 0.000000
O O10 0.000000 0.500000 0.000000
O O11 0.234246 0.706862 0.156780
#
# Coordination Sequence:
#
# PCOD9407868 Si02
#       6
#     8   8   8   8   4   4
#     4  11  19  30  46  60  80 108 145 188 219 252
#     4  11  19  30  46  60  80 108 145 188 220 249
#     4  10  15  26  44  66  78  93 128 186 234 264
#     4  10  15  26  44  66  78  93 128 186 234 264
#     4  10  22  34  44  58  86 126 162 186 202 244
#     4  10  22  34  44  58  86 126 162 186 208 248
#
# _framework density 20.046842999999999
#
# number of rings (size 3 to 8) (size 9 to 14) (size 15 to 20)
#    0.000    1.600    8.000    1.200    0.000    4.800 
#    0.000    0.000    0.000    0.000    0.000    0.000 
#    0.000    0.000    0.000    0.000    0.000    4.000 
#
# Total GULP energy -222973.180690 kJ/mol
# GULP energy per Si atom -5574.329517 kJ/mol
# Density = 2.000122 g / cm^3
# Si number density = 20.046843 Si / 1000 Ang^3
#
#
#
# Elastic Constant Matrix: (Units=GPa)
#
#
# Indices 1 2 3 4 5 6 
#
# 1 202.8647 56.5482 26.6472 0.0000 0.0000 0.0000
# 2 56.5482 201.4865 21.4529 0.0000 0.0000 0.0000
# 3 26.6472 21.4529 52.2086 0.0000 0.0000 0.0000
# 4 0.0000 0.0000 0.0000 0.0152 0.0000 0.0000
# 5 0.0000 0.0000 0.0000 0.0000 -5.6297 0.0000
# 6 0.0000 0.0000 0.0000 0.0000 0.0000 20.6622
#
#
#
# Elastic Compliance Matrix: (Units=1/GPa)
#
#
# Indices 1 2 3 4 5 6 
#
# 1 0.005603 -0.001326 -0.002315 0.000000 0.000000 0.000000
# 2 -0.001326 0.005504 -0.001585 0.000000 0.000000 0.000000
# 3 -0.002315 -0.001585 0.020987 0.000000 0.000000 0.000000
# 4 0.000000 0.000000 0.000000 65.685628 0.000000 0.000000
# 5 0.000000 0.000000 0.000000 0.000000 -0.177629 0.000000
# 6 0.000000 0.000000 0.000000 0.000000 0.000000 0.048398
#
#
# Mechanical properties :
#
#
# Convention : Reuss Voigt Hill
#
# Bulk Modulus (GPa) = 46.20608 73.98405 60.09506
# Shear Modulus (GPa) = 0.07621 26.47030 13.27326
#
# Velocity S-wave (km/s) = 0.19519 3.63770 2.57595
# Velocity P-wave (km/s) = 4.81143 7.39118 6.23616
#
# Compressibility (1/GPa) = 0.02164217
#
# Stress axis : x y z
#
# Youngs Moduli (GPa) = 178.47231 181.68544 47.64930
#
# Poissons Ratio (x) = 0.24093 0.11030
# Poissons Ratio (y) = 0.23667 0.07552
# Poissons Ratio (z) = 0.41315 0.28794
#
# Static dielectric constant tensor:
#      x y z
#    x 2.047050 0.000000 0.000000 
#    y 0.000000 1.746990 0.000000 
#    z 0.000000 0.000000 1.748990 
# 
# From -- ./inp_files/43117.got.cif
#   From: 2010.05.17/outbox.cif.g08.bks.cpg/sg52_22_cif.got.tgz:43117.got - 2010.06.03 12:15:38.
