data_PCOD9407337
_publ_section_title
;
Structure prediction by ZEFSAII (Michael W. Deem and Ramdas Pophale) SiO2 
 PCOD9407337
Probable space group: P M M A
;
_chemical_formula_sum "Si O2"
_cell_formula_units_Z 44
_cell_length_a 7.465462
_cell_length_b 22.549902
_cell_length_c 13.982126
_cell_angle_alpha 90.000000
_cell_angle_beta 90.000000
_cell_angle_gamma 90.000000
_cell_volume 2353.827104
_symmetry_space_group_name_H-M "P M M A"
_symmetry_group_IT_number 51
_symmetry_cell_setting 'orthorhombic'
loop_
_space_group_symop_operation_xyz
x,y,z
1/2-x,-y,z
1/2+x,-y,-z
-x,y,-z
-x,-y,-z
1/2+x,y,-z
1/2-x,y,z
x,-y,z
loop_
_atom_site_type_symbol
_atom_site_label
_atom_site_fract_x
_atom_site_fract_y
_atom_site_fract_z
Si Si1 0.964281 0.500000 0.113844
Si Si2 0.036575 0.186567 0.607999
Si Si3 0.469288 0.751274 0.799135
Si Si4 0.463310 0.127431 0.891584
Si Si5 0.964815 0.371183 0.113330
Si Si6 0.468952 0.065861 0.698767
O O1 0.750000 0.500000 0.128367
O O2 0.033158 0.435805 0.147579
O O3 0.000000 0.500000 0.000000
O O4 0.250000 0.184293 0.619048
O O5 0.973196 0.229805 0.692520
O O6 0.970882 0.119838 0.631154
O O7 0.000000 0.204570 0.500000
O O8 0.250000 0.749812 0.801339
O O9 0.527107 0.805696 0.867689
O O10 0.533152 0.687350 0.833843
O O11 0.250000 0.129275 0.881415
O O12 0.525547 0.084346 0.806515
O O13 0.500000 0.109699 0.000000
O O14 0.750000 0.372219 0.125132
O O15 0.000000 0.365624 0.000000
O O16 0.250000 0.064876 0.696976
O O17 0.530279 0.000000 0.673456
#
# Coordination Sequence:
#
# PCOD9407337 Si02
#       6
#     4   8   8   8   8   8
#     4   8  14  22  34  54  79 106 134 160 183 212
#     4   9  17  30  46  61  76  96 124 159 198 235
#     4   8  15  27  41  56  77 105 131 154 187 233
#     4   9  16  26  40  57  77 103 132 157 183 218
#     4   9  15  24  38  57  82 109 134 158 185 218
#     4   8  15  28  43  57  76 103 129 150 183 236
#
# _framework density 18.692962000000001
#
# number of rings (size 3 to 8) (size 9 to 14) (size 15 to 20)
#    0.000    3.455    0.000    2.727    0.000    0.727 
#    0.000    4.545    0.000    1.091    0.000    0.636 
#    0.000    0.000    0.000    0.000    0.000    0.000 
#
# Total GULP energy -245096.739593 kJ/mol
# GULP energy per Si atom -5570.380445 kJ/mol
# Density = 1.865042 g / cm^3
# Si number density = 18.692962 Si / 1000 Ang^3
#
#
#
# Elastic Constant Matrix: (Units=GPa)
#
#
# Indices 1 2 3 4 5 6 
#
# 1 52.3563 6.2754 -5.8624 0.0000 0.0000 0.0000
# 2 6.2754 132.2204 20.6035 0.0000 0.0000 0.0000
# 3 -5.8624 20.6035 65.6209 0.0000 0.0000 0.0000
# 4 0.0000 0.0000 0.0000 13.6656 0.0000 0.0000
# 5 0.0000 0.0000 0.0000 0.0000 17.8111 0.0000
# 6 0.0000 0.0000 0.0000 0.0000 0.0000 1.2541
#
#
#
# Elastic Compliance Matrix: (Units=1/GPa)
#
#
# Indices 1 2 3 4 5 6 
#
# 1 0.019490 -0.001258 0.002136 0.000000 0.000000 0.000000
# 2 -0.001258 0.008033 -0.002635 0.000000 0.000000 0.000000
# 3 0.002136 -0.002635 0.016257 0.000000 0.000000 0.000000
# 4 0.000000 0.000000 0.000000 0.073177 0.000000 0.000000
# 5 0.000000 0.000000 0.000000 0.000000 0.056145 0.000000
# 6 0.000000 0.000000 0.000000 0.000000 0.000000 0.797366
#
#
# Mechanical properties :
#
#
# Convention : Reuss Voigt Hill
#
# Bulk Modulus (GPa) = 24.83394 32.47005 28.65200
# Shear Modulus (GPa) = 5.06379 21.82491 13.44435
#
# Velocity S-wave (km/s) = 1.64767 3.42065 2.68474
# Velocity P-wave (km/s) = 4.11507 5.74535 4.99714
#
# Compressibility (1/GPa) = 0.04026747
#
# Stress axis : x y z
#
# Youngs Moduli (GPa) = 51.30878 124.48049 61.51156
#
# Poissons Ratio (x) = 0.15658 -0.13140
# Poissons Ratio (y) = 0.06454 0.16206
# Poissons Ratio (z) = -0.10960 0.32797
#
# Static dielectric constant tensor:
#      x y z
#    x 1.709600 0.000000 0.000000 
#    y 0.000000 1.679920 0.000000 
#    z 0.000000 0.000000 1.629690 
# 
# From -- ./inp_files/7020.got.cif
#   From: 2010.05.17/outbox.cif.g08.bks.cpg/sg51_4_cif.got.tgz:7020.got - 2010.06.03 11:52:47.
