data_PCOD9407279
_publ_section_title
;
Structure prediction by ZEFSAII (Michael W. Deem and Ramdas Pophale) SiO2 
 PCOD9407279
Probable space group: P M M A
;
_chemical_formula_sum "Si O2"
_cell_formula_units_Z 48
_cell_length_a 9.670027
_cell_length_b 7.352938
_cell_length_c 32.633556
_cell_angle_alpha 90.000000
_cell_angle_beta 90.000000
_cell_angle_gamma 90.000000
_cell_volume 2320.347289
_symmetry_space_group_name_H-M "P M M A"
_symmetry_group_IT_number 51
_symmetry_cell_setting 'orthorhombic'
loop_
_space_group_symop_operation_xyz
x,y,z
1/2-x,-y,z
1/2+x,-y,-z
-x,y,-z
-x,-y,-z
1/2+x,y,-z
1/2-x,y,z
x,-y,z
loop_
_atom_site_type_symbol
_atom_site_label
_atom_site_fract_x
_atom_site_fract_y
_atom_site_fract_z
Si Si1 0.909439 0.222037 0.039114
Si Si2 0.409812 0.778525 0.116069
Si Si3 0.409511 0.778530 0.208055
Si Si4 0.588801 0.221640 0.284523
Si Si5 0.093009 0.715126 0.536657
Si Si6 0.090233 0.782003 0.626364
O O1 0.750000 0.280319 0.036844
O O2 0.987119 0.280707 0.080496
O O3 0.908289 0.000000 0.039124
O O4 0.000000 0.278138 0.000000
O O5 0.250000 0.723916 0.108617
O O6 0.450681 0.721934 0.162085
O O7 0.409798 0.000000 0.115687
O O8 0.250000 0.726265 0.214173
O O9 0.503422 0.714858 0.245416
O O10 0.413689 0.000000 0.208166
O O11 0.750000 0.272993 0.281605
O O12 0.533654 0.279014 0.329493
O O13 0.585083 0.000000 0.283892
O O14 0.250000 0.790066 0.536841
O O15 0.105233 0.500000 0.529769
O O16 0.029216 0.735289 0.582167
O O17 0.000000 0.790003 0.500000
O O18 0.250000 0.717265 0.625059
O O19 0.092972 0.000000 0.627867
#
# Coordination Sequence:
#
# PCOD9407279 Si02
#       6
#     8   8   8   8   8   8
#     4   9  15  20  25  32  42  58  83 118 159 200
#     4   8  13  20  27  34  46  65  88 114 149 195
#     4   8  13  20  29  41  58  78  97 122 160 202
#     4   8  13  21  33  47  62  82 107 132 160 199
#     4   9  17  29  44  60  78 101 128 156 186 221
#     4   8  14  25  40  57  77 100 124 151 185 223
#
# _framework density 20.686558999999999
#
# number of rings (size 3 to 8) (size 9 to 14) (size 15 to 20)
#    0.000    3.667    0.000    2.500    0.000    3.000 
#    0.000    4.167    0.000    1.000    0.000    0.000 
#    0.000    0.000    0.000    0.000    0.000    0.000 
#
# Total GULP energy -267487.092108 kJ/mol
# GULP energy per Si atom -5572.647752 kJ/mol
# Density = 2.063948 g / cm^3
# Si number density = 20.686559 Si / 1000 Ang^3
#
#
#
# Elastic Constant Matrix: (Units=GPa)
#
#
# Indices 1 2 3 4 5 6 
#
# 1 99.3695 3.8399 124.2833 0.0000 0.0000 0.0000
# 2 3.8399 75.3581 4.5025 0.0000 0.0000 0.0000
# 3 124.2833 4.5025 258.2558 0.0000 0.0000 0.0000
# 4 0.0000 0.0000 0.0000 36.6508 0.0000 0.0000
# 5 0.0000 0.0000 0.0000 0.0000 40.3476 0.0000
# 6 0.0000 0.0000 0.0000 0.0000 0.0000 -17.6928
#
#
#
# Elastic Compliance Matrix: (Units=1/GPa)
#
#
# Indices 1 2 3 4 5 6 
#
# 1 0.025302 -0.000562 -0.012167 0.000000 0.000000 0.000000
# 2 -0.000562 0.013296 0.000039 0.000000 0.000000 0.000000
# 3 -0.012167 0.000039 0.009727 0.000000 0.000000 0.000000
# 4 0.000000 0.000000 0.000000 0.027285 0.000000 0.000000
# 5 0.000000 0.000000 0.000000 0.000000 0.024785 0.000000
# 6 0.000000 0.000000 0.000000 0.000000 0.000000 -0.056520
#
#
# Mechanical properties :
#
#
# Convention : Reuss Voigt Hill
#
# Bulk Modulus (GPa) = 43.58302 77.58165 60.58234
# Shear Modulus (GPa) = 65.01705 31.88496 48.45101
#
# Velocity S-wave (km/s) = 5.61229 3.93025 4.84483
# Velocity P-wave (km/s) = 7.94425 7.62762 7.78755
#
# Compressibility (1/GPa) = 0.02294471
#
# Stress axis : x y z
#
# Youngs Moduli (GPa) = 39.52202 75.20885 102.81099
#
# Poissons Ratio (x) = 0.04229 1.25087
# Poissons Ratio (y) = 0.02223 -0.00399
# Poissons Ratio (z) = 0.48085 -0.00292
#
# Static dielectric constant tensor:
#      x y z
#    x 1.698670 0.000000 0.000000 
#    y 0.000000 1.801320 0.000000 
#    z 0.000000 0.000000 1.754230 
# 
# From -- ./inp_files/37302.got.cif
#   From: 2010.05.17/outbox.cif.g08.bks.cpg/sg51_19_cif.got.tgz:37302.got - 2010.06.03 11:52:47.
