data_PCOD9407918
_publ_section_title
;
Structure prediction by ZEFSAII (Michael W. Deem and Ramdas Pophale) SiO2 
 PCOD9407918
Probable space group: P N N A
;
_chemical_formula_sum "Si O2"
_cell_formula_units_Z 40
_cell_length_a 5.373176
_cell_length_b 20.921256
_cell_length_c 21.828666
_cell_angle_alpha 90.000000
_cell_angle_beta 90.000000
_cell_angle_gamma 90.000000
_cell_volume 2453.838724
_symmetry_space_group_name_H-M "P N N A"
_symmetry_group_IT_number 52
_symmetry_cell_setting 'orthorhombic'
loop_
_space_group_symop_operation_xyz
x,y,z
1/2-x,-y,z
x,1/2-y,1/2-z
1/2-x,1/2+y,1/2-z
-x,-y,-z
1/2+x,y,-z
-x,1/2+y,1/2+z
1/2+x,1/2-y,1/2+z
loop_
_atom_site_type_symbol
_atom_site_label
_atom_site_fract_x
_atom_site_fract_y
_atom_site_fract_z
Si Si1 0.811986 0.800583 0.192897
Si Si2 0.255966 0.928293 0.731065
Si Si3 0.060361 0.427877 0.022498
Si Si4 0.308482 0.750182 0.324676
Si Si5 0.744145 0.100877 0.656496
O O1 0.827370 0.750000 0.250000
O O2 0.785613 0.870762 0.221016
O O3 0.571546 0.778462 0.155348
O O4 0.072089 0.792419 0.158788
O O5 0.491270 0.921890 0.684095
O O6 0.989978 0.917985 0.698647
O O7 0.250000 0.000000 0.756669
O O8 0.176514 0.425626 0.089860
O O9 0.782170 0.398304 0.019065
O O10 0.000000 0.500000 0.000000
O O11 0.325368 0.750000 0.250000
O O12 0.259009 0.822178 0.345319
#
# Coordination Sequence:
#
# PCOD9407918 Si02
#       5
#     8   8   8   8   8
#     4  10  16  32  45  64  95 113 141 200 242 284
#     4  12  23  29  46  73  92 118 159 205 240 292
#     4  10  23  37  46  59  87 126 166 208 247 267
#     4  10  16  30  51  68  85 110 152 204 242 290
#     4  12  21  34  51  66  86 125 168 209 242 283
#
# _framework density 16.300989000000001
#
# number of rings (size 3 to 8) (size 9 to 14) (size 15 to 20)
#    0.000    1.200    8.000    1.800    8.400    0.000 
#    0.000    0.000    0.000    0.000    0.000    0.000 
#    0.000    0.000    0.000    0.000    0.000   20.000 
#
# Total GULP energy -222817.866502 kJ/mol
# GULP energy per Si atom -5570.446663 kJ/mol
# Density = 1.626389 g / cm^3
# Si number density = 16.300989 Si / 1000 Ang^3
#
#
#
# Elastic Constant Matrix: (Units=GPa)
#
#
# Indices 1 2 3 4 5 6 
#
# 1 96.5806 -21.5336 -14.5425 0.0000 0.0000 0.0000
# 2 -21.5336 83.0253 11.3776 0.0000 0.0000 0.0000
# 3 -14.5425 11.3776 13.7985 0.0000 0.0000 0.0000
# 4 0.0000 0.0000 0.0000 9.4946 0.0000 0.0000
# 5 0.0000 0.0000 0.0000 0.0000 12.9046 0.0000
# 6 0.0000 0.0000 0.0000 0.0000 0.0000 10.0182
#
#
#
# Elastic Compliance Matrix: (Units=1/GPa)
#
#
# Indices 1 2 3 4 5 6 
#
# 1 0.012497 0.001619 0.011836 0.000000 0.000000 0.000000
# 2 0.001619 0.013789 -0.009663 0.000000 0.000000 0.000000
# 3 0.011836 -0.009663 0.092913 0.000000 0.000000 0.000000
# 4 0.000000 0.000000 0.000000 0.105323 0.000000 0.000000
# 5 0.000000 0.000000 0.000000 0.000000 0.077492 0.000000
# 6 0.000000 0.000000 0.000000 0.000000 0.000000 0.099818
#
#
# Mechanical properties :
#
#
# Convention : Reuss Voigt Hill
#
# Bulk Modulus (GPa) = 7.88744 16.00081 11.94413
# Shear Modulus (GPa) = 11.45453 21.02368 16.23911
#
# Velocity S-wave (km/s) = 2.65370 3.59516 3.15969
# Velocity P-wave (km/s) = 3.77342 5.20295 4.54474
#
# Compressibility (1/GPa) = 0.12678379
#
# Stress axis : x y z
#
# Youngs Moduli (GPa) = 80.01745 72.52321 10.76275
#
# Poissons Ratio (x) = -0.11744 -0.12739
# Poissons Ratio (y) = -0.12958 0.10400
# Poissons Ratio (z) = -0.94707 0.70078
#
# Static dielectric constant tensor:
#      x y z
#    x 1.705020 0.000000 0.000000 
#    y 0.000000 1.566120 0.000000 
#    z 0.000000 0.000000 1.498600 
# 
# From -- ./inp_files/35046.got.cif
#   From: 2010.05.17/outbox.cif.g08.bks.cpg/sg52_18_cif.got.tgz:35046.got - 2010.06.03 12:15:38.
