data_PCOD9407861
_publ_section_title
;
Structure prediction by ZEFSAII (Michael W. Deem and Ramdas Pophale) SiO2 
 PCOD9407861
Probable space group: P N N A
;
_chemical_formula_sum "Si O2"
_cell_formula_units_Z 48
_cell_length_a 12.583192
_cell_length_b 19.610834
_cell_length_c 7.212265
_cell_angle_alpha 90.000000
_cell_angle_beta 90.000000
_cell_angle_gamma 90.000000
_cell_volume 1779.748200
_symmetry_space_group_name_H-M "P N N A"
_symmetry_group_IT_number 52
_symmetry_cell_setting 'orthorhombic'
loop_
_space_group_symop_operation_xyz
x,y,z
1/2-x,-y,z
x,1/2-y,1/2-z
1/2-x,1/2+y,1/2-z
-x,-y,-z
1/2+x,y,-z
-x,1/2+y,1/2+z
1/2+x,1/2-y,1/2+z
loop_
_atom_site_type_symbol
_atom_site_label
_atom_site_fract_x
_atom_site_fract_y
_atom_site_fract_z
Si Si1 0.139922 0.211538 0.548340
Si Si2 0.875513 0.646189 0.503450
Si Si3 0.067718 0.823634 0.284888
Si Si4 0.639423 0.539372 0.681303
Si Si5 0.242303 0.582417 0.825242
Si Si6 0.473979 0.056299 0.783149
O O1 0.164382 0.250000 0.750000
O O2 0.160445 0.279539 0.431424
O O3 0.202345 0.140565 0.550221
O O4 0.015716 0.190112 0.548287
O O5 0.793694 0.603448 0.375714
O O6 0.980304 0.658670 0.375460
O O7 0.925645 0.602195 0.665444
O O8 0.116701 0.750000 0.250000
O O9 0.149092 0.884251 0.254570
O O10 0.750000 0.500000 0.702559
O O11 0.535455 0.509881 0.790456
O O12 0.594283 0.536991 0.469653
O O13 0.250000 0.500000 0.858383
O O14 0.116273 0.592842 0.831940
#
# Coordination Sequence:
#
# PCOD9407861 Si02
#       6
#     8   8   8   8   8   8
#     4   7  13  25  37  49  71 106 138 161 190 234
#     4   8  15  25  35  51  79 109 132 157 197 245
#     4   7  12  23  36  46  65 105 143 160 178 225
#     4  10  17  23  33  54  81 105 130 160 197 239
#     4  10  15  21  36  57  79 101 129 169 204 234
#     4  10  16  22  34  55  80 103 130 163 204 244
#
# _framework density 26.970109000000001
#
# number of rings (size 3 to 8) (size 9 to 14) (size 15 to 20)
#    0.000    4.000    0.000    5.500    0.000    0.000 
#    0.000    0.000    0.000    3.000    0.000    0.000 
#    0.000   12.000    0.000  114.833    0.000  326.667 
#
# Total GULP energy -267665.077445 kJ/mol
# GULP energy per Si atom -5576.355780 kJ/mol
# Density = 2.690872 g / cm^3
# Si number density = 26.970109 Si / 1000 Ang^3
#
#
#
# Elastic Constant Matrix: (Units=GPa)
#
#
# Indices 1 2 3 4 5 6 
#
# 1 183.2670 118.6590 26.8452 0.0000 0.0000 0.0000
# 2 118.6590 278.9927 23.3500 0.0000 0.0000 0.0000
# 3 26.8452 23.3500 56.0486 0.0000 0.0000 0.0000
# 4 0.0000 0.0000 0.0000 14.9750 0.0000 0.0000
# 5 0.0000 0.0000 0.0000 0.0000 27.6218 0.0000
# 6 0.0000 0.0000 0.0000 0.0000 0.0000 59.3273
#
#
#
# Elastic Compliance Matrix: (Units=1/GPa)
#
#
# Indices 1 2 3 4 5 6 
#
# 1 0.007842 -0.003130 -0.002452 0.000000 0.000000 0.000000
# 2 -0.003130 0.004963 -0.000568 0.000000 0.000000 0.000000
# 3 -0.002452 -0.000568 0.019253 0.000000 0.000000 0.000000
# 4 0.000000 0.000000 0.000000 0.066778 0.000000 0.000000
# 5 0.000000 0.000000 0.000000 0.000000 0.036203 0.000000
# 6 0.000000 0.000000 0.000000 0.000000 0.000000 0.016856
#
#
# Mechanical properties :
#
#
# Convention : Reuss Voigt Hill
#
# Bulk Modulus (GPa) = 50.61508 95.11297 72.86403
# Shear Modulus (GPa) = 29.27690 43.68174 36.47932
#
# Velocity S-wave (km/s) = 3.29831 4.02884 3.68174
# Velocity P-wave (km/s) = 5.77174 7.54882 6.71929
#
# Compressibility (1/GPa) = 0.01975696
#
# Stress axis : x y z
#
# Youngs Moduli (GPa) = 127.51122 201.48151 51.94006
#
# Poissons Ratio (x) = 0.63069 0.12737
# Poissons Ratio (y) = 0.39914 0.02952
# Poissons Ratio (z) = 0.31268 0.11453
#
# Static dielectric constant tensor:
#      x y z
#    x 2.075040 0.000000 0.000000 
#    y 0.000000 2.389410 0.000000 
#    z 0.000000 0.000000 2.387710 
# 
# From -- ./inp_files/26247.got.cif
#   From: 2010.05.17/outbox.cif.g08.bks.cpg/sg52_14_cif.got.tgz:26247.got - 2010.06.03 12:15:38.
