data_PCOD9407676
_publ_section_title
;
Structure prediction by ZEFSAII (Michael W. Deem and Ramdas Pophale) SiO2 
 PCOD9407676
Probable space group: P M M A
;
_chemical_formula_sum "Si O2"
_cell_formula_units_Z 52
_cell_length_a 9.000000
_cell_length_b 21.000000
_cell_length_c 15.000000
_cell_angle_alpha 90.000000
_cell_angle_beta 90.000000
_cell_angle_gamma 90.000000
_cell_volume 2835.000000
_symmetry_space_group_name_H-M "P M M A"
_symmetry_group_IT_number 51
_symmetry_cell_setting 'orthorhombic'
loop_
_space_group_symop_operation_xyz
x,y,z
1/2-x,-y,z
1/2+x,-y,-z
-x,y,-z
-x,-y,-z
1/2+x,y,-z
1/2-x,y,z
x,-y,z
loop_
_atom_site_type_symbol
_atom_site_label
_atom_site_fract_x
_atom_site_fract_y
_atom_site_fract_z
Si Si1 0.572038 0.656616 0.778542
Si Si2 0.929465 0.234470 0.098920
Si Si3 0.580444 0.424211 0.089970
Si Si4 0.925162 0.000000 0.903184
Si Si5 0.925581 0.300632 0.405422
Si Si6 0.925682 0.853340 0.405124
Si Si7 0.428884 0.876907 0.216978
O O1 0.750000 0.662746 0.778608
O O2 0.496077 0.705393 0.848333
O O3 0.515539 0.591455 0.822702
O O4 0.507517 0.669687 0.680217
O O5 0.750000 0.235845 0.093701
O O6 0.985671 0.177407 0.162099
O O7 0.000000 0.229222 0.000000
O O8 0.750000 0.399464 0.096299
O O9 0.589880 0.500000 0.081045
O O10 0.500000 0.399706 0.000000
O O11 0.957961 0.939510 0.841424
O O12 0.750000 0.000000 0.920908
O O13 0.000000 0.000000 0.000000
O O14 0.750000 0.316095 0.404674
O O15 0.938788 0.223711 0.397861
O O16 0.000000 0.318796 0.500000
O O17 0.750000 0.869041 0.404726
O O18 0.000000 0.871700 0.500000
O O19 0.008179 0.880434 0.317683
O O20 0.250000 0.865048 0.219911
#
# Coordination Sequence:
#
# PCOD9407676 Si02
#       7
#     8   8   8   4   8   8   8
#     4  12  23  36  57  85 117 152 190 235 286 339
#     4  12  24  38  55  81 114 148 187 234 288 341
#     4  10  21  38  59  83 115 155 197 240 285 337
#     4  10  24  42  61  84 111 150 193 236 282 340
#     4  10  20  35  56  84 118 151 189 232 283 342
#     4  10  20  35  58  86 116 150 186 232 284 341
#     4  11  22  39  60  84 114 148 189 235 285 342
#
# _framework density 18.342151999999999
#
# number of rings (size 3 to 8) (size 9 to 14) (size 15 to 20)
#    0.000    1.231    1.538    5.538    0.000    4.615 
#    0.000    0.385    0.000    0.462    0.000    0.000 
#    0.000    0.000    0.000    0.000    0.000    0.000 
#
# Total GULP energy -290428.672800 kJ/mol
# GULP energy per Si atom -5585.166785 kJ/mol
# Density = 1.830040 g / cm^3
# Si number density = 18.342152 Si / 1000 Ang^3
#
#
#
# Elastic Constant Matrix: (Units=GPa)
#
#
# Indices 1 2 3 4 5 6 
#
# 1 179.7204 33.1957 95.6774 0.0000 0.0000 0.0000
# 2 33.1957 43.4600 32.1892 0.0000 0.0000 0.0000
# 3 95.6774 32.1892 203.5297 0.0000 0.0000 0.0000
# 4 0.0000 0.0000 0.0000 42.6971 0.0000 0.0000
# 5 0.0000 0.0000 0.0000 0.0000 45.6897 0.0000
# 6 0.0000 0.0000 0.0000 0.0000 0.0000 17.6492
#
#
#
# Elastic Compliance Matrix: (Units=1/GPa)
#
#
# Indices 1 2 3 4 5 6 
#
# 1 0.007921 -0.003729 -0.003134 0.000000 0.000000 0.000000
# 2 -0.003729 0.027818 -0.002646 0.000000 0.000000 0.000000
# 3 -0.003134 -0.002646 0.006805 0.000000 0.000000 0.000000
# 4 0.000000 0.000000 0.000000 0.023421 0.000000 0.000000
# 5 0.000000 0.000000 0.000000 0.000000 0.021887 0.000000
# 6 0.000000 0.000000 0.000000 0.000000 0.000000 0.056660
#
#
# Mechanical properties :
#
#
# Convention : Reuss Voigt Hill
#
# Bulk Modulus (GPa) = 42.50743 83.20386 62.85565
# Shear Modulus (GPa) = 29.17600 38.91705 34.04653
#
# Velocity S-wave (km/s) = 3.99263 4.61122 4.31303
# Velocity P-wave (km/s) = 6.66932 8.59137 7.69063
#
# Compressibility (1/GPa) = 0.02352530
#
# Stress axis : x y z
#
# Youngs Moduli (GPa) = 126.23894 35.94746 146.94861
#
# Poissons Ratio (x) = 0.13406 0.46054
# Poissons Ratio (y) = 0.47079 0.38889
# Poissons Ratio (z) = 0.39563 0.09513
#
# Static dielectric constant tensor:
#      x y z
#    x 1.623680 0.000000 0.000000 
#    y 0.000000 1.653770 0.000000 
#    z 0.000000 0.000000 1.593650 
# 
# From -- ./inp_files/21532.got.cif
#   From: 2010.05.17/outbox.ucp.g08.bks.cvg/sg51_11_cif.got.tgz:21532.got - 2010.06.11 16:27:58.
