data_PCOD9407245
_publ_section_title
;
Structure prediction by ZEFSAII (Michael W. Deem and Ramdas Pophale) SiO2 
 PCOD9407245
Probable space group: P M M A
;
_chemical_formula_sum "Si O2"
_cell_formula_units_Z 56
_cell_length_a 25.916340
_cell_length_b 7.456474
_cell_length_c 16.771819
_cell_angle_alpha 90.000000
_cell_angle_beta 90.000000
_cell_angle_gamma 90.000000
_cell_volume 3241.062035
_symmetry_space_group_name_H-M "P M M A"
_symmetry_group_IT_number 51
_symmetry_cell_setting 'orthorhombic'
loop_
_space_group_symop_operation_xyz
x,y,z
1/2-x,-y,z
1/2+x,-y,-z
-x,y,-z
-x,-y,-z
1/2+x,y,-z
1/2-x,y,z
x,-y,z
loop_
_atom_site_type_symbol
_atom_site_label
_atom_site_fract_x
_atom_site_fract_y
_atom_site_fract_z
Si Si1 0.402002 0.720296 0.374186
Si Si2 0.307656 0.283291 0.266804
Si Si3 0.511765 0.714098 0.306560
Si Si4 0.307550 0.788845 0.080652
Si Si5 0.058064 0.708452 0.536981
Si Si6 0.416595 0.780352 0.022637
Si Si7 0.513404 0.214156 0.122897
O O1 0.402068 0.500000 0.375405
O O2 0.351988 0.779581 0.326140
O O3 0.454020 0.777605 0.328123
O O4 0.406816 0.782888 0.465869
O O5 0.250000 0.223632 0.289026
O O6 0.308225 0.500000 0.267877
O O7 0.316848 0.228367 0.175460
O O8 0.510715 0.500000 0.318323
O O9 0.550958 0.785475 0.374348
O O10 0.523720 0.745641 0.214667
O O11 0.250000 0.713564 0.064224
O O12 0.358510 0.715814 0.037443
O O13 0.305098 0.000000 0.061767
O O14 0.073313 0.500000 0.545489
O O15 0.000000 0.712182 0.500000
O O16 0.457215 0.723300 0.091491
O O17 0.415000 0.000000 0.023902
O O18 0.443199 0.723559 0.939714
O O19 0.512271 0.000000 0.115113
#
# Coordination Sequence:
#
# PCOD9407245 Si02
#       7
#     8   8   8   8   8   8   8
#     4   8  13  22  36  52  72  98 121 142 171 207
#     4   9  16  24  35  54  77  96 116 143 175 211
#     4   9  15  23  37  56  73  90 119 153 178 204
#     4   9  16  26  40  55  71  93 122 152 176 204
#     4   7  11  20  34  51  69  90 116 142 167 198
#     4   8  15  27  39  52  71  97 125 145 171 216
#     4   9  16  26  39  52  72 100 121 142 177 220
#
# _framework density 17.278286000000001
#
# number of rings (size 3 to 8) (size 9 to 14) (size 15 to 20)
#    0.000    3.571    0.000    3.429    0.000    0.000 
#    0.000    2.143    0.000    4.714    0.000    1.000 
#    0.000    1.143    0.000    0.000    0.000    0.000 
#
# Total GULP energy -311752.193802 kJ/mol
# GULP energy per Si atom -5567.003461 kJ/mol
# Density = 1.723896 g / cm^3
# Si number density = 17.278286 Si / 1000 Ang^3
#
#
#
# Elastic Constant Matrix: (Units=GPa)
#
#
# Indices 1 2 3 4 5 6 
#
# 1 127.0799 6.5324 68.3736 0.0000 0.0000 0.0000
# 2 6.5324 49.5090 -1.7900 0.0000 0.0000 0.0000
# 3 68.3736 -1.7900 125.6161 0.0000 0.0000 0.0000
# 4 0.0000 0.0000 0.0000 18.9327 0.0000 0.0000
# 5 0.0000 0.0000 0.0000 0.0000 27.5265 0.0000
# 6 0.0000 0.0000 0.0000 0.0000 0.0000 0.8173
#
#
#
# Elastic Compliance Matrix: (Units=1/GPa)
#
#
# Indices 1 2 3 4 5 6 
#
# 1 0.011271 -0.001710 -0.006159 0.000000 0.000000 0.000000
# 2 -0.001710 0.020468 0.001222 0.000000 0.000000 0.000000
# 3 -0.006159 0.001222 0.011331 0.000000 0.000000 0.000000
# 4 0.000000 0.000000 0.000000 0.052819 0.000000 0.000000
# 5 0.000000 0.000000 0.000000 0.000000 0.036329 0.000000
# 6 0.000000 0.000000 0.000000 0.000000 0.000000 1.223544
#
#
# Mechanical properties :
#
#
# Convention : Reuss Voigt Hill
#
# Bulk Modulus (GPa) = 33.58369 49.82634 41.70501
# Shear Modulus (GPa) = 3.62587 24.72790 14.17689
#
# Velocity S-wave (km/s) = 1.45020 3.78716 2.86755
# Velocity P-wave (km/s) = 4.72051 6.92991 5.92903
#
# Compressibility (1/GPa) = 0.02977636
#
# Stress axis : x y z
#
# Youngs Moduli (GPa) = 88.72496 48.85639 88.25634
#
# Poissons Ratio (x) = 0.08353 0.54358
# Poissons Ratio (y) = 0.15170 -0.10788
# Poissons Ratio (z) = 0.54647 -0.05972
#
# Static dielectric constant tensor:
#      x y z
#    x 1.589060 0.000000 0.000000 
#    y 0.000000 1.674070 0.000000 
#    z 0.000000 0.000000 1.602650 
# 
# From -- ./inp_files/30767.got.cif
#   From: 2010.05.17/outbox.cif.g08.bks.cpg/sg51_16_cif.got.tgz:30767.got - 2010.06.03 11:52:47.
