data_PCOD9407565
_publ_section_title
;
Structure prediction by ZEFSAII (Michael W. Deem and Ramdas Pophale) SiO2 
 PCOD9407565
Probable space group: P M M A
;
_chemical_formula_sum "Si O2"
_cell_formula_units_Z 64
_cell_length_a 30.000000
_cell_length_b 9.000000
_cell_length_c 12.000000
_cell_angle_alpha 90.000000
_cell_angle_beta 90.000000
_cell_angle_gamma 90.000000
_cell_volume 3240.000000
_symmetry_space_group_name_H-M "P M M A"
_symmetry_group_IT_number 51
_symmetry_cell_setting 'orthorhombic'
loop_
_space_group_symop_operation_xyz
x,y,z
1/2-x,-y,z
1/2+x,-y,-z
-x,y,-z
-x,-y,-z
1/2+x,y,-z
1/2-x,y,z
x,-y,z
loop_
_atom_site_type_symbol
_atom_site_label
_atom_site_fract_x
_atom_site_fract_y
_atom_site_fract_z
Si Si1 0.447231 0.665452 0.006139
Si Si2 0.676983 0.178664 0.204926
Si Si3 0.699751 0.820584 0.953378
Si Si4 0.383948 0.678221 0.443471
Si Si5 0.077761 0.176156 0.793062
Si Si6 0.038223 0.178634 0.577726
Si Si7 0.703101 0.671681 0.422697
Si Si8 0.621389 0.323784 0.810239
O O1 0.431203 0.500000 0.972150
O O2 0.432021 0.785449 0.918502
O O3 0.500000 0.663492 0.000000
O O4 0.424743 0.697754 0.123525
O O5 0.692263 0.227128 0.082296
O O6 0.627009 0.235018 0.229052
O O7 0.703139 0.234346 0.310833
O O8 0.677523 0.000000 0.202815
O O9 0.750000 0.778224 0.919495
O O10 0.696735 0.000000 0.950938
O O11 0.661169 0.754364 0.876690
O O12 0.393553 0.500000 0.450423
O O13 0.417029 0.772892 0.517853
O O14 0.335841 0.707377 0.493872
O O15 0.384794 0.726171 0.315716
O O16 0.041878 0.234167 0.704535
O O17 0.079466 0.000000 0.779561
O O18 0.000000 0.242509 0.500000
O O19 0.033730 0.000000 0.579999
O O20 0.750000 0.688557 0.482479
O O21 0.697858 0.500000 0.388504
O O22 0.630978 0.500000 0.807715
#
# Coordination Sequence:
#
# PCOD9407565 Si02
#       8
#     8   8   8   8   8   8   8   8
#     4  10  22  38  57  83 115 148 186 233 279 327
#     4  10  19  35  58  83 113 145 181 226 276 330
#     4  10  21  37  57  82 111 143 181 227 278 329
#     4  10  22  39  58  81 111 147 188 230 274 328
#     4  10  20  36  59  85 112 145 184 226 277 332
#     4  10  22  39  58  84 116 147 184 231 278 328
#     4  10  21  36  55  81 111 143 181 226 275 326
#     4  10  22  39  57  80 111 148 188 229 276 329
#
# _framework density 19.753086
#
# number of rings (size 3 to 8) (size 9 to 14) (size 15 to 20)
#    0.000    2.000    2.500    0.375    1.750    4.000 
#    0.000    1.250    0.000    0.000    0.000    0.000 
#    0.000    0.000    0.000    0.000    0.000    0.000 
#
# Total GULP energy -356518.171688 kJ/mol
# GULP energy per Si atom -5570.596433 kJ/mol
# Density = 1.970813 g / cm^3
# Si number density = 19.753086 Si / 1000 Ang^3
#
#
#
# Elastic Constant Matrix: (Units=GPa)
#
#
# Indices 1 2 3 4 5 6 
#
# 1 -9.5205 -25.2095 -55.5245 0.0000 0.0000 0.0000
# 2 -25.2095 -42.9522 -31.5832 0.0000 0.0000 0.0000
# 3 -55.5245 -31.5832 17.3907 0.0000 0.0000 0.0000
# 4 0.0000 0.0000 0.0000 16.3669 0.0000 0.0000
# 5 0.0000 0.0000 0.0000 0.0000 5.7026 0.0000
# 6 0.0000 0.0000 0.0000 0.0000 0.0000 31.9993
#
#
#
# Elastic Compliance Matrix: (Units=1/GPa)
#
#
# Indices 1 2 3 4 5 6 
#
# 1 -0.035199 0.044231 -0.032056 0.000000 0.000000 0.000000
# 2 0.044231 -0.065548 0.022177 0.000000 0.000000 0.000000
# 3 -0.032056 0.022177 -0.004572 0.000000 0.000000 0.000000
# 4 0.000000 0.000000 0.000000 0.061099 0.000000 0.000000
# 5 0.000000 0.000000 0.000000 0.000000 0.175360 0.000000
# 6 0.000000 0.000000 0.000000 0.000000 0.000000 0.031251
#
#
# Mechanical properties :
#
#
# Convention : Reuss Voigt Hill
#
# Bulk Modulus (GPa) = -27.30879 -28.85738 -28.08308
# Shear Modulus (GPa) = 61.36316 15.96276 38.66296
#
# Velocity S-wave (km/s) = 5.57965 2.84582 4.42895
# Velocity P-wave (km/s) = 5.25880 1.96023 3.45054
#
# Compressibility (1/GPa) = -0.03661825
#
# Stress axis : x y z
#
# Youngs Moduli (GPa) = -28.40952 -15.25593 -218.71499
#
# Poissons Ratio (x) = 0.67478 -7.01123
# Poissons Ratio (y) = 1.25657 4.85035
# Poissons Ratio (z) = -0.91071 0.33832
#
# Static dielectric constant tensor:
#      x y z
#    x 1.745920 0.000000 0.000000 
#    y 0.000000 1.657290 0.000000 
#    z 0.000000 0.000000 1.726400 
# 
# From -- ./inp_files/19646.got.cif
#   From: 2010.05.17/outbox.ucp.g08.bks.cvg/sg51_10_cif.got.tgz:19646.got - 2010.06.11 16:27:58.
