data_PCOD9407277
_publ_section_title
;
Structure prediction by ZEFSAII (Michael W. Deem and Ramdas Pophale) SiO2 
 PCOD9407277
Probable space group: P M M A
;
_chemical_formula_sum "Si O2"
_cell_formula_units_Z 48
_cell_length_a 9.723180
_cell_length_b 7.325348
_cell_length_c 31.880912
_cell_angle_alpha 90.000000
_cell_angle_beta 90.000000
_cell_angle_gamma 90.000000
_cell_volume 2270.739546
_symmetry_space_group_name_H-M "P M M A"
_symmetry_group_IT_number 51
_symmetry_cell_setting 'orthorhombic'
loop_
_space_group_symop_operation_xyz
x,y,z
1/2-x,-y,z
1/2+x,-y,-z
-x,y,-z
-x,-y,-z
1/2+x,y,-z
1/2-x,y,z
x,-y,z
loop_
_atom_site_type_symbol
_atom_site_label
_atom_site_fract_x
_atom_site_fract_y
_atom_site_fract_z
Si Si1 0.408711 0.722227 0.461301
Si Si2 0.408325 0.222865 0.960181
Si Si3 0.093866 0.282122 0.212433
Si Si4 0.408897 0.277823 0.367470
Si Si5 0.406455 0.217367 0.116420
Si Si6 0.407949 0.723247 0.710841
O O1 0.500000 0.785752 0.500000
O O2 0.250000 0.774983 0.466851
O O3 0.412794 0.500000 0.461506
O O4 0.451909 0.778764 0.414406
O O5 0.250000 0.282395 0.962780
O O6 0.486092 0.284308 0.918015
O O7 0.405568 0.000000 0.960105
O O8 0.500000 0.277625 0.000000
O O9 0.250000 0.211386 0.217718
O O10 0.101190 0.500000 0.217599
O O11 0.051021 0.248315 0.164499
O O12 0.989622 0.215663 0.247726
O O13 0.250000 0.222647 0.360509
O O14 0.408849 0.500000 0.367137
O O15 0.508532 0.218482 0.330403
O O16 0.250000 0.288711 0.111116
O O17 0.398273 0.000000 0.110451
O O18 0.250000 0.781548 0.710518
O O19 0.407640 0.500000 0.710847
#
# Coordination Sequence:
#
# PCOD9407277 Si02
#       6
#     8   8   8   8   8   8
#     4   8  13  19  26  37  54  78 109 146 188 232
#     4   9  16  26  42  64  88 112 137 166 200 236
#     4   9  17  29  44  60  80 108 137 164 199 242
#     4   8  13  21  31  42  59  85 117 153 193 236
#     4   9  17  29  45  65  87 109 135 167 200 235
#     4   9  16  24  35  52  71  92 123 163 200 232
#
# _framework density 21.138486
#
# number of rings (size 3 to 8) (size 9 to 14) (size 15 to 20)
#    0.000    3.333    0.000    2.000    0.000    5.333 
#    0.000    3.333    0.000    0.500    0.000    0.000 
#    0.000    0.000    0.000    0.000    0.000    0.833 
#
# Total GULP energy -267914.771626 kJ/mol
# GULP energy per Si atom -5581.557742 kJ/mol
# Density = 2.109037 g / cm^3
# Si number density = 21.138486 Si / 1000 Ang^3
#
#
#
# Elastic Constant Matrix: (Units=GPa)
#
#
# Indices 1 2 3 4 5 6 
#
# 1 173.6166 6.6259 172.1414 0.0000 0.0000 0.0000
# 2 6.6259 83.1616 2.3566 0.0000 0.0000 0.0000
# 3 172.1414 2.3566 243.3205 0.0000 0.0000 0.0000
# 4 0.0000 0.0000 0.0000 10.9218 0.0000 0.0000
# 5 0.0000 0.0000 0.0000 0.0000 35.7234 0.0000
# 6 0.0000 0.0000 0.0000 0.0000 0.0000 -24.2334
#
#
#
# Elastic Compliance Matrix: (Units=1/GPa)
#
#
# Indices 1 2 3 4 5 6 
#
# 1 0.019404 -0.001157 -0.013716 0.000000 0.000000 0.000000
# 2 -0.001157 0.012097 0.000702 0.000000 0.000000 0.000000
# 3 -0.013716 0.000702 0.013807 0.000000 0.000000 0.000000
# 4 0.000000 0.000000 0.000000 0.091560 0.000000 0.000000
# 5 0.000000 0.000000 0.000000 0.000000 0.027993 0.000000
# 6 0.000000 0.000000 0.000000 0.000000 0.000000 -0.041265
#
#
# Mechanical properties :
#
#
# Convention : Reuss Voigt Hill
#
# Bulk Modulus (GPa) = 58.94953 95.81627 77.38290
# Shear Modulus (GPa) = 31.72717 25.74735 28.73726
#
# Velocity S-wave (km/s) = 3.87837 3.49382 3.69111
# Velocity P-wave (km/s) = 6.92846 7.85506 7.40626
#
# Compressibility (1/GPa) = 0.01696366
#
# Stress axis : x y z
#
# Youngs Moduli (GPa) = 51.53636 82.66441 72.42768
#
# Poissons Ratio (x) = 0.09567 0.99344
# Poissons Ratio (y) = 0.05964 -0.05082
# Poissons Ratio (z) = 0.70689 -0.05800
#
# Static dielectric constant tensor:
#      x y z
#    x 1.713570 0.000000 0.000000 
#    y 0.000000 1.875910 0.000000 
#    z 0.000000 0.000000 1.727590 
# 
# From -- ./inp_files/36132.got.cif
#   From: 2010.05.17/outbox.cif.g08.bks.cpg/sg51_19_cif.got.tgz:36132.got - 2010.06.03 11:52:47.
