data_PCOD9407960
_publ_section_title
;
Structure prediction by ZEFSAII (Michael W. Deem and Ramdas Pophale) SiO2 
 PCOD9407960
Probable space group: P N N A
;
_chemical_formula_sum "Si O2"
_cell_formula_units_Z 36
_cell_length_a 30.441909
_cell_length_b 7.618701
_cell_length_c 7.142788
_cell_angle_alpha 90.000000
_cell_angle_beta 90.000000
_cell_angle_gamma 90.000000
_cell_volume 1656.611125
_symmetry_space_group_name_H-M "P N N A"
_symmetry_group_IT_number 52
_symmetry_cell_setting 'orthorhombic'
loop_
_space_group_symop_operation_xyz
x,y,z
1/2-x,-y,z
x,1/2-y,1/2-z
1/2-x,1/2+y,1/2-z
-x,-y,-z
1/2+x,y,-z
-x,1/2+y,1/2+z
1/2+x,1/2-y,1/2+z
loop_
_atom_site_type_symbol
_atom_site_label
_atom_site_fract_x
_atom_site_fract_y
_atom_site_fract_z
Si Si1 0.585772 0.750000 0.750000
Si Si2 0.799892 0.055265 0.539821
Si Si3 0.663100 0.898794 0.962114
Si Si4 0.870362 0.730775 0.978853
Si Si5 0.460706 0.592659 0.109898
O O1 0.618583 0.789298 0.920656
O O2 0.559777 0.571448 0.777622
O O3 0.812930 0.060634 0.762345
O O4 0.806109 0.249218 0.455418
O O5 0.750000 0.000000 0.519362
O O6 0.835115 0.915442 0.466427
O O7 0.647221 0.081290 0.047074
O O8 0.870976 0.750000 0.750000
O O9 0.920555 0.671688 0.015671
O O10 0.474666 0.750000 0.250000
O O11 0.500000 0.500000 0.000000
#
# Coordination Sequence:
#
# PCOD9407960 Si02
#       5
#     4   8   8   8   8
#     4  10  16  34  48  66  94 132 166 202 260 312
#     4   9  16  21  35  60  88 128 165 189 229 299
#     4   9  16  24  40  56  93 127 164 189 242 293
#     4   9  15  28  40  58  90 124 160 201 242 299
#     4  11  21  35  53  73  96 132 175 220 269 321
#
# _framework density 21.731110999999999
#
# number of rings (size 3 to 8) (size 9 to 14) (size 15 to 20)
#    0.000    2.667    8.889    0.000    9.333    0.889 
#    0.000    0.000    0.000    0.000    0.000    0.000 
#    0.000    0.000    3.778    1.778    0.000    2.889 
#
# Total GULP energy -200501.504857 kJ/mol
# GULP energy per Si atom -5569.486246 kJ/mol
# Density = 2.168165 g / cm^3
# Si number density = 21.731111 Si / 1000 Ang^3
#
#
#
# Elastic Constant Matrix: (Units=GPa)
#
#
# Indices 1 2 3 4 5 6 
#
# 1 168.7059 93.0690 34.5366 0.0000 0.0000 0.0000
# 2 93.0690 220.9718 24.9087 0.0000 0.0000 0.0000
# 3 34.5366 24.9087 64.0834 0.0000 0.0000 0.0000
# 4 0.0000 0.0000 0.0000 -15.6905 0.0000 0.0000
# 5 0.0000 0.0000 0.0000 0.0000 -16.4068 0.0000
# 6 0.0000 0.0000 0.0000 0.0000 0.0000 49.0550
#
#
#
# Elastic Compliance Matrix: (Units=1/GPa)
#
#
# Indices 1 2 3 4 5 6 
#
# 1 0.008328 -0.003139 -0.003268 0.000000 0.000000 0.000000
# 2 -0.003139 0.005916 -0.000608 0.000000 0.000000 0.000000
# 3 -0.003268 -0.000608 0.017602 0.000000 0.000000 0.000000
# 4 0.000000 0.000000 0.000000 -0.063733 0.000000 0.000000
# 5 0.000000 0.000000 0.000000 0.000000 -0.060950 0.000000
# 6 0.000000 0.000000 0.000000 0.000000 0.000000 0.020385
#
#
# Mechanical properties :
#
#
# Convention : Reuss Voigt Hill
#
# Bulk Modulus (GPa) = 56.12828 84.30996 70.21912
# Shear Modulus (GPa) = -95.27115 23.47465 -35.89825
#
# Velocity S-wave (km/s) = -6.62843 3.29025 -4.06880
# Velocity P-wave (km/s) = 5.71811 7.30175 3.21081
#
# Compressibility (1/GPa) = 0.01781633
#
# Stress axis : x y z
#
# Youngs Moduli (GPa) = 120.07123 169.02748 56.81109
#
# Poissons Ratio (x) = 0.53064 0.18567
# Poissons Ratio (y) = 0.37695 0.03452
# Poissons Ratio (z) = 0.39242 0.10272
#
# Static dielectric constant tensor:
#      x y z
#    x 1.810130 0.000000 0.000000 
#    y 0.000000 1.826300 0.000000 
#    z 0.000000 0.000000 1.925510 
# 
# From -- ./inp_files/14748.got.cif
#   From: 2010.05.17/outbox.cif.g08.bks.cpg/sg52_8_cif.got.tgz:14748.got - 2010.06.03 12:15:38.
