data_PCOD9407370
_publ_section_title
;
Structure prediction by ZEFSAII (Michael W. Deem and Ramdas Pophale) SiO2 
 PCOD9407370
Probable space group: P M M A
;
_chemical_formula_sum "Si O2"
_cell_formula_units_Z 56
_cell_length_a 20.203452
_cell_length_b 7.407674
_cell_length_c 18.210931
_cell_angle_alpha 90.000000
_cell_angle_beta 90.000000
_cell_angle_gamma 90.000000
_cell_volume 2725.458607
_symmetry_space_group_name_H-M "P M M A"
_symmetry_group_IT_number 51
_symmetry_cell_setting 'orthorhombic'
loop_
_space_group_symop_operation_xyz
x,y,z
1/2-x,-y,z
1/2+x,-y,-z
-x,y,-z
-x,-y,-z
1/2+x,y,-z
1/2-x,y,z
x,-y,z
loop_
_atom_site_type_symbol
_atom_site_label
_atom_site_fract_x
_atom_site_fract_y
_atom_site_fract_z
Si Si1 0.096134 0.281526 0.729703
Si Si2 0.551889 0.715716 0.693343
Si Si3 0.428403 0.720444 0.468396
Si Si4 0.173600 0.778949 0.016467
Si Si5 0.076350 0.214961 0.141952
Si Si6 0.571256 0.208865 0.106516
Si Si7 0.175583 0.279404 0.589738
O O1 0.095929 0.500000 0.731993
O O2 0.103359 0.217644 0.812762
O O3 0.148781 0.223476 0.669384
O O4 0.023785 0.220550 0.702266
O O5 0.548911 0.500000 0.687268
O O6 0.580159 0.781243 0.615807
O O7 0.585608 0.753884 0.771318
O O8 0.500000 0.772902 0.500000
O O9 0.427316 0.500000 0.468626
O O10 0.372864 0.780649 0.525162
O O11 0.250000 0.719581 0.010073
O O12 0.123418 0.716957 0.952122
O O13 0.175631 0.000000 0.014407
O O14 0.136667 0.722511 0.091473
O O15 0.003548 0.286200 0.116085
O O16 0.072597 0.000000 0.132631
O O17 0.561713 0.000000 0.085159
O O18 0.250000 0.220853 0.577527
O O19 0.174305 0.500000 0.589728
#
# Coordination Sequence:
#
# PCOD9407370 Si02
#       7
#     8   8   8   8   8   8   8
#     4   9  16  27  43  65  91 117 144 177 220 268
#     4   9  16  27  46  69  89 113 148 185 220 261
#     4   9  14  24  43  63  83 113 151 183 212 253
#     4   9  17  30  48  67  86 115 154 186 215 260
#     4   9  17  30  48  68  90 114 145 185 225 260
#     4   9  17  29  47  69  90 112 145 186 222 257
#     4   9  16  25  39  62  90 117 147 183 220 259
#
# _framework density 20.546999
#
# number of rings (size 3 to 8) (size 9 to 14) (size 15 to 20)
#    0.000    3.000    1.429    0.429    0.000    2.286 
#    0.000    1.429    0.000    6.857    0.000    0.000 
#    0.000    0.000    0.000    0.000    0.000    0.000 
#
# Total GULP energy -312316.882910 kJ/mol
# GULP energy per Si atom -5577.087195 kJ/mol
# Density = 2.050023 g / cm^3
# Si number density = 20.546999 Si / 1000 Ang^3
#
#
#
# Elastic Constant Matrix: (Units=GPa)
#
#
# Indices 1 2 3 4 5 6 
#
# 1 89.8629 -0.5975 63.2098 0.0000 0.0000 0.0000
# 2 -0.5975 64.6652 -5.9873 0.0000 0.0000 0.0000
# 3 63.2098 -5.9873 127.5237 0.0000 0.0000 0.0000
# 4 0.0000 0.0000 0.0000 17.3706 0.0000 0.0000
# 5 0.0000 0.0000 0.0000 0.0000 27.5570 0.0000
# 6 0.0000 0.0000 0.0000 0.0000 0.0000 0.1482
#
#
#
# Elastic Compliance Matrix: (Units=1/GPa)
#
#
# Indices 1 2 3 4 5 6 
#
# 1 0.017110 -0.000630 -0.008511 0.000000 0.000000 0.000000
# 2 -0.000630 0.015555 0.001043 0.000000 0.000000 0.000000
# 3 -0.008511 0.001043 0.012109 0.000000 0.000000 0.000000
# 4 0.000000 0.000000 0.000000 0.057568 0.000000 0.000000
# 5 0.000000 0.000000 0.000000 0.000000 0.036288 0.000000
# 6 0.000000 0.000000 0.000000 0.000000 0.000000 6.746526
#
#
# Mechanical properties :
#
#
# Convention : Reuss Voigt Hill
#
# Bulk Modulus (GPa) = 34.99152 43.92242 39.45697
# Shear Modulus (GPa) = 0.72350 24.04362 12.38356
#
# Velocity S-wave (km/s) = 0.59404 3.42450 2.45765
# Velocity P-wave (km/s) = 4.18778 6.08763 5.22478
#
# Compressibility (1/GPa) = 0.02857836
#
# Stress axis : x y z
#
# Youngs Moduli (GPa) = 58.44444 64.28812 82.58252
#
# Poissons Ratio (x) = 0.04049 0.70283
# Poissons Ratio (y) = 0.03681 -0.08609
# Poissons Ratio (z) = 0.49740 -0.06702
#
# Static dielectric constant tensor:
#      x y z
#    x 1.698410 0.000000 0.000000 
#    y 0.000000 1.797290 0.000000 
#    z 0.000000 0.000000 1.729090 
# 
# From -- ./inp_files/18247.got.cif
#   From: 2010.05.17/outbox.cif.g08.bks.cpg/sg51_10_cif.got.tgz:18247.got - 2010.06.03 11:52:47.
