data_PCOD9407899
_publ_section_title
;
Structure prediction by ZEFSAII (Michael W. Deem and Ramdas Pophale) SiO2 
 PCOD9407899
Probable space group: P N N A
;
_chemical_formula_sum "Si O2"
_cell_formula_units_Z 48
_cell_length_a 14.882704
_cell_length_b 10.815300
_cell_length_c 11.811599
_cell_angle_alpha 90.000000
_cell_angle_beta 90.000000
_cell_angle_gamma 90.000000
_cell_volume 1901.205707
_symmetry_space_group_name_H-M "P N N A"
_symmetry_group_IT_number 52
_symmetry_cell_setting 'orthorhombic'
loop_
_space_group_symop_operation_xyz
x,y,z
1/2-x,-y,z
x,1/2-y,1/2-z
1/2-x,1/2+y,1/2-z
-x,-y,-z
1/2+x,y,-z
-x,1/2+y,1/2+z
1/2+x,1/2-y,1/2+z
loop_
_atom_site_type_symbol
_atom_site_label
_atom_site_fract_x
_atom_site_fract_y
_atom_site_fract_z
Si Si1 0.458200 0.317702 0.870606
Si Si2 0.465593 0.693954 0.571195
Si Si3 0.842721 0.629039 0.830798
Si Si4 0.250000 0.500000 0.350108
Si Si5 0.253684 0.750000 0.750000
Si Si6 0.242324 0.224838 0.996504
Si Si7 0.082270 0.073234 0.716719
O O1 0.456045 0.250000 0.750000
O O2 0.559420 0.375741 0.882871
O O3 0.405482 0.445363 0.848342
O O4 0.462349 0.218517 0.973004
O O5 0.363225 0.688164 0.523083
O O6 0.466414 0.822107 0.642061
O O7 0.468034 0.580858 0.661069
O O8 0.836507 0.750000 0.750000
O O9 0.828913 0.523407 0.739675
O O10 0.767970 0.652029 0.927651
O O11 0.277119 0.386254 0.428096
O O12 0.210878 0.761219 0.874407
O O13 0.319458 0.867880 0.738981
#
# Coordination Sequence:
#
# PCOD9407899 Si02
#       7
#     8   8   8   4   4   8   8
#     4  10  17  26  44  74  98 128 161 195 238 293
#     4   8  16  30  47  70  94 128 167 193 234 293
#     4   8  16  28  44  67  96 120 161 195 243 292
#     4  10  16  28  50  70  86 124 154 210 250 282
#     4   8  16  32  52  74  92 132 170 196 238 302
#     4   8  15  29  49  72  90 119 165 201 237 290
#     4   8  15  28  48  68  96 130 163 198 233 285
#
# _framework density 25.247135
#
# number of rings (size 3 to 8) (size 9 to 14) (size 15 to 20)
#    0.000    4.000    0.000    1.500    0.000    0.667 
#    0.000    0.833   16.500    0.000   95.333    0.000 
#    0.000    0.000    0.000    0.000    0.000    0.000 
#
# Total GULP energy -267562.860859 kJ/mol
# GULP energy per Si atom -5574.226268 kJ/mol
# Density = 2.518967 g / cm^3
# Si number density = 25.247135 Si / 1000 Ang^3
#
#
#
# Elastic Constant Matrix: (Units=GPa)
#
#
# Indices 1 2 3 4 5 6 
#
# 1 32.4362 17.0783 30.3931 0.0000 0.0000 0.0000
# 2 17.0783 58.4422 28.0274 0.0000 0.0000 0.0000
# 3 30.3931 28.0274 170.7935 0.0000 0.0000 0.0000
# 4 0.0000 0.0000 0.0000 20.1448 0.0000 0.0000
# 5 0.0000 0.0000 0.0000 0.0000 21.7569 0.0000
# 6 0.0000 0.0000 0.0000 0.0000 0.0000 15.3878
#
#
#
# Elastic Compliance Matrix: (Units=1/GPa)
#
#
# Indices 1 2 3 4 5 6 
#
# 1 0.041131 -0.009236 -0.005804 0.000000 0.000000 0.000000
# 2 -0.009236 0.020647 -0.001745 0.000000 0.000000 0.000000
# 3 -0.005804 -0.001745 0.007174 0.000000 0.000000 0.000000
# 4 0.000000 0.000000 0.000000 0.049641 0.000000 0.000000
# 5 0.000000 0.000000 0.000000 0.000000 0.045962 0.000000
# 6 0.000000 0.000000 0.000000 0.000000 0.000000 0.064987
#
#
# Mechanical properties :
#
#
# Convention : Reuss Voigt Hill
#
# Bulk Modulus (GPa) = 28.26235 45.85219 37.05727
# Shear Modulus (GPa) = 18.18814 23.86943 21.02879
#
# Velocity S-wave (km/s) = 2.68695 3.07812 2.88916
# Velocity P-wave (km/s) = 4.56561 5.55283 5.08324
#
# Compressibility (1/GPa) = 0.03538277
#
# Stress axis : x y z
#
# Youngs Moduli (GPa) = 24.31261 48.43411 139.39066
#
# Poissons Ratio (x) = 0.44735 0.80898
# Poissons Ratio (y) = 0.22456 0.24317
# Poissons Ratio (z) = 0.14110 0.08449
#
# Static dielectric constant tensor:
#      x y z
#    x 2.139240 0.000000 0.000000 
#    y 0.000000 2.000580 0.000000 
#    z 0.000000 0.000000 2.069490 
# 
# From -- ./inp_files/21651.got.cif
#   From: 2010.05.17/outbox.cif.g08.bks.cpg/sg52_11_cif.got.tgz:21651.got - 2010.06.03 12:15:38.
