data_PCOD9407031
_publ_section_title
;
Structure prediction by ZEFSAII (Michael W. Deem and Ramdas Pophale) SiO2 
 PCOD9407031
Probable space group: P M M A
;
_chemical_formula_sum "Si O2"
_cell_formula_units_Z 40
_cell_length_a 21.126465
_cell_length_b 8.738213
_cell_length_c 11.939459
_cell_angle_alpha 90.000000
_cell_angle_beta 90.000000
_cell_angle_gamma 90.000000
_cell_volume 2204.114288
_symmetry_space_group_name_H-M "P M M A"
_symmetry_group_IT_number 51
_symmetry_cell_setting 'orthorhombic'
loop_
_space_group_symop_operation_xyz
x,y,z
1/2-x,-y,z
1/2+x,-y,-z
-x,y,-z
-x,-y,-z
1/2+x,y,-z
1/2-x,y,z
x,-y,z
loop_
_atom_site_type_symbol
_atom_site_label
_atom_site_fract_x
_atom_site_fract_y
_atom_site_fract_z
Si Si1 0.823966 0.185256 0.462118
Si Si2 0.556053 0.316351 0.587294
Si Si3 0.825485 0.174059 0.208039
Si Si4 0.031012 0.817964 0.168076
Si Si5 0.088780 0.320415 0.962864
O O1 0.750000 0.229156 0.481474
O O2 0.876188 0.258742 0.541828
O O3 0.842443 0.225648 0.333790
O O4 0.826495 0.000000 0.469834
O O5 0.500000 0.273478 0.500000
O O6 0.556429 0.500000 0.596787
O O7 0.542371 0.243076 0.707825
O O8 0.750000 0.167330 0.206659
O O9 0.850606 0.280851 0.110786
O O10 0.849956 0.000000 0.191572
O O11 0.968860 0.740894 0.114017
O O12 0.024230 0.000000 0.167807
O O13 0.085421 0.767273 0.080731
O O14 0.081774 0.500000 0.982399
#
# Coordination Sequence:
#
# PCOD9407031 Si02
#       5
#     8   8   8   8   8
#     4   9  19  36  57  81 110 146 186 225 267 320
#     4  11  23  37  55  83 115 144 179 226 277 326
#     4   9  18  34  56  81 109 142 181 220 259 312
#     4  11  22  37  57  78 104 141 182 220 264 320
#     4  11  21  35  55  80 111 139 171 220 273 321
#
# _framework density 18.147877999999999
#
# number of rings (size 3 to 8) (size 9 to 14) (size 15 to 20)
#    0.000    1.800    0.000    7.800    0.000    6.400 
#    0.000    3.000    0.000    6.000    0.000    0.000 
#    0.000    0.000    0.000    0.000    0.000    0.000 
#
# Total GULP energy -223326.332286 kJ/mol
# GULP energy per Si atom -5583.158307 kJ/mol
# Density = 1.810657 g / cm^3
# Si number density = 18.147878 Si / 1000 Ang^3
#
#
#
# Elastic Constant Matrix: (Units=GPa)
#
#
# Indices 1 2 3 4 5 6 
#
# 1 44.2975 16.3289 40.7195 0.0000 0.0000 0.0000
# 2 16.3289 67.9749 40.2639 0.0000 0.0000 0.0000
# 3 40.7195 40.2639 134.8233 0.0000 0.0000 0.0000
# 4 0.0000 0.0000 0.0000 28.7664 0.0000 0.0000
# 5 0.0000 0.0000 0.0000 0.0000 28.8419 0.0000
# 6 0.0000 0.0000 0.0000 0.0000 0.0000 146.7844
#
#
#
# Elastic Compliance Matrix: (Units=1/GPa)
#
#
# Indices 1 2 3 4 5 6 
#
# 1 0.031557 -0.002351 -0.008829 0.000000 0.000000 0.000000
# 2 -0.002351 0.018048 -0.004680 0.000000 0.000000 0.000000
# 3 -0.008829 -0.004680 0.011481 0.000000 0.000000 0.000000
# 4 0.000000 0.000000 0.000000 0.034763 0.000000 0.000000
# 5 0.000000 0.000000 0.000000 0.000000 0.034672 0.000000
# 6 0.000000 0.000000 0.000000 0.000000 0.000000 0.006813
#
#
# Mechanical properties :
#
#
# Convention : Reuss Voigt Hill
#
# Bulk Modulus (GPa) = 34.05190 49.08003 41.56596
# Shear Modulus (GPa) = 27.95768 50.86409 39.41089
#
# Velocity S-wave (km/s) = 3.92924 5.29985 4.66515
# Velocity P-wave (km/s) = 6.27611 8.03458 7.20916
#
# Compressibility (1/GPa) = 0.02936693
#
# Stress axis : x y z
#
# Youngs Moduli (GPa) = 31.68887 55.40736 87.09906
#
# Poissons Ratio (x) = 0.13026 0.76897
# Poissons Ratio (y) = 0.07450 0.40761
# Poissons Ratio (z) = 0.27977 0.25930
#
# Static dielectric constant tensor:
#      x y z
#    x 1.649790 0.000000 0.000000 
#    y 0.000000 1.623410 0.000000 
#    z 0.000000 0.000000 1.618950 
# 
# From -- ./inp_files/17888.got.cif
#   From: 2010.05.17/outbox.cif.g08.bks.cpg/sg51_9_cif.got.tgz:17888.got - 2010.06.03 11:52:47.
