data_PCOD9407020
_publ_section_title
;
Structure prediction by ZEFSAII (Michael W. Deem and Ramdas Pophale) SiO2 
 PCOD9407020
Probable space group: P M M A
;
_chemical_formula_sum "Si O2"
_cell_formula_units_Z 40
_cell_length_a 8.515420
_cell_length_b 27.497344
_cell_length_c 9.276244
_cell_angle_alpha 90.000000
_cell_angle_beta 90.000000
_cell_angle_gamma 90.000000
_cell_volume 2172.045826
_symmetry_space_group_name_H-M "P M M A"
_symmetry_group_IT_number 51
_symmetry_cell_setting 'orthorhombic'
loop_
_space_group_symop_operation_xyz
x,y,z
1/2-x,-y,z
1/2+x,-y,-z
-x,y,-z
-x,-y,-z
1/2+x,y,-z
1/2-x,y,z
x,-y,z
loop_
_atom_site_type_symbol
_atom_site_label
_atom_site_fract_x
_atom_site_fract_y
_atom_site_fract_z
Si Si1 0.439784 0.947785 0.335060
Si Si2 0.438617 0.746846 0.161937
Si Si3 0.561657 0.447067 0.664892
Si Si4 0.939944 0.158274 0.663794
Si Si5 0.436830 0.345423 0.663882
O O1 0.500000 0.947836 0.500000
O O2 0.250000 0.947912 0.335864
O O3 0.490051 0.895002 0.276471
O O4 0.491535 0.000000 0.270373
O O5 0.250000 0.746331 0.162440
O O6 0.493220 0.796031 0.242462
O O7 0.499060 0.699740 0.246499
O O8 0.500000 0.746295 0.000000
O O9 0.500000 0.447959 0.500000
O O10 0.750000 0.443553 0.662699
O O11 0.518184 0.500000 0.729008
O O12 0.492459 0.397415 0.727573
O O13 0.750000 0.158968 0.659897
O O14 0.000000 0.162934 0.500000
O O15 0.500000 0.341900 0.500000
O O16 0.250000 0.344492 0.659616
#
# Coordination Sequence:
#
# PCOD9407020 Si02
#       5
#     8   8   8   8   8
#     4   8  13  23  41  67  97 125 154 192 240 291
#     4  11  23  38  53  71  98 132 172 214 259 308
#     4   9  16  27  46  74 106 136 166 203 247 293
#     4   9  18  31  50  75 100 128 163 204 248 297
#     4  11  21  34  54  79 106 136 171 210 252 298
#
# _framework density 18.41582
#
# number of rings (size 3 to 8) (size 9 to 14) (size 15 to 20)
#    0.000    2.400    0.000    4.800    0.000    4.400 
#    0.000    0.000    0.000    1.200    0.000    0.000 
#    0.000    0.000    0.000    0.000    0.000    0.200 
#
# Total GULP energy -222859.806436 kJ/mol
# GULP energy per Si atom -5571.495161 kJ/mol
# Density = 1.837390 g / cm^3
# Si number density = 18.415820 Si / 1000 Ang^3
#
#
#
# Elastic Constant Matrix: (Units=GPa)
#
#
# Indices 1 2 3 4 5 6 
#
# 1 61.2657 48.3575 17.4250 0.0000 0.0000 0.0000
# 2 48.3575 250.0898 69.6907 0.0000 0.0000 0.0000
# 3 17.4250 69.6907 53.7415 0.0000 0.0000 0.0000
# 4 0.0000 0.0000 0.0000 -5.2146 0.0000 0.0000
# 5 0.0000 0.0000 0.0000 0.0000 19.4224 0.0000
# 6 0.0000 0.0000 0.0000 0.0000 0.0000 18.8384
#
#
#
# Elastic Compliance Matrix: (Units=1/GPa)
#
#
# Indices 1 2 3 4 5 6 
#
# 1 0.019432 -0.003134 -0.002236 0.000000 0.000000 0.000000
# 2 -0.003134 0.006767 -0.007759 0.000000 0.000000 0.000000
# 3 -0.002236 -0.007759 0.029394 0.000000 0.000000 0.000000
# 4 0.000000 0.000000 0.000000 -0.191770 0.000000 0.000000
# 5 0.000000 0.000000 0.000000 0.000000 0.051487 0.000000
# 6 0.000000 0.000000 0.000000 0.000000 0.000000 0.053083
#
#
# Mechanical properties :
#
#
# Convention : Reuss Voigt Hill
#
# Bulk Modulus (GPa) = 34.08943 70.67147 52.38045
# Shear Modulus (GPa) = 1128.98862 21.91751 575.45306
#
# Velocity S-wave (km/s) = 24.78678 3.45359 17.69621
# Velocity P-wave (km/s) = 28.94358 7.37304 21.11981
#
# Compressibility (1/GPa) = 0.02933461
#
# Stress axis : x y z
#
# Youngs Moduli (GPa) = 51.46078 147.78407 34.02085
#
# Poissons Ratio (x) = 0.46320 0.07608
# Poissons Ratio (y) = 0.16129 0.26395
# Poissons Ratio (z) = 0.11508 1.14659
#
# Static dielectric constant tensor:
#      x y z
#    x 1.617440 0.000000 0.000000 
#    y 0.000000 1.718920 0.000000 
#    z 0.000000 0.000000 1.580190 
# 
# From -- ./inp_files/5466.got.cif
#   From: 2010.05.17/outbox.cif.g08.bks.cpg/sg51_3_cif.got.tgz:5466.got - 2010.06.03 11:52:47.
