data_PCOD9407886
_publ_section_title
;
Structure prediction by ZEFSAII (Michael W. Deem and Ramdas Pophale) SiO2 
 PCOD9407886
Probable space group: P N N A
;
_chemical_formula_sum "Si O2"
_cell_formula_units_Z 48
_cell_length_a 11.501589
_cell_length_b 22.306105
_cell_length_c 7.190687
_cell_angle_alpha 90.000000
_cell_angle_beta 90.000000
_cell_angle_gamma 90.000000
_cell_volume 1844.811391
_symmetry_space_group_name_H-M "P N N A"
_symmetry_group_IT_number 52
_symmetry_cell_setting 'orthorhombic'
loop_
_space_group_symop_operation_xyz
x,y,z
1/2-x,-y,z
x,1/2-y,1/2-z
1/2-x,1/2+y,1/2-z
-x,-y,-z
1/2+x,y,-z
-x,1/2+y,1/2+z
1/2+x,1/2-y,1/2+z
loop_
_atom_site_type_symbol
_atom_site_label
_atom_site_fract_x
_atom_site_fract_y
_atom_site_fract_z
Si Si1 0.534383 0.683618 0.887891
Si Si2 0.476316 0.889292 0.230418
Si Si3 0.816941 0.876348 0.263939
Si Si4 0.716159 0.593650 0.827786
Si Si5 0.000767 0.017104 0.720245
Si Si6 0.872519 0.297299 0.420100
O O1 0.404879 0.678201 0.811302
O O2 0.635366 0.649798 0.776844
O O3 0.515867 0.640072 0.072049
O O4 0.587729 0.747147 0.934937
O O5 0.340667 0.902210 0.236592
O O6 0.511360 0.837237 0.094243
O O7 0.530754 0.953878 0.186073
O O8 0.748453 0.899363 0.450694
O O9 0.727027 0.847748 0.117213
O O10 0.905436 0.932079 0.226160
O O11 0.632077 0.540022 0.765173
O O12 0.000000 0.000000 0.500000
O O13 0.852130 0.250000 0.250000
#
# Coordination Sequence:
#
# PCOD9407886 Si02
#       6
#     8   8   8   8   8   8
#     4   9  18  30  46  65  92 135 172 198 242 297
#     4  10  18  25  42  67  96 133 155 190 249 308
#     4  10  18  28  45  70  97 131 166 200 253 300
#     4  10  16  26  41  64  93 132 159 190 251 306
#     4  11  17  24  40  68 100 126 153 193 248 330
#     4  10  18  32  45  64  96 137 173 205 237 303
#
# _framework density 26.018922
#
# number of rings (size 3 to 8) (size 9 to 14) (size 15 to 20)
#    0.000    2.000    8.333    0.500    0.000    2.000 
#    0.000    0.000    0.000   24.000    0.000    0.000 
#    0.000   12.000    0.333   11.167    0.667    0.667 
#
# Total GULP energy -267958.459065 kJ/mol
# GULP energy per Si atom -5582.467897 kJ/mol
# Density = 2.595970 g / cm^3
# Si number density = 26.018922 Si / 1000 Ang^3
#
#
#
# Elastic Constant Matrix: (Units=GPa)
#
#
# Indices 1 2 3 4 5 6 
#
# 1 157.2195 67.7272 40.1520 0.0000 0.0000 0.0000
# 2 67.7272 208.7181 40.5279 0.0000 0.0000 0.0000
# 3 40.1520 40.5279 78.0965 0.0000 0.0000 0.0000
# 4 0.0000 0.0000 0.0000 27.9944 0.0000 0.0000
# 5 0.0000 0.0000 0.0000 0.0000 238.4519 0.0000
# 6 0.0000 0.0000 0.0000 0.0000 0.0000 48.2825
#
#
#
# Elastic Compliance Matrix: (Units=1/GPa)
#
#
# Indices 1 2 3 4 5 6 
#
# 1 0.008009 -0.002001 -0.003079 0.000000 0.000000 0.000000
# 2 -0.002001 0.005828 -0.001996 0.000000 0.000000 0.000000
# 3 -0.003079 -0.001996 0.015423 0.000000 0.000000 0.000000
# 4 0.000000 0.000000 0.000000 0.035721 0.000000 0.000000
# 5 0.000000 0.000000 0.000000 0.000000 0.004194 0.000000
# 6 0.000000 0.000000 0.000000 0.000000 0.000000 0.020711
#
#
# Mechanical properties :
#
#
# Convention : Reuss Voigt Hill
#
# Bulk Modulus (GPa) = 66.18738 82.31650 74.25194
# Shear Modulus (GPa) = 45.84010 82.65422 64.24716
#
# Velocity S-wave (km/s) = 4.20193 5.64233 4.97454
# Velocity P-wave (km/s) = 7.00250 8.61126 7.84821
#
# Compressibility (1/GPa) = 0.01510862
#
# Stress axis : x y z
#
# Youngs Moduli (GPa) = 124.86114 171.58750 64.83627
#
# Poissons Ratio (x) = 0.34333 0.19965
# Poissons Ratio (y) = 0.24983 0.12939
# Poissons Ratio (z) = 0.38448 0.34243
#
# Static dielectric constant tensor:
#      x y z
#    x 1.985030 0.000000 0.000000 
#    y 0.000000 1.717850 0.000000 
#    z 0.000000 0.000000 2.297410 
# 
# From -- ./inp_files/18299.got.cif
#   From: 2010.05.17/outbox.cif.g08.bks.cpg/sg52_10_cif.got.tgz:18299.got - 2010.06.03 12:15:38.
