data_PCOD9407969
_publ_section_title
;
Structure prediction by ZEFSAII (Michael W. Deem and Ramdas Pophale) SiO2 
 PCOD9407969
Probable space group: P N N A
;
_chemical_formula_sum "Si O2"
_cell_formula_units_Z 60
_cell_length_a 29.835147
_cell_length_b 9.108003
_cell_length_c 10.802365
_cell_angle_alpha 90.000000
_cell_angle_beta 90.000000
_cell_angle_gamma 90.000000
_cell_volume 2935.419632
_symmetry_space_group_name_H-M "P N N A"
_symmetry_group_IT_number 52
_symmetry_cell_setting 'orthorhombic'
loop_
_space_group_symop_operation_xyz
x,y,z
1/2-x,-y,z
x,1/2-y,1/2-z
1/2-x,1/2+y,1/2-z
-x,-y,-z
1/2+x,y,-z
-x,1/2+y,1/2+z
1/2+x,1/2-y,1/2+z
loop_
_atom_site_type_symbol
_atom_site_label
_atom_site_fract_x
_atom_site_fract_y
_atom_site_fract_z
Si Si1 0.987669 0.481969 0.801322
Si Si2 0.276756 0.844947 0.125390
Si Si3 0.379613 0.791795 0.117321
Si Si4 0.053193 0.835303 0.549305
Si Si5 0.440351 0.750000 0.750000
Si Si6 0.051165 0.981728 0.045298
Si Si7 0.775595 0.653858 0.128238
Si Si8 0.375169 0.573734 0.917137
O O1 0.951217 0.479226 0.694670
O O2 0.013475 0.626337 0.852414
O O3 0.026285 0.385555 0.735640
O O4 0.967291 0.402311 0.921857
O O5 0.265349 0.750000 0.250000
O O6 0.330922 0.867605 0.130608
O O7 0.250000 0.000000 0.123268
O O8 0.269377 0.751376 0.997567
O O9 0.399403 0.750000 0.250000
O O10 0.412538 0.890084 0.033874
O O11 0.370867 0.633429 0.055719
O O12 0.064490 0.667765 0.522389
O O13 0.098353 0.921214 0.586257
O O14 0.408559 0.687006 0.853333
O O15 0.000000 0.000000 0.000000
O O16 0.750000 0.500000 0.118279
O O17 0.763718 0.750000 0.250000
O O18 0.827073 0.599498 0.141793
#
# Coordination Sequence:
#
# PCOD9407969 Si02
#       8
#     8   8   8   8   4   8   8   8
#     4  10  20  35  57  78 114 156 214 245 306 354
#     4  10  22  44  70 101 134 174 218 274 346 414
#     4  10  23  38  59  88 123 161 206 261 322 386
#     4  10  22  37  57  83 112 162 211 256 300 376
#     4  10  16  34  60  80 110 164 202 258 292 372
#     4  12  24  35  55  86 123 160 206 268 315 358
#     4  11  23  42  70 101 131 172 216 272 341 410
#     4  10  21  39  62  84 118 162 210 246 319 389
#
# _framework density 20.440009
#
# number of rings (size 3 to 8) (size 9 to 14) (size 15 to 20)
#    0.000    1.600    2.000    2.400    5.600    1.067 
#    0.000    1.333    0.000    0.000    0.000    0.000 
#    0.000    0.000    0.000    0.000    0.000    0.000 
#
# Total GULP energy -334209.286232 kJ/mol
# GULP energy per Si atom -5570.154771 kJ/mol
# Density = 2.039349 g / cm^3
# Si number density = 20.440009 Si / 1000 Ang^3
#
#
#
# Elastic Constant Matrix: (Units=GPa)
#
#
# Indices 1 2 3 4 5 6 
#
# 1 75.7610 59.1919 10.0057 0.0000 0.0000 0.0000
# 2 59.1919 143.3789 57.0498 0.0000 0.0000 0.0000
# 3 10.0057 57.0498 81.5317 0.0000 0.0000 0.0000
# 4 0.0000 0.0000 0.0000 28.1235 0.0000 0.0000
# 5 0.0000 0.0000 0.0000 0.0000 19.4957 0.0000
# 6 0.0000 0.0000 0.0000 0.0000 0.0000 -47.0196
#
#
#
# Elastic Compliance Matrix: (Units=1/GPa)
#
#
# Indices 1 2 3 4 5 6 
#
# 1 0.020745 -0.010465 0.004777 0.000000 0.000000 0.000000
# 2 -0.010465 0.014945 -0.009173 0.000000 0.000000 0.000000
# 3 0.004777 -0.009173 0.018097 0.000000 0.000000 0.000000
# 4 0.000000 0.000000 0.000000 0.035557 0.000000 0.000000
# 5 0.000000 0.000000 0.000000 0.000000 0.051293 0.000000
# 6 0.000000 0.000000 0.000000 0.000000 0.000000 -0.021268
#
#
# Mechanical properties :
#
#
# Convention : Reuss Voigt Hill
#
# Bulk Modulus (GPa) = 41.55461 61.46295 51.50878
# Shear Modulus (GPa) = 31.82420 11.74819 21.78619
#
# Velocity S-wave (km/s) = 3.95011 2.40003 3.26829
# Velocity P-wave (km/s) = 6.41706 6.14942 6.28466
#
# Compressibility (1/GPa) = 0.02406472
#
# Stress axis : x y z
#
# Youngs Moduli (GPa) = 48.20538 66.91410 55.25641
#
# Poissons Ratio (x) = 0.70023 -0.26394
# Poissons Ratio (y) = 0.50445 0.50686
# Poissons Ratio (z) = -0.23026 0.61379
#
# Static dielectric constant tensor:
#      x y z
#    x 1.640930 0.000000 0.000000 
#    y 0.000000 1.750680 0.000000 
#    z 0.000000 0.000000 1.781950 
# 
# From -- ./inp_files/22916.got.cif
#   From: 2010.05.17/outbox.cif.g08.bks.cpg/sg52_12_cif.got.tgz:22916.got - 2010.06.03 12:15:38.
