data_PCOD9407047
_publ_section_title
;
Structure prediction by ZEFSAII (Michael W. Deem and Ramdas Pophale) SiO2 
 PCOD9407047
Probable space group: P M M A
;
_chemical_formula_sum "Si O2"
_cell_formula_units_Z 56
_cell_length_a 15.365362
_cell_length_b 18.161959
_cell_length_c 9.671366
_cell_angle_alpha 90.000000
_cell_angle_beta 90.000000
_cell_angle_gamma 90.000000
_cell_volume 2698.940475
_symmetry_space_group_name_H-M "P M M A"
_symmetry_group_IT_number 51
_symmetry_cell_setting 'orthorhombic'
loop_
_space_group_symop_operation_xyz
x,y,z
1/2-x,-y,z
1/2+x,-y,-z
-x,y,-z
-x,-y,-z
1/2+x,y,-z
1/2-x,y,z
x,-y,z
loop_
_atom_site_type_symbol
_atom_site_label
_atom_site_fract_x
_atom_site_fract_y
_atom_site_fract_z
Si Si1 0.350550 0.828289 0.336690
Si Si2 0.395019 0.580214 0.477749
Si Si3 0.615349 0.679566 0.279380
Si Si4 0.496402 0.087962 0.161947
Si Si5 0.350907 0.415512 0.982436
Si Si6 0.410581 0.327492 0.230835
Si Si7 0.151833 0.157232 0.664462
O O1 0.250000 0.851084 0.322342
O O2 0.415710 0.876244 0.243919
O O3 0.360728 0.745206 0.278890
O O4 0.372743 0.833813 0.501165
O O5 0.500000 0.577989 0.500000
O O6 0.360549 0.500000 0.513116
O O7 0.361542 0.645229 0.573092
O O8 0.379544 0.603061 0.321449
O O9 0.511233 0.687190 0.265602
O O10 0.652411 0.760907 0.270111
O O11 0.643750 0.618533 0.169880
O O12 0.582111 0.111702 0.247695
O O13 0.488447 0.000000 0.162703
O O14 0.500000 0.112326 0.000000
O O15 0.250000 0.416315 0.025349
O O16 0.383951 0.500000 0.987764
O O17 0.400010 0.356032 0.076450
O O18 0.250000 0.126766 0.670482
#
# Coordination Sequence:
#
# PCOD9407047 Si02
#       7
#     8   8   8   8   8   8   8
#     4  11  24  43  71 105 141 182 228 278 334 401
#     4   9  18  32  55  87 121 161 215 276 329 376
#     4  11  21  37  63  91 125 170 224 278 329 391
#     4  11  27  49  75 107 140 177 218 267 336 409
#     4  11  25  41  55  83 131 180 229 285 343 403
#     4  11  21  37  63  91 125 170 224 278 329 391
#     4  11  24  43  71 105 141 182 228 278 334 401
#
# _framework density 20.748881999999998
#
# number of rings (size 3 to 8) (size 9 to 14) (size 15 to 20)
#    0.000    1.286    2.857    2.571    2.000    4.571 
#    0.000    2.857    0.000    3.429    0.000    0.000 
#    0.000    0.000    0.000    0.000    0.000    0.000 
#
# Total GULP energy -312826.087880 kJ/mol
# GULP energy per Si atom -5586.180141 kJ/mol
# Density = 2.070166 g / cm^3
# Si number density = 20.748882 Si / 1000 Ang^3
#
#
#
# Elastic Constant Matrix: (Units=GPa)
#
#
# Indices 1 2 3 4 5 6 
#
# 1 103.1500 28.1545 40.9253 0.0000 0.0000 0.0000
# 2 28.1545 82.3243 31.4373 0.0000 0.0000 0.0000
# 3 40.9253 31.4373 102.2486 0.0000 0.0000 0.0000
# 4 0.0000 0.0000 0.0000 35.8812 0.0000 0.0000
# 5 0.0000 0.0000 0.0000 0.0000 21.5248 0.0000
# 6 0.0000 0.0000 0.0000 0.0000 0.0000 26.5593
#
#
#
# Elastic Compliance Matrix: (Units=1/GPa)
#
#
# Indices 1 2 3 4 5 6 
#
# 1 0.011986 -0.002569 -0.004008 0.000000 0.000000 0.000000
# 2 -0.002569 0.014314 -0.003373 0.000000 0.000000 0.000000
# 3 -0.004008 -0.003373 0.012421 0.000000 0.000000 0.000000
# 4 0.000000 0.000000 0.000000 0.027870 0.000000 0.000000
# 5 0.000000 0.000000 0.000000 0.000000 0.046458 0.000000
# 6 0.000000 0.000000 0.000000 0.000000 0.000000 0.037652
#
#
# Mechanical properties :
#
#
# Convention : Reuss Voigt Hill
#
# Bulk Modulus (GPa) = 53.12805 54.30633 53.71719
# Shear Modulus (GPa) = 28.26907 29.27344 28.77125
#
# Velocity S-wave (km/s) = 3.69513 3.76020 3.72780
# Velocity P-wave (km/s) = 6.62315 6.71432 6.66889
#
# Compressibility (1/GPa) = 0.01882245
#
# Stress axis : x y z
#
# Youngs Moduli (GPa) = 83.43235 69.86409 80.50826
#
# Poissons Ratio (x) = 0.17946 0.32264
# Poissons Ratio (y) = 0.21431 0.27153
# Poissons Ratio (z) = 0.33436 0.23563
#
# Static dielectric constant tensor:
#      x y z
#    x 1.782580 0.000000 0.000000 
#    y 0.000000 1.693420 0.000000 
#    z 0.000000 0.000000 1.725460 
# 
# From -- ./inp_files/8582.got.cif
#   From: 2010.05.17/outbox.cif.g08.bks.cpg/sg51_5_cif.got.tgz:8582.got - 2010.06.03 11:52:47.
