data_PCOD9407736
_publ_section_title
;
Structure prediction by ZEFSAII (Michael W. Deem and Ramdas Pophale) SiO2 
 PCOD9407736
Probable space group: P M M A
;
_chemical_formula_sum "Si O2"
_cell_formula_units_Z 48
_cell_length_a 18.000000
_cell_length_b 9.000000
_cell_length_c 15.000000
_cell_angle_alpha 90.000000
_cell_angle_beta 90.000000
_cell_angle_gamma 90.000000
_cell_volume 2430.000000
_symmetry_space_group_name_H-M "P M M A"
_symmetry_group_IT_number 51
_symmetry_cell_setting 'orthorhombic'
loop_
_space_group_symop_operation_xyz
x,y,z
1/2-x,-y,z
1/2+x,-y,-z
-x,y,-z
-x,-y,-z
1/2+x,y,-z
1/2-x,y,z
x,-y,z
loop_
_atom_site_type_symbol
_atom_site_label
_atom_site_fract_x
_atom_site_fract_y
_atom_site_fract_z
Si Si1 0.335986 0.179511 0.723130
Si Si2 0.414119 0.675916 0.887684
Si Si3 0.661310 0.664701 0.578140
Si Si4 0.338978 0.165678 0.253004
Si Si5 0.070551 0.824971 0.556637
Si Si6 0.411413 0.324091 0.095475
O O1 0.250000 0.227606 0.705424
O O2 0.364328 0.234333 0.818820
O O3 0.397819 0.233500 0.650884
O O4 0.335810 0.000000 0.719731
O O5 0.402744 0.500000 0.872751
O O6 0.502480 0.705042 0.879417
O O7 0.398081 0.706726 0.991463
O O8 0.750000 0.657180 0.581928
O O9 0.633627 0.500000 0.554006
O O10 0.632468 0.717899 0.673980
O O11 0.638269 0.790080 0.509123
O O12 0.250000 0.161072 0.260092
O O13 0.361284 0.223217 0.157031
O O14 0.368028 0.000000 0.270921
O O15 0.000000 0.763712 0.500000
O O16 0.056745 0.000000 0.568543
O O17 0.397677 0.500000 0.109867
#
# Coordination Sequence:
#
# PCOD9407736 Si02
#       6
#     8   8   8   8   8   8
#     4  10  22  39  58  83 118 156 192 236 290 345
#     4   9  20  38  59  83 112 149 190 234 286 341
#     4  10  21  37  57  82 113 149 188 232 283 337
#     4  10  21  35  54  82 114 149 187 229 280 338
#     4  10  22  39  59  85 115 149 191 239 289 342
#     4   9  19  37  58  82 114 149 188 236 288 338
#
# _framework density 19.753086
#
# number of rings (size 3 to 8) (size 9 to 14) (size 15 to 20)
#    0.000    2.333    0.000    2.500    2.333    6.000 
#    0.000    5.000    0.000    0.000    0.000    0.000 
#    0.000    0.000    0.000    0.000    0.000    0.000 
#
# Total GULP energy -267491.030217 kJ/mol
# GULP energy per Si atom -5572.729796 kJ/mol
# Density = 1.970813 g / cm^3
# Si number density = 19.753086 Si / 1000 Ang^3
#
#
#
# Elastic Constant Matrix: (Units=GPa)
#
#
# Indices 1 2 3 4 5 6 
#
# 1 32.1576 5.1792 25.2873 0.0000 0.0000 0.0000
# 2 5.1792 -28.8739 -3.7802 0.0000 0.0000 0.0000
# 3 25.2873 -3.7802 51.9772 0.0000 0.0000 0.0000
# 4 0.0000 0.0000 0.0000 40.0536 0.0000 0.0000
# 5 0.0000 0.0000 0.0000 0.0000 14.9038 0.0000
# 6 0.0000 0.0000 0.0000 0.0000 0.0000 27.0561
#
#
#
# Elastic Compliance Matrix: (Units=1/GPa)
#
#
# Indices 1 2 3 4 5 6 
#
# 1 0.046415 0.011175 -0.021768 0.000000 0.000000 0.000000
# 2 0.011175 -0.031616 -0.007736 0.000000 0.000000 0.000000
# 3 -0.021768 -0.007736 0.029267 0.000000 0.000000 0.000000
# 4 0.000000 0.000000 0.000000 0.024967 0.000000 0.000000
# 5 0.000000 0.000000 0.000000 0.000000 0.067097 0.000000
# 6 0.000000 0.000000 0.000000 0.000000 0.000000 0.036960
#
#
# Mechanical properties :
#
#
# Convention : Reuss Voigt Hill
#
# Bulk Modulus (GPa) = 135.00195 12.07038 73.53617
# Shear Modulus (GPa) = 23.56076 18.30768 20.93422
#
# Velocity S-wave (km/s) = 3.45739 3.04769 3.25898
# Velocity P-wave (km/s) = 9.18864 4.30214 7.17424
#
# Compressibility (1/GPa) = 0.00740730
#
# Stress axis : x y z
#
# Youngs Moduli (GPa) = 21.54489 -31.62961 34.16809
#
# Poissons Ratio (x) = 0.35347 0.74378
# Poissons Ratio (y) = -0.24077 0.26434
# Poissons Ratio (z) = 0.46900 -0.24470
#
# Static dielectric constant tensor:
#      x y z
#    x 1.717110 0.000000 0.000000 
#    y 0.000000 1.689520 0.000000 
#    z 0.000000 0.000000 1.703110 
# 
# From -- ./inp_files/24682.got.cif
#   From: 2010.05.17/outbox.ucp.g08.bks.cvg/sg51_13_cif.got.tgz:24682.got - 2010.06.11 16:27:58.
