data_PCOD9407049
_publ_section_title
;
Structure prediction by ZEFSAII (Michael W. Deem and Ramdas Pophale) SiO2 
 PCOD9407049
Probable space group: P M M A
;
_chemical_formula_sum "Si O2"
_cell_formula_units_Z 56
_cell_length_a 10.014606
_cell_length_b 14.740634
_cell_length_c 22.346123
_cell_angle_alpha 90.000000
_cell_angle_beta 90.000000
_cell_angle_gamma 90.000000
_cell_volume 3298.771363
_symmetry_space_group_name_H-M "P M M A"
_symmetry_group_IT_number 51
_symmetry_cell_setting 'orthorhombic'
loop_
_space_group_symop_operation_xyz
x,y,z
1/2-x,-y,z
1/2+x,-y,-z
-x,y,-z
-x,-y,-z
1/2+x,y,-z
1/2-x,y,z
x,-y,z
loop_
_atom_site_type_symbol
_atom_site_label
_atom_site_fract_x
_atom_site_fract_y
_atom_site_fract_z
Si Si1 0.903438 0.761943 0.258803
Si Si2 0.099698 0.396277 0.263029
Si Si3 0.978893 0.213298 0.394436
Si Si4 0.095211 0.891208 0.189175
Si Si5 0.595731 0.600950 0.591330
Si Si6 0.750000 0.895006 0.602382
Si Si7 0.901575 0.889671 0.948416
Si Si8 0.250000 0.103766 0.541214
O O1 0.750000 0.761438 0.239341
O O2 0.985497 0.671382 0.242165
O O3 0.909434 0.769498 0.330754
O O4 0.988922 0.843574 0.231303
O O5 0.250000 0.366977 0.245747
O O6 0.079883 0.500000 0.243640
O O7 0.097566 0.397065 0.335822
O O8 0.012737 0.310047 0.424820
O O9 0.117136 0.160366 0.380728
O O10 0.881288 0.154057 0.434940
O O11 0.250000 0.867233 0.203256
O O12 0.067446 0.864254 0.120046
O O13 0.085583 0.000000 0.193385
O O14 0.750000 0.610445 0.571608
O O15 0.547562 0.500000 0.573641
O O16 0.750000 0.897101 0.530274
O O17 0.750000 0.000000 0.624039
O O18 0.750000 0.862008 0.961457
O O19 0.904596 0.000000 0.949082
O O20 0.000000 0.856898 0.000000
O O21 0.250000 0.000000 0.562896
#
# Coordination Sequence:
#
# PCOD9407049 Si02
#       8
#     8   8   8   8   8   4   8   4
#     4  11  22  33  47  74 107 134 159 198 255 306
#     4   8  15  29  51  74  96 126 163 199 236 287
#     4  11  21  38  56  79  99 127 164 204 256 308
#     4   9  19  33  47  66  97 138 178 212 244 288
#     4   8  14  28  53  80 101 123 153 190 235 295
#     4  11  24  40  61  77  87 125 177 213 248 295
#     4   8  14  26  44  65  89 123 169 214 251 286
#     4  11  24  42  57  73 103 127 159 217 262 291
#
# _framework density 16.976018
#
# number of rings (size 3 to 8) (size 9 to 14) (size 15 to 20)
#    0.000    2.571    1.429    3.000    2.000    3.429 
#    0.000    1.786    0.000    2.571    0.000    0.000 
#    0.000    0.571    0.000    1.857    0.000    2.286 
#
# Total GULP energy -312233.683436 kJ/mol
# GULP energy per Si atom -5575.601490 kJ/mol
# Density = 1.693738 g / cm^3
# Si number density = 16.976018 Si / 1000 Ang^3
#
#
#
# Elastic Constant Matrix: (Units=GPa)
#
#
# Indices 1 2 3 4 5 6 
#
# 1 110.6599 54.5660 24.7498 0.0000 0.0000 0.0000
# 2 54.5660 103.2315 11.1335 0.0000 0.0000 0.0000
# 3 24.7498 11.1335 31.9486 0.0000 0.0000 0.0000
# 4 0.0000 0.0000 0.0000 -86.9461 0.0000 0.0000
# 5 0.0000 0.0000 0.0000 0.0000 24.1575 0.0000
# 6 0.0000 0.0000 0.0000 0.0000 0.0000 24.1091
#
#
#
# Elastic Compliance Matrix: (Units=1/GPa)
#
#
# Indices 1 2 3 4 5 6 
#
# 1 0.014236 -0.006583 -0.008734 0.000000 0.000000 0.000000
# 2 -0.006583 0.013109 0.000531 0.000000 0.000000 0.000000
# 3 -0.008734 0.000531 0.037882 0.000000 0.000000 0.000000
# 4 0.000000 0.000000 0.000000 -0.011501 0.000000 0.000000
# 5 0.000000 0.000000 0.000000 0.000000 0.041395 0.000000
# 6 0.000000 0.000000 0.000000 0.000000 0.000000 0.041478
#
#
# Mechanical properties :
#
#
# Convention : Reuss Voigt Hill
#
# Bulk Modulus (GPa) = 28.04665 47.41539 37.73102
# Shear Modulus (GPa) = 28.08107 2.62349 15.35228
#
# Velocity S-wave (km/s) = 4.07155 1.24449 3.01051
# Velocity P-wave (km/s) = 6.21776 5.48238 5.86161
#
# Compressibility (1/GPa) = 0.03565488
#
# Stress axis : x y z
#
# Youngs Moduli (GPa) = 70.24317 76.28181 26.39811
#
# Poissons Ratio (x) = 0.50216 0.23057
# Poissons Ratio (y) = 0.46241 -0.01403
# Poissons Ratio (z) = 0.61353 -0.04053
#
# Static dielectric constant tensor:
#      x y z
#    x 1.473570 0.000000 0.000000 
#    y 0.000000 1.592630 0.000000 
#    z 0.000000 0.000000 1.572550 
# 
# From -- ./inp_files/32119.got.cif
#   From: 2010.05.17/outbox.cif.g08.bks.cpg/sg51_17_cif.got.tgz:32119.got - 2010.06.03 11:52:47.
