data_PCOD9407929
_publ_section_title
;
Structure prediction by ZEFSAII (Michael W. Deem and Ramdas Pophale) SiO2 
 PCOD9407929
Probable space group: P N N A
;
_chemical_formula_sum "Si O2"
_cell_formula_units_Z 32
_cell_length_a 22.648873
_cell_length_b 7.703491
_cell_length_c 7.400202
_cell_angle_alpha 90.000000
_cell_angle_beta 90.000000
_cell_angle_gamma 90.000000
_cell_volume 1291.153125
_symmetry_space_group_name_H-M "P N N A"
_symmetry_group_IT_number 52
_symmetry_cell_setting 'orthorhombic'
loop_
_space_group_symop_operation_xyz
x,y,z
1/2-x,-y,z
x,1/2-y,1/2-z
1/2-x,1/2+y,1/2-z
-x,-y,-z
1/2+x,y,-z
-x,1/2+y,1/2+z
1/2+x,1/2-y,1/2+z
loop_
_atom_site_type_symbol
_atom_site_label
_atom_site_fract_x
_atom_site_fract_y
_atom_site_fract_z
Si Si1 0.124196 0.977251 0.347274
Si Si2 0.187567 0.250000 0.750000
Si Si3 0.592263 0.354303 0.486590
Si Si4 0.250000 0.000000 0.474367
Si Si5 0.024307 0.694908 0.962392
O O1 0.112434 0.164762 0.441059
O O2 0.099744 0.013606 0.148762
O O3 0.193794 0.948027 0.355480
O O4 0.088816 0.830838 0.454751
O O5 0.140487 0.389146 0.667069
O O6 0.228308 0.343486 0.896768
O O7 0.523476 0.323205 0.443712
O O8 0.025250 0.750000 0.750000
O O9 0.000000 0.500000 0.000000
#
# Coordination Sequence:
#
# PCOD9407929 Si02
#       5
#     8   4   8   4   8
#     4   9  18  33  58  85 117 163 223 267 331 411
#     4  10  22  38  60  86 130 170 220 278 344 408
#     4   9  17  35  56  84 118 165 206 275 348 392
#     4  10  22  38  58  92 118 174 216 268 336 408
#     4  10  16  30  58  89 115 162 223 277 341 411
#
# _framework density 24.784047000000001
#
# number of rings (size 3 to 8) (size 9 to 14) (size 15 to 20)
#    0.000    2.500    5.000    0.000    1.750    1.000 
#    0.000    1.250    0.000    6.000    0.000    0.000 
#    0.000    0.000    0.000    0.000    0.000    0.000 
#
# Total GULP energy -178793.823152 kJ/mol
# GULP energy per Si atom -5587.306973 kJ/mol
# Density = 2.472764 g / cm^3
# Si number density = 24.784047 Si / 1000 Ang^3
#
#
#
# Elastic Constant Matrix: (Units=GPa)
#
#
# Indices 1 2 3 4 5 6 
#
# 1 226.9049 42.5410 45.0415 0.0000 0.0000 0.0000
# 2 42.5410 116.9471 38.2248 0.0000 0.0000 0.0000
# 3 45.0415 38.2248 117.3864 0.0000 0.0000 0.0000
# 4 0.0000 0.0000 0.0000 35.7428 0.0000 0.0000
# 5 0.0000 0.0000 0.0000 0.0000 -70.3193 0.0000
# 6 0.0000 0.0000 0.0000 0.0000 0.0000 8.5928
#
#
#
# Elastic Compliance Matrix: (Units=1/GPa)
#
#
# Indices 1 2 3 4 5 6 
#
# 1 0.004946 -0.001319 -0.001468 0.000000 0.000000 0.000000
# 2 -0.001319 0.009921 -0.002724 0.000000 0.000000 0.000000
# 3 -0.001468 -0.002724 0.009969 0.000000 0.000000 0.000000
# 4 0.000000 0.000000 0.000000 0.027978 0.000000 0.000000
# 5 0.000000 0.000000 0.000000 0.000000 -0.014221 0.000000
# 6 0.000000 0.000000 0.000000 0.000000 0.000000 0.116376
#
#
# Mechanical properties :
#
#
# Convention : Reuss Voigt Hill
#
# Bulk Modulus (GPa) = 72.39681 79.20590 75.80136
# Shear Modulus (GPa) = 29.30873 17.16535 23.23704
#
# Velocity S-wave (km/s) = 3.44257 2.63458 3.06532
# Velocity P-wave (km/s) = 6.71388 6.42514 6.57110
#
# Compressibility (1/GPa) = 0.01381276
#
# Stress axis : x y z
#
# Youngs Moduli (GPa) = 202.18735 100.79340 100.30702
#
# Poissons Ratio (x) = 0.13297 0.14727
# Poissons Ratio (y) = 0.26674 0.27329
# Poissons Ratio (z) = 0.29684 0.27461
#
# Static dielectric constant tensor:
#      x y z
#    x 2.017970 0.000000 0.000000 
#    y 0.000000 1.941220 0.000000 
#    z 0.000000 0.000000 2.043620 
# 
# From -- ./inp_files/12878.got.cif
#   From: 2010.05.17/outbox.cif.g08.bks.cpg/sg52_7_cif.got.tgz:12878.got - 2010.06.03 12:15:38.
