data_PCOD9407412
_publ_section_title
;
Structure prediction by ZEFSAII (Michael W. Deem and Ramdas Pophale) SiO2 
 PCOD9407412
Probable space group: P M M A
;
_chemical_formula_sum "Si O2"
_cell_formula_units_Z 64
_cell_length_a 30.000000
_cell_length_b 9.000000
_cell_length_c 15.000000
_cell_angle_alpha 90.000000
_cell_angle_beta 90.000000
_cell_angle_gamma 90.000000
_cell_volume 4050.000000
_symmetry_space_group_name_H-M "P M M A"
_symmetry_group_IT_number 51
_symmetry_cell_setting 'orthorhombic'
loop_
_space_group_symop_operation_xyz
x,y,z
1/2-x,-y,z
1/2+x,-y,-z
-x,y,-z
-x,-y,-z
1/2+x,y,-z
1/2-x,y,z
x,-y,z
loop_
_atom_site_type_symbol
_atom_site_label
_atom_site_fract_x
_atom_site_fract_y
_atom_site_fract_z
Si Si1 0.934441 0.326285 0.875340
Si Si2 0.300460 0.677024 0.991830
Si Si3 0.035911 0.679367 0.835003
Si Si4 0.626094 0.674947 0.703696
Si Si5 0.801260 0.829501 0.817403
Si Si6 0.066506 0.680895 0.451723
Si Si7 0.889888 0.823896 0.041574
Si Si8 0.028322 0.319282 0.631770
O O1 0.930359 0.500000 0.902403
O O2 0.913668 0.314313 0.776706
O O3 0.986536 0.287185 0.872556
O O4 0.906780 0.228368 0.944077
O O5 0.250000 0.717306 0.963294
O O6 0.305309 0.500000 0.986405
O O7 0.304824 0.728523 0.094638
O O8 0.340929 0.756456 0.942311
O O9 0.040822 0.500000 0.838931
O O10 0.074144 0.756227 0.891178
O O11 0.037477 0.728460 0.731919
O O12 0.637978 0.500000 0.698833
O O13 0.666307 0.768618 0.742533
O O14 0.607547 0.728206 0.608938
O O15 0.750000 0.824535 0.788003
O O16 0.812101 0.000000 0.841703
O O17 0.066862 0.500000 0.450406
O O18 0.062569 0.727656 0.554372
O O19 0.020645 0.725705 0.402579
O O20 0.888618 0.000000 0.046532
O O21 0.027988 0.500000 0.633347
#
# Coordination Sequence:
#
# PCOD9407412 Si02
#       8
#     8   8   8   8   8   8   8   8
#     4  10  19  31  46  67  95 130 168 199 228 274
#     4  10  20  35  54  72  90 116 153 197 242 287
#     4  10  19  32  49  68  94 131 169 203 238 276
#     4  10  17  27  47  72  97 125 158 192 232 279
#     4  10  20  32  46  67  95 125 156 191 233 281
#     4   8  13  23  43  72  97 117 149 193 236 279
#     4  12  24  34  46  67  96 131 164 197 237 281
#     4   8  13  24  44  69  95 120 151 194 239 275
#
# _framework density 15.802469
#
# number of rings (size 3 to 8) (size 9 to 14) (size 15 to 20)
#    0.000    2.250    2.500    3.000    0.000    3.500 
#    0.000    0.000    0.000    0.750    0.000    2.625 
#    0.000    3.000    0.000    0.000    0.000    0.000 
#
# Total GULP energy -356779.322682 kJ/mol
# GULP energy per Si atom -5574.676917 kJ/mol
# Density = 1.576650 g / cm^3
# Si number density = 15.802469 Si / 1000 Ang^3
#
#
#
# Elastic Constant Matrix: (Units=GPa)
#
#
# Indices 1 2 3 4 5 6 
#
# 1 101.5021 41.8082 26.2775 0.0000 0.0000 0.0000
# 2 41.8082 41.2914 15.8696 0.0000 0.0000 0.0000
# 3 26.2775 15.8696 36.0659 0.0000 0.0000 0.0000
# 4 0.0000 0.0000 0.0000 -12.9692 0.0000 0.0000
# 5 0.0000 0.0000 0.0000 0.0000 21.2689 0.0000
# 6 0.0000 0.0000 0.0000 0.0000 0.0000 2.8607
#
#
#
# Elastic Compliance Matrix: (Units=1/GPa)
#
#
# Indices 1 2 3 4 5 6 
#
# 1 0.017956 -0.015829 -0.006117 0.000000 0.000000 0.000000
# 2 -0.015829 0.043102 -0.007432 0.000000 0.000000 0.000000
# 3 -0.006117 -0.007432 0.035454 0.000000 0.000000 0.000000
# 4 0.000000 0.000000 0.000000 -0.077105 0.000000 0.000000
# 5 0.000000 0.000000 0.000000 0.000000 0.047017 0.000000
# 6 0.000000 0.000000 0.000000 0.000000 0.000000 0.349563
#
#
# Mechanical properties :
#
#
# Convention : Reuss Voigt Hill
#
# Bulk Modulus (GPa) = 26.48717 38.52999 32.50858
# Shear Modulus (GPa) = 10.26000 8.55901 9.40951
#
# Velocity S-wave (km/s) = 2.55083 2.32981 2.44282
# Velocity P-wave (km/s) = 5.04712 5.62784 5.34537
#
# Compressibility (1/GPa) = 0.03775413
#
# Stress axis : x y z
#
# Youngs Moduli (GPa) = 55.69241 23.20069 28.20518
#
# Poissons Ratio (x) = 0.36725 0.17254
# Poissons Ratio (y) = 0.88158 0.20963
# Poissons Ratio (z) = 0.34069 0.17244
#
# Static dielectric constant tensor:
#      x y z
#    x 1.535480 0.000000 0.000000 
#    y 0.000000 1.526370 0.000000 
#    z 0.000000 0.000000 1.530900 
# 
# From -- ./inp_files/26689.got.cif
#   From: 2010.05.17/outbox.ucp.g08.bks.cvg/sg51_14_cif.got.tgz:26689.got - 2010.06.11 16:27:58.
