data_PCOD9407787
_publ_section_title
;
Structure prediction by ZEFSAII (Michael W. Deem and Ramdas Pophale) SiO2 
 PCOD9407787
Probable space group: P M M A
;
_chemical_formula_sum "Si O2"
_cell_formula_units_Z 48
_cell_length_a 18.000000
_cell_length_b 9.000000
_cell_length_c 15.000000
_cell_angle_alpha 90.000000
_cell_angle_beta 90.000000
_cell_angle_gamma 90.000000
_cell_volume 2430.000000
_symmetry_space_group_name_H-M "P M M A"
_symmetry_group_IT_number 51
_symmetry_cell_setting 'orthorhombic'
loop_
_space_group_symop_operation_xyz
x,y,z
1/2-x,-y,z
1/2+x,-y,-z
-x,y,-z
-x,-y,-z
1/2+x,y,-z
1/2-x,y,z
x,-y,z
loop_
_atom_site_type_symbol
_atom_site_label
_atom_site_fract_x
_atom_site_fract_y
_atom_site_fract_z
Si Si1 0.911048 0.177816 0.522262
Si Si2 0.901268 0.173844 0.219453
Si Si3 0.417790 0.668696 0.959535
Si Si4 0.250000 0.663676 0.738731
Si Si5 0.750000 0.669024 0.472393
Si Si6 0.663492 0.822022 0.882654
Si Si7 0.056686 0.821456 0.277344
O O1 0.831722 0.251502 0.490386
O O2 0.908050 0.205888 0.627742
O O3 0.000000 0.219004 0.500000
O O4 0.906911 0.000000 0.501592
O O5 0.920833 0.211088 0.118308
O O6 0.824110 0.251833 0.235921
O O7 0.972038 0.235084 0.273837
O O8 0.893063 0.000000 0.236912
O O9 0.400107 0.500000 0.929202
O O10 0.500000 0.664409 0.000000
O O11 0.359507 0.727433 0.031763
O O12 0.250000 0.500000 0.779233
O O13 0.250000 0.654175 0.633186
O O14 0.750000 0.500000 0.511469
O O15 0.750000 0.802144 0.859835
O O16 0.609034 0.772034 0.803061
O O17 0.652260 0.000000 0.898515
O O18 0.050548 0.000000 0.267460
#
# Coordination Sequence:
#
# PCOD9407787 Si02
#       7
#     8   8   8   4   4   8   8
#     4  10  21  39  66  96 126 161 207 261 314 368
#     4  11  22  39  65  91 118 156 205 252 300 357
#     4  11  23  39  58  83 119 161 201 243 301 358
#     4  11  25  43  61  86 125 160 197 249 304 361
#     4  11  25  43  63  92 129 170 205 247 312 381
#     4  10  21  37  59  85 116 155 203 251 299 353
#     4   9  19  36  61  91 119 153 198 253 304 350
#
# _framework density 19.753086
#
# number of rings (size 3 to 8) (size 9 to 14) (size 15 to 20)
#    0.000    1.667    1.667    2.500    2.333    4.000 
#    0.000    2.500    0.000    0.000    0.000    0.000 
#    0.000    0.000    0.000    0.000    0.000    0.000 
#
# Total GULP energy -267330.211524 kJ/mol
# GULP energy per Si atom -5569.379407 kJ/mol
# Density = 1.970813 g / cm^3
# Si number density = 19.753086 Si / 1000 Ang^3
#
#
#
# Elastic Constant Matrix: (Units=GPa)
#
#
# Indices 1 2 3 4 5 6 
#
# 1 145.4130 44.4985 8.1384 0.0000 0.0000 0.0000
# 2 44.4985 53.0511 -5.2054 0.0000 0.0000 0.0000
# 3 8.1384 -5.2054 14.7989 0.0000 0.0000 0.0000
# 4 0.0000 0.0000 0.0000 913.8604 0.0000 0.0000
# 5 0.0000 0.0000 0.0000 0.0000-1571.5426 0.0000
# 6 0.0000 0.0000 0.0000 0.0000 0.0000 31.3086
#
#
#
# Elastic Compliance Matrix: (Units=1/GPa)
#
#
# Indices 1 2 3 4 5 6 
#
# 1 0.010294 -0.009518 -0.009009 0.000000 0.000000 0.000000
# 2 -0.009518 0.028325 0.015198 0.000000 0.000000 0.000000
# 3 -0.009009 0.015198 0.077872 0.000000 0.000000 0.000000
# 4 0.000000 0.000000 0.000000 0.001094 0.000000 0.000000
# 5 0.000000 0.000000 0.000000 0.000000 -0.000636 0.000000
# 6 0.000000 0.000000 0.000000 0.000000 0.000000 0.031940
#
#
# Mechanical properties :
#
#
# Convention : Reuss Voigt Hill
#
# Bulk Modulus (GPa) = 9.10485 34.23622 21.67054
# Shear Modulus (GPa) = 26.02005 -114.21927 -44.09961
#
# Velocity S-wave (km/s) = 3.63335 -7.61243 -4.73011
# Velocity P-wave (km/s) = 4.71392 7.73923 4.34020
#
# Compressibility (1/GPa) = 0.10983159
#
# Stress axis : x y z
#
# Youngs Moduli (GPa) = 97.14451 35.30470 12.84151
#
# Poissons Ratio (x) = 0.33604 0.11569
# Poissons Ratio (y) = 0.92466 -0.19516
# Poissons Ratio (z) = 0.87518 -0.53655
#
# Static dielectric constant tensor:
#      x y z
#    x 1.677470 0.000000 0.000000 
#    y 0.000000 1.694210 0.000000 
#    z 0.000000 0.000000 1.727940 
# 
# From -- ./inp_files/24840.got.cif
#   From: 2010.05.17/outbox.ucp.g08.bks.cvg/sg51_13_cif.got.tgz:24840.got - 2010.06.11 16:27:58.
