data_PCOD9407640
_publ_section_title
;
Structure prediction by ZEFSAII (Michael W. Deem and Ramdas Pophale) SiO2 
 PCOD9407640
Probable space group: P M M A
;
_chemical_formula_sum "Si O2"
_cell_formula_units_Z 52
_cell_length_a 9.000000
_cell_length_b 21.000000
_cell_length_c 15.000000
_cell_angle_alpha 90.000000
_cell_angle_beta 90.000000
_cell_angle_gamma 90.000000
_cell_volume 2835.000000
_symmetry_space_group_name_H-M "P M M A"
_symmetry_group_IT_number 51
_symmetry_cell_setting 'orthorhombic'
loop_
_space_group_symop_operation_xyz
x,y,z
1/2-x,-y,z
1/2+x,-y,-z
-x,y,-z
-x,-y,-z
1/2+x,y,-z
1/2-x,y,z
x,-y,z
loop_
_atom_site_type_symbol
_atom_site_label
_atom_site_fract_x
_atom_site_fract_y
_atom_site_fract_z
Si Si1 0.428218 0.178484 0.402925
Si Si2 0.426223 0.119864 0.095594
Si Si3 0.429193 0.624472 0.777560
Si Si4 0.071778 0.072973 0.725940
Si Si5 0.571005 0.500000 0.100469
Si Si6 0.073471 0.271654 0.095979
Si Si7 0.071128 0.328508 0.401634
O O1 0.500000 0.168026 0.500000
O O2 0.250000 0.170504 0.405743
O O3 0.498169 0.127290 0.335613
O O4 0.457209 0.253157 0.379997
O O5 0.250000 0.106413 0.093767
O O6 0.506672 0.083203 0.175176
O O7 0.444347 0.196033 0.112637
O O8 0.500000 0.105997 0.000000
O O9 0.250000 0.627004 0.770115
O O10 0.466966 0.562272 0.838685
O O11 0.492580 0.685141 0.831303
O O12 0.500579 0.629601 0.678416
O O13 0.250000 0.080973 0.726374
O O14 0.039211 0.000000 0.696639
O O15 0.750000 0.500000 0.088354
O O16 0.500000 0.500000 0.000000
O O17 0.250000 0.285364 0.094469
O O18 0.000000 0.285369 0.000000
O O19 0.250000 0.337170 0.405375
O O20 0.000000 0.340549 0.500000
#
# Coordination Sequence:
#
# PCOD9407640 Si02
#       7
#     8   8   8   8   4   8   8
#     4  10  21  38  61  87 115 146 182 228 281 336
#     4  10  21  37  57  80 108 142 182 231 284 338
#     4  11  22  37  58  84 116 154 192 233 280 330
#     4  11  24  39  55  78 109 146 188 231 277 334
#     4  10  24  42  59  84 119 158 199 236 274 326
#     4  10  20  34  54  83 113 142 182 231 283 338
#     4  10  21  38  61  90 118 146 185 232 282 335
#
# _framework density 18.342151999999999
#
# number of rings (size 3 to 8) (size 9 to 14) (size 15 to 20)
#    0.000    1.692    0.000    4.154    0.000   11.692 
#    0.000    0.385    0.000    0.000    0.000    0.000 
#    0.000    0.000    0.000    0.000    0.000    0.000 
#
# Total GULP energy -290555.806507 kJ/mol
# GULP energy per Si atom -5587.611664 kJ/mol
# Density = 1.830040 g / cm^3
# Si number density = 18.342152 Si / 1000 Ang^3
#
#
#
# Elastic Constant Matrix: (Units=GPa)
#
#
# Indices 1 2 3 4 5 6 
#
# 1 106.9786 45.7129 57.0721 0.0000 0.0000 0.0000
# 2 45.7129 65.0824 61.6758 0.0000 0.0000 0.0000
# 3 57.0721 61.6758 139.2334 0.0000 0.0000 0.0000
# 4 0.0000 0.0000 0.0000 28.0475 0.0000 0.0000
# 5 0.0000 0.0000 0.0000 0.0000 43.7622 0.0000
# 6 0.0000 0.0000 0.0000 0.0000 0.0000 25.9663
#
#
#
# Elastic Compliance Matrix: (Units=1/GPa)
#
#
# Indices 1 2 3 4 5 6 
#
# 1 0.013787 -0.007460 -0.002347 0.000000 0.000000 0.000000
# 2 -0.007460 0.030518 -0.010461 0.000000 0.000000 0.000000
# 3 -0.002347 -0.010461 0.012778 0.000000 0.000000 0.000000
# 4 0.000000 0.000000 0.000000 0.035654 0.000000 0.000000
# 5 0.000000 0.000000 0.000000 0.000000 0.022851 0.000000
# 6 0.000000 0.000000 0.000000 0.000000 0.000000 0.038511
#
#
# Mechanical properties :
#
#
# Convention : Reuss Voigt Hill
#
# Bulk Modulus (GPa) = 60.42937 71.13513 65.78225
# Shear Modulus (GPa) = 24.98117 29.34410 27.16264
#
# Velocity S-wave (km/s) = 3.69447 4.00411 3.85240
# Velocity P-wave (km/s) = 7.15653 7.76168 7.46524
#
# Compressibility (1/GPa) = 0.01654824
#
# Stress axis : x y z
#
# Youngs Moduli (GPa) = 72.52957 32.76751 78.25993
#
# Poissons Ratio (x) = 0.24445 0.18368
# Poissons Ratio (y) = 0.54107 0.81865
# Poissons Ratio (z) = 0.17023 0.34277
#
# Static dielectric constant tensor:
#      x y z
#    x 1.609990 0.000000 0.000000 
#    y 0.000000 1.633790 0.000000 
#    z 0.000000 0.000000 1.618830 
# 
# From -- ./inp_files/21528.got.cif
#   From: 2010.05.17/outbox.ucp.g08.bks.cvg/sg51_11_cif.got.tgz:21528.got - 2010.06.11 16:27:58.
