data_PCOD9407867
_publ_section_title
;
Structure prediction by ZEFSAII (Michael W. Deem and Ramdas Pophale) SiO2 
 PCOD9407867
Probable space group: P N N A
;
_chemical_formula_sum "Si O2"
_cell_formula_units_Z 40
_cell_length_a 13.688575
_cell_length_b 18.188452
_cell_length_c 6.671874
_cell_angle_alpha 90.000000
_cell_angle_beta 90.000000
_cell_angle_gamma 90.000000
_cell_volume 1661.123086
_symmetry_space_group_name_H-M "P N N A"
_symmetry_group_IT_number 52
_symmetry_cell_setting 'orthorhombic'
loop_
_space_group_symop_operation_xyz
x,y,z
1/2-x,-y,z
x,1/2-y,1/2-z
1/2-x,1/2+y,1/2-z
-x,-y,-z
1/2+x,y,-z
-x,1/2+y,1/2+z
1/2+x,1/2-y,1/2+z
loop_
_atom_site_type_symbol
_atom_site_label
_atom_site_fract_x
_atom_site_fract_y
_atom_site_fract_z
Si Si1 0.133813 0.582143 0.346481
Si Si2 0.862443 0.234570 0.990695
Si Si3 0.999999 0.640811 0.000000
Si Si4 0.362442 0.734570 0.490694
Si Si5 0.633813 0.417857 0.653518
O O1 0.112493 0.648360 0.499474
O O2 0.250000 0.590220 0.290393
O O3 0.121376 0.500000 0.428129
O O4 0.062760 0.594044 0.156963
O O5 0.872339 0.250000 0.750000
O O6 0.750001 0.244013 0.039316
O O7 0.923517 0.299590 0.090528
O O8 0.923515 0.700410 0.090528
O O9 0.937239 0.594044 0.843038
O O10 0.372337 0.750000 0.250000
O O11 0.387507 0.648360 0.499474
#
# Coordination Sequence:
#
# PCOD9407867 Si02
#       5
#     8   8   8   8   8
#     4   9  17  29  45  65  87 110 139 176 213 247
#     4   8  15  27  42  61  85 112 141 172 206 247
#     4  10  15  24  45  68  84 106 142 178 209 244
#     4   8  15  27  42  61  85 112 141 172 206 247
#     4   9  17  29  45  65  87 110 139 176 213 247
#
# _framework density 24.080095
#
# number of rings (size 3 to 8) (size 9 to 14) (size 15 to 20)
#    0.000    3.200    0.000    4.200    0.000    0.000 
#    0.000    1.000    0.000   43.200    0.000    0.000 
#    0.000    0.000    0.000    0.000    0.000    0.000 
#
# Total GULP energy -223337.379712 kJ/mol
# GULP energy per Si atom -5583.434493 kJ/mol
# Density = 2.402529 g / cm^3
# Si number density = 24.080095 Si / 1000 Ang^3
#
#
#
# Elastic Constant Matrix: (Units=GPa)
#
#
# Indices 1 2 3 4 5 6 
#
# 1 171.1915 40.6560 19.4870 0.0000 0.0000 0.0000
# 2 40.6560 197.1141 36.3699 0.0000 0.0000 0.0000
# 3 19.4870 36.3699 98.5777 0.0000 0.0000 0.0000
# 4 0.0000 0.0000 0.0000 30.1694 0.0000 0.0000
# 5 0.0000 0.0000 0.0000 0.0000 17.3533 0.0000
# 6 0.0000 0.0000 0.0000 0.0000 0.0000 36.0546
#
#
#
# Elastic Compliance Matrix: (Units=1/GPa)
#
#
# Indices 1 2 3 4 5 6 
#
# 1 0.006202 -0.001130 -0.000809 0.000000 0.000000 0.000000
# 2 -0.001130 0.005650 -0.001861 0.000000 0.000000 0.000000
# 3 -0.000809 -0.001861 0.010991 0.000000 0.000000 0.000000
# 4 0.000000 0.000000 0.000000 0.033146 0.000000 0.000000
# 5 0.000000 0.000000 0.000000 0.000000 0.057626 0.000000
# 6 0.000000 0.000000 0.000000 0.000000 0.000000 0.027736
#
#
# Mechanical properties :
#
#
# Convention : Reuss Voigt Hill
#
# Bulk Modulus (GPa) = 65.60722 73.32323 69.46523
# Shear Modulus (GPa) = 32.46098 41.40682 36.93390
#
# Velocity S-wave (km/s) = 3.67555 4.15124 3.92062
# Velocity P-wave (km/s) = 6.73183 7.31388 7.02888
#
# Compressibility (1/GPa) = 0.01524222
#
# Stress axis : x y z
#
# Youngs Moduli (GPa) = 161.24230 177.00257 90.98467
#
# Poissons Ratio (x) = 0.19999 0.07362
# Poissons Ratio (y) = 0.18218 0.16933
# Poissons Ratio (z) = 0.13047 0.32941
#
# Static dielectric constant tensor:
#      x y z
#    x 1.958020 0.000000 0.000000 
#    y 0.000000 1.923230 0.000000 
#    z 0.000000 0.000000 1.979250 
# 
# From -- ./inp_files/10586.got.cif
#   From: 2010.05.17/outbox.cif.g08.bks.cpg/sg52_6_cif.got.tgz:10586.got - 2010.06.03 12:15:38.
