data_PCOD9407893
_publ_section_title
;
Structure prediction by ZEFSAII (Michael W. Deem and Ramdas Pophale) SiO2 
 PCOD9407893
Probable space group: P N N A
;
_chemical_formula_sum "Si O2"
_cell_formula_units_Z 56
_cell_length_a 23.660321
_cell_length_b 12.261608
_cell_length_c 6.983326
_cell_angle_alpha 90.000000
_cell_angle_beta 90.000000
_cell_angle_gamma 90.000000
_cell_volume 2025.957715
_symmetry_space_group_name_H-M "P N N A"
_symmetry_group_IT_number 52
_symmetry_cell_setting 'orthorhombic'
loop_
_space_group_symop_operation_xyz
x,y,z
1/2-x,-y,z
x,1/2-y,1/2-z
1/2-x,1/2+y,1/2-z
-x,-y,-z
1/2+x,y,-z
-x,1/2+y,1/2+z
1/2+x,1/2-y,1/2+z
loop_
_atom_site_type_symbol
_atom_site_label
_atom_site_fract_x
_atom_site_fract_y
_atom_site_fract_z
Si Si1 0.525105 0.864291 0.215730
Si Si2 0.678667 0.054399 0.371454
Si Si3 0.598446 0.403113 0.653530
Si Si4 0.060729 0.865416 0.219875
Si Si5 0.221607 0.108707 0.068685
Si Si6 0.561238 0.405758 0.205999
Si Si7 0.285985 0.313085 0.948614
O O1 0.553650 0.750000 0.250000
O O2 0.458357 0.861151 0.256469
O O3 0.551257 0.965893 0.321093
O O4 0.536509 0.882795 0.992842
O O5 0.676405 0.925814 0.429495
O O6 0.699573 0.070770 0.147642
O O7 0.619240 0.116868 0.401021
O O8 0.726574 0.124322 0.471115
O O9 0.599074 0.528521 0.729125
O O10 0.661790 0.361695 0.663636
O O11 0.579439 0.390465 0.428997
O O12 0.090771 0.750000 0.250000
O O13 0.000840 0.857459 0.335473
O O14 0.269859 0.201805 0.066861
O O15 0.250000 0.000000 0.150600
O O16 0.297805 0.250000 0.750000
#
# Coordination Sequence:
#
# PCOD9407893 Si02
#       7
#     8   8   8   8   8   8   8
#     4   9  17  32  49  74 102 133 177 217 262 311
#     4   9  15  25  38  66 104 132 165 209 269 316
#     4   8  17  31  47  69  99 133 178 218 255 318
#     4   9  17  32  52  73 102 137 180 223 262 314
#     4  10  16  27  45  67  93 133 179 213 254 323
#     4   8  16  28  45  69  98 136 171 205 258 332
#     4   9  15  24  37  63 100 132 160 213 259 313
#
# _framework density 27.641247
#
# number of rings (size 3 to 8) (size 9 to 14) (size 15 to 20)
#    0.000    3.143    2.857    1.714    0.000    4.571 
#    2.571    2.857    0.000    0.857    0.000    0.000 
#    0.000    0.000    0.000    0.000    0.000    0.000 
#
# Total GULP energy -312161.811885 kJ/mol
# GULP energy per Si atom -5574.318069 kJ/mol
# Density = 2.757833 g / cm^3
# Si number density = 27.641247 Si / 1000 Ang^3
#
#
#
# Elastic Constant Matrix: (Units=GPa)
#
#
# Indices 1 2 3 4 5 6 
#
# 1 89.0404 0.1059 26.5608 0.0000 0.0000 0.0000
# 2 0.1059 179.3476 -3.2291 0.0000 0.0000 0.0000
# 3 26.5608 -3.2291 82.2444 0.0000 0.0000 0.0000
# 4 0.0000 0.0000 0.0000 17.8256 0.0000 0.0000
# 5 0.0000 0.0000 0.0000 0.0000 4.1097 0.0000
# 6 0.0000 0.0000 0.0000 0.0000 0.0000 -17.0347
#
#
#
# Elastic Compliance Matrix: (Units=1/GPa)
#
#
# Indices 1 2 3 4 5 6 
#
# 1 0.012429 -0.000080 -0.004017 0.000000 0.000000 0.000000
# 2 -0.000080 0.005580 0.000245 0.000000 0.000000 0.000000
# 3 -0.004017 0.000245 0.013466 0.000000 0.000000 0.000000
# 4 0.000000 0.000000 0.000000 0.056099 0.000000 0.000000
# 5 0.000000 0.000000 0.000000 0.000000 0.243326 0.000000
# 6 0.000000 0.000000 0.000000 0.000000 0.000000 -0.058704
#
#
# Mechanical properties :
#
#
# Convention : Reuss Voigt Hill
#
# Bulk Modulus (GPa) = 42.06750 44.16750 43.11750
# Shear Modulus (GPa) = 17.37171 22.79311 20.08241
#
# Velocity S-wave (km/s) = 2.50965 2.87471 2.69836
# Velocity P-wave (km/s) = 4.86312 5.19924 5.03399
#
# Compressibility (1/GPa) = 0.02377132
#
# Stress axis : x y z
#
# Youngs Moduli (GPa) = 80.45521 179.20437 74.26204
#
# Poissons Ratio (x) = 0.01428 0.29832
# Poissons Ratio (y) = 0.00641 -0.01818
# Poissons Ratio (z) = 0.32320 -0.04387
#
# Static dielectric constant tensor:
#      x y z
#    x 2.122880 0.000000 0.000000 
#    y 0.000000 2.230560 0.000000 
#    z 0.000000 0.000000 2.366320 
# 
# From -- ./inp_files/22443.got.cif
#   From: 2010.05.17/outbox.cif.g08.bks.cpg/sg52_12_cif.got.tgz:22443.got - 2010.06.03 12:15:38.
