data_PCOD9407315
_publ_section_title
;
Structure prediction by ZEFSAII (Michael W. Deem and Ramdas Pophale) SiO2 
 PCOD9407315
Probable space group: P M M A
;
_chemical_formula_sum "Si O2"
_cell_formula_units_Z 48
_cell_length_a 7.513341
_cell_length_b 9.769118
_cell_length_c 32.412999
_cell_angle_alpha 90.000000
_cell_angle_beta 90.000000
_cell_angle_gamma 90.000000
_cell_volume 2379.072470
_symmetry_space_group_name_H-M "P M M A"
_symmetry_group_IT_number 51
_symmetry_cell_setting 'orthorhombic'
loop_
_space_group_symop_operation_xyz
x,y,z
1/2-x,-y,z
1/2+x,-y,-z
-x,y,-z
-x,-y,-z
1/2+x,y,-z
1/2-x,y,z
x,-y,z
loop_
_atom_site_type_symbol
_atom_site_label
_atom_site_fract_x
_atom_site_fract_y
_atom_site_fract_z
Si Si1 0.962634 0.342905 0.044354
Si Si2 0.036962 0.844457 0.452958
Si Si3 0.031750 0.657302 0.377787
Si Si4 0.967317 0.659503 0.134256
Si Si5 0.536287 0.844142 0.209374
Si Si6 0.962619 0.843901 0.697642
O O1 0.750000 0.350253 0.046914
O O2 0.031913 0.500000 0.042387
O O3 0.023428 0.287371 0.088758
O O4 0.000000 0.276011 0.000000
O O5 0.250000 0.851276 0.448383
O O6 0.972632 0.739411 0.418481
O O7 0.000000 0.802664 0.500000
O O8 0.968123 0.000000 0.447154
O O9 0.250000 0.656129 0.377730
O O10 0.974138 0.500000 0.377414
O O11 0.972237 0.741904 0.337589
O O12 0.750000 0.661947 0.135174
O O13 0.018699 0.500000 0.137756
O O14 0.031051 0.748515 0.172668
O O15 0.750000 0.849195 0.205661
O O16 0.497064 0.795510 0.255737
O O17 0.468713 0.000000 0.205887
O O18 0.750000 0.852072 0.692583
O O19 0.032493 0.000000 0.693560
#
# Coordination Sequence:
#
# PCOD9407315 Si02
#       6
#     8   8   8   8   8   8
#     4   8  13  22  37  56  77 102 133 167 201 239
#     4   9  17  30  48  68  89 115 147 179 210 247
#     4   9  17  29  46  67  89 114 144 176 210 250
#     4   8  14  25  41  60  82 109 138 167 204 250
#     4   9  17  29  45  64  84 108 140 175 208 245
#     4   9  17  30  47  64  83 110 142 173 207 249
#
# _framework density 20.175932
#
# number of rings (size 3 to 8) (size 9 to 14) (size 15 to 20)
#    0.000    3.333    0.000    1.500    0.000    3.000 
#    0.000    1.667    0.000    6.500    0.000    0.000 
#    0.000    0.000    0.000    0.000    0.000    0.000 
#
# Total GULP energy -267487.788233 kJ/mol
# GULP energy per Si atom -5572.662255 kJ/mol
# Density = 2.013001 g / cm^3
# Si number density = 20.175932 Si / 1000 Ang^3
#
#
#
# Elastic Constant Matrix: (Units=GPa)
#
#
# Indices 1 2 3 4 5 6 
#
# 1 50.9275 5.3051 1.9214 0.0000 0.0000 0.0000
# 2 5.3051 93.6314 126.4017 0.0000 0.0000 0.0000
# 3 1.9214 126.4017 248.8546 0.0000 0.0000 0.0000
# 4 0.0000 0.0000 0.0000 38.1779 0.0000 0.0000
# 5 0.0000 0.0000 0.0000 0.0000 21.6082 0.0000
# 6 0.0000 0.0000 0.0000 0.0000 0.0000 -0.2599
#
#
#
# Elastic Compliance Matrix: (Units=1/GPa)
#
#
# Indices 1 2 3 4 5 6 
#
# 1 0.019890 -0.002926 0.001333 0.000000 0.000000 0.000000
# 2 -0.002926 0.034412 -0.017456 0.000000 0.000000 0.000000
# 3 0.001333 -0.017456 0.012875 0.000000 0.000000 0.000000
# 4 0.000000 0.000000 0.000000 0.026193 0.000000 0.000000
# 5 0.000000 0.000000 0.000000 0.000000 0.046279 0.000000
# 6 0.000000 0.000000 0.000000 0.000000 0.000000 -3.847596
#
#
# Mechanical properties :
#
#
# Convention : Reuss Voigt Hill
#
# Bulk Modulus (GPa) = 34.39092 73.40779 53.89935
# Shear Modulus (GPa) = -1.36606 29.22427 13.92910
#
# Velocity S-wave (km/s) = -0.82374 3.81001 2.63036
# Velocity P-wave (km/s) = 4.02216 7.47113 5.99981
#
# Compressibility (1/GPa) = 0.02907744
#
# Stress axis : x y z
#
# Youngs Moduli (GPa) = 50.27581 29.05952 77.67071
#
# Poissons Ratio (x) = 0.08503 -0.10351
# Poissons Ratio (y) = 0.14711 1.35586
# Poissons Ratio (z) = -0.06700 0.50728
#
# Static dielectric constant tensor:
#      x y z
#    x 1.767350 0.000000 0.000000 
#    y 0.000000 1.689660 0.000000 
#    z 0.000000 0.000000 1.726800 
# 
# From -- ./inp_files/36505.got.cif
#   From: 2010.05.17/outbox.cif.g08.bks.cpg/sg51_19_cif.got.tgz:36505.got - 2010.06.03 11:52:47.
