data_PCOD9407135
_publ_section_title
;
Structure prediction by ZEFSAII (Michael W. Deem and Ramdas Pophale) SiO2 
 PCOD9407135
Probable space group: P M M A
;
_chemical_formula_sum "Si O2"
_cell_formula_units_Z 32
_cell_length_a 7.784132
_cell_length_b 7.498041
_cell_length_c 25.532490
_cell_angle_alpha 90.000000
_cell_angle_beta 90.000000
_cell_angle_gamma 90.000000
_cell_volume 1490.222695
_symmetry_space_group_name_H-M "P M M A"
_symmetry_group_IT_number 51
_symmetry_cell_setting 'orthorhombic'
loop_
_space_group_symop_operation_xyz
x,y,z
1/2-x,-y,z
1/2+x,-y,-z
-x,y,-z
-x,-y,-z
1/2+x,y,-z
1/2-x,y,z
x,-y,z
loop_
_atom_site_type_symbol
_atom_site_label
_atom_site_fract_x
_atom_site_fract_y
_atom_site_fract_z
Si Si1 0.750000 0.281337 0.633884
Si Si2 0.456278 0.204082 0.944036
Si Si3 0.750000 0.289420 0.752415
Si Si4 0.555771 0.282398 0.441627
Si Si5 0.944861 0.213364 0.168863
O O1 0.750000 0.500000 0.634000
O O2 0.750000 0.216096 0.693494
O O3 0.582317 0.225370 0.601307
O O4 0.250000 0.196537 0.940992
O O5 0.508746 0.283375 0.887941
O O6 0.525853 0.000000 0.946231
O O7 0.500000 0.288439 0.000000
O O8 0.750000 0.500000 0.746799
O O9 0.580992 0.243720 0.785707
O O10 0.500000 0.226989 0.500000
O O11 0.750000 0.224961 0.430746
O O12 0.554778 0.500000 0.441904
O O13 0.750000 0.278234 0.179741
O O14 0.932928 0.000000 0.162035
#
# Coordination Sequence:
#
# PCOD9407135 Si02
#       5
#     4   8   4   8   8
#     4   9  18  29  39  63  97 131 172 205 242 304
#     4   8  14  24  43  75 102 118 150 210 276 318
#     4  11  23  35  51  75 109 151 184 209 250 316
#     4   9  14  22  39  60  86 122 161 204 252 298
#     4   9  19  36  56  78 103 134 177 226 269 310
#
# _framework density 21.473299000000001
#
# number of rings (size 3 to 8) (size 9 to 14) (size 15 to 20)
#    0.000    3.000    1.250    1.875    1.750    1.500 
#    0.000    2.500    0.000    0.750    0.000    0.000 
#    0.000    4.000    0.000    0.000    0.000    0.000 
#
# Total GULP energy -178496.931678 kJ/mol
# GULP energy per Si atom -5578.029115 kJ/mol
# Density = 2.142443 g / cm^3
# Si number density = 21.473299 Si / 1000 Ang^3
#
#
#
# Elastic Constant Matrix: (Units=GPa)
#
#
# Indices 1 2 3 4 5 6 
#
# 1 164.9293 3.6169 126.4329 0.0000 0.0000 0.0000
# 2 3.6169 58.1811 9.0277 0.0000 0.0000 0.0000
# 3 126.4329 9.0277 252.8640 0.0000 0.0000 0.0000
# 4 0.0000 0.0000 0.0000 11.6994 0.0000 0.0000
# 5 0.0000 0.0000 0.0000 0.0000 44.0894 0.0000
# 6 0.0000 0.0000 0.0000 0.0000 0.0000 27.7398
#
#
#
# Elastic Compliance Matrix: (Units=1/GPa)
#
#
# Indices 1 2 3 4 5 6 
#
# 1 0.009833 0.000152 -0.004922 0.000000 0.000000 0.000000
# 2 0.000152 0.017286 -0.000693 0.000000 0.000000 0.000000
# 3 -0.004922 -0.000693 0.006440 0.000000 0.000000 0.000000
# 4 0.000000 0.000000 0.000000 0.085474 0.000000 0.000000
# 5 0.000000 0.000000 0.000000 0.000000 0.022681 0.000000
# 6 0.000000 0.000000 0.000000 0.000000 0.000000 0.036049
#
#
# Mechanical properties :
#
#
# Convention : Reuss Voigt Hill
#
# Bulk Modulus (GPa) = 44.18230 83.79214 63.98722
# Shear Modulus (GPa) = 25.47975 39.16551 32.32263
#
# Velocity S-wave (km/s) = 3.44841 4.27537 3.88396
# Velocity P-wave (km/s) = 6.03950 7.96730 7.06942
#
# Compressibility (1/GPa) = 0.02263350
#
# Stress axis : x y z
#
# Youngs Moduli (GPa) = 101.69847 57.85084 155.26859
#
# Poissons Ratio (x) = -0.00882 0.76423
# Poissons Ratio (y) = -0.01550 0.10766
# Poissons Ratio (z) = 0.50056 0.04011
#
# Static dielectric constant tensor:
#      x y z
#    x 1.706140 0.000000 0.000000 
#    y 0.000000 1.873820 0.000000 
#    z 0.000000 0.000000 1.796130 
# 
# From -- ./inp_files/34264.got.cif
#   From: 2010.05.17/outbox.cif.g08.bks.cpg/sg51_18_cif.got.tgz:34264.got - 2010.06.03 11:52:47.
