data_PCOD9407124
_publ_section_title
;
Structure prediction by ZEFSAII (Michael W. Deem and Ramdas Pophale) SiO2 
 PCOD9407124
Probable space group: P M M A
;
_chemical_formula_sum "Si O2"
_cell_formula_units_Z 56
_cell_length_a 8.266930
_cell_length_b 20.778333
_cell_length_c 15.754810
_cell_angle_alpha 90.000000
_cell_angle_beta 90.000000
_cell_angle_gamma 90.000000
_cell_volume 2706.251363
_symmetry_space_group_name_H-M "P M M A"
_symmetry_group_IT_number 51
_symmetry_cell_setting 'orthorhombic'
loop_
_space_group_symop_operation_xyz
x,y,z
1/2-x,-y,z
1/2+x,-y,-z
-x,y,-z
-x,-y,-z
1/2+x,y,-z
1/2-x,y,z
x,-y,z
loop_
_atom_site_type_symbol
_atom_site_label
_atom_site_fract_x
_atom_site_fract_y
_atom_site_fract_z
Si Si1 0.556691 0.073341 0.747993
Si Si2 0.443143 0.159347 0.591736
Si Si3 0.552747 0.707508 0.143564
Si Si4 0.557838 0.430884 0.134351
Si Si5 0.557938 0.430332 0.671994
Si Si6 0.944588 0.704053 0.343429
Si Si7 0.556910 0.846739 0.090179
O O1 0.750000 0.071687 0.747898
O O2 0.500235 0.113181 0.666499
O O3 0.500376 0.110524 0.831750
O O4 0.495131 0.000000 0.746459
O O5 0.500000 0.136978 0.500000
O O6 0.250000 0.161609 0.593991
O O7 0.503906 0.232328 0.608935
O O8 0.750000 0.706246 0.139611
O O9 0.492653 0.639013 0.106648
O O10 0.510119 0.711032 0.243666
O O11 0.494617 0.773176 0.101149
O O12 0.750000 0.431734 0.117595
O O13 0.488748 0.500000 0.104371
O O14 0.531182 0.429747 0.236480
O O15 0.750000 0.428177 0.688146
O O16 0.520264 0.500000 0.631653
O O17 0.508888 0.364825 0.625767
O O18 0.750000 0.702200 0.347195
O O19 0.750000 0.844210 0.092323
O O20 0.500000 0.872661 0.000000
#
# Coordination Sequence:
#
# PCOD9407124 Si02
#       7
#     8   8   8   8   8   8   8
#     4  11  25  45  68  95 125 157 196 241 294 359
#     4  11  23  41  65  94 126 161 201 246 295 353
#     4   8  14  28  50  76 107 145 192 243 292 346
#     4   8  13  23  41  66  98 140 190 240 290 347
#     4   9  16  24  38  68 107 144 187 242 298 347
#     4   9  17  32  53  77 108 150 197 241 291 351
#     4  11  22  39  62  90 124 161 203 251 300 357
#
# _framework density 20.692831000000002
#
# number of rings (size 3 to 8) (size 9 to 14) (size 15 to 20)
#    0.000    2.429    1.429    2.571    0.000    3.714 
#    0.000    0.714    0.000    0.857    0.000    0.000 
#    0.000    0.000    0.000    0.000    0.000    0.286 
#
# Total GULP energy -312417.731255 kJ/mol
# GULP energy per Si atom -5578.888058 kJ/mol
# Density = 2.064573 g / cm^3
# Si number density = 20.692831 Si / 1000 Ang^3
#
#
#
# Elastic Constant Matrix: (Units=GPa)
#
#
# Indices 1 2 3 4 5 6 
#
# 1 29.4570 24.9370 17.4366 0.0000 0.0000 0.0000
# 2 24.9370 188.0581 75.1065 0.0000 0.0000 0.0000
# 3 17.4366 75.1065 109.5673 0.0000 0.0000 0.0000
# 4 0.0000 0.0000 0.0000 -15.7468 0.0000 0.0000
# 5 0.0000 0.0000 0.0000 0.0000 14.8217 0.0000
# 6 0.0000 0.0000 0.0000 0.0000 0.0000 22.8948
#
#
#
# Elastic Compliance Matrix: (Units=1/GPa)
#
#
# Indices 1 2 3 4 5 6 
#
# 1 0.039296 -0.003736 -0.003693 0.000000 0.000000 0.000000
# 2 -0.003736 0.007677 -0.004668 0.000000 0.000000 0.000000
# 3 -0.003693 -0.004668 0.012914 0.000000 0.000000 0.000000
# 4 0.000000 0.000000 0.000000 -0.063505 0.000000 0.000000
# 5 0.000000 0.000000 0.000000 0.000000 0.067468 0.000000
# 6 0.000000 0.000000 0.000000 0.000000 0.000000 0.043678
#
#
# Mechanical properties :
#
#
# Convention : Reuss Voigt Hill
#
# Bulk Modulus (GPa) = 28.01554 62.44918 45.23236
# Shear Modulus (GPa) = 34.81376 18.36742 26.59059
#
# Velocity S-wave (km/s) = 4.10617 2.98253 3.58860
# Velocity P-wave (km/s) = 6.00408 6.48886 6.25117
#
# Compressibility (1/GPa) = 0.03569447
#
# Stress axis : x y z
#
# Youngs Moduli (GPa) = 25.44760 130.25504 77.43321
#
# Poissons Ratio (x) = 0.48664 0.28594
# Poissons Ratio (y) = 0.09507 0.36146
# Poissons Ratio (z) = 0.09397 0.60804
#
# Static dielectric constant tensor:
#      x y z
#    x 1.713350 0.000000 0.000000 
#    y 0.000000 1.799820 0.000000 
#    z 0.000000 0.000000 1.716900 
# 
# From -- ./inp_files/21748.got.cif
#   From: 2010.05.17/outbox.cif.g08.bks.cpg/sg51_11_cif.got.tgz:21748.got - 2010.06.03 11:52:47.
