data_PCOD9407530
_publ_section_title
;
Structure prediction by ZEFSAII (Michael W. Deem and Ramdas Pophale) SiO2 
 PCOD9407530
Probable space group: P M M A
;
_chemical_formula_sum "Si O2"
_cell_formula_units_Z 64
_cell_length_a 9.000000
_cell_length_b 15.000000
_cell_length_c 24.000000
_cell_angle_alpha 90.000000
_cell_angle_beta 90.000000
_cell_angle_gamma 90.000000
_cell_volume 3240.000000
_symmetry_space_group_name_H-M "P M M A"
_symmetry_group_IT_number 51
_symmetry_cell_setting 'orthorhombic'
loop_
_space_group_symop_operation_xyz
x,y,z
1/2-x,-y,z
1/2+x,-y,-z
-x,y,-z
-x,-y,-z
1/2+x,y,-z
1/2-x,y,z
x,-y,z
loop_
_atom_site_type_symbol
_atom_site_label
_atom_site_fract_x
_atom_site_fract_y
_atom_site_fract_z
Si Si1 0.571444 0.598126 0.059844
Si Si2 0.917381 0.893383 0.445945
Si Si3 0.914365 0.399881 0.778171
Si Si4 0.574447 0.730249 0.149202
Si Si5 0.081007 0.607220 0.555247
Si Si6 0.573049 0.852636 0.324636
Si Si7 0.918923 0.673771 0.662861
Si Si8 0.568393 0.094901 0.204172
O O1 0.750000 0.604117 0.056110
O O2 0.538150 0.500000 0.083977
O O3 0.511972 0.679247 0.096193
O O4 0.500000 0.601466 0.000000
O O5 0.750000 0.857429 0.445454
O O6 0.988269 0.877605 0.385438
O O7 0.000000 0.857774 0.500000
O O8 0.908473 0.000000 0.451716
O O9 0.750000 0.364658 0.794536
O O10 0.927919 0.500000 0.797777
O O11 0.918330 0.397668 0.711744
O O12 0.042352 0.338453 0.801521
O O13 0.750000 0.740980 0.141008
O O14 0.510655 0.823979 0.167916
O O15 0.250000 0.639896 0.560582
O O16 0.087067 0.500000 0.553078
O O17 0.000000 0.639557 0.500000
O O18 0.980710 0.635395 0.606381
O O19 0.750000 0.869169 0.327297
O O20 0.530405 0.750574 0.317999
O O21 0.518498 0.898744 0.268422
O O22 0.750000 0.707871 0.657016
O O23 0.750000 0.100811 0.206013
O O24 0.527566 0.000000 0.180240
#
# Coordination Sequence:
#
# PCOD9407530 Si02
#       8
#     8   8   8   8   8   8   8   8
#     4   9  18  32  51  79 114 150 186 224 267 316
#     4   9  18  32  50  71  94 122 159 207 263 324
#     4  10  21  35  51  74 107 145 178 213 266 326
#     4  10  19  33  55  83 111 140 183 233 271 310
#     4  10  21  37  56  75  95 125 169 218 268 323
#     4  10  19  33  52  73  99 131 173 220 268 324
#     4  11  22  35  51  72 103 136 171 214 262 319
#     4   9  17  31  54  81 107 138 179 229 282 330
#
# _framework density 19.753086
#
# number of rings (size 3 to 8) (size 9 to 14) (size 15 to 20)
#    0.000    2.250    1.250    1.875    0.000    5.500 
#    0.000    2.500    0.000    2.625    0.000    0.000 
#    0.000    0.000    0.000    0.000    0.000    0.000 
#
# Total GULP energy -356296.262063 kJ/mol
# GULP energy per Si atom -5567.129095 kJ/mol
# Density = 1.970813 g / cm^3
# Si number density = 19.753086 Si / 1000 Ang^3
#
#
#
# Elastic Constant Matrix: (Units=GPa)
#
#
# Indices 1 2 3 4 5 6 
#
# 1 -37.4313 3.3544 18.0776 0.0000 0.0000 0.0000
# 2 3.3544 98.0363 52.0857 0.0000 0.0000 0.0000
# 3 18.0776 52.0857 108.9952 0.0000 0.0000 0.0000
# 4 0.0000 0.0000 0.0000 106.5385 0.0000 0.0000
# 5 0.0000 0.0000 0.0000 0.0000 12.8043 0.0000
# 6 0.0000 0.0000 0.0000 0.0000 0.0000 21.3042
#
#
#
# Elastic Compliance Matrix: (Units=1/GPa)
#
#
# Indices 1 2 3 4 5 6 
#
# 1 -0.024503 -0.001770 0.004910 0.000000 0.000000 0.000000
# 2 -0.001770 0.013543 -0.006178 0.000000 0.000000 0.000000
# 3 0.004910 -0.006178 0.011313 0.000000 0.000000 0.000000
# 4 0.000000 0.000000 0.000000 0.009386 0.000000 0.000000
# 5 0.000000 0.000000 0.000000 0.000000 0.078099 0.000000
# 6 0.000000 0.000000 0.000000 0.000000 0.000000 0.046939
#
#
# Mechanical properties :
#
#
# Convention : Reuss Voigt Hill
#
# Bulk Modulus (GPa) = -174.70001 35.18173 -69.75914
# Shear Modulus (GPa) = 35.98499 34.53491 35.25995
#
# Velocity S-wave (km/s) = 4.27282 4.18584 4.22955
# Velocity P-wave (km/s) = 8.01818 6.41959 3.39707
#
# Compressibility (1/GPa) = -0.00572410
#
# Stress axis : x y z
#
# Youngs Moduli (GPa) = -40.81137 73.83674 88.39500
#
# Poissons Ratio (x) = 0.13070 -0.43401
# Poissons Ratio (y) = -0.07224 0.54614
# Poissons Ratio (z) = 0.20038 0.45619
#
# Static dielectric constant tensor:
#      x y z
#    x 1.704430 0.000000 0.000000 
#    y 0.000000 1.738350 0.000000 
#    z 0.000000 0.000000 1.695810 
# 
# From -- ./inp_files/34900.got.cif
#   From: 2010.05.17/outbox.ucp.g08.bks.cvg/sg51_18_cif.got.tgz:34900.got - 2010.06.11 16:27:58.
