data_PCOD9407721
_publ_section_title
;
Structure prediction by ZEFSAII (Michael W. Deem and Ramdas Pophale) SiO2 
 PCOD9407721
Probable space group: P M M A
;
_chemical_formula_sum "Si O2"
_cell_formula_units_Z 56
_cell_length_a 15.000000
_cell_length_b 9.000000
_cell_length_c 21.000000
_cell_angle_alpha 90.000000
_cell_angle_beta 90.000000
_cell_angle_gamma 90.000000
_cell_volume 2835.000000
_symmetry_space_group_name_H-M "P M M A"
_symmetry_group_IT_number 51
_symmetry_cell_setting 'orthorhombic'
loop_
_space_group_symop_operation_xyz
x,y,z
1/2-x,-y,z
1/2+x,-y,-z
-x,y,-z
-x,-y,-z
1/2+x,y,-z
1/2-x,y,z
x,-y,z
loop_
_atom_site_type_symbol
_atom_site_label
_atom_site_fract_x
_atom_site_fract_y
_atom_site_fract_z
Si Si1 0.600397 0.829565 0.837683
Si Si2 0.147801 0.338910 0.786489
Si Si3 0.250000 0.678967 0.407313
Si Si4 0.146750 0.670324 0.033513
Si Si5 0.899529 0.174172 0.342866
Si Si6 0.250000 0.818715 0.552557
Si Si7 0.407185 0.830298 0.906762
Si Si8 0.397180 0.176419 0.315480
O O1 0.645295 0.732725 0.893851
O O2 0.501207 0.833175 0.868418
O O3 0.602472 0.783194 0.761885
O O4 0.634219 0.000000 0.838978
O O5 0.250000 0.357774 0.770326
O O6 0.101530 0.500000 0.789385
O O7 0.114919 0.245520 0.726551
O O8 0.146336 0.266164 0.855953
O O9 0.250000 0.500000 0.413317
O O10 0.250000 0.748639 0.480340
O O11 0.168381 0.734326 0.362144
O O12 0.250000 0.672991 0.013035
O O13 0.114494 0.500000 0.034484
O O14 0.095792 0.761102 0.977682
O O15 0.835964 0.223861 0.402009
O O16 0.005761 0.192063 0.348429
O O17 0.879190 0.000000 0.336194
O O18 0.250000 0.000000 0.545023
O O19 0.375773 0.000000 0.911914
O O20 0.374562 0.000000 0.316171
#
# Coordination Sequence:
#
# PCOD9407721 Si02
#       8
#     8   8   4   8   8   4   8   8
#     4  10  22  40  64  90 117 154 206 265 319 373
#     4  11  22  34  54  89 131 170 205 251 314 381
#     4  12  28  46  66  96 135 176 219 266 320 382
#     4  11  25  41  56  83 122 162 206 258 319 383
#     4  10  20  39  69 100 129 166 215 262 315 382
#     4  10  22  42  72 104 135 172 211 258 314 384
#     4  11  22  39  61  87 118 158 213 266 313 374
#     4  10  22  44  70  98 130 168 218 274 323 378
#
# _framework density 19.753086
#
# number of rings (size 3 to 8) (size 9 to 14) (size 15 to 20)
#    0.000    1.429    2.143    2.786    1.000    8.857 
#    0.000    2.857    0.000    0.000    0.000    0.000 
#    0.000    0.000    0.000    0.000    0.000    0.000 
#
# Total GULP energy -311805.615076 kJ/mol
# GULP energy per Si atom -5567.957412 kJ/mol
# Density = 1.970813 g / cm^3
# Si number density = 19.753086 Si / 1000 Ang^3
#
#
#
# Elastic Constant Matrix: (Units=GPa)
#
#
# Indices 1 2 3 4 5 6 
#
# 1 71.3889 51.8830 46.7798 0.0000 0.0000 0.0000
# 2 51.8830 89.8188 75.0860 0.0000 0.0000 0.0000
# 3 46.7798 75.0860 200.2534 0.0000 0.0000 0.0000
# 4 0.0000 0.0000 0.0000 -1.7110 0.0000 0.0000
# 5 0.0000 0.0000 0.0000 0.0000 34.8630 0.0000
# 6 0.0000 0.0000 0.0000 0.0000 0.0000 18.0445
#
#
#
# Elastic Compliance Matrix: (Units=1/GPa)
#
#
# Indices 1 2 3 4 5 6 
#
# 1 0.024193 -0.013474 -0.000600 0.000000 0.000000 0.000000
# 2 -0.013474 0.023720 -0.005747 0.000000 0.000000 0.000000
# 3 -0.000600 -0.005747 0.007288 0.000000 0.000000 0.000000
# 4 0.000000 0.000000 0.000000 -0.584461 0.000000 0.000000
# 5 0.000000 0.000000 0.000000 0.000000 0.028684 0.000000
# 6 0.000000 0.000000 0.000000 0.000000 0.000000 0.055419
#
#
# Mechanical properties :
#
#
# Convention : Reuss Voigt Hill
#
# Bulk Modulus (GPa) = 64.25814 78.77320 71.51567
# Shear Modulus (GPa) = -12.48969 22.75345 5.13188
#
# Velocity S-wave (km/s) = -2.51727 3.39764 1.61358
# Velocity P-wave (km/s) = 4.91452 7.44026 6.30515
#
# Compressibility (1/GPa) = 0.01556223
#
# Stress axis : x y z
#
# Youngs Moduli (GPa) = 41.33473 42.15782 137.20339
#
# Poissons Ratio (x) = 0.56801 0.08226
# Poissons Ratio (y) = 0.55692 0.78846
# Poissons Ratio (z) = 0.02478 0.24227
#
# Static dielectric constant tensor:
#      x y z
#    x 1.831950 0.000000 0.000000 
#    y 0.000000 1.863510 0.000000 
#    z 0.000000 0.000000 1.646780 
# 
# From -- ./inp_files/33563.got.cif
#   From: 2010.05.17/outbox.ucp.g08.bks.cvg/sg51_17_cif.got.tgz:33563.got - 2010.06.11 16:27:58.
