data_PCOD9407204
_publ_section_title
;
Structure prediction by ZEFSAII (Michael W. Deem and Ramdas Pophale) SiO2 
 PCOD9407204
Probable space group: P M M A
;
_chemical_formula_sum "Si O2"
_cell_formula_units_Z 32
_cell_length_a 8.348738
_cell_length_b 15.962941
_cell_length_c 10.708680
_cell_angle_alpha 90.000000
_cell_angle_beta 90.000000
_cell_angle_gamma 90.000000
_cell_volume 1427.150197
_symmetry_space_group_name_H-M "P M M A"
_symmetry_group_IT_number 51
_symmetry_cell_setting 'orthorhombic'
loop_
_space_group_symop_operation_xyz
x,y,z
1/2-x,-y,z
1/2+x,-y,-z
-x,y,-z
-x,-y,-z
1/2+x,y,-z
1/2-x,y,z
x,-y,z
loop_
_atom_site_type_symbol
_atom_site_label
_atom_site_fract_x
_atom_site_fract_y
_atom_site_fract_z
Si Si1 0.750000 0.597086 0.445741
Si Si2 0.433647 0.825393 0.246560
Si Si3 0.943086 0.000000 0.145772
Si Si4 0.750000 0.591039 0.744291
Si Si5 0.064930 0.332009 0.861512
Si Si6 0.000000 0.730983 0.500000
O O1 0.750000 0.500000 0.395925
O O2 0.750000 0.586342 0.595198
O O3 0.608034 0.663168 0.425691
O O4 0.250000 0.814092 0.202641
O O5 0.488538 0.919167 0.218771
O O6 0.552951 0.766211 0.168998
O O7 0.436953 0.791958 0.390305
O O8 0.750000 0.000000 0.147827
O O9 0.000000 0.000000 0.000000
O O10 0.750000 0.500000 0.802739
O O11 0.582999 0.631166 0.782785
O O12 0.250000 0.361479 0.844684
O O13 0.000000 0.347700 0.000000
#
# Coordination Sequence:
#
# PCOD9407204 Si02
#       6
#     4   8   4   4   8   4
#     4  11  24  44  69 101 146 192 245 303 353 425
#     4  12  25  46  72 102 146 189 238 295 360 430
#     4  12  28  49  76 113 142 183 239 294 360 442
#     4  11  24  46  65  97 142 182 241 303 359 431
#     4  12  23  42  68  97 136 188 237 293 365 437
#     4  12  23  43  72 102 146 190 240 295 361 422
#
# _framework density 22.422307
#
# number of rings (size 3 to 8) (size 9 to 14) (size 15 to 20)
#    0.000    0.250    6.250    3.000    3.500    1.500 
#    0.000    0.000    0.000    0.000    0.000    0.000 
#    0.000    0.000    0.000    0.000    0.000    0.000 
#
# Total GULP energy -178456.517854 kJ/mol
# GULP energy per Si atom -5576.766183 kJ/mol
# Density = 2.237127 g / cm^3
# Si number density = 22.422307 Si / 1000 Ang^3
#
#
#
# Elastic Constant Matrix: (Units=GPa)
#
#
# Indices 1 2 3 4 5 6 
#
# 1 196.1143 64.4224 46.9003 0.0000 0.0000 0.0000
# 2 64.4224 171.9549 36.4280 0.0000 0.0000 0.0000
# 3 46.9003 36.4280 96.1882 0.0000 0.0000 0.0000
# 4 0.0000 0.0000 0.0000 19.5252 0.0000 0.0000
# 5 0.0000 0.0000 0.0000 0.0000 29.0816 0.0000
# 6 0.0000 0.0000 0.0000 0.0000 0.0000 102.9446
#
#
#
# Elastic Compliance Matrix: (Units=1/GPa)
#
#
# Indices 1 2 3 4 5 6 
#
# 1 0.006270 -0.001850 -0.002357 0.000000 0.000000 0.000000
# 2 -0.001850 0.006869 -0.001699 0.000000 0.000000 0.000000
# 3 -0.002357 -0.001699 0.012189 0.000000 0.000000 0.000000
# 4 0.000000 0.000000 0.000000 0.051216 0.000000 0.000000
# 5 0.000000 0.000000 0.000000 0.000000 0.034386 0.000000
# 6 0.000000 0.000000 0.000000 0.000000 0.000000 0.009714
#
#
# Mechanical properties :
#
#
# Convention : Reuss Voigt Hill
#
# Bulk Modulus (GPa) = 73.98623 84.41765 79.20194
# Shear Modulus (GPa) = 36.50678 51.41071 43.95875
#
# Velocity S-wave (km/s) = 4.03941 4.79355 4.43255
# Velocity P-wave (km/s) = 7.40433 8.26851 7.84832
#
# Compressibility (1/GPa) = 0.01351603
#
# Stress axis : x y z
#
# Youngs Moduli (GPa) = 159.48025 145.59193 82.04154
#
# Poissons Ratio (x) = 0.26933 0.19335
# Poissons Ratio (y) = 0.29502 0.13941
# Poissons Ratio (z) = 0.37586 0.24739
#
# Static dielectric constant tensor:
#      x y z
#    x -2.721690 0.000000 0.000000 
#    y 0.000000 1.853150 0.000000 
#    z 0.000000 0.000000 1.868480 
# 
# From -- ./inp_files/13860.got.cif
#   From: 2010.05.17/outbox.cif.g08.bks.cpg/sg51_7_cif.got.tgz:13860.got - 2010.06.03 11:52:47.
