data_PCOD9407340
_publ_section_title
;
Structure prediction by ZEFSAII (Michael W. Deem and Ramdas Pophale) SiO2 
 PCOD9407340
Probable space group: P M M A
;
_chemical_formula_sum "Si O2"
_cell_formula_units_Z 52
_cell_length_a 7.548911
_cell_length_b 14.149080
_cell_length_c 24.641454
_cell_angle_alpha 90.000000
_cell_angle_beta 90.000000
_cell_angle_gamma 90.000000
_cell_volume 2631.957291
_symmetry_space_group_name_H-M "P M M A"
_symmetry_group_IT_number 51
_symmetry_cell_setting 'orthorhombic'
loop_
_space_group_symop_operation_xyz
x,y,z
1/2-x,-y,z
1/2+x,-y,-z
-x,y,-z
-x,-y,-z
1/2+x,y,-z
1/2-x,y,z
x,-y,z
loop_
_atom_site_type_symbol
_atom_site_label
_atom_site_fract_x
_atom_site_fract_y
_atom_site_fract_z
Si Si1 0.535460 0.205133 0.669088
Si Si2 0.462234 0.892012 0.438898
Si Si3 0.462495 0.791458 0.936629
Si Si4 0.959421 0.102819 0.223914
Si Si5 0.538339 0.000000 0.064323
Si Si6 0.964500 0.704350 0.168731
Si Si7 0.541576 0.396661 0.724865
O O1 0.750000 0.209150 0.669004
O O2 0.473111 0.174612 0.609599
O O3 0.483485 0.125181 0.712590
O O4 0.468565 0.305822 0.692309
O O5 0.500000 0.859133 0.500000
O O6 0.250000 0.896631 0.433397
O O7 0.530372 0.000000 0.433594
O O8 0.250000 0.796455 0.932333
O O9 0.529090 0.896417 0.918738
O O10 0.521527 0.711897 0.893934
O O11 0.500000 0.775515 0.000000
O O12 0.750000 0.100009 0.211751
O O13 0.028225 0.195843 0.194183
O O14 0.033330 0.000000 0.209509
O O15 0.750000 0.000000 0.074420
O O16 0.500000 0.000000 0.000000
O O17 0.750000 0.700924 0.170518
O O18 0.025672 0.625763 0.210965
O O19 0.750000 0.399890 0.712167
O O20 0.465306 0.500000 0.712658
#
# Coordination Sequence:
#
# PCOD9407340 Si02
#       7
#     8   8   8   8   4   8   8
#     4   9  17  30  47  66  90 119 152 188 226 267
#     4   9  17  28  43  65  93 126 158 185 214 251
#     4   9  17  28  43  62  87 119 152 183 217 259
#     4   9  17  27  41  63  91 121 150 181 219 264
#     4   8  14  24  38  56  80 114 150 178 203 240
#     4   9  18  30  45  67  91 117 148 182 224 271
#     4   9  18  33  52  71  89 112 145 187 235 281
#
# _framework density 19.757159999999999
#
# number of rings (size 3 to 8) (size 9 to 14) (size 15 to 20)
#    0.000    3.077    0.000    0.462    1.077    2.462 
#    0.000    1.538    0.000    0.923    0.000    0.000 
#    0.000    0.000    0.000    0.000    0.000    0.000 
#
# Total GULP energy -289705.903559 kJ/mol
# GULP energy per Si atom -5571.267376 kJ/mol
# Density = 1.971219 g / cm^3
# Si number density = 19.757160 Si / 1000 Ang^3
#
#
#
# Elastic Constant Matrix: (Units=GPa)
#
#
# Indices 1 2 3 4 5 6 
#
# 1 48.0541 2.1757 -7.4146 0.0000 0.0000 0.0000
# 2 2.1757 75.1072 23.6291 0.0000 0.0000 0.0000
# 3 -7.4146 23.6291 102.3245 0.0000 0.0000 0.0000
# 4 0.0000 0.0000 0.0000 16.2685 0.0000 0.0000
# 5 0.0000 0.0000 0.0000 0.0000 14.9834 0.0000
# 6 0.0000 0.0000 0.0000 0.0000 0.0000 8.6808
#
#
#
# Elastic Compliance Matrix: (Units=1/GPa)
#
#
# Indices 1 2 3 4 5 6 
#
# 1 0.021142 -0.001180 0.001804 0.000000 0.000000 0.000000
# 2 -0.001180 0.014423 -0.003416 0.000000 0.000000 0.000000
# 3 0.001804 -0.003416 0.010692 0.000000 0.000000 0.000000
# 4 0.000000 0.000000 0.000000 0.061468 0.000000 0.000000
# 5 0.000000 0.000000 0.000000 0.000000 0.066741 0.000000
# 6 0.000000 0.000000 0.000000 0.000000 0.000000 0.115197
#
#
# Mechanical properties :
#
#
# Convention : Reuss Voigt Hill
#
# Bulk Modulus (GPa) = 24.58588 29.14071 26.86329
# Shear Modulus (GPa) = 16.19147 21.79292 18.99219
#
# Velocity S-wave (km/s) = 2.86584 3.32481 3.10382
# Velocity P-wave (km/s) = 4.83960 5.43328 5.14501
#
# Compressibility (1/GPa) = 0.04067376
#
# Stress axis : x y z
#
# Youngs Moduli (GPa) = 47.29983 69.33261 93.52386
#
# Poissons Ratio (x) = 0.08182 -0.16876
# Poissons Ratio (y) = 0.05582 0.31949
# Poissons Ratio (z) = -0.08535 0.23685
#
# Static dielectric constant tensor:
#      x y z
#    x 1.771170 0.000000 0.000000 
#    y 0.000000 1.708020 0.000000 
#    z 0.000000 0.000000 1.717910 
# 
# From -- ./inp_files/36349.got.cif
#   From: 2010.05.17/outbox.cif.g08.bks.cpg/sg51_19_cif.got.tgz:36349.got - 2010.06.03 11:52:47.
