data_PCOD9407166
_publ_section_title
;
Structure prediction by ZEFSAII (Michael W. Deem and Ramdas Pophale) SiO2 
 PCOD9407166
Probable space group: P M M A
;
_chemical_formula_sum "Si O2"
_cell_formula_units_Z 52
_cell_length_a 23.509314
_cell_length_b 13.264257
_cell_length_c 8.715587
_cell_angle_alpha 90.000000
_cell_angle_beta 90.000000
_cell_angle_gamma 90.000000
_cell_volume 2717.812720
_symmetry_space_group_name_H-M "P M M A"
_symmetry_group_IT_number 51
_symmetry_cell_setting 'orthorhombic'
loop_
_space_group_symop_operation_xyz
x,y,z
1/2-x,-y,z
1/2+x,-y,-z
-x,y,-z
-x,-y,-z
1/2+x,y,-z
1/2-x,y,z
x,-y,z
loop_
_atom_site_type_symbol
_atom_site_label
_atom_site_fract_x
_atom_site_fract_y
_atom_site_fract_z
Si Si1 0.750000 0.888965 0.634148
Si Si2 0.065101 0.884376 0.056437
Si Si3 0.139100 0.721382 0.872276
Si Si4 0.458110 0.788236 0.371251
Si Si5 0.750000 0.324643 0.668006
Si Si6 0.250000 0.387300 0.003208
Si Si7 0.660446 0.234003 0.472132
Si Si8 0.522033 0.384187 0.175423
O O1 0.750000 0.790225 0.741943
O O2 0.805704 0.865183 0.531481
O O3 0.750000 0.000000 0.699322
O O4 0.061743 0.862635 0.237156
O O5 0.080750 0.000000 0.024394
O O6 0.107880 0.806979 0.974256
O O7 0.000000 0.868419 0.000000
O O8 0.160327 0.763464 0.709708
O O9 0.088605 0.643015 0.832149
O O10 0.192532 0.669862 0.954028
O O11 0.500000 0.832394 0.500000
O O12 0.402245 0.757219 0.462756
O O13 0.489484 0.694994 0.285175
O O14 0.750000 0.393861 0.812376
O O15 0.696571 0.322830 0.554155
O O16 0.250000 0.500000 0.936587
O O17 0.512866 0.500000 0.223342
O O18 0.500000 0.373568 0.000000
#
# Coordination Sequence:
#
# PCOD9407166 Si02
#       8
#     4   8   8   8   4   4   8   8
#     4   8  19  39  64  88 120 160 204 251 314 371
#     4  11  23  40  64  95 129 171 212 253 313 380
#     4  12  21  46  64  92 132 164 213 270 314 376
#     4  12  20  39  62  92 137 165 208 265 319 373
#     4   8  21  42  59  91 125 156 205 262 315 364
#     4  12  26  43  69  91 121 172 219 263 325 379
#     4   9  21  37  64  90 127 164 199 263 322 366
#     4  11  23  39  64  92 124 169 212 258 321 381
#
# _framework density 19.133033000000001
#
# number of rings (size 3 to 8) (size 9 to 14) (size 15 to 20)
#    0.923    0.308    4.615    2.308    0.000    1.846 
#    0.000    2.692    0.000    0.000    0.000    0.000 
#    0.000    0.000    0.000    0.000    0.000    0.000 
#
# Total GULP energy -289784.959675 kJ/mol
# GULP energy per Si atom -5572.787686 kJ/mol
# Density = 1.908949 g / cm^3
# Si number density = 19.133033 Si / 1000 Ang^3
#
#
#
# Elastic Constant Matrix: (Units=GPa)
#
#
# Indices 1 2 3 4 5 6 
#
# 1 131.9951 28.7379 36.9395 0.0000 0.0000 0.0000
# 2 28.7379 105.3006 20.9450 0.0000 0.0000 0.0000
# 3 36.9395 20.9450 97.7912 0.0000 0.0000 0.0000
# 4 0.0000 0.0000 0.0000 9.5416 0.0000 0.0000
# 5 0.0000 0.0000 0.0000 0.0000 34.4452 0.0000
# 6 0.0000 0.0000 0.0000 0.0000 0.0000 18.3525
#
#
#
# Elastic Compliance Matrix: (Units=1/GPa)
#
#
# Indices 1 2 3 4 5 6 
#
# 1 0.008792 -0.001816 -0.002932 0.000000 0.000000 0.000000
# 2 -0.001816 0.010294 -0.001519 0.000000 0.000000 0.000000
# 3 -0.002932 -0.001519 0.011659 0.000000 0.000000 0.000000
# 4 0.000000 0.000000 0.000000 0.104804 0.000000 0.000000
# 5 0.000000 0.000000 0.000000 0.000000 0.029032 0.000000
# 6 0.000000 0.000000 0.000000 0.000000 0.000000 0.054488
#
#
# Mechanical properties :
#
#
# Convention : Reuss Voigt Hill
#
# Bulk Modulus (GPa) = 54.91217 56.48130 55.69673
# Shear Modulus (GPa) = 21.03726 29.03218 25.03472
#
# Velocity S-wave (km/s) = 3.31951 3.89959 3.62118
# Velocity P-wave (km/s) = 6.59202 7.06117 6.83062
#
# Compressibility (1/GPa) = 0.01821090
#
# Stress axis : x y z
#
# Youngs Moduli (GPa) = 113.73944 97.14027 85.77271
#
# Poissons Ratio (x) = 0.17643 0.25149
# Poissons Ratio (y) = 0.20658 0.13027
# Poissons Ratio (z) = 0.33349 0.14754
#
# Static dielectric constant tensor:
#      x y z
#    x 1.678390 0.000000 0.000000 
#    y 0.000000 1.685830 0.000000 
#    z 0.000000 0.000000 1.671660 
# 
# From -- ./inp_files/11792.got.cif
#   From: 2010.05.17/outbox.cif.g08.bks.cpg/sg51_6_cif.got.tgz:11792.got - 2010.06.03 11:52:47.
