data_PCOD9407595
_publ_section_title
;
Structure prediction by ZEFSAII (Michael W. Deem and Ramdas Pophale) SiO2 
 PCOD9407595
Probable space group: P M M A
;
_chemical_formula_sum "Si O2"
_cell_formula_units_Z 64
_cell_length_a 18.000000
_cell_length_b 9.000000
_cell_length_c 24.000000
_cell_angle_alpha 90.000000
_cell_angle_beta 90.000000
_cell_angle_gamma 90.000000
_cell_volume 3888.000000
_symmetry_space_group_name_H-M "P M M A"
_symmetry_group_IT_number 51
_symmetry_cell_setting 'orthorhombic'
loop_
_space_group_symop_operation_xyz
x,y,z
1/2-x,-y,z
1/2+x,-y,-z
-x,y,-z
-x,-y,-z
1/2+x,y,-z
1/2-x,y,z
x,-y,z
loop_
_atom_site_type_symbol
_atom_site_label
_atom_site_fract_x
_atom_site_fract_y
_atom_site_fract_z
Si Si1 0.972771 0.178910 0.740051
Si Si2 0.573671 0.329441 0.038744
Si Si3 0.447279 0.822157 0.628311
Si Si4 0.085861 0.676356 0.432602
Si Si5 0.978764 0.179445 0.868488
Si Si6 0.166505 0.676437 0.318282
Si Si7 0.335864 0.820792 0.057061
Si Si8 0.163602 0.321038 0.548071
O O1 0.984934 0.226572 0.803904
O O2 0.894440 0.239887 0.717942
O O3 0.031750 0.223715 0.691813
O O4 0.970735 0.000000 0.740069
O O5 0.594715 0.500000 0.049946
O O6 0.544736 0.247272 0.094070
O O7 0.500000 0.330079 0.000000
O O8 0.635702 0.248034 0.001369
O O9 0.514385 0.764627 0.588931
O O10 0.374036 0.751374 0.601904
O O11 0.443575 0.000000 0.626447
O O12 0.067310 0.500000 0.435389
O O13 0.146393 0.695542 0.383529
O O14 0.118484 0.722353 0.492132
O O15 0.898589 0.221104 0.896515
O O16 0.983212 0.000000 0.871092
O O17 0.250000 0.726967 0.307076
O O18 0.161396 0.500000 0.307163
O O19 0.250000 0.777659 0.069378
O O20 0.337882 0.000000 0.052920
O O21 0.250000 0.280933 0.542317
O O22 0.158764 0.500000 0.552039
#
# Coordination Sequence:
#
# PCOD9407595 Si02
#       8
#     8   8   8   8   8   8   8   8
#     4   9  19  33  48  67  92 125 162 196 231 271
#     4   9  17  29  46  69  96 124 152 184 225 268
#     4  10  20  33  48  69  97 125 154 191 236 284
#     4   9  17  31  50  69  91 121 156 192 232 282
#     4   9  17  31  50  69  91 123 163 199 226 262
#     4   9  17  29  45  66  93 124 156 191 232 278
#     4   9  17  29  47  72  99 125 153 186 225 269
#     4  10  20  33  50  71  92 117 153 196 241 288
#
# _framework density 16.460905
#
# number of rings (size 3 to 8) (size 9 to 14) (size 15 to 20)
#    0.000    2.750    0.000    1.500    0.000    7.250 
#    0.000    1.250    0.000    3.000    0.000    1.750 
#    0.000    0.000    0.000    0.000    0.000    0.000 
#
# Total GULP energy -356634.111748 kJ/mol
# GULP energy per Si atom -5572.407996 kJ/mol
# Density = 1.642344 g / cm^3
# Si number density = 16.460905 Si / 1000 Ang^3
#
#
#
# Elastic Constant Matrix: (Units=GPa)
#
#
# Indices 1 2 3 4 5 6 
#
# 1 53.8860 17.5694 45.2488 0.0000 0.0000 0.0000
# 2 17.5694 17.3985 30.8107 0.0000 0.0000 0.0000
# 3 45.2488 30.8107 139.0866 0.0000 0.0000 0.0000
# 4 0.0000 0.0000 0.0000 21.5529 0.0000 0.0000
# 5 0.0000 0.0000 0.0000 0.0000 12.9828 0.0000
# 6 0.0000 0.0000 0.0000 0.0000 0.0000 15.1599
#
#
#
# Elastic Compliance Matrix: (Units=1/GPa)
#
#
# Indices 1 2 3 4 5 6 
#
# 1 0.029603 -0.021127 -0.004951 0.000000 0.000000 0.000000
# 2 -0.021127 0.109656 -0.017418 0.000000 0.000000 0.000000
# 3 -0.004951 -0.017418 0.012659 0.000000 0.000000 0.000000
# 4 0.000000 0.000000 0.000000 0.046398 0.000000 0.000000
# 5 0.000000 0.000000 0.000000 0.000000 0.077025 0.000000
# 6 0.000000 0.000000 0.000000 0.000000 0.000000 0.065963
#
#
# Mechanical properties :
#
#
# Convention : Reuss Voigt Hill
#
# Bulk Modulus (GPa) = 15.40197 44.18097 29.79147
# Shear Modulus (GPa) = 11.11267 17.72194 14.41730
#
# Velocity S-wave (km/s) = 2.60108 3.28473 2.96269
# Velocity P-wave (km/s) = 4.28927 6.42527 5.46269
#
# Compressibility (1/GPa) = 0.06492677
#
# Stress axis : x y z
#
# Youngs Moduli (GPa) = 33.78009 9.11944 78.99640
#
# Poissons Ratio (x) = 0.19267 0.39109
# Poissons Ratio (y) = 0.71367 1.37595
# Poissons Ratio (z) = 0.16723 0.15884
#
# Static dielectric constant tensor:
#      x y z
#    x 1.547200 0.000000 0.000000 
#    y 0.000000 1.554210 0.000000 
#    z 0.000000 0.000000 1.552390 
# 
# From -- ./inp_files/35895.got.cif
#   From: 2010.05.17/outbox.ucp.g08.bks.cvg/sg51_18_cif.got.tgz:35895.got - 2010.06.11 16:27:58.
