data_PCOD9407572
_publ_section_title
;
Structure prediction by ZEFSAII (Michael W. Deem and Ramdas Pophale) SiO2 
 PCOD9407572
Probable space group: P M M A
;
_chemical_formula_sum "Si O2"
_cell_formula_units_Z 52
_cell_length_a 9.000000
_cell_length_b 18.000000
_cell_length_c 18.000000
_cell_angle_alpha 90.000000
_cell_angle_beta 90.000000
_cell_angle_gamma 90.000000
_cell_volume 2916.000000
_symmetry_space_group_name_H-M "P M M A"
_symmetry_group_IT_number 51
_symmetry_cell_setting 'orthorhombic'
loop_
_space_group_symop_operation_xyz
x,y,z
1/2-x,-y,z
1/2+x,-y,-z
-x,y,-z
-x,-y,-z
1/2+x,y,-z
1/2-x,y,z
x,-y,z
loop_
_atom_site_type_symbol
_atom_site_label
_atom_site_fract_x
_atom_site_fract_y
_atom_site_fract_z
Si Si1 0.925006 0.118645 0.925939
Si Si2 0.069765 0.500000 0.419676
Si Si3 0.917762 0.766866 0.279529
Si Si4 0.926912 0.621344 0.696182
Si Si5 0.081347 0.731059 0.897020
Si Si6 0.428257 0.080784 0.770747
Si Si7 0.428509 0.416098 0.133587
O O1 0.750000 0.107985 0.927182
O O2 0.968971 0.205879 0.923941
O O3 0.995334 0.086606 0.850871
O O4 0.000000 0.087476 0.000000
O O5 0.250000 0.500000 0.424615
O O6 0.020303 0.569704 0.370056
O O7 0.000000 0.500000 0.500000
O O8 0.750000 0.764114 0.308649
O O9 0.911714 0.745876 0.191788
O O10 0.976909 0.850502 0.279608
O O11 0.017544 0.704354 0.314785
O O12 0.750000 0.619064 0.696281
O O13 0.969113 0.591821 0.778493
O O14 0.250000 0.740353 0.925690
O O15 0.017054 0.648925 0.907528
O O16 0.250000 0.089620 0.782068
O O17 0.456589 0.000000 0.738428
O O18 0.250000 0.404348 0.127490
O O19 0.462305 0.500000 0.109401
#
# Coordination Sequence:
#
# PCOD9407572 Si02
#       7
#     8   4   8   8   8   8   8
#     4  11  21  33  48  64  84 114 151 187 224 274
#     4  10  20  32  44  64  96 134 169 198 227 260
#     4   8  15  27  44  66  89 115 149 186 224 267
#     4   9  16  28  44  62  89 124 159 191 224 265
#     4   9  17  29  43  62  86 110 142 185 229 274
#     4   9  18  33  50  69  96 123 146 181 229 277
#     4   9  15  25  43  65  87 112 144 184 228 273
#
# _framework density 17.832647000000001
#
# number of rings (size 3 to 8) (size 9 to 14) (size 15 to 20)
#    0.000    2.769    0.769    2.769    0.000    5.231 
#    0.000    0.000    0.000    0.462    0.000    0.000 
#    0.000    0.615    0.000    1.385    0.000    2.154 
#
# Total GULP energy -289746.769257 kJ/mol
# GULP energy per Si atom -5572.053255 kJ/mol
# Density = 1.779206 g / cm^3
# Si number density = 17.832647 Si / 1000 Ang^3
#
#
#
# Elastic Constant Matrix: (Units=GPa)
#
#
# Indices 1 2 3 4 5 6 
#
# 1 22.8758 18.9372 9.0185 0.0000 0.0000 0.0000
# 2 18.9372 136.8518 15.8245 0.0000 0.0000 0.0000
# 3 9.0185 15.8245 36.7418 0.0000 0.0000 0.0000
# 4 0.0000 0.0000 0.0000 88.9494 0.0000 0.0000
# 5 0.0000 0.0000 0.0000 0.0000 16.3584 0.0000
# 6 0.0000 0.0000 0.0000 0.0000 0.0000 16.3387
#
#
#
# Elastic Compliance Matrix: (Units=1/GPa)
#
#
# Indices 1 2 3 4 5 6 
#
# 1 0.052855 -0.006119 -0.010338 0.000000 0.000000 0.000000
# 2 -0.006119 0.008398 -0.002115 0.000000 0.000000 0.000000
# 3 -0.010338 -0.002115 0.030666 0.000000 0.000000 0.000000
# 4 0.000000 0.000000 0.000000 0.011242 0.000000 0.000000
# 5 0.000000 0.000000 0.000000 0.000000 0.061131 0.000000
# 6 0.000000 0.000000 0.000000 0.000000 0.000000 0.061204
#
#
# Mechanical properties :
#
#
# Convention : Reuss Voigt Hill
#
# Bulk Modulus (GPa) = 18.25662 31.55888 24.90775
# Shear Modulus (GPa) = 17.79997 34.50858 26.15427
#
# Velocity S-wave (km/s) = 3.16281 4.40379 3.83384
# Velocity P-wave (km/s) = 4.85775 6.60254 5.79617
#
# Compressibility (1/GPa) = 0.05477466
#
# Stress axis : x y z
#
# Youngs Moduli (GPa) = 18.91964 119.06973 32.60974
#
# Poissons Ratio (x) = 0.72853 0.33713
# Poissons Ratio (y) = 0.11576 0.06898
# Poissons Ratio (z) = 0.19560 0.25187
#
# Static dielectric constant tensor:
#      x y z
#    x 1.603770 0.000000 0.000000 
#    y 0.000000 1.672980 0.000000 
#    z 0.000000 0.000000 1.598820 
# 
# From -- ./inp_files/27965.got.cif
#   From: 2010.05.17/outbox.ucp.g08.bks.cvg/sg51_14_cif.got.tgz:27965.got - 2010.06.11 16:27:58.
