data_PCOD9407005
_publ_section_title
;
Structure prediction by ZEFSAII (Michael W. Deem and Ramdas Pophale) SiO2 
 PCOD9407005
Probable space group: P M M A
;
_chemical_formula_sum "Si O2"
_cell_formula_units_Z 64
_cell_length_a 14.901263
_cell_length_b 14.097034
_cell_length_c 19.881878
_cell_angle_alpha 90.000000
_cell_angle_beta 90.000000
_cell_angle_gamma 90.000000
_cell_volume 4176.459089
_symmetry_space_group_name_H-M "P M M A"
_symmetry_group_IT_number 51
_symmetry_cell_setting 'orthorhombic'
loop_
_space_group_symop_operation_xyz
x,y,z
1/2-x,-y,z
1/2+x,-y,-z
-x,y,-z
-x,-y,-z
1/2+x,y,-z
1/2-x,y,z
x,-y,z
loop_
_atom_site_type_symbol
_atom_site_label
_atom_site_fract_x
_atom_site_fract_y
_atom_site_fract_z
Si Si1 0.147046 0.615545 0.500000
Si Si2 0.646641 0.300200 0.859959
Si Si3 1.000000 0.385097 0.607061
Si Si4 0.358996 0.390882 1.000000
Si Si5 0.500000 0.385108 0.763274
Si Si6 0.608462 0.891774 0.922950
Si Si7 0.853359 0.300200 0.140041
Si Si8 0.891538 0.891774 0.077050
O O1 0.250000 0.648285 0.500000
O O2 0.149139 0.500000 0.500000
O O3 0.088116 0.644655 0.435095
O O4 0.088116 0.644655 0.564905
O O5 0.750000 0.328966 0.850767
O O6 0.585543 0.341218 0.801321
O O7 0.641626 0.187313 0.871585
O O8 0.611868 0.341745 0.931234
O O9 1.000000 0.500000 0.605729
O O10 1.000000 0.357934 0.684774
O O11 0.250000 0.386408 1.000000
O O12 0.386255 0.500000 0.000000
O O13 0.388132 0.341745 0.931234
O O14 0.500000 0.500000 0.769066
O O15 0.414457 0.341218 0.801321
O O16 0.500000 0.889066 0.922677
O O17 0.635662 0.000000 0.908251
O O18 0.637676 0.869743 0.000000
O O19 0.750000 0.328966 0.149234
O O20 0.858374 0.187313 0.128415
O O21 0.864338 0.000000 0.091749
#
# Coordination Sequence:
#
# PCOD9407005 Si02
#       8
#     8   8   8   8   8   8   8   8
#     4   8  13  25  48  71  89 112 145 187 227 261
#     4  11  21  33  48  66  88 119 160 204 247 288
#     4   8  16  29  43  65  92 118 153 188 221 266
#     4   9  18  31  44  59  81 114 162 209 237 267
#     4  11  23  35  46  63  95 134 164 194 230 273
#     4   9  17  31  51  71  88 109 146 201 261 311
#     4  11  21  33  48  66  88 119 160 204 247 288
#     4   9  17  31  51  71  88 109 146 201 261 311
#
# _framework density 15.323986
#
# number of rings (size 3 to 8) (size 9 to 14) (size 15 to 20)
#    0.000    2.500    2.500    2.250    0.000    3.500 
#    0.000    5.000    0.000    0.000    0.000    0.000 
#    0.000    0.000    0.000    9.000    0.000   20.500 
#
# Total GULP energy -356841.260663 kJ/mol
# GULP energy per Si atom -5575.644698 kJ/mol
# Density = 1.528911 g / cm^3
# Si number density = 15.323986 Si / 1000 Ang^3
#
#
#
# Elastic Constant Matrix: (Units=GPa)
#
#
# Indices 1 2 3 4 5 6 
#
# 1 111.9184 17.4660 63.4447 0.0000 0.0000 0.0000
# 2 17.4660 64.8345 38.9905 0.0000 0.0000 0.0000
# 3 63.4447 38.9905 135.1485 0.0000 0.0000 0.0000
# 4 0.0000 0.0000 0.0000 3.8879 0.0000 0.0000
# 5 0.0000 0.0000 0.0000 0.0000 10.7011 0.0000
# 6 0.0000 0.0000 0.0000 0.0000 0.0000 10.9859
#
#
#
# Elastic Compliance Matrix: (Units=1/GPa)
#
#
# Indices 1 2 3 4 5 6 
#
# 1 0.012177 0.000190 -0.005771 0.000000 0.000000 0.000000
# 2 0.000190 0.018665 -0.005474 0.000000 0.000000 0.000000
# 3 -0.005771 -0.005474 0.011688 0.000000 0.000000 0.000000
# 4 0.000000 0.000000 0.000000 0.257210 0.000000 0.000000
# 5 0.000000 0.000000 0.000000 0.000000 0.093448 0.000000
# 6 0.000000 0.000000 0.000000 0.000000 0.000000 0.091026
#
#
# Mechanical properties :
#
#
# Convention : Reuss Voigt Hill
#
# Bulk Modulus (GPa) = 48.97312 61.30042 55.13677
# Shear Modulus (GPa) = 9.74411 17.91499 13.82955
#
# Velocity S-wave (km/s) = 2.52439 3.42289 3.00738
# Velocity P-wave (km/s) = 6.36589 7.46400 6.93671
#
# Compressibility (1/GPa) = 0.02041936
#
# Stress axis : x y z
#
# Youngs Moduli (GPa) = 82.12151 53.57715 85.55835
#
# Poissons Ratio (x) = -0.01020 0.49379
# Poissons Ratio (y) = -0.01564 0.46836
# Poissons Ratio (z) = 0.47396 0.29329
#
# Static dielectric constant tensor:
#      x y z
#    x 1.553670 0.000000 0.000000 
#    y 0.000000 1.515210 0.000000 
#    z 0.000000 0.000000 1.484980 
# 
# From -- ./inp_files/29999.got.cif
#   From: 2010.05.17/outbox.cif.g08.bks.cpg/sg51_15_cif.got.tgz:29999.got - 2010.06.03 11:52:47.
