data_PCOD9407660
_publ_section_title
;
Structure prediction by ZEFSAII (Michael W. Deem and Ramdas Pophale) SiO2 
 PCOD9407660
Probable space group: P M M A
;
_chemical_formula_sum "Si O2"
_cell_formula_units_Z 40
_cell_length_a 9.000000
_cell_length_b 27.000000
_cell_length_c 9.000000
_cell_angle_alpha 90.000000
_cell_angle_beta 90.000000
_cell_angle_gamma 90.000000
_cell_volume 2187.000000
_symmetry_space_group_name_H-M "P M M A"
_symmetry_group_IT_number 51
_symmetry_cell_setting 'orthorhombic'
loop_
_space_group_symop_operation_xyz
x,y,z
1/2-x,-y,z
1/2+x,-y,-z
-x,y,-z
-x,-y,-z
1/2+x,y,-z
1/2-x,y,z
x,-y,z
loop_
_atom_site_type_symbol
_atom_site_label
_atom_site_fract_x
_atom_site_fract_y
_atom_site_fract_z
Si Si1 0.927156 0.151772 0.664462
Si Si2 0.571302 0.353310 0.161712
Si Si3 0.572932 0.443475 0.662836
Si Si4 0.572052 0.054506 0.334645
Si Si5 0.428454 0.262183 0.336170
O O1 0.750000 0.144564 0.651771
O O2 0.953148 0.206698 0.728979
O O3 0.000000 0.154132 0.500000
O O4 0.000993 0.103431 0.738392
O O5 0.750000 0.352881 0.158602
O O6 0.510280 0.402579 0.241155
O O7 0.507935 0.305303 0.246052
O O8 0.500000 0.352502 0.000000
O O9 0.500000 0.441591 0.500000
O O10 0.750000 0.433271 0.654926
O O11 0.554489 0.500000 0.719004
O O12 0.500000 0.052789 0.500000
O O13 0.750000 0.060180 0.346771
O O14 0.541757 0.000000 0.267030
O O15 0.500000 0.263075 0.500000
O O16 0.250000 0.269990 0.344589
#
# Coordination Sequence:
#
# PCOD9407660 Si02
#       5
#     8   8   8   8   8
#     4   9  16  25  40  61  87 121 161 206 251 300
#     4  12  25  40  58  80 109 143 178 219 266 314
#     4  10  21  39  63  89 116 146 180 217 257 304
#     4   9  15  21  31  50  80 118 157 198 246 301
#     4  10  20  35  54  77 104 136 177 220 264 314
#
# _framework density 18.289895000000001
#
# number of rings (size 3 to 8) (size 9 to 14) (size 15 to 20)
#    0.000    2.000    0.000    6.000    0.000    5.200 
#    0.000    0.000    0.000    0.000    0.000    0.000 
#    0.000    0.800    0.000    2.600    0.000   11.200 
#
# Total GULP energy -223030.895081 kJ/mol
# GULP energy per Si atom -5575.772377 kJ/mol
# Density = 1.824827 g / cm^3
# Si number density = 18.289895 Si / 1000 Ang^3
#
#
#
# Elastic Constant Matrix: (Units=GPa)
#
#
# Indices 1 2 3 4 5 6 
#
# 1 166.1748 106.7363 33.7646 0.0000 0.0000 0.0000
# 2 106.7363 203.9133 66.0780 0.0000 0.0000 0.0000
# 3 33.7646 66.0780 45.5775 0.0000 0.0000 0.0000
# 4 0.0000 0.0000 0.0000 -15.2195 0.0000 0.0000
# 5 0.0000 0.0000 0.0000 0.0000 21.3128 0.0000
# 6 0.0000 0.0000 0.0000 0.0000 0.0000 32.5454
#
#
#
# Elastic Compliance Matrix: (Units=1/GPa)
#
#
# Indices 1 2 3 4 5 6 
#
# 1 0.009068 -0.004847 0.000309 0.000000 0.000000 0.000000
# 2 -0.004847 0.011840 -0.013575 0.000000 0.000000 0.000000
# 3 0.000309 -0.013575 0.041393 0.000000 0.000000 0.000000
# 4 0.000000 0.000000 0.000000 -0.065705 0.000000 0.000000
# 5 0.000000 0.000000 0.000000 0.000000 0.046920 0.000000
# 6 0.000000 0.000000 0.000000 0.000000 0.000000 0.030726
#
#
# Mechanical properties :
#
#
# Convention : Reuss Voigt Hill
#
# Bulk Modulus (GPa) = 38.35056 92.09150 65.22103
# Shear Modulus (GPa) = 41.96063 21.66686 31.81374
#
# Velocity S-wave (km/s) = 4.79497 3.44559 4.17516
# Velocity P-wave (km/s) = 7.18814 8.14185 7.67982
#
# Compressibility (1/GPa) = 0.02607524
#
# Stress axis : x y z
#
# Youngs Moduli (GPa) = 110.27672 84.45959 24.15885
#
# Poissons Ratio (x) = 0.40935 -0.00746
# Poissons Ratio (y) = 0.53448 0.32796
# Poissons Ratio (z) = -0.03407 1.14654
#
# Static dielectric constant tensor:
#      x y z
#    x 1.599480 0.000000 0.000000 
#    y 0.000000 1.703600 0.000000 
#    z 0.000000 0.000000 1.706460 
# 
# From -- ./inp_files/5505.got.cif
#   From: 2010.05.17/outbox.ucp.g08.bks.cvg/sg51_3_cif.got.tgz:5505.got - 2010.06.11 16:27:58.
