data_PCOD9407303
_publ_section_title
;
Structure prediction by ZEFSAII (Michael W. Deem and Ramdas Pophale) SiO2 
 PCOD9407303
Probable space group: P M M A
;
_chemical_formula_sum "Si O2"
_cell_formula_units_Z 48
_cell_length_a 14.653001
_cell_length_b 9.963690
_cell_length_c 18.181928
_cell_angle_alpha 90.000000
_cell_angle_beta 90.000000
_cell_angle_gamma 90.000000
_cell_volume 2654.524388
_symmetry_space_group_name_H-M "P M M A"
_symmetry_group_IT_number 51
_symmetry_cell_setting 'orthorhombic'
loop_
_space_group_symop_operation_xyz
x,y,z
1/2-x,-y,z
1/2+x,-y,-z
-x,y,-z
-x,-y,-z
1/2+x,y,-z
1/2-x,y,z
x,-y,z
loop_
_atom_site_type_symbol
_atom_site_label
_atom_site_fract_x
_atom_site_fract_y
_atom_site_fract_z
Si Si1 0.354365 0.663550 0.200245
Si Si2 0.140818 0.656169 0.792786
Si Si3 0.138806 0.154178 0.494144
Si Si4 0.138363 0.653938 0.363452
Si Si5 0.496788 0.336904 0.916474
Si Si6 0.861268 0.845889 0.340336
O O1 0.250000 0.706814 0.189825
O O2 0.354495 0.500000 0.201548
O O3 0.387065 0.703541 0.281809
O O4 0.418764 0.707427 0.134170
O O5 0.250000 0.665277 0.799639
O O6 0.117015 0.500000 0.778457
O O7 0.110300 0.746940 0.724458
O O8 0.092437 0.696821 0.868679
O O9 0.250000 0.155665 0.493191
O O10 0.107814 0.251803 0.429640
O O11 0.111255 0.194231 0.576887
O O12 0.110910 0.000000 0.481499
O O13 0.250000 0.652040 0.363305
O O14 0.108240 0.500000 0.373358
O O15 0.500372 0.500000 0.920180
O O16 0.500000 0.287022 0.000000
O O17 0.750000 0.845467 0.340025
O O18 0.889984 0.000000 0.327818
#
# Coordination Sequence:
#
# PCOD9407303 Si02
#       6
#     8   8   8   8   8   8
#     4   8  14  25  41  61  85 114 148 182 215 257
#     4   9  17  28  43  66  93 116 142 180 221 258
#     4   8  13  21  35  58  86 113 144 180 212 247
#     4   8  13  21  35  57  83 110 141 176 213 252
#     4   9  17  28  43  64  89 116 144 177 221 268
#     4   8  14  25  41  61  86 118 152 180 211 256
#
# _framework density 18.082335
#
# number of rings (size 3 to 8) (size 9 to 14) (size 15 to 20)
#    0.000    3.667    0.000    2.000    0.000    1.333 
#    0.000    6.667    0.000    2.500    0.000    7.000 
#    0.000    5.333    0.000    0.000    0.000    0.000 
#
# Total GULP energy -267364.030622 kJ/mol
# GULP energy per Si atom -5570.083971 kJ/mol
# Density = 1.804118 g / cm^3
# Si number density = 18.082335 Si / 1000 Ang^3
#
#
#
# Elastic Constant Matrix: (Units=GPa)
#
#
# Indices 1 2 3 4 5 6 
#
# 1 54.0700 23.5123 45.2865 0.0000 0.0000 0.0000
# 2 23.5123 41.5630 77.0841 0.0000 0.0000 0.0000
# 3 45.2865 77.0841 216.8618 0.0000 0.0000 0.0000
# 4 0.0000 0.0000 0.0000 -41.1125 0.0000 0.0000
# 5 0.0000 0.0000 0.0000 0.0000 51.7488 0.0000
# 6 0.0000 0.0000 0.0000 0.0000 0.0000 2.0376
#
#
#
# Elastic Compliance Matrix: (Units=1/GPa)
#
#
# Indices 1 2 3 4 5 6 
#
# 1 0.024551 -0.012854 -0.000558 0.000000 0.000000 0.000000
# 2 -0.012854 0.077335 -0.024805 0.000000 0.000000 0.000000
# 3 -0.000558 -0.024805 0.013545 0.000000 0.000000 0.000000
# 4 0.000000 0.000000 0.000000 -0.024323 0.000000 0.000000
# 5 0.000000 0.000000 0.000000 0.000000 0.019324 0.000000
# 6 0.000000 0.000000 0.000000 0.000000 0.000000 0.490779
#
#
# Mechanical properties :
#
#
# Convention : Reuss Voigt Hill
#
# Bulk Modulus (GPa) = 25.64241 67.14007 46.39124
# Shear Modulus (GPa) = 7.23963 13.64223 10.44093
#
# Velocity S-wave (km/s) = 2.00310 2.74971 2.40554
# Velocity P-wave (km/s) = 4.42285 6.87692 5.78159
#
# Compressibility (1/GPa) = 0.03899789
#
# Stress axis : x y z
#
# Youngs Moduli (GPa) = 40.73081 12.93077 73.82983
#
# Poissons Ratio (x) = 0.16621 0.04120
# Poissons Ratio (y) = 0.52355 1.83133
# Poissons Ratio (z) = 0.02273 0.32074
#
# Static dielectric constant tensor:
#      x y z
#    x 1.681750 0.000000 0.000000 
#    y 0.000000 1.596960 0.000000 
#    z 0.000000 0.000000 1.614120 
# 
# From -- ./inp_files/24055.got.cif
#   From: 2010.05.17/outbox.cif.g08.bks.cpg/sg51_13_cif.got.tgz:24055.got - 2010.06.03 11:52:47.
