data_PCOD9407274
_publ_section_title
;
Structure prediction by ZEFSAII (Michael W. Deem and Ramdas Pophale) SiO2 
 PCOD9407274
Probable space group: P M M A
;
_chemical_formula_sum "Si O2"
_cell_formula_units_Z 40
_cell_length_a 9.999719
_cell_length_b 7.384121
_cell_length_c 27.136320
_cell_angle_alpha 90.000000
_cell_angle_beta 90.000000
_cell_angle_gamma 90.000000
_cell_volume 2003.722398
_symmetry_space_group_name_H-M "P M M A"
_symmetry_group_IT_number 51
_symmetry_cell_setting 'orthorhombic'
loop_
_space_group_symop_operation_xyz
x,y,z
1/2-x,-y,z
1/2+x,-y,-z
-x,y,-z
-x,-y,-z
1/2+x,y,-z
1/2-x,y,z
x,-y,z
loop_
_atom_site_type_symbol
_atom_site_label
_atom_site_fract_x
_atom_site_fract_y
_atom_site_fract_z
Si Si1 0.594220 0.220975 0.757802
Si Si2 0.904199 0.779268 0.154357
Si Si3 0.402370 0.286306 0.458233
Si Si4 0.095337 0.782665 0.349935
Si Si5 0.596075 0.779287 0.043527
O O1 0.750000 0.274202 0.762876
O O2 0.502663 0.282938 0.802727
O O3 0.542547 0.277346 0.703418
O O4 0.593226 0.000000 0.758486
O O5 0.750000 0.725348 0.162620
O O6 0.943717 0.723737 0.098917
O O7 0.905934 0.000000 0.154827
O O8 0.500000 0.210527 0.500000
O O9 0.250000 0.211587 0.458948
O O10 0.390105 0.500000 0.467579
O O11 0.461577 0.268348 0.403026
O O12 0.250000 0.720327 0.351115
O O13 0.095646 0.000000 0.348870
O O14 0.750000 0.725397 0.035526
O O15 0.593820 0.000000 0.043148
O O16 0.500000 0.716819 0.000000
#
# Coordination Sequence:
#
# PCOD9407274 Si02
#       5
#     8   8   8   8   8
#     4   8  13  21  33  47  61  81 111 142 172 210
#     4   8  13  20  28  39  58  82 106 138 181 218
#     4   9  17  29  44  60  78 101 127 153 183 221
#     4   8  14  25  40  57  77  99 123 154 189 221
#     4   8  13  19  25  34  50  74 105 140 175 208
#
# _framework density 19.962845999999999
#
# number of rings (size 3 to 8) (size 9 to 14) (size 15 to 20)
#    0.000    3.800    0.000    2.400    0.000    1.200 
#    0.000    5.000    0.000    1.200    0.000    0.000 
#    0.000    0.000    0.000    0.000    0.000    1.000 
#
# Total GULP energy -222748.542670 kJ/mol
# GULP energy per Si atom -5568.713567 kJ/mol
# Density = 1.991741 g / cm^3
# Si number density = 19.962846 Si / 1000 Ang^3
#
#
#
# Elastic Constant Matrix: (Units=GPa)
#
#
# Indices 1 2 3 4 5 6 
#
# 1 76.8336 3.8907 114.0122 0.0000 0.0000 0.0000
# 2 3.8907 67.0531 3.9080 0.0000 0.0000 0.0000
# 3 114.0122 3.9080 247.3215 0.0000 0.0000 0.0000
# 4 0.0000 0.0000 0.0000 38.3606 0.0000 0.0000
# 5 0.0000 0.0000 0.0000 0.0000 40.8541 0.0000
# 6 0.0000 0.0000 0.0000 0.0000 0.0000 -13.3753
#
#
#
# Elastic Compliance Matrix: (Units=1/GPa)
#
#
# Indices 1 2 3 4 5 6 
#
# 1 0.041305 -0.001288 -0.019021 0.000000 0.000000 0.000000
# 2 -0.001288 0.014967 0.000357 0.000000 0.000000 0.000000
# 3 -0.019021 0.000357 0.012806 0.000000 0.000000 0.000000
# 4 0.000000 0.000000 0.000000 0.026068 0.000000 0.000000
# 5 0.000000 0.000000 0.000000 0.000000 0.024477 0.000000
# 6 0.000000 0.000000 0.000000 0.000000 0.000000 -0.074765
#
#
# Mechanical properties :
#
#
# Convention : Reuss Voigt Hill
#
# Bulk Modulus (GPa) = 34.27554 70.53668 52.40611
# Shear Modulus (GPa) = 52.91706 31.12771 42.02238
#
# Velocity S-wave (km/s) = 5.15416 3.95306 4.59304
# Velocity P-wave (km/s) = 7.25447 7.49975 7.37813
#
# Compressibility (1/GPa) = 0.02917532
#
# Stress axis : x y z
#
# Youngs Moduli (GPa) = 24.21025 66.81158 78.08858
#
# Poissons Ratio (x) = 0.08606 1.48530
# Poissons Ratio (y) = 0.03118 -0.02790
# Poissons Ratio (z) = 0.46050 -0.02387
#
# Static dielectric constant tensor:
#      x y z
#    x 1.673340 0.000000 0.000000 
#    y 0.000000 1.763310 0.000000 
#    z 0.000000 0.000000 1.724010 
# 
# From -- ./inp_files/32784.got.cif
#   From: 2010.05.17/outbox.cif.g08.bks.cpg/sg51_17_cif.got.tgz:32784.got - 2010.06.03 11:52:47.
