data_PCOD9407122
_publ_section_title
;
Structure prediction by ZEFSAII (Michael W. Deem and Ramdas Pophale) SiO2 
 PCOD9407122
Probable space group: P M M A
;
_chemical_formula_sum "Si O2"
_cell_formula_units_Z 48
_cell_length_a 8.536183
_cell_length_b 31.699201
_cell_length_c 9.414378
_cell_angle_alpha 90.000000
_cell_angle_beta 90.000000
_cell_angle_gamma 90.000000
_cell_volume 2547.438244
_symmetry_space_group_name_H-M "P M M A"
_symmetry_group_IT_number 51
_symmetry_cell_setting 'orthorhombic'
loop_
_space_group_symop_operation_xyz
x,y,z
1/2-x,-y,z
1/2+x,-y,-z
-x,y,-z
-x,-y,-z
1/2+x,y,-z
1/2-x,y,z
x,-y,z
loop_
_atom_site_type_symbol
_atom_site_label
_atom_site_fract_x
_atom_site_fract_y
_atom_site_fract_z
Si Si1 0.439316 0.091930 0.661081
Si Si2 0.062514 0.343577 0.659240
Si Si3 0.437314 0.420863 0.160162
Si Si4 0.562684 0.749492 0.657863
Si Si5 0.562604 0.500000 0.339285
Si Si6 0.561319 0.173192 0.159415
Si Si7 0.438970 0.000000 0.661671
O O1 0.500000 0.096142 0.500000
O O2 0.250000 0.092429 0.656341
O O3 0.490570 0.131350 0.755160
O O4 0.489436 0.045712 0.720101
O O5 0.750000 0.345096 0.342184
O O6 0.995468 0.377651 0.767960
O O7 0.005583 0.296436 0.695912
O O8 0.000000 0.352761 0.500000
O O9 0.250000 0.422208 0.159128
O O10 0.501988 0.459070 0.255443
O O11 0.500000 0.424578 0.000000
O O12 0.500000 0.759538 0.500000
O O13 0.750000 0.747186 0.654685
O O14 0.505395 0.785613 0.763127
O O15 0.750000 0.500000 0.341452
O O16 0.500000 0.500000 0.500000
O O17 0.750000 0.174939 0.161089
O O18 0.500000 0.171225 0.000000
O O19 0.500000 0.000000 0.500000
O O20 0.250000 0.000000 0.661552
#
# Coordination Sequence:
#
# PCOD9407122 Si02
#       7
#     8   8   8   8   4   8   4
#     4   9  18  32  54  79 106 138 179 225 276 332
#     4  11  22  40  64  92 122 156 195 240 288 343
#     4  12  25  43  64  92 126 163 202 246 296 351
#     4  11  22  39  62  88 115 149 190 237 285 339
#     4  12  25  44  67  94 124 162 206 252 299 348
#     4  11  23  38  54  78 110 148 188 233 284 340
#     4   8  14  28  49  76 104 134 172 222 273 326
#
# _framework density 18.842459999999999
#
# number of rings (size 3 to 8) (size 9 to 14) (size 15 to 20)
#    0.000    1.333    0.000    8.000    0.000    3.333 
#    0.000    3.750    0.000    0.000    0.000    0.000 
#    0.000    0.000    0.000    0.000    0.000    0.000 
#
# Total GULP energy -268297.441371 kJ/mol
# GULP energy per Si atom -5589.530029 kJ/mol
# Density = 1.879957 g / cm^3
# Si number density = 18.842460 Si / 1000 Ang^3
#
#
#
# Elastic Constant Matrix: (Units=GPa)
#
#
# Indices 1 2 3 4 5 6 
#
# 1 152.6850 62.9517 58.9551 0.0000 0.0000 0.0000
# 2 62.9517 156.8199 125.5083 0.0000 0.0000 0.0000
# 3 58.9551 125.5083 144.5164 0.0000 0.0000 0.0000
# 4 0.0000 0.0000 0.0000 125.1384 0.0000 0.0000
# 5 0.0000 0.0000 0.0000 0.0000 34.0283 0.0000
# 6 0.0000 0.0000 0.0000 0.0000 0.0000 15.2494
#
#
#
# Elastic Compliance Matrix: (Units=1/GPa)
#
#
# Indices 1 2 3 4 5 6 
#
# 1 0.007952 -0.001954 -0.001547 0.000000 0.000000 0.000000
# 2 -0.001954 0.021392 -0.017781 0.000000 0.000000 0.000000
# 3 -0.001547 -0.017781 0.022993 0.000000 0.000000 0.000000
# 4 0.000000 0.000000 0.000000 0.007991 0.000000 0.000000
# 5 0.000000 0.000000 0.000000 0.000000 0.029387 0.000000
# 6 0.000000 0.000000 0.000000 0.000000 0.000000 0.065576
#
#
# Mechanical properties :
#
#
# Convention : Reuss Voigt Hill
#
# Bulk Modulus (GPa) = 102.32365 105.42795 103.87580
# Shear Modulus (GPa) = 24.86137 48.65698 36.75918
#
# Velocity S-wave (km/s) = 3.63634 5.08715 4.42166
# Velocity P-wave (km/s) = 8.48842 9.51731 9.01756
#
# Compressibility (1/GPa) = 0.00977291
#
# Stress axis : x y z
#
# Youngs Moduli (GPa) = 125.74688 46.74618 43.49111
#
# Poissons Ratio (x) = 0.09135 0.06728
# Poissons Ratio (y) = 0.24573 0.77333
# Poissons Ratio (z) = 0.19453 0.83120
#
# Static dielectric constant tensor:
#      x y z
#    x 1.633610 0.000000 0.000000 
#    y 0.000000 1.665240 0.000000 
#    z 0.000000 0.000000 1.634240 
# 
# From -- ./inp_files/6220.got.cif
#   From: 2010.05.17/outbox.cif.g08.bks.cpg/sg51_4_cif.got.tgz:6220.got - 2010.06.03 11:52:47.
