data_PCOD9407325
_publ_section_title
;
Structure prediction by ZEFSAII (Michael W. Deem and Ramdas Pophale) SiO2 
 PCOD9407325
Probable space group: P M M A
;
_chemical_formula_sum "Si O2"
_cell_formula_units_Z 56
_cell_length_a 18.996960
_cell_length_b 7.450821
_cell_length_c 20.011216
_cell_angle_alpha 90.000000
_cell_angle_beta 90.000000
_cell_angle_gamma 90.000000
_cell_volume 2832.446516
_symmetry_space_group_name_H-M "P M M A"
_symmetry_group_IT_number 51
_symmetry_cell_setting 'orthorhombic'
loop_
_space_group_symop_operation_xyz
x,y,z
1/2-x,-y,z
1/2+x,-y,-z
-x,y,-z
-x,-y,-z
1/2+x,y,-z
1/2-x,y,z
x,-y,z
loop_
_atom_site_type_symbol
_atom_site_label
_atom_site_fract_x
_atom_site_fract_y
_atom_site_fract_z
Si Si1 0.905303 0.279875 0.898162
Si Si2 0.825723 0.282008 0.617506
Si Si3 0.143130 0.702138 0.237833
Si Si4 0.168956 0.719413 0.964840
Si Si5 0.981628 0.208518 0.571784
Si Si6 0.509849 0.787765 0.283890
Si Si7 0.438639 0.284414 0.853640
O O1 0.905419 0.500000 0.896303
O O2 0.856645 0.217681 0.836004
O O3 0.985842 0.222215 0.883908
O O4 0.873405 0.225518 0.968723
O O5 0.750000 0.232372 0.587243
O O6 0.829710 0.500000 0.619318
O O7 0.826498 0.216443 0.694589
O O8 0.897550 0.219191 0.583608
O O9 0.170974 0.500000 0.232842
O O10 0.060080 0.695817 0.255173
O O11 0.250000 0.777623 0.965556
O O12 0.169469 0.500000 0.965085
O O13 0.125059 0.778089 0.899989
O O14 0.017971 0.279421 0.640031
O O15 0.000000 0.290541 0.500000
O O16 0.003065 0.000000 0.568499
O O17 0.565806 0.763312 0.224822
O O18 0.494624 0.000000 0.288313
O O19 0.439974 0.500000 0.857276
#
# Coordination Sequence:
#
# PCOD9407325 Si02
#       7
#     8   8   8   8   8   8   8
#     4   8  13  22  38  59  82 109 141 175 211 250
#     4   9  17  28  43  67  98 126 149 174 211 264
#     4   8  14  25  41  62  89 117 141 169 208 253
#     4   9  16  24  37  60  85 108 141 185 223 251
#     4   9  18  32  49  69  91 115 147 186 223 260
#     4   9  16  27  45  66  84 104 136 176 213 253
#     4   9  16  27  43  61  83 111 142 176 215 258
#
# _framework density 19.770893999999998
#
# number of rings (size 3 to 8) (size 9 to 14) (size 15 to 20)
#    0.000    3.286    0.000    1.714    0.000    3.429 
#    0.000    2.857    0.000    8.143    0.000    4.000 
#    0.000    0.000    0.000    0.000    0.000    0.000 
#
# Total GULP energy -311821.246703 kJ/mol
# GULP energy per Si atom -5568.236548 kJ/mol
# Density = 1.972589 g / cm^3
# Si number density = 19.770894 Si / 1000 Ang^3
#
#
#
# Elastic Constant Matrix: (Units=GPa)
#
#
# Indices 1 2 3 4 5 6 
#
# 1 73.8738 -0.8103 66.6232 0.0000 0.0000 0.0000
# 2 -0.8103 65.0498 3.1125 0.0000 0.0000 0.0000
# 3 66.6232 3.1125 191.8885 0.0000 0.0000 0.0000
# 4 0.0000 0.0000 0.0000 10.6131 0.0000 0.0000
# 5 0.0000 0.0000 0.0000 0.0000 9.1361 0.0000
# 6 0.0000 0.0000 0.0000 0.0000 0.0000 2.2011
#
#
#
# Elastic Compliance Matrix: (Units=1/GPa)
#
#
# Indices 1 2 3 4 5 6 
#
# 1 0.019729 0.000574 -0.006859 0.000000 0.000000 0.000000
# 2 0.000574 0.015401 -0.000449 0.000000 0.000000 0.000000
# 3 -0.006859 -0.000449 0.007600 0.000000 0.000000 0.000000
# 4 0.000000 0.000000 0.000000 0.094223 0.000000 0.000000
# 5 0.000000 0.000000 0.000000 0.000000 0.109455 0.000000
# 6 0.000000 0.000000 0.000000 0.000000 0.000000 0.454320
#
#
# Mechanical properties :
#
#
# Convention : Reuss Voigt Hill
#
# Bulk Modulus (GPa) = 34.17416 52.07366 43.12391
# Shear Modulus (GPa) = 6.90654 21.84917 14.37786
#
# Velocity S-wave (km/s) = 1.87106 3.32794 2.69963
# Velocity P-wave (km/s) = 4.68940 6.41581 5.61930
#
# Compressibility (1/GPa) = 0.02926187
#
# Stress axis : x y z
#
# Youngs Moduli (GPa) = 50.68744 64.92883 131.57726
#
# Poissons Ratio (x) = -0.03727 0.90250
# Poissons Ratio (y) = -0.02909 0.05909
# Poissons Ratio (z) = 0.34767 0.02916
#
# Static dielectric constant tensor:
#      x y z
#    x 1.683440 0.000000 0.000000 
#    y 0.000000 1.774910 0.000000 
#    z 0.000000 0.000000 1.740790 
# 
# From -- ./inp_files/30344.got.cif
#   From: 2010.05.17/outbox.cif.g08.bks.cpg/sg51_16_cif.got.tgz:30344.got - 2010.06.03 11:52:47.
