data_PCOD9407745
_publ_section_title
;
Structure prediction by ZEFSAII (Michael W. Deem and Ramdas Pophale) SiO2 
 PCOD9407745
Probable space group: P M M A
;
_chemical_formula_sum "Si O2"
_cell_formula_units_Z 64
_cell_length_a 15.000000
_cell_length_b 9.000000
_cell_length_c 24.000000
_cell_angle_alpha 90.000000
_cell_angle_beta 90.000000
_cell_angle_gamma 90.000000
_cell_volume 3240.000000
_symmetry_space_group_name_H-M "P M M A"
_symmetry_group_IT_number 51
_symmetry_cell_setting 'orthorhombic'
loop_
_space_group_symop_operation_xyz
x,y,z
1/2-x,-y,z
1/2+x,-y,-z
-x,y,-z
-x,-y,-z
1/2+x,y,-z
1/2-x,y,z
x,-y,z
loop_
_atom_site_type_symbol
_atom_site_label
_atom_site_fract_x
_atom_site_fract_y
_atom_site_fract_z
Si Si1 0.145547 0.323754 0.707326
Si Si2 0.145117 0.325852 0.038432
Si Si3 0.601257 0.829555 0.520583
Si Si4 0.352897 0.832490 0.595839
Si Si5 0.473114 0.823472 0.131563
Si Si6 0.851351 0.321168 0.091515
Si Si7 0.353698 0.818940 0.356212
Si Si8 0.973743 0.821399 0.747119
O O1 0.250000 0.284921 0.717239
O O2 0.138554 0.500000 0.712658
O O3 0.115709 0.271379 0.645302
O O4 0.073372 0.242552 0.744909
O O5 0.250000 0.309241 0.050691
O O6 0.121821 0.500000 0.043126
O O7 0.086305 0.236287 0.081393
O O8 0.133011 0.283866 0.973752
O O9 0.500000 0.833667 0.500000
O O10 0.644677 0.762116 0.465512
O O11 0.614160 0.767833 0.582268
O O12 0.636070 0.000000 0.523119
O O13 0.250000 0.854401 0.608268
O O14 0.395785 0.000000 0.596752
O O15 0.571165 0.754844 0.125657
O O16 0.434456 0.783369 0.192387
O O17 0.479102 0.000000 0.128291
O O18 0.750000 0.277911 0.106347
O O19 0.856734 0.500000 0.096507
O O20 0.250000 0.779265 0.349214
O O21 0.414503 0.767267 0.304915
O O22 0.359088 0.000000 0.356332
O O23 0.979164 0.000000 0.742838
#
# Coordination Sequence:
#
# PCOD9407745 Si02
#       8
#     8   8   8   8   8   8   8   8
#     4  10  21  36  54  76 102 135 176 221 270 325
#     4   9  19  37  60  84 110 144 185 223 262 316
#     4   9  15  23  42  74 104 127 159 208 262 314
#     4   9  16  27  46  72  99 124 153 197 256 317
#     4  11  23  35  52  82 115 145 180 226 279 328
#     4   9  19  37  60  84 111 145 183 221 265 323
#     4   9  17  31  52  76 103 138 181 225 263 305
#     4  10  22  38  54  75 105 143 184 223 265 313
#
# _framework density 19.753086
#
# number of rings (size 3 to 8) (size 9 to 14) (size 15 to 20)
#    0.000    2.500    0.000    3.000    0.000    8.750 
#    0.000    5.000    0.000    3.750    0.000    0.000 
#    0.000    0.000    0.000    0.000    0.000    0.000 
#
# Total GULP energy -356589.825975 kJ/mol
# GULP energy per Si atom -5571.716031 kJ/mol
# Density = 1.970813 g / cm^3
# Si number density = 19.753086 Si / 1000 Ang^3
#
#
#
# Elastic Constant Matrix: (Units=GPa)
#
#
# Indices 1 2 3 4 5 6 
#
# 1 57.4903 17.0908 48.1123 0.0000 0.0000 0.0000
# 2 17.0908 1.6260 24.0022 0.0000 0.0000 0.0000
# 3 48.1123 24.0022 86.8708 0.0000 0.0000 0.0000
# 4 0.0000 0.0000 0.0000 45.4727 0.0000 0.0000
# 5 0.0000 0.0000 0.0000 0.0000 0.5513 0.0000
# 6 0.0000 0.0000 0.0000 0.0000 0.0000 -178.5245
#
#
#
# Elastic Compliance Matrix: (Units=1/GPa)
#
#
# Indices 1 2 3 4 5 6 
#
# 1 0.029652 0.022495 -0.022637 0.000000 0.000000 0.000000
# 2 0.022495 -0.182707 0.038023 0.000000 0.000000 0.000000
# 3 -0.022637 0.038023 0.013543 0.000000 0.000000 0.000000
# 4 0.000000 0.000000 0.000000 0.021991 0.000000 0.000000
# 5 0.000000 0.000000 0.000000 0.000000 1.813943 0.000000
# 6 0.000000 0.000000 0.000000 0.000000 0.000000 -0.005601
#
#
# Mechanical properties :
#
#
# Convention : Reuss Voigt Hill
#
# Bulk Modulus (GPa) = -15.68589 36.04418 10.17915
# Shear Modulus (GPa) = 3.13714 -22.71463 -9.78875
#
# Velocity S-wave (km/s) = 1.26160 -3.39474 -2.22852
# Velocity P-wave (km/s) = 2.41579 1.70919 1.20722
#
# Compressibility (1/GPa) = -0.06375158
#
# Stress axis : x y z
#
# Youngs Moduli (GPa) = 33.72492 -5.47324 73.83810
#
# Poissons Ratio (x) = 0.12312 1.67151
# Poissons Ratio (y) = -0.75864 -2.80755
# Poissons Ratio (z) = 0.76345 0.20811
#
# Static dielectric constant tensor:
#      x y z
#    x 4.774480 0.000000 0.000000 
#    y 0.000000 1.684800 0.000000 
#    z 0.000000 0.000000 1.739950 
# 
# From -- ./inp_files/35603.got.cif
#   From: 2010.05.17/outbox.ucp.g08.bks.cvg/sg51_18_cif.got.tgz:35603.got - 2010.06.11 16:27:58.
