data_PCOD9407226
_publ_section_title
;
Structure prediction by ZEFSAII (Michael W. Deem and Ramdas Pophale) SiO2 
 PCOD9407226
Probable space group: P M M A
;
_chemical_formula_sum "Si O2"
_cell_formula_units_Z 34
_cell_length_a 29.095630
_cell_length_b 7.542955
_cell_length_c 7.174396
_cell_angle_alpha 90.000000
_cell_angle_beta 90.000000
_cell_angle_gamma 90.000000
_cell_volume 1574.543366
_symmetry_space_group_name_H-M "P M M A"
_symmetry_group_IT_number 51
_symmetry_cell_setting 'orthorhombic'
loop_
_space_group_symop_operation_xyz
x,y,z
1/2-x,-y,z
1/2+x,-y,-z
-x,y,-z
-x,-y,-z
1/2+x,y,-z
1/2-x,y,z
x,-y,z
loop_
_atom_site_type_symbol
_atom_site_label
_atom_site_fract_x
_atom_site_fract_y
_atom_site_fract_z
Si Si1 0.891870 0.215139 0.364967
Si Si2 0.489919 0.207502 0.723616
Si Si3 0.250000 0.000000 0.996577
Si Si4 0.673416 0.696279 0.055367
Si Si5 0.588900 0.784714 0.792296
O O1 0.938504 0.280452 0.262179
O O2 0.846410 0.280913 0.264407
O O3 0.896387 0.262575 0.581347
O O4 0.892020 0.000000 0.354008
O O5 0.500000 0.212491 0.500000
O O6 0.536142 0.278741 0.818921
O O7 0.486925 0.000000 0.776185
O O8 0.209824 0.154154 0.990977
O O9 0.692099 0.500000 0.029555
O O10 0.627911 0.719443 0.929371
O O11 0.587556 0.000000 0.803684
#
# Coordination Sequence:
#
# PCOD9407226 Si02
#       5
#     8   8   2   8   8
#     4   9  17  35  62  92 128 166 202 241 289 351
#     4   7  12  25  53  90 125 165 203 232 275 342
#     4  12  26  52  66  84 116 150 206 264 322 364
#     4  12  25  42  66  91 118 155 201 255 312 368
#     4   9  17  35  62  92 128 166 202 241 289 351
#
# _framework density 21.593561999999999
#
# number of rings (size 3 to 8) (size 9 to 14) (size 15 to 20)
#    0.000    2.588    2.353    3.176    0.000    1.882 
#    0.000    8.235    0.000    7.059    0.000    0.000 
#    0.000    0.000    0.000    0.000    0.000    0.000 
#
# Total GULP energy -189334.914671 kJ/mol
# GULP energy per Si atom -5568.673961 kJ/mol
# Density = 2.154441 g / cm^3
# Si number density = 21.593562 Si / 1000 Ang^3
#
#
#
# Elastic Constant Matrix: (Units=GPa)
#
#
# Indices 1 2 3 4 5 6 
#
# 1 117.9808 42.3370 24.4303 0.0000 0.0000 0.0000
# 2 42.3370 122.3592 12.0702 0.0000 0.0000 0.0000
# 3 24.4303 12.0702 54.6124 0.0000 0.0000 0.0000
# 4 0.0000 0.0000 0.0000 13.4131 0.0000 0.0000
# 5 0.0000 0.0000 0.0000 0.0000 -5.0444 0.0000
# 6 0.0000 0.0000 0.0000 0.0000 0.0000 -57.3332
#
#
#
# Elastic Compliance Matrix: (Units=1/GPa)
#
#
# Indices 1 2 3 4 5 6 
#
# 1 0.010454 -0.003226 -0.003964 0.000000 0.000000 0.000000
# 2 -0.003226 0.009350 -0.000623 0.000000 0.000000 0.000000
# 3 -0.003964 -0.000623 0.020222 0.000000 0.000000 0.000000
# 4 0.000000 0.000000 0.000000 0.074554 0.000000 0.000000
# 5 0.000000 0.000000 0.000000 0.000000 -0.198241 0.000000
# 6 0.000000 0.000000 0.000000 0.000000 0.000000 -0.017442
#
#
# Mechanical properties :
#
#
# Convention : Reuss Voigt Hill
#
# Bulk Modulus (GPa) = 40.98344 50.29192 45.63768
# Shear Modulus (GPa) = -64.64742 4.61477 -30.01633
#
# Velocity S-wave (km/s) = -5.47752 1.46347 -3.73239
# Velocity P-wave (km/s) = 4.58080 5.11825 1.61443
#
# Compressibility (1/GPa) = 0.02440010
#
# Stress axis : x y z
#
# Youngs Moduli (GPa) = 95.65301 106.94642 49.45176
#
# Poissons Ratio (x) = 0.34504 0.19601
# Poissons Ratio (y) = 0.30861 0.03083
# Poissons Ratio (z) = 0.37913 0.06666
#
# Static dielectric constant tensor:
#      x y z
#    x 1.752370 0.000000 0.000000 
#    y 0.000000 1.806480 0.000000 
#    z 0.000000 0.000000 1.829840 
# 
# From -- ./inp_files/12040.got.cif
#   From: 2010.05.17/outbox.cif.g08.bks.cpg/sg51_7_cif.got.tgz:12040.got - 2010.06.03 11:52:47.
