data_PCOD9407128
_publ_section_title
;
Structure prediction by ZEFSAII (Michael W. Deem and Ramdas Pophale) SiO2 
 PCOD9407128
Probable space group: P M M A
;
_chemical_formula_sum "Si O2"
_cell_formula_units_Z 32
_cell_length_a 14.311469
_cell_length_b 18.161037
_cell_length_c 6.559397
_cell_angle_alpha 90.000000
_cell_angle_beta 90.000000
_cell_angle_gamma 90.000000
_cell_volume 1704.860208
_symmetry_space_group_name_H-M "P M M A"
_symmetry_group_IT_number 51
_symmetry_cell_setting 'orthorhombic'
loop_
_space_group_symop_operation_xyz
x,y,z
1/2-x,-y,z
1/2+x,-y,-z
-x,y,-z
-x,-y,-z
1/2+x,y,-z
1/2-x,y,z
x,-y,z
loop_
_atom_site_type_symbol
_atom_site_label
_atom_site_fract_x
_atom_site_fract_y
_atom_site_fract_z
Si Si1 0.750000 0.897502 0.769927
Si Si2 0.250000 0.500000 0.010178
Si Si3 0.555875 0.500000 0.790472
Si Si4 0.750000 0.355532 0.261044
Si Si5 0.612548 0.000000 0.008179
Si Si6 0.750000 0.000000 0.384858
Si Si7 0.750000 0.726131 0.857907
Si Si8 0.088987 0.653838 0.408698
O O1 0.750000 0.810499 0.789789
O O2 0.750000 0.930616 0.540792
O O3 0.659836 0.931365 0.887522
O O4 0.250000 0.571487 0.872725
O O5 0.163351 0.500000 0.155391
O O6 0.545295 0.422100 0.678657
O O7 0.500000 0.500000 0.000000
O O8 0.660154 0.357489 0.405204
O O9 0.750000 0.288698 0.099912
O O10 0.660090 0.000000 0.233584
O O11 0.500000 0.000000 0.000000
O O12 0.844086 0.689398 0.763247
O O13 0.000000 0.697457 0.500000
#
# Coordination Sequence:
#
# PCOD9407128 Si02
#       8
#     4   2   4   4   4   2   4   8
#     4   9  21  40  62  95 130 164 205 252 302 377
#     4  12  18  36  62  78 102 168 196 260 326 356
#     4  12  22  38  62  84 117 156 220 282 319 367
#     4  11  22  40  63  79 126 158 208 267 316 384
#     4   9  19  39  66 102 124 163 211 245 298 362
#     4   8  18  40  70  86 142 160 204 262 292 352
#     4  11  24  43  59  89 129 167 203 253 331 378
#     4  11  24  40  58  89 117 162 217 261 324 387
#
# _framework density 18.769867000000001
#
# number of rings (size 3 to 8) (size 9 to 14) (size 15 to 20)
#    0.000    1.750    2.500    3.375    0.000    6.000 
#    9.000    0.000    0.000    0.000    0.000    0.000 
#    0.000    0.000    0.000    0.000    0.000    0.000 
#
# Total GULP energy -178394.039694 kJ/mol
# GULP energy per Si atom -5574.813740 kJ/mol
# Density = 1.872715 g / cm^3
# Si number density = 18.769867 Si / 1000 Ang^3
#
#
#
# Elastic Constant Matrix: (Units=GPa)
#
#
# Indices 1 2 3 4 5 6 
#
# 1 143.0914 12.3867 38.6709 0.0000 0.0000 0.0000
# 2 12.3867 104.2851 36.3260 0.0000 0.0000 0.0000
# 3 38.6709 36.3260 125.5826 0.0000 0.0000 0.0000
# 4 0.0000 0.0000 0.0000 1.5339 0.0000 0.0000
# 5 0.0000 0.0000 0.0000 0.0000 137.2507 0.0000
# 6 0.0000 0.0000 0.0000 0.0000 0.0000 3.5950
#
#
#
# Elastic Compliance Matrix: (Units=1/GPa)
#
#
# Indices 1 2 3 4 5 6 
#
# 1 0.007624 -0.000098 -0.002319 0.000000 0.000000 0.000000
# 2 -0.000098 0.010665 -0.003055 0.000000 0.000000 0.000000
# 3 -0.002319 -0.003055 0.009561 0.000000 0.000000 0.000000
# 4 0.000000 0.000000 0.000000 0.651946 0.000000 0.000000
# 5 0.000000 0.000000 0.000000 0.000000 0.007286 0.000000
# 6 0.000000 0.000000 0.000000 0.000000 0.000000 0.278164
#
#
# Mechanical properties :
#
#
# Convention : Reuss Voigt Hill
#
# Bulk Modulus (GPa) = 59.15175 60.85849 60.00512
# Shear Modulus (GPa) = 5.09256 47.51427 26.30342
#
# Velocity S-wave (km/s) = 1.64895 5.03677 3.74754
# Velocity P-wave (km/s) = 5.93363 8.14367 7.12486
#
# Compressibility (1/GPa) = 0.01690567
#
# Stress axis : x y z
#
# Youngs Moduli (GPa) = 131.16803 93.76648 104.59438
#
# Poissons Ratio (x) = 0.00915 0.24259
# Poissons Ratio (y) = 0.01280 0.31952
# Poissons Ratio (z) = 0.30423 0.28644
#
# Static dielectric constant tensor:
#      x y z
#    x 1.703490 0.000000 0.000000 
#    y 0.000000 1.633850 0.000000 
#    z 0.000000 0.000000 1.402050 
# 
# From -- ./inp_files/1368.got.cif
#   From: 2010.05.17/outbox.cif.g08.bks.cpg/sg51_1_cif.got.tgz:1368.got - 2010.06.03 11:52:47.
