data_PCOD9407986
_publ_section_title
;
Structure prediction by ZEFSAII (Michael W. Deem and Ramdas Pophale) SiO2 
 PCOD9407986
Probable space group: P N N A
;
_chemical_formula_sum "Si O2"
_cell_formula_units_Z 48
_cell_length_a 33.594587
_cell_length_b 7.169571
_cell_length_c 8.323948
_cell_angle_alpha 90.000000
_cell_angle_beta 90.000000
_cell_angle_gamma 90.000000
_cell_volume 2004.895933
_symmetry_space_group_name_H-M "P N N A"
_symmetry_group_IT_number 52
_symmetry_cell_setting 'orthorhombic'
loop_
_space_group_symop_operation_xyz
x,y,z
1/2-x,-y,z
x,1/2-y,1/2-z
1/2-x,1/2+y,1/2-z
-x,-y,-z
1/2+x,y,-z
-x,1/2+y,1/2+z
1/2+x,1/2-y,1/2+z
loop_
_atom_site_type_symbol
_atom_site_label
_atom_site_fract_x
_atom_site_fract_y
_atom_site_fract_z
Si Si1 0.456467 0.029297 0.072645
Si Si2 0.831401 0.048347 0.596105
Si Si3 0.821263 0.475595 0.244581
Si Si4 0.428053 0.456101 0.083709
Si Si5 0.414126 0.023404 0.758094
Si Si6 0.204383 0.529815 0.412779
O O1 0.446555 0.249367 0.079613
O O2 0.445910 0.958782 0.252096
O O3 0.429097 0.954900 0.929080
O O4 0.500000 0.000000 0.000000
O O5 0.812151 0.959321 0.436027
O O6 0.879640 0.061465 0.590717
O O7 0.812317 0.256689 0.587431
O O8 0.820577 0.953239 0.763213
O O9 0.816845 0.250000 0.250000
O O10 0.867762 0.519539 0.257360
O O11 0.800729 0.543756 0.406146
O O12 0.435585 0.541188 0.906211
O O13 0.417500 0.250000 0.750000
O O14 0.250000 0.500000 0.368513
#
# Coordination Sequence:
#
# PCOD9407986 Si02
#       6
#     8   8   8   8   8   8
#     4  10  17  24  40  67  94 112 140 182 232 272
#     4   9  17  31  47  62  93 121 150 187 222 266
#     4   8  14  26  43  59  81 113 145 179 216 254
#     4   9  17  31  47  61  92 121 149 187 231 268
#     4   8  14  26  43  60  83 114 144 177 219 260
#     4  10  17  24  40  67  95 114 141 182 231 268
#
# _framework density 23.941393000000001
#
# number of rings (size 3 to 8) (size 9 to 14) (size 15 to 20)
#    0.000    3.000    0.000    6.000    0.000    1.333 
#    0.000    0.000    0.000    0.000    0.000    0.000 
#  390.000    0.000    0.000    0.000    0.000    0.000 
#
# Total GULP energy -267495.825713 kJ/mol
# GULP energy per Si atom -5572.829702 kJ/mol
# Density = 2.388690 g / cm^3
# Si number density = 23.941393 Si / 1000 Ang^3
#
#
#
# Elastic Constant Matrix: (Units=GPa)
#
#
# Indices 1 2 3 4 5 6 
#
# 1 65.0903 3.6297 34.9177 0.0000 0.0000 0.0000
# 2 3.6297 112.5078 1.2920 0.0000 0.0000 0.0000
# 3 34.9177 1.2920 215.2268 0.0000 0.0000 0.0000
# 4 0.0000 0.0000 0.0000 -32.7751 0.0000 0.0000
# 5 0.0000 0.0000 0.0000 0.0000 1003.2305 0.0000
# 6 0.0000 0.0000 0.0000 0.0000 0.0000 -66.3092
#
#
#
# Elastic Compliance Matrix: (Units=1/GPa)
#
#
# Indices 1 2 3 4 5 6 
#
# 1 0.016857 -0.000512 -0.002732 0.000000 0.000000 0.000000
# 2 -0.000512 0.008904 0.000030 0.000000 0.000000 0.000000
# 3 -0.002732 0.000030 0.005089 0.000000 0.000000 0.000000
# 4 0.000000 0.000000 0.000000 -0.030511 0.000000 0.000000
# 5 0.000000 0.000000 0.000000 0.000000 0.000997 0.000000
# 6 0.000000 0.000000 0.000000 0.000000 0.000000 -0.015081
#
#
# Mechanical properties :
#
#
# Convention : Reuss Voigt Hill
#
# Bulk Modulus (GPa) = 40.94687 52.50042 46.72364
# Shear Modulus (GPa) = 6053.98357 204.36159 3129.17258
#
# Velocity S-wave (km/s) = 50.34042 9.24902 36.19186
# Velocity P-wave (km/s) = 58.27535 11.66343 42.02411
#
# Compressibility (1/GPa) = 0.02442189
#
# Stress axis : x y z
#
# Youngs Moduli (GPa) = 59.32133 112.30320 196.49131
#
# Poissons Ratio (x) = 0.05755 0.53678
# Poissons Ratio (y) = 0.03040 -0.00583
# Poissons Ratio (z) = 0.16205 -0.00333
#
# Static dielectric constant tensor:
#      x y z
#    x 1.950350 0.000000 0.000000 
#    y 0.000000 10.640370 0.000000 
#    z 0.000000 0.000000 2.038930 
# 
# From -- ./inp_files/14937.got.cif
#   From: 2010.05.17/outbox.cif.g08.bks.cpg/sg52_8_cif.got.tgz:14937.got - 2010.06.03 12:15:38.
