data_PCOD9407551
_publ_section_title
;
Structure prediction by ZEFSAII (Michael W. Deem and Ramdas Pophale) SiO2 
 PCOD9407551
Probable space group: P M M A
;
_chemical_formula_sum "Si O2"
_cell_formula_units_Z 64
_cell_length_a 9.000000
_cell_length_b 24.000000
_cell_length_c 15.000000
_cell_angle_alpha 90.000000
_cell_angle_beta 90.000000
_cell_angle_gamma 90.000000
_cell_volume 3240.000000
_symmetry_space_group_name_H-M "P M M A"
_symmetry_group_IT_number 51
_symmetry_cell_setting 'orthorhombic'
loop_
_space_group_symop_operation_xyz
x,y,z
1/2-x,-y,z
1/2+x,-y,-z
-x,y,-z
-x,-y,-z
1/2+x,y,-z
1/2-x,y,z
x,-y,z
loop_
_atom_site_type_symbol
_atom_site_label
_atom_site_fract_x
_atom_site_fract_y
_atom_site_fract_z
Si Si1 0.083120 0.934492 0.413659
Si Si2 0.428215 0.175353 0.209457
Si Si3 0.585832 0.565017 0.916323
Si Si4 0.927470 0.219116 0.593992
Si Si5 0.926918 0.063178 0.224955
Si Si6 0.925234 0.621133 0.228454
Si Si7 0.928500 0.725311 0.097752
Si Si8 0.073199 0.650570 0.407865
O O1 0.250000 0.911167 0.398625
O O2 0.000000 0.911894 0.500000
O O3 0.979588 0.932332 0.327611
O O4 0.103475 0.000000 0.430398
O O5 0.250000 0.179149 0.203610
O O6 0.469443 0.188179 0.313854
O O7 0.485429 0.114240 0.181805
O O8 0.505016 0.220608 0.146707
O O9 0.750000 0.589951 0.904207
O O10 0.604565 0.500000 0.935006
O O11 0.484461 0.571031 0.830708
O O12 0.500000 0.590615 0.000000
O O13 0.750000 0.215827 0.584563
O O14 0.966723 0.284185 0.605504
O O15 0.000000 0.202557 0.500000
O O16 0.750000 0.070329 0.218011
O O17 0.964541 0.000000 0.195158
O O18 0.750000 0.620480 0.242465
O O19 0.962293 0.674447 0.165691
O O20 0.009025 0.621386 0.321388
O O21 0.750000 0.728898 0.089311
O O22 0.000000 0.719386 0.000000
O O23 0.250000 0.645774 0.412966
O O24 0.000000 0.631741 0.500000
#
# Coordination Sequence:
#
# PCOD9407551 Si02
#       8
#     8   8   8   8   8   8   8   8
#     4   9  16  27  44  66  93 127 168 213 261 314
#     4  11  22  38  58  82 112 146 185 230 284 340
#     4  10  21  37  58  86 122 164 208 255 305 355
#     4   9  19  33  52  78 109 147 186 230 279 332
#     4  10  21  36  53  74 101 136 178 223 274 334
#     4  11  22  36  59  90 122 161 203 243 291 347
#     4  11  24  40  60  87 118 150 186 230 285 345
#     4  10  19  34  55  82 118 157 199 245 291 344
#
# _framework density 19.753086
#
# number of rings (size 3 to 8) (size 9 to 14) (size 15 to 20)
#    0.000    1.875    1.250    3.000    0.000    7.500 
#    0.000    1.250    0.000    0.750    0.000    0.000 
#    0.000    0.000    0.000    0.000    0.000    0.000 
#
# Total GULP energy -357071.822078 kJ/mol
# GULP energy per Si atom -5579.247220 kJ/mol
# Density = 1.970813 g / cm^3
# Si number density = 19.753086 Si / 1000 Ang^3
#
#
#
# Elastic Constant Matrix: (Units=GPa)
#
#
# Indices 1 2 3 4 5 6 
#
# 1 59.0606 23.2973 41.8374 0.0000 0.0000 0.0000
# 2 23.2973 45.4373 24.2803 0.0000 0.0000 0.0000
# 3 41.8374 24.2803 107.6293 0.0000 0.0000 0.0000
# 4 0.0000 0.0000 0.0000 -27.8431 0.0000 0.0000
# 5 0.0000 0.0000 0.0000 0.0000 33.6792 0.0000
# 6 0.0000 0.0000 0.0000 0.0000 0.0000 13.1175
#
#
#
# Elastic Compliance Matrix: (Units=1/GPa)
#
#
# Indices 1 2 3 4 5 6 
#
# 1 0.026322 -0.009129 -0.008172 0.000000 0.000000 0.000000
# 2 -0.009129 0.028191 -0.002811 0.000000 0.000000 0.000000
# 3 -0.008172 -0.002811 0.013102 0.000000 0.000000 0.000000
# 4 0.000000 0.000000 0.000000 -0.035916 0.000000 0.000000
# 5 0.000000 0.000000 0.000000 0.000000 0.029692 0.000000
# 6 0.000000 0.000000 0.000000 0.000000 0.000000 0.076234
#
#
# Mechanical properties :
#
#
# Convention : Reuss Voigt Hill
#
# Bulk Modulus (GPa) = 36.50937 43.43968 39.97452
# Shear Modulus (GPa) = 26.74070 11.97155 19.35612
#
# Velocity S-wave (km/s) = 3.68332 2.46450 3.13374
# Velocity P-wave (km/s) = 6.05080 5.48976 5.77709
#
# Compressibility (1/GPa) = 0.02739023
#
# Stress axis : x y z
#
# Youngs Moduli (GPa) = 37.99098 35.47187 76.32391
#
# Poissons Ratio (x) = 0.32383 0.62375
# Poissons Ratio (y) = 0.34682 0.21455
# Poissons Ratio (z) = 0.31048 0.09971
#
# Static dielectric constant tensor:
#      x y z
#    x 1.683190 0.000000 0.000000 
#    y 0.000000 1.767820 0.000000 
#    z 0.000000 0.000000 1.680720 
# 
# From -- ./inp_files/22364.got.cif
#   From: 2010.05.17/outbox.ucp.g08.bks.cvg/sg51_12_cif.got.tgz:22364.got - 2010.06.11 16:27:58.
