data_PCOD9407573
_publ_section_title
;
Structure prediction by ZEFSAII (Michael W. Deem and Ramdas Pophale) SiO2 
 PCOD9407573
Probable space group: P M M A
;
_chemical_formula_sum "Si O2"
_cell_formula_units_Z 64
_cell_length_a 30.000000
_cell_length_b 9.000000
_cell_length_c 15.000000
_cell_angle_alpha 90.000000
_cell_angle_beta 90.000000
_cell_angle_gamma 90.000000
_cell_volume 4050.000000
_symmetry_space_group_name_H-M "P M M A"
_symmetry_group_IT_number 51
_symmetry_cell_setting 'orthorhombic'
loop_
_space_group_symop_operation_xyz
x,y,z
1/2-x,-y,z
1/2+x,-y,-z
-x,y,-z
-x,-y,-z
1/2+x,y,-z
1/2-x,y,z
x,-y,z
loop_
_atom_site_type_symbol
_atom_site_label
_atom_site_fract_x
_atom_site_fract_y
_atom_site_fract_z
Si Si1 0.428425 0.678622 0.657092
Si Si2 0.301619 0.680334 0.144722
Si Si3 0.571730 0.178847 0.147293
Si Si4 0.611223 0.679898 0.972561
Si Si5 0.467014 0.822106 0.146225
Si Si6 0.613357 0.319577 0.528951
Si Si7 0.698409 0.319180 0.647758
Si Si8 0.967658 0.321950 0.660879
O O1 0.423369 0.500000 0.668822
O O2 0.420180 0.757326 0.752630
O O3 0.397475 0.726712 0.573323
O O4 0.480828 0.704498 0.632660
O O5 0.250000 0.726557 0.122989
O O6 0.301375 0.500000 0.143949
O O7 0.342064 0.724094 0.077722
O O8 0.310735 0.724663 0.248490
O O9 0.519251 0.211034 0.124681
O O10 0.576886 0.000000 0.147224
O O11 0.602830 0.252436 0.071352
O O12 0.610109 0.500000 0.976503
O O13 0.569398 0.740252 0.914657
O O14 0.460274 0.765844 0.247354
O O15 0.461224 0.000000 0.138928
O O16 0.615108 0.500000 0.526680
O O17 0.659096 0.270267 0.579401
O O18 0.570156 0.280772 0.589288
O O19 0.750000 0.274885 0.626395
O O20 0.697842 0.500000 0.646563
O O21 0.963531 0.500000 0.677377
#
# Coordination Sequence:
#
# PCOD9407573 Si02
#       8
#     8   8   8   8   8   8   8   8
#     4   9  17  29  45  65  89 118 154 194 230 265
#     4   8  15  28  46  71 100 122 142 177 228 280
#     4  10  21  35  47  62  91 128 160 192 231 273
#     4  11  20  30  50  74  92 117 155 194 231 274
#     4  10  20  32  45  65  96 129 156 186 227 274
#     4   9  15  24  42  67  92 117 148 187 228 266
#     4   8  13  22  38  63  95 123 141 165 213 275
#     4   9  16  27  44  66  91 119 152 189 228 269
#
# _framework density 15.802469
#
# number of rings (size 3 to 8) (size 9 to 14) (size 15 to 20)
#    0.000    2.750    0.000    3.375    0.000    6.500 
#    0.000    0.625    0.000    5.250    0.000    3.500 
#    0.000    1.000    0.000    0.000    0.000    0.000 
#
# Total GULP energy -356548.391630 kJ/mol
# GULP energy per Si atom -5571.068619 kJ/mol
# Density = 1.576650 g / cm^3
# Si number density = 15.802469 Si / 1000 Ang^3
#
#
#
# Elastic Constant Matrix: (Units=GPa)
#
#
# Indices 1 2 3 4 5 6 
#
# 1 123.0107 27.4602 88.0122 0.0000 0.0000 0.0000
# 2 27.4602 33.7947 29.0925 0.0000 0.0000 0.0000
# 3 88.0122 29.0925 130.8056 0.0000 0.0000 0.0000
# 4 0.0000 0.0000 0.0000 11.8620 0.0000 0.0000
# 5 0.0000 0.0000 0.0000 0.0000 34.9251 0.0000
# 6 0.0000 0.0000 0.0000 0.0000 0.0000 13.5040
#
#
#
# Elastic Compliance Matrix: (Units=1/GPa)
#
#
# Indices 1 2 3 4 5 6 
#
# 1 0.016256 -0.004691 -0.009894 0.000000 0.000000 0.000000
# 2 -0.004691 0.037951 -0.005284 0.000000 0.000000 0.000000
# 3 -0.009894 -0.005284 0.015478 0.000000 0.000000 0.000000
# 4 0.000000 0.000000 0.000000 0.084303 0.000000 0.000000
# 5 0.000000 0.000000 0.000000 0.000000 0.028633 0.000000
# 6 0.000000 0.000000 0.000000 0.000000 0.000000 0.074052
#
#
# Mechanical properties :
#
#
# Convention : Reuss Voigt Hill
#
# Bulk Modulus (GPa) = 33.39445 64.08231 48.73838
# Shear Modulus (GPa) = 16.31886 21.59461 18.95673
#
# Velocity S-wave (km/s) = 3.21702 3.70068 3.46729
# Velocity P-wave (km/s) = 5.91415 7.67464 6.85118
#
# Compressibility (1/GPa) = 0.02994510
#
# Stress axis : x y z
#
# Youngs Moduli (GPa) = 61.51627 26.34953 64.60952
#
# Poissons Ratio (x) = 0.12361 0.63927
# Poissons Ratio (y) = 0.28859 0.34142
# Poissons Ratio (z) = 0.60866 0.13924
#
# Static dielectric constant tensor:
#      x y z
#    x 1.536550 0.000000 0.000000 
#    y 0.000000 1.519770 0.000000 
#    z 0.000000 0.000000 1.534290 
# 
# From -- ./inp_files/26664.got.cif
#   From: 2010.05.17/outbox.ucp.g08.bks.cvg/sg51_14_cif.got.tgz:26664.got - 2010.06.11 16:27:58.
