data_PCOD9407330
_publ_section_title
;
Structure prediction by ZEFSAII (Michael W. Deem and Ramdas Pophale) SiO2 
 PCOD9407330
Probable space group: P M M A
;
_chemical_formula_sum "Si O2"
_cell_formula_units_Z 56
_cell_length_a 14.726688
_cell_length_b 9.763098
_cell_length_c 18.645297
_cell_angle_alpha 90.000000
_cell_angle_beta 90.000000
_cell_angle_gamma 90.000000
_cell_volume 2680.785342
_symmetry_space_group_name_H-M "P M M A"
_symmetry_group_IT_number 51
_symmetry_cell_setting 'orthorhombic'
loop_
_space_group_symop_operation_xyz
x,y,z
1/2-x,-y,z
1/2+x,-y,-z
-x,y,-z
-x,-y,-z
1/2+x,y,-z
1/2-x,y,z
x,-y,z
loop_
_atom_site_type_symbol
_atom_site_label
_atom_site_fract_x
_atom_site_fract_y
_atom_site_fract_z
Si Si1 0.144864 0.165915 0.295656
Si Si2 0.861392 0.343286 0.413433
Si Si3 0.861176 0.158346 0.547660
Si Si4 0.856697 0.153381 0.285667
Si Si5 0.903261 0.155561 0.862349
Si Si6 0.382661 0.845133 0.878839
Si Si7 0.110840 0.656888 0.008084
O O1 0.250000 0.208128 0.290740
O O2 0.108700 0.209038 0.373548
O O3 0.100997 0.204713 0.220091
O O4 0.142509 0.000000 0.298721
O O5 0.750000 0.346581 0.413164
O O6 0.892453 0.500000 0.415524
O O7 0.888775 0.255312 0.482736
O O8 0.892262 0.262474 0.342271
O O9 0.750000 0.156912 0.549675
O O10 0.889095 0.000000 0.536051
O O11 0.750000 0.139460 0.302454
O O12 0.861902 0.195619 0.202803
O O13 0.898591 0.000000 0.291995
O O14 0.863564 0.259431 0.920375
O O15 0.008655 0.145857 0.882359
O O16 0.864913 0.000000 0.866170
O O17 0.348532 0.000000 0.890484
O O18 0.353856 0.739262 0.939142
O O19 0.140307 0.500000 0.010579
O O20 0.000000 0.654788 0.000000
#
# Coordination Sequence:
#
# PCOD9407330 Si02
#       7
#     8   8   8   8   8   8   8
#     4   8  14  25  43  67  90 111 137 170 209 250
#     4   9  16  25  39  61  86 110 139 174 209 245
#     4   8  13  23  40  60  82 109 140 170 200 240
#     4   9  17  29  44  62  85 111 139 173 213 254
#     4   9  16  28  47  67  86 108 138 176 210 243
#     4   9  17  29  46  66  84 106 140 178 212 245
#     4   9  17  29  45  64  85 111 143 174 205 247
#
# _framework density 20.889400999999999
#
# number of rings (size 3 to 8) (size 9 to 14) (size 15 to 20)
#    0.000    3.286    0.000    1.714    0.000    4.000 
#    0.000    1.429    0.000    6.429    0.000    6.000 
#    0.000    0.000    0.000    0.000    0.000    0.000 
#
# Total GULP energy -312288.405378 kJ/mol
# GULP energy per Si atom -5576.578667 kJ/mol
# Density = 2.084186 g / cm^3
# Si number density = 20.889401 Si / 1000 Ang^3
#
#
#
# Elastic Constant Matrix: (Units=GPa)
#
#
# Indices 1 2 3 4 5 6 
#
# 1 49.2880 10.0050 -2.4943 0.0000 0.0000 0.0000
# 2 10.0050 138.5984 140.6313 0.0000 0.0000 0.0000
# 3 -2.4943 140.6313 208.6159 0.0000 0.0000 0.0000
# 4 0.0000 0.0000 0.0000 -39.7205 0.0000 0.0000
# 5 0.0000 0.0000 0.0000 0.0000 19.6206 0.0000
# 6 0.0000 0.0000 0.0000 0.0000 0.0000 0.1210
#
#
#
# Elastic Compliance Matrix: (Units=1/GPa)
#
#
# Indices 1 2 3 4 5 6 
#
# 1 0.021673 -0.005783 0.004158 0.000000 0.000000 0.000000
# 2 -0.005783 0.024376 -0.016501 0.000000 0.000000 0.000000
# 3 0.004158 -0.016501 0.015967 0.000000 0.000000 0.000000
# 4 0.000000 0.000000 0.000000 -0.025176 0.000000 0.000000
# 5 0.000000 0.000000 0.000000 0.000000 0.050967 0.000000
# 6 0.000000 0.000000 0.000000 0.000000 0.000000 8.263877
#
#
# Mechanical properties :
#
#
# Convention : Reuss Voigt Hill
#
# Bulk Modulus (GPa) = 38.81611 76.97627 57.89619
# Shear Modulus (GPa) = 0.59548 12.56155 6.57852
#
# Velocity S-wave (km/s) = 0.53449 2.45488 1.77653
# Velocity P-wave (km/s) = 4.35924 6.70557 5.65542
#
# Compressibility (1/GPa) = 0.02576250
#
# Stress axis : x y z
#
# Youngs Moduli (GPa) = 46.13980 41.02392 62.62887
#
# Poissons Ratio (x) = 0.23725 -0.26039
# Poissons Ratio (y) = 0.26684 1.03346
# Poissons Ratio (z) = -0.19183 0.67695
#
# Static dielectric constant tensor:
#      x y z
#    x 1.820390 0.000000 0.000000 
#    y 0.000000 1.712390 0.000000 
#    z 0.000000 0.000000 1.739660 
# 
# From -- ./inp_files/30426.got.cif
#   From: 2010.05.17/outbox.cif.g08.bks.cpg/sg51_16_cif.got.tgz:30426.got - 2010.06.03 11:52:47.
