data_PCOD9407482
_publ_section_title
;
Structure prediction by ZEFSAII (Michael W. Deem and Ramdas Pophale) SiO2 
 PCOD9407482
Probable space group: P M M A
;
_chemical_formula_sum "Si O2"
_cell_formula_units_Z 44
_cell_length_a 9.000000
_cell_length_b 15.000000
_cell_length_c 18.000000
_cell_angle_alpha 90.000000
_cell_angle_beta 90.000000
_cell_angle_gamma 90.000000
_cell_volume 2430.000000
_symmetry_space_group_name_H-M "P M M A"
_symmetry_group_IT_number 51
_symmetry_cell_setting 'orthorhombic'
loop_
_space_group_symop_operation_xyz
x,y,z
1/2-x,-y,z
1/2+x,-y,-z
-x,y,-z
-x,-y,-z
1/2+x,y,-z
1/2-x,y,z
x,-y,z
loop_
_atom_site_type_symbol
_atom_site_label
_atom_site_fract_x
_atom_site_fract_y
_atom_site_fract_z
Si Si1 0.572032 0.687873 0.143259
Si Si2 0.428564 0.147534 0.074727
Si Si3 0.575850 0.500000 0.077729
Si Si4 0.425602 0.600884 0.580191
Si Si5 0.429894 0.094022 0.242043
Si Si6 0.427721 0.726285 0.301139
O O1 0.750000 0.704002 0.145740
O O2 0.494298 0.753579 0.085030
O O3 0.539574 0.587967 0.121380
O O4 0.495717 0.699559 0.222299
O O5 0.250000 0.146158 0.068837
O O6 0.472333 0.107152 0.155280
O O7 0.500000 0.108269 0.000000
O O8 0.750000 0.500000 0.064733
O O9 0.500000 0.500000 0.000000
O O10 0.500000 0.606638 0.500000
O O11 0.250000 0.615222 0.574209
O O12 0.449556 0.500000 0.608777
O O13 0.499827 0.670304 0.634597
O O14 0.250000 0.094487 0.239337
O O15 0.469758 0.169934 0.299849
O O16 0.487689 0.000000 0.267325
O O17 0.250000 0.716073 0.301346
#
# Coordination Sequence:
#
# PCOD9407482 Si02
#       6
#     8   8   4   8   8   8
#     4  10  20  34  49  68  96 132 174 217 262 313
#     4  10  19  31  48  70  96 129 171 219 274 325
#     4  10  22  34  46  64  89 126 171 216 260 306
#     4  10  21  37  58  84 115 147 176 210 252 302
#     4   8  16  32  52  74 102 136 175 218 266 318
#     4  10  20  34  55  82 108 138 174 213 259 311
#
# _framework density 18.106995999999999
#
# number of rings (size 3 to 8) (size 9 to 14) (size 15 to 20)
#    0.000    2.364    0.000    3.818    1.273    4.364 
#    0.000    0.000    0.000   19.636    0.000    0.000 
#    0.000    0.000    0.000    0.000    0.000    0.000 
#
# Total GULP energy -244970.791061 kJ/mol
# GULP energy per Si atom -5567.517979 kJ/mol
# Density = 1.806578 g / cm^3
# Si number density = 18.106996 Si / 1000 Ang^3
#
#
#
# Elastic Constant Matrix: (Units=GPa)
#
#
# Indices 1 2 3 4 5 6 
#
# 1 28.2512 53.7143 28.9238 0.0000 0.0000 0.0000
# 2 53.7143 123.7044 58.9914 0.0000 0.0000 0.0000
# 3 28.9238 58.9914 65.9193 0.0000 0.0000 0.0000
# 4 0.0000 0.0000 0.0000 96.5389 0.0000 0.0000
# 5 0.0000 0.0000 0.0000 0.0000 32.1317 0.0000
# 6 0.0000 0.0000 0.0000 0.0000 0.0000 11.0434
#
#
#
# Elastic Compliance Matrix: (Units=1/GPa)
#
#
# Indices 1 2 3 4 5 6 
#
# 1 0.215618 -0.084621 -0.018880 0.000000 0.000000 0.000000
# 2 -0.084621 0.047312 -0.005210 0.000000 0.000000 0.000000
# 3 -0.018880 -0.005210 0.028117 0.000000 0.000000 0.000000
# 4 0.000000 0.000000 0.000000 0.010359 0.000000 0.000000
# 5 0.000000 0.000000 0.000000 0.000000 0.031122 0.000000
# 6 0.000000 0.000000 0.000000 0.000000 0.000000 0.090552
#
#
# Mechanical properties :
#
#
# Convention : Reuss Voigt Hill
#
# Bulk Modulus (GPa) = 13.58254 55.68155 34.63205
# Shear Modulus (GPa) = 7.51831 33.02583 20.27207
#
# Velocity S-wave (km/s) = 2.03989 4.27538 3.34963
# Velocity P-wave (km/s) = 3.61466 7.42900 5.84191
#
# Compressibility (1/GPa) = 0.07362392
#
# Stress axis : x y z
#
# Youngs Moduli (GPa) = 4.63783 21.13625 35.56593
#
# Poissons Ratio (x) = 1.78857 0.67150
# Poissons Ratio (y) = 0.39246 0.18530
# Poissons Ratio (z) = 0.08756 0.11012
#
# Static dielectric constant tensor:
#      x y z
#    x 1.601760 0.000000 0.000000 
#    y 0.000000 1.674040 0.000000 
#    z 0.000000 0.000000 1.577210 
# 
# From -- ./inp_files/27386.got.cif
#   From: 2010.05.17/outbox.ucp.g08.bks.cvg/sg51_14_cif.got.tgz:27386.got - 2010.06.11 16:27:58.
