data_PCOD9407785
_publ_section_title
;
Structure prediction by ZEFSAII (Michael W. Deem and Ramdas Pophale) SiO2 
 PCOD9407785
Probable space group: P M M A
;
_chemical_formula_sum "Si O2"
_cell_formula_units_Z 56
_cell_length_a 21.000000
_cell_length_b 9.000000
_cell_length_c 15.000000
_cell_angle_alpha 90.000000
_cell_angle_beta 90.000000
_cell_angle_gamma 90.000000
_cell_volume 2835.000000
_symmetry_space_group_name_H-M "P M M A"
_symmetry_group_IT_number 51
_symmetry_cell_setting 'orthorhombic'
loop_
_space_group_symop_operation_xyz
x,y,z
1/2-x,-y,z
1/2+x,-y,-z
-x,y,-z
-x,-y,-z
1/2+x,y,-z
1/2-x,y,z
x,-y,z
loop_
_atom_site_type_symbol
_atom_site_label
_atom_site_fract_x
_atom_site_fract_y
_atom_site_fract_z
Si Si1 0.180842 0.167288 0.480390
Si Si2 0.432618 0.177688 0.186005
Si Si3 0.822664 0.675217 0.701834
Si Si4 0.549535 0.832345 0.419758
Si Si5 0.577381 0.321322 0.996711
Si Si6 0.827271 0.819944 0.145657
Si Si7 0.437025 0.325465 0.753754
O O1 0.250000 0.180779 0.525652
O O2 0.177036 0.287604 0.402911
O O3 0.120760 0.175956 0.543373
O O4 0.178728 0.000000 0.439478
O O5 0.381725 0.232784 0.258953
O O6 0.404386 0.245555 0.095790
O O7 0.503467 0.247403 0.196396
O O8 0.437291 0.000000 0.184426
O O9 0.750000 0.714853 0.733182
O O10 0.831982 0.500000 0.718579
O O11 0.500000 0.817034 0.500000
O O12 0.543161 0.705100 0.347558
O O13 0.539419 0.000000 0.380975
O O14 0.584877 0.500000 0.998008
O O15 0.500000 0.293080 0.000000
O O16 0.626881 0.249898 0.067931
O O17 0.750000 0.783482 0.142902
O O18 0.868676 0.753419 0.228355
O O19 0.831361 0.000000 0.144418
O O20 0.433955 0.500000 0.776375
#
# Coordination Sequence:
#
# PCOD9407785 Si02
#       7
#     8   8   8   8   8   8   8
#     4   9  18  34  56  81 113 155 200 246 301 366
#     4  12  24  39  64  91 122 163 208 253 302 366
#     4  10  21  37  58  87 124 161 200 252 311 368
#     4  10  21  37  58  86 120 159 206 256 309 368
#     4  11  23  41  67  96 126 162 203 252 311 371
#     4  11  25  45  69  97 129 168 214 260 308 369
#     4  12  25  41  63  92 126 165 207 257 317 372
#
# _framework density 19.753086
#
# number of rings (size 3 to 8) (size 9 to 14) (size 15 to 20)
#    0.000    1.286    1.429    4.714    0.000    5.714 
#    0.000    1.429    0.000    0.000    0.000    0.000 
#    0.000    0.000    0.000    0.000    0.000    0.000 
#
# Total GULP energy -312235.128996 kJ/mol
# GULP energy per Si atom -5575.627303 kJ/mol
# Density = 1.970813 g / cm^3
# Si number density = 19.753086 Si / 1000 Ang^3
#
#
#
# Elastic Constant Matrix: (Units=GPa)
#
#
# Indices 1 2 3 4 5 6 
#
# 1 116.8594 44.9586 19.0004 0.0000 0.0000 0.0000
# 2 44.9586 115.3952 24.0629 0.0000 0.0000 0.0000
# 3 19.0004 24.0629 51.4991 0.0000 0.0000 0.0000
# 4 0.0000 0.0000 0.0000 46.5840 0.0000 0.0000
# 5 0.0000 0.0000 0.0000 0.0000 28.2036 0.0000
# 6 0.0000 0.0000 0.0000 0.0000 0.0000 -0.8261
#
#
#
# Elastic Compliance Matrix: (Units=1/GPa)
#
#
# Indices 1 2 3 4 5 6 
#
# 1 0.010272 -0.003559 -0.002127 0.000000 0.000000 0.000000
# 2 -0.003559 0.010834 -0.003749 0.000000 0.000000 0.000000
# 3 -0.002127 -0.003749 0.021955 0.000000 0.000000 0.000000
# 4 0.000000 0.000000 0.000000 0.021467 0.000000 0.000000
# 5 0.000000 0.000000 0.000000 0.000000 0.035456 0.000000
# 6 0.000000 0.000000 0.000000 0.000000 0.000000 -1.210574
#
#
# Mechanical properties :
#
#
# Convention : Reuss Voigt Hill
#
# Bulk Modulus (GPa) = 41.33808 51.08860 46.21334
# Shear Modulus (GPa) = -4.61401 27.84110 11.61354
#
# Velocity S-wave (km/s) = -1.53000 3.75834 2.42737
# Velocity P-wave (km/s) = 4.22512 6.68979 5.59486
#
# Compressibility (1/GPa) = 0.02419077
#
# Stress axis : x y z
#
# Youngs Moduli (GPa) = 97.35008 92.30091 45.54874
#
# Poissons Ratio (x) = 0.32846 0.09689
# Poissons Ratio (y) = 0.34642 0.17078
# Poissons Ratio (z) = 0.20708 0.34607
#
# Static dielectric constant tensor:
#      x y z
#    x 1.682140 0.000000 0.000000 
#    y 0.000000 1.683280 0.000000 
#    z 0.000000 0.000000 1.821290 
# 
# From -- ./inp_files/25778.got.cif
#   From: 2010.05.17/outbox.ucp.g08.bks.cvg/sg51_13_cif.got.tgz:25778.got - 2010.06.11 16:27:58.
