data_PCOD9407289
_publ_section_title
;
Structure prediction by ZEFSAII (Michael W. Deem and Ramdas Pophale) SiO2 
 PCOD9407289
Probable space group: P M M A
;
_chemical_formula_sum "Si O2"
_cell_formula_units_Z 48
_cell_length_a 14.183626
_cell_length_b 16.441204
_cell_length_c 9.922701
_cell_angle_alpha 90.000000
_cell_angle_beta 90.000000
_cell_angle_gamma 90.000000
_cell_volume 2313.933076
_symmetry_space_group_name_H-M "P M M A"
_symmetry_group_IT_number 51
_symmetry_cell_setting 'orthorhombic'
loop_
_space_group_symop_operation_xyz
x,y,z
1/2-x,-y,z
1/2+x,-y,-z
-x,y,-z
-x,-y,-z
1/2+x,y,-z
1/2-x,y,z
x,-y,z
loop_
_atom_site_type_symbol
_atom_site_label
_atom_site_fract_x
_atom_site_fract_y
_atom_site_fract_z
Si Si1 0.364989 0.590589 0.428504
Si Si2 0.366199 0.261417 0.241652
Si Si3 0.890753 0.912564 0.037547
Si Si4 0.361881 0.734596 0.932642
Si Si5 0.134742 0.408381 0.739051
Si Si6 0.643923 0.912169 0.725152
O O1 0.250000 0.590832 0.427770
O O2 0.394928 0.500000 0.386033
O O3 0.394830 0.661699 0.329277
O O4 0.393988 0.603293 0.583459
O O5 0.250000 0.257674 0.241059
O O6 0.400408 0.175473 0.304154
O O7 0.398434 0.268607 0.086457
O O8 0.872439 0.828502 0.113551
O O9 0.865474 0.000000 0.100712
O O10 0.846334 0.909250 0.888286
O O11 0.000000 0.913974 0.000000
O O12 0.250000 0.720270 0.943237
O O13 0.398420 0.664441 0.834726
O O14 0.250000 0.407099 0.738967
O O15 0.107397 0.500000 0.782350
O O16 0.750000 0.913162 0.668208
O O17 0.598430 0.000000 0.693177
#
# Coordination Sequence:
#
# PCOD9407289 Si02
#       6
#     8   8   8   8   8   8
#     4   8  13  21  33  51  77 105 128 153 189 230
#     4   8  13  20  32  52  75  98 125 155 186 220
#     4   9  16  25  38  57  80 105 132 161 193 232
#     4   9  16  25  39  60  83 104 128 162 199 230
#     4   8  14  24  37  54  78 107 133 156 190 235
#     4   8  13  22  36  54  76  99 122 152 191 231
#
# _framework density 20.7439
#
# number of rings (size 3 to 8) (size 9 to 14) (size 15 to 20)
#    0.000    3.667    0.000    2.500    0.000    1.667 
#    0.000    3.333    0.000    1.500    0.000    9.333 
#    0.000   22.667    0.000    0.000    0.000    0.000 
#
# Total GULP energy -267296.026525 kJ/mol
# GULP energy per Si atom -5568.667219 kJ/mol
# Density = 2.069669 g / cm^3
# Si number density = 20.743900 Si / 1000 Ang^3
#
#
#
# Elastic Constant Matrix: (Units=GPa)
#
#
# Indices 1 2 3 4 5 6 
#
# 1 46.5714 -2.5953 -0.1947 0.0000 0.0000 0.0000
# 2 -2.5953 268.4617 97.2337 0.0000 0.0000 0.0000
# 3 -0.1947 97.2337 49.8022 0.0000 0.0000 0.0000
# 4 0.0000 0.0000 0.0000 -41.9879 0.0000 0.0000
# 5 0.0000 0.0000 0.0000 0.0000 7.3314 0.0000
# 6 0.0000 0.0000 0.0000 0.0000 0.0000 18.4870
#
#
#
# Elastic Compliance Matrix: (Units=1/GPa)
#
#
# Indices 1 2 3 4 5 6 
#
# 1 0.021502 0.000606 -0.001099 0.000000 0.000000 0.000000
# 2 0.000606 0.012736 -0.024863 0.000000 0.000000 0.000000
# 3 -0.001099 -0.024863 0.068618 0.000000 0.000000 0.000000
# 4 0.000000 0.000000 0.000000 -0.023816 0.000000 0.000000
# 5 0.000000 0.000000 0.000000 0.000000 0.136400 0.000000
# 6 0.000000 0.000000 0.000000 0.000000 0.000000 0.054092
#
#
# Mechanical properties :
#
#
# Convention : Reuss Voigt Hill
#
# Bulk Modulus (GPa) = 19.17789 61.52475 40.35132
# Shear Modulus (GPa) = 14.80933 14.79220 14.80076
#
# Velocity S-wave (km/s) = 2.67481 2.67327 2.67404
# Velocity P-wave (km/s) = 4.33643 6.26515 5.38780
#
# Compressibility (1/GPa) = 0.05214339
#
# Stress axis : x y z
#
# Youngs Moduli (GPa) = 46.50824 78.51756 14.57337
#
# Poissons Ratio (x) = -0.04756 0.01601
# Poissons Ratio (y) = -0.02817 0.36234
# Poissons Ratio (z) = 0.05110 1.95221
#
# Static dielectric constant tensor:
#      x y z
#    x 1.780770 0.000000 0.000000 
#    y 0.000000 1.799570 0.000000 
#    z 0.000000 0.000000 1.689780 
# 
# From -- ./inp_files/11753.got.cif
#   From: 2010.05.17/outbox.cif.g08.bks.cpg/sg51_6_cif.got.tgz:11753.got - 2010.06.03 11:52:47.
