data_PCOD9407515
_publ_section_title
;
Structure prediction by ZEFSAII (Michael W. Deem and Ramdas Pophale) SiO2 
 PCOD9407515
Probable space group: P M M A
;
_chemical_formula_sum "Si O2"
_cell_formula_units_Z 56
_cell_length_a 15.000000
_cell_length_b 9.000000
_cell_length_c 21.000000
_cell_angle_alpha 90.000000
_cell_angle_beta 90.000000
_cell_angle_gamma 90.000000
_cell_volume 2835.000000
_symmetry_space_group_name_H-M "P M M A"
_symmetry_group_IT_number 51
_symmetry_cell_setting 'orthorhombic'
loop_
_space_group_symop_operation_xyz
x,y,z
1/2-x,-y,z
1/2+x,-y,-z
-x,y,-z
-x,-y,-z
1/2+x,y,-z
1/2-x,y,z
x,-y,z
loop_
_atom_site_type_symbol
_atom_site_label
_atom_site_fract_x
_atom_site_fract_y
_atom_site_fract_z
Si Si1 0.996096 0.321396 0.927274
Si Si2 0.101429 0.322652 0.700268
Si Si3 0.856924 0.167151 0.564781
Si Si4 0.852003 0.169202 0.844890
Si Si5 0.642611 0.667880 0.439117
Si Si6 0.914613 0.178666 0.705449
Si Si7 0.154270 0.319190 0.837592
O O1 0.002360 0.500000 0.929582
O O2 0.908631 0.275431 0.889168
O O3 0.076361 0.264370 0.882819
O O4 0.000000 0.266887 0.000000
O O5 0.117959 0.500000 0.696387
O O6 0.122490 0.260973 0.629811
O O7 0.149530 0.267980 0.764136
O O8 0.000498 0.279985 0.713685
O O9 0.750000 0.162438 0.559373
O O10 0.890267 0.255684 0.503492
O O11 0.876075 0.220858 0.636284
O O12 0.892116 0.000000 0.560110
O O13 0.750000 0.174126 0.864086
O O14 0.857967 0.202548 0.769262
O O15 0.885939 0.000000 0.852402
O O16 0.750000 0.661792 0.442614
O O17 0.607289 0.500000 0.438510
O O18 0.933464 0.000000 0.703121
O O19 0.250000 0.280544 0.864968
O O20 0.147499 0.500000 0.834825
#
# Coordination Sequence:
#
# PCOD9407515 Si02
#       7
#     8   8   8   8   8   8   8
#     4  10  21  37  59  89 120 147 181 228 276 326
#     4  10  19  32  52  75 101 136 181 227 272 324
#     4   9  18  33  51  70  96 134 178 222 269 324
#     4  10  21  38  60  84 113 152 192 229 275 329
#     4   9  18  32  49  71  99 132 174 224 273 322
#     4  10  20  34  53  76 104 138 181 229 273 320
#     4   9  17  32  55  80 108 145 185 222 268 327
#
# _framework density 19.753086
#
# number of rings (size 3 to 8) (size 9 to 14) (size 15 to 20)
#    0.000    2.429    1.429    0.857    0.000    6.286 
#    0.000    4.286    0.000    5.143    0.000    0.000 
#    0.000    0.000    0.000    0.000    0.000    0.000 
#
# Total GULP energy -311767.142866 kJ/mol
# GULP energy per Si atom -5567.270408 kJ/mol
# Density = 1.970813 g / cm^3
# Si number density = 19.753086 Si / 1000 Ang^3
#
#
#
# Elastic Constant Matrix: (Units=GPa)
#
#
# Indices 1 2 3 4 5 6 
#
# 1 45.3850 5.4640 36.7997 0.0000 0.0000 0.0000
# 2 5.4640 -8.9296 25.2189 0.0000 0.0000 0.0000
# 3 36.7997 25.2189 151.6133 0.0000 0.0000 0.0000
# 4 0.0000 0.0000 0.0000 18.7858 0.0000 0.0000
# 5 0.0000 0.0000 0.0000 0.0000 33.7601 0.0000
# 6 0.0000 0.0000 0.0000 0.0000 0.0000 -11.5183
#
#
#
# Elastic Compliance Matrix: (Units=1/GPa)
#
#
# Indices 1 2 3 4 5 6 
#
# 1 0.027408 -0.001372 -0.006424 0.000000 0.000000 0.000000
# 2 -0.001372 -0.076125 0.012996 0.000000 0.000000 0.000000
# 3 -0.006424 0.012996 0.005993 0.000000 0.000000 0.000000
# 4 0.000000 0.000000 0.000000 0.053232 0.000000 0.000000
# 5 0.000000 0.000000 0.000000 0.000000 0.029621 0.000000
# 6 0.000000 0.000000 0.000000 0.000000 0.000000 -0.086818
#
#
# Mechanical properties :
#
#
# Convention : Reuss Voigt Hill
#
# Bulk Modulus (GPa) = -30.93500 35.89265 2.47882
# Shear Modulus (GPa) = -73.67827 16.24457 -28.71685
#
# Velocity S-wave (km/s) = -6.11397 2.87083 -3.81700
# Velocity P-wave (km/s) = 8.09541 5.40361 4.26243
#
# Compressibility (1/GPa) = -0.03232584
#
# Stress axis : x y z
#
# Youngs Moduli (GPa) = 36.48582 -13.13627 166.85053
#
# Poissons Ratio (x) = -0.01803 1.07188
# Poissons Ratio (y) = 0.05007 -2.16831
# Poissons Ratio (z) = 0.23439 0.17071
#
# Static dielectric constant tensor:
#      x y z
#    x 1.721700 0.000000 0.000000 
#    y 0.000000 1.699680 0.000000 
#    z 0.000000 0.000000 1.723400 
# 
# From -- ./inp_files/33329.got.cif
#   From: 2010.05.17/outbox.ucp.g08.bks.cvg/sg51_17_cif.got.tgz:33329.got - 2010.06.11 16:27:58.
