data_PCOD9407588
_publ_section_title
;
Structure prediction by ZEFSAII (Michael W. Deem and Ramdas Pophale) SiO2 
 PCOD9407588
Probable space group: P M M A
;
_chemical_formula_sum "Si O2"
_cell_formula_units_Z 56
_cell_length_a 9.000000
_cell_length_b 15.000000
_cell_length_c 21.000000
_cell_angle_alpha 90.000000
_cell_angle_beta 90.000000
_cell_angle_gamma 90.000000
_cell_volume 2835.000000
_symmetry_space_group_name_H-M "P M M A"
_symmetry_group_IT_number 51
_symmetry_cell_setting 'orthorhombic'
loop_
_space_group_symop_operation_xyz
x,y,z
1/2-x,-y,z
1/2+x,-y,-z
-x,y,-z
-x,-y,-z
1/2+x,y,-z
1/2-x,y,z
x,-y,z
loop_
_atom_site_type_symbol
_atom_site_label
_atom_site_fract_x
_atom_site_fract_y
_atom_site_fract_z
Si Si1 0.923505 0.101293 0.181162
Si Si2 0.918718 0.403260 0.100759
Si Si3 0.074392 0.726028 0.676032
Si Si4 0.424829 0.401083 0.231367
Si Si5 0.073640 0.902192 0.317723
Si Si6 0.577239 0.793468 0.061777
Si Si7 0.427340 0.601060 0.561604
O O1 0.750000 0.121970 0.197152
O O2 0.981415 0.167861 0.127854
O O3 0.019772 0.102918 0.244593
O O4 0.926202 0.000000 0.156069
O O5 0.750000 0.399164 0.128627
O O6 0.929252 0.500000 0.068202
O O7 0.934959 0.313313 0.061982
O O8 0.036848 0.401426 0.157056
O O9 0.250000 0.733623 0.682575
O O10 0.034274 0.652751 0.624322
O O11 0.006059 0.684121 0.739456
O O12 0.007317 0.818469 0.652641
O O13 0.250000 0.394486 0.242965
O O14 0.476441 0.500000 0.255201
O O15 0.250000 0.893564 0.321475
O O16 0.030199 0.000000 0.342181
O O17 0.750000 0.817302 0.060435
O O18 0.500000 0.831297 0.000000
O O19 0.500000 0.643650 0.500000
O O20 0.250000 0.600153 0.554743
O O21 0.482275 0.500000 0.566601
#
# Coordination Sequence:
#
# PCOD9407588 Si02
#       7
#     8   8   8   8   8   8   8
#     4   9  18  34  54  74  98 128 161 199 249 310
#     4   9  18  33  50  67  92 127 164 203 250 304
#     4  11  21  33  53  79 108 143 179 214 255 308
#     4  10  20  32  49  77 108 135 167 210 260 310
#     4  10  21  36  55  81 109 135 168 214 265 312
#     4  10  21  34  48  68  92 121 160 204 249 299
#     4   9  19  35  54  78 109 145 183 219 255 297
#
# _framework density 19.753086
#
# number of rings (size 3 to 8) (size 9 to 14) (size 15 to 20)
#    0.000    2.286    0.000    2.571    0.000    6.286 
#    0.000    1.429    0.000    0.429    0.000    0.000 
#    0.000    0.000    0.000    0.000    0.000    0.000 
#
# Total GULP energy -311954.643972 kJ/mol
# GULP energy per Si atom -5570.618642 kJ/mol
# Density = 1.970813 g / cm^3
# Si number density = 19.753086 Si / 1000 Ang^3
#
#
#
# Elastic Constant Matrix: (Units=GPa)
#
#
# Indices 1 2 3 4 5 6 
#
# 1 -1.5792 30.7284 15.3472 0.0000 0.0000 0.0000
# 2 30.7284 61.0103 2.2878 0.0000 0.0000 0.0000
# 3 15.3472 2.2878 23.3942 0.0000 0.0000 0.0000
# 4 0.0000 0.0000 0.0000 -22.7942 0.0000 0.0000
# 5 0.0000 0.0000 0.0000 0.0000 20.4238 0.0000
# 6 0.0000 0.0000 0.0000 0.0000 0.0000 24.0167
#
#
#
# Elastic Compliance Matrix: (Units=1/GPa)
#
#
# Indices 1 2 3 4 5 6 
#
# 1 -0.038909 0.018709 0.023696 0.000000 0.000000 0.000000
# 2 0.018709 0.007456 -0.013002 0.000000 0.000000 0.000000
# 3 0.023696 -0.013002 0.028472 0.000000 0.000000 0.000000
# 4 0.000000 0.000000 0.000000 -0.043871 0.000000 0.000000
# 5 0.000000 0.000000 0.000000 0.000000 0.048963 0.000000
# 6 0.000000 0.000000 0.000000 0.000000 0.000000 0.041638
#
#
# Mechanical properties :
#
#
# Convention : Reuss Voigt Hill
#
# Bulk Modulus (GPa) = 17.91396 19.95023 18.93209
# Shear Modulus (GPa) = 1408.30671 6.62671 707.46671
#
# Velocity S-wave (km/s) = 26.73019 1.83359 18.94552
# Velocity P-wave (km/s) = 31.01225 3.82158 22.09484
#
# Compressibility (1/GPa) = 0.05582239
#
# Stress axis : x y z
#
# Youngs Moduli (GPa) = -25.70070 134.12887 35.12237
#
# Poissons Ratio (x) = -2.50936 -0.83226
# Poissons Ratio (y) = 0.48082 0.45668
# Poissons Ratio (z) = 0.60901 1.74400
#
# Static dielectric constant tensor:
#      x y z
#    x 1.683770 0.000000 0.000000 
#    y 0.000000 1.764380 0.000000 
#    z 0.000000 0.000000 1.696250 
# 
# From -- ./inp_files/31890.got.cif
#   From: 2010.05.17/outbox.ucp.g08.bks.cvg/sg51_16_cif.got.tgz:31890.got - 2010.06.11 16:27:58.
