data_PCOD9407006
_publ_section_title
;
Structure prediction by ZEFSAII (Michael W. Deem and Ramdas Pophale) SiO2 
 PCOD9407006
Probable space group: P M M A
;
_chemical_formula_sum "Si O2"
_cell_formula_units_Z 64
_cell_length_a 9.072495
_cell_length_b 18.873710
_cell_length_c 27.073931
_cell_angle_alpha 90.000000
_cell_angle_beta 90.000000
_cell_angle_gamma 90.000000
_cell_volume 4635.913596
_symmetry_space_group_name_H-M "P M M A"
_symmetry_group_IT_number 51
_symmetry_cell_setting 'orthorhombic'
loop_
_space_group_symop_operation_xyz
x,y,z
1/2-x,-y,z
1/2+x,-y,-z
-x,y,-z
-x,-y,-z
1/2+x,y,-z
1/2-x,y,z
x,-y,z
loop_
_atom_site_type_symbol
_atom_site_label
_atom_site_fract_x
_atom_site_fract_y
_atom_site_fract_z
Si Si1 0.080327 0.290518 0.096497
Si Si2 0.572843 0.583545 0.348428
Si Si3 0.926806 0.659255 0.248498
Si Si4 0.926346 0.841097 0.051123
Si Si5 0.427364 0.582672 0.853832
Si Si6 0.081809 0.212529 0.203486
Si Si7 0.572842 0.082639 0.856232
Si Si8 0.420050 0.413740 0.449970
O O1 0.250000 0.295075 0.079608
O O2 0.081051 0.251757 0.150070
O O3 0.984764 0.238460 0.062554
O O4 0.008044 0.366508 0.107122
O O5 0.750000 0.589722 0.352649
O O6 0.539809 0.500000 0.341449
O O7 0.522260 0.625773 0.300005
O O8 0.499754 0.608002 0.399442
O O9 0.750000 0.660504 0.249379
O O10 0.968392 0.610549 0.201216
O O11 0.986282 0.737814 0.238427
O O12 0.750000 0.842784 0.048807
O O13 0.986894 0.889451 0.095781
O O14 0.000000 0.864691 0.000000
O O15 0.250000 0.590837 0.858591
O O16 0.463589 0.500000 0.859038
O O17 0.250000 0.210517 0.221309
O O18 0.031281 0.133442 0.189652
O O19 0.750000 0.093025 0.864155
O O20 0.546227 0.000000 0.847767
O O21 0.500000 0.389710 0.500000
O O22 0.250000 0.392366 0.450031
O O23 0.424966 0.500000 0.450424
#
# Coordination Sequence:
#
# PCOD9407006 Si02
#       8
#     8   8   8   8   8   8   8   8
#     4   9  17  30  45  61  81 105 134 163 193 232
#     4   9  16  25  36  51  73 101 134 172 210 243
#     4   9  16  25  38  56  79 107 135 164 199 238
#     4  11  21  33  49  67  86 107 131 158 191 230
#     4   9  16  26  41  61  83 106 133 165 201 240
#     4   8  15  27  42  59  79 104 131 159 190 226
#     4   9  18  33  50  67  88 111 134 160 189 223
#     4   9  16  25  36  49  66  92 128 169 211 251
#
# _framework density 13.805262000000001
#
# number of rings (size 3 to 8) (size 9 to 14) (size 15 to 20)
#    0.000    2.875    0.000    3.000    0.000    7.250 
#    0.000    0.000    0.000    2.625    0.000    0.000 
#    0.000    0.000    0.000    0.000    0.000    0.625 
#
# Total GULP energy -356419.654244 kJ/mol
# GULP energy per Si atom -5569.057098 kJ/mol
# Density = 1.377384 g / cm^3
# Si number density = 13.805262 Si / 1000 Ang^3
#
#
#
# Elastic Constant Matrix: (Units=GPa)
#
#
# Indices 1 2 3 4 5 6 
#
# 1 47.0466 30.0186 21.7503 0.0000 0.0000 0.0000
# 2 30.0186 88.6542 23.6921 0.0000 0.0000 0.0000
# 3 21.7503 23.6921 42.3263 0.0000 0.0000 0.0000
# 4 0.0000 0.0000 0.0000 10.6534 0.0000 0.0000
# 5 0.0000 0.0000 0.0000 0.0000 19.2117 0.0000
# 6 0.0000 0.0000 0.0000 0.0000 0.0000 18.6245
#
#
#
# Elastic Compliance Matrix: (Units=1/GPa)
#
#
# Indices 1 2 3 4 5 6 
#
# 1 0.031599 -0.007479 -0.012052 0.000000 0.000000 0.000000
# 2 -0.007479 0.015034 -0.004572 0.000000 0.000000 0.000000
# 3 -0.012052 -0.004572 0.032378 0.000000 0.000000 0.000000
# 4 0.000000 0.000000 0.000000 0.093867 0.000000 0.000000
# 5 0.000000 0.000000 0.000000 0.000000 0.052052 0.000000
# 6 0.000000 0.000000 0.000000 0.000000 0.000000 0.053693
#
#
# Mechanical properties :
#
#
# Convention : Reuss Voigt Hill
#
# Bulk Modulus (GPa) = 32.46101 36.54989 34.50545
# Shear Modulus (GPa) = 14.83255 16.53565 15.68410
#
# Velocity S-wave (km/s) = 3.28138 3.46465 3.37426
# Velocity P-wave (km/s) = 6.15802 6.52211 6.34267
#
# Compressibility (1/GPa) = 0.03080619
#
# Stress axis : x y z
#
# Youngs Moduli (GPa) = 31.64647 66.51584 30.88501
#
# Poissons Ratio (x) = 0.49746 0.37221
# Poissons Ratio (y) = 0.23668 0.14121
# Poissons Ratio (z) = 0.38139 0.30412
#
# Static dielectric constant tensor:
#      x y z
#    x 1.466410 0.000000 0.000000 
#    y 0.000000 1.451830 0.000000 
#    z 0.000000 0.000000 1.443480 
# 
# From -- ./inp_files/36418.got.cif
#   From: 2010.05.17/outbox.cif.g08.bks.cpg/sg51_19_cif.got.tgz:36418.got - 2010.06.03 11:52:47.
