data_PCOD9407949
_publ_section_title
;
Structure prediction by ZEFSAII (Michael W. Deem and Ramdas Pophale) SiO2 
 PCOD9407949
Probable space group: P N N A
;
_chemical_formula_sum "Si O2"
_cell_formula_units_Z 60
_cell_length_a 28.655082
_cell_length_b 11.614818
_cell_length_c 7.435344
_cell_angle_alpha 90.000000
_cell_angle_beta 90.000000
_cell_angle_gamma 90.000000
_cell_volume 2474.657676
_symmetry_space_group_name_H-M "P N N A"
_symmetry_group_IT_number 52
_symmetry_cell_setting 'orthorhombic'
loop_
_space_group_symop_operation_xyz
x,y,z
1/2-x,-y,z
x,1/2-y,1/2-z
1/2-x,1/2+y,1/2-z
-x,-y,-z
1/2+x,y,-z
-x,1/2+y,1/2+z
1/2+x,1/2-y,1/2+z
loop_
_atom_site_type_symbol
_atom_site_label
_atom_site_fract_x
_atom_site_fract_y
_atom_site_fract_z
Si Si1 0.699028 0.985635 0.369450
Si Si2 0.789153 0.237805 0.965541
Si Si3 0.501359 0.811441 0.965778
Si Si4 0.188734 0.287972 0.045371
Si Si5 0.633286 0.557141 0.415181
Si Si6 0.914101 0.812307 0.553066
Si Si7 0.944607 0.505047 0.700065
Si Si8 0.930227 0.250000 0.250000
O O1 0.693083 0.855731 0.440466
O O2 0.659826 0.021722 0.227355
O O3 0.750000 0.000000 0.284389
O O4 0.699476 0.075947 0.532029
O O5 0.788007 0.250000 0.750000
O O6 0.735091 0.225809 0.029561
O O7 0.824770 0.136002 0.008393
O O8 0.529066 0.882129 0.813297
O O9 0.455700 0.736615 0.935316
O O10 0.537583 0.734387 0.076443
O O11 0.482020 0.907716 0.109071
O O12 0.185616 0.250000 0.250000
O O13 0.136154 0.280239 0.974983
O O14 0.600581 0.503355 0.567882
O O15 0.600385 0.640430 0.299110
O O16 0.916125 0.750000 0.750000
O O17 0.925832 0.943730 0.612157
#
# Coordination Sequence:
#
# PCOD9407949 Si02
#       8
#     8   8   8   8   8   8   8   4
#     4  10  21  41  59  88 129 167 206 264 329 389
#     4  10  21  39  60  92 127 162 216 272 314 391
#     4   9  16  31  54  90 125 162 214 265 323 385
#     4   9  20  38  65  88 119 171 216 264 325 384
#     4  11  21  36  60  93 126 167 212 258 333 387
#     4   9  16  33  56  86 120 159 217 268 318 380
#     4   9  18  29  56  96 118 162 223 258 325 390
#     4  10  16  32  60  86 120 174 200 256 330 380
#
# _framework density 24.245778999999999
#
# number of rings (size 3 to 8) (size 9 to 14) (size 15 to 20)
#    0.000    2.400    3.333    0.000    1.867    0.000 
#    9.600    0.000    0.000    0.800   31.200    0.000 
#    0.000    0.000    0.000    0.000    0.000    0.000 
#
# Total GULP energy -334979.136004 kJ/mol
# GULP energy per Si atom -5582.985600 kJ/mol
# Density = 2.419059 g / cm^3
# Si number density = 24.245779 Si / 1000 Ang^3
#
#
#
# Elastic Constant Matrix: (Units=GPa)
#
#
# Indices 1 2 3 4 5 6 
#
# 1 175.3393 32.5925 48.9657 0.0000 0.0000 0.0000
# 2 32.5925 67.3243 40.8568 0.0000 0.0000 0.0000
# 3 48.9657 40.8568 88.1726 0.0000 0.0000 0.0000
# 4 0.0000 0.0000 0.0000 38.5661 0.0000 0.0000
# 5 0.0000 0.0000 0.0000 0.0000 16.0437 0.0000
# 6 0.0000 0.0000 0.0000 0.0000 0.0000 22.0042
#
#
#
# Elastic Compliance Matrix: (Units=1/GPa)
#
#
# Indices 1 2 3 4 5 6 
#
# 1 0.006844 -0.001401 -0.003152 0.000000 0.000000 0.000000
# 2 -0.001401 0.020951 -0.008930 0.000000 0.000000 0.000000
# 3 -0.003152 -0.008930 0.017230 0.000000 0.000000 0.000000
# 4 0.000000 0.000000 0.000000 0.025930 0.000000 0.000000
# 5 0.000000 0.000000 0.000000 0.000000 0.062330 0.000000
# 6 0.000000 0.000000 0.000000 0.000000 0.000000 0.045446
#
#
# Mechanical properties :
#
#
# Convention : Reuss Voigt Hill
#
# Bulk Modulus (GPa) = 55.37278 63.96291 59.66785
# Shear Modulus (GPa) = 23.61671 29.21754 26.41712
#
# Velocity S-wave (km/s) = 3.12437 3.47516 3.30442
# Velocity P-wave (km/s) = 5.99193 6.52232 6.26274
#
# Compressibility (1/GPa) = 0.01805941
#
# Stress axis : x y z
#
# Youngs Moduli (GPa) = 146.12015 47.73031 58.03924
#
# Poissons Ratio (x) = 0.06685 0.18292
# Poissons Ratio (y) = 0.20464 0.51831
# Poissons Ratio (z) = 0.46051 0.42625
#
# Static dielectric constant tensor:
#      x y z
#    x 1.964340 0.000000 0.000000 
#    y 0.000000 1.983910 0.000000 
#    z 0.000000 0.000000 1.989280 
# 
# From -- ./inp_files/15080.got.cif
#   From: 2010.05.17/outbox.cif.g08.bks.cpg/sg52_8_cif.got.tgz:15080.got - 2010.06.03 12:15:38.
