data_PCOD9407822
_publ_section_title
;
Structure prediction by ZEFSAII (Michael W. Deem and Ramdas Pophale) SiO2 
 PCOD9407822
Probable space group: P M M A
;
_chemical_formula_sum "Si O2"
_cell_formula_units_Z 40
_cell_length_a 15.000000
_cell_length_b 9.000000
_cell_length_c 15.000000
_cell_angle_alpha 90.000000
_cell_angle_beta 90.000000
_cell_angle_gamma 90.000000
_cell_volume 2025.000000
_symmetry_space_group_name_H-M "P M M A"
_symmetry_group_IT_number 51
_symmetry_cell_setting 'orthorhombic'
loop_
_space_group_symop_operation_xyz
x,y,z
1/2-x,-y,z
1/2+x,-y,-z
-x,y,-z
-x,-y,-z
1/2+x,y,-z
1/2-x,y,z
x,-y,z
loop_
_atom_site_type_symbol
_atom_site_label
_atom_site_fract_x
_atom_site_fract_y
_atom_site_fract_z
Si Si1 0.110150 0.821405 0.349823
Si Si2 0.750000 0.326993 0.314558
Si Si3 0.750000 0.820096 0.004834
Si Si4 0.065965 0.178034 0.738886
Si Si5 0.750000 0.328073 0.527156
Si Si6 0.250000 0.179326 0.200736
Si Si7 0.929060 0.325019 0.079096
O O1 0.163113 0.749054 0.430759
O O2 0.164806 0.777579 0.260339
O O3 0.007430 0.781503 0.335571
O O4 0.116636 0.000000 0.358139
O O5 0.750000 0.500000 0.287877
O O6 0.838198 0.246718 0.280198
O O7 0.750000 0.317688 0.421391
O O8 0.750000 0.770184 0.900953
O O9 0.750000 0.000000 0.009642
O O10 0.662439 0.754642 0.051159
O O11 0.035236 0.244771 0.832854
O O12 0.070565 0.000000 0.743989
O O13 0.750000 0.500000 0.553759
O O14 0.250000 0.000000 0.196675
O O15 0.913881 0.500000 0.095678
O O16 0.000000 0.309959 0.000000
#
# Coordination Sequence:
#
# PCOD9407822 Si02
#       7
#     8   4   4   8   4   4   8
#     4   9  19  37  61  87 116 146 185 241 294 340
#     4  11  25  43  60  83 121 160 193 235 286 345
#     4  11  21  35  58  83 113 154 199 247 290 337
#     4  11  23  40  63  88 113 150 198 243 289 340
#     4  10  22  39  61  89 118 152 190 228 281 352
#     4   8  15  31  55  83 112 144 182 230 289 340
#     4  11  24  40  58  84 120 158 195 238 290 347
#
# _framework density 19.753086
#
# number of rings (size 3 to 8) (size 9 to 14) (size 15 to 20)
#    0.000    1.800    0.000    4.500    0.000    7.200 
#    0.000   10.000    0.000    0.000    0.000    0.000 
#    0.000    0.000    0.000    0.000    0.000    0.000 
#
# Total GULP energy -223511.767598 kJ/mol
# GULP energy per Si atom -5587.794190 kJ/mol
# Density = 1.970813 g / cm^3
# Si number density = 19.753086 Si / 1000 Ang^3
#
#
#
# Elastic Constant Matrix: (Units=GPa)
#
#
# Indices 1 2 3 4 5 6 
#
# 1 106.2346 49.9998 12.7097 0.0000 0.0000 0.0000
# 2 49.9998 88.8155 29.5909 0.0000 0.0000 0.0000
# 3 12.7097 29.5909 47.2346 0.0000 0.0000 0.0000
# 4 0.0000 0.0000 0.0000 33.3749 0.0000 0.0000
# 5 0.0000 0.0000 0.0000 0.0000 -4.1542 0.0000
# 6 0.0000 0.0000 0.0000 0.0000 0.0000 12.6868
#
#
#
# Elastic Compliance Matrix: (Units=1/GPa)
#
#
# Indices 1 2 3 4 5 6 
#
# 1 0.012875 -0.007701 0.001360 0.000000 0.000000 0.000000
# 2 -0.007701 0.018836 -0.009728 0.000000 0.000000 0.000000
# 3 0.001360 -0.009728 0.026899 0.000000 0.000000 0.000000
# 4 0.000000 0.000000 0.000000 0.029963 0.000000 0.000000
# 5 0.000000 0.000000 0.000000 0.000000 -0.240719 0.000000
# 6 0.000000 0.000000 0.000000 0.000000 0.000000 0.078822
#
#
# Mechanical properties :
#
#
# Convention : Reuss Voigt Hill
#
# Bulk Modulus (GPa) = 37.77546 47.43172 42.60359
# Shear Modulus (GPa) = -154.50336 18.38046 -68.06145
#
# Velocity S-wave (km/s) = -8.85365 3.05374 -5.87630
# Velocity P-wave (km/s) = 9.23855 6.04137 4.94230
#
# Compressibility (1/GPa) = 0.02647221
#
# Stress axis : x y z
#
# Youngs Moduli (GPa) = 77.66946 53.09002 37.17605
#
# Poissons Ratio (x) = 0.40887 -0.05057
# Poissons Ratio (y) = 0.59816 0.36164
# Poissons Ratio (z) = -0.10565 0.51645
#
# Static dielectric constant tensor:
#      x y z
#    x 1.680930 0.000000 0.000000 
#    y 0.000000 1.660650 0.000000 
#    z 0.000000 0.000000 1.690470 
# 
# From -- ./inp_files/23873.got.cif
#   From: 2010.05.17/outbox.ucp.g08.bks.cvg/sg51_12_cif.got.tgz:23873.got - 2010.06.11 16:27:58.
