data_PCOD9407635
_publ_section_title
;
Structure prediction by ZEFSAII (Michael W. Deem and Ramdas Pophale) SiO2 
 PCOD9407635
Probable space group: P M M A
;
_chemical_formula_sum "Si O2"
_cell_formula_units_Z 48
_cell_length_a 9.000000
_cell_length_b 9.000000
_cell_length_c 30.000000
_cell_angle_alpha 90.000000
_cell_angle_beta 90.000000
_cell_angle_gamma 90.000000
_cell_volume 2430.000000
_symmetry_space_group_name_H-M "P M M A"
_symmetry_group_IT_number 51
_symmetry_cell_setting 'orthorhombic'
loop_
_space_group_symop_operation_xyz
x,y,z
1/2-x,-y,z
1/2+x,-y,-z
-x,y,-z
-x,-y,-z
1/2+x,y,-z
1/2-x,y,z
x,-y,z
loop_
_atom_site_type_symbol
_atom_site_label
_atom_site_fract_x
_atom_site_fract_y
_atom_site_fract_z
Si Si1 0.925849 0.665459 0.047841
Si Si2 0.575081 0.835682 0.547536
Si Si3 0.069271 0.666677 0.210836
Si Si4 0.580542 0.824480 0.700275
Si Si5 0.924374 0.828605 0.876098
Si Si6 0.582926 0.672361 0.378585
O O1 0.750000 0.673812 0.043441
O O2 0.965012 0.500000 0.065763
O O3 0.987032 0.790127 0.080018
O O4 0.000000 0.678657 0.000000
O O5 0.500000 0.821215 0.500000
O O6 0.750000 0.831036 0.542091
O O7 0.521472 0.710448 0.580457
O O8 0.535318 0.000000 0.566216
O O9 0.250000 0.667749 0.208632
O O10 0.019372 0.500000 0.219239
O O11 0.029205 0.770912 0.251563
O O12 0.016748 0.728542 0.163983
O O13 0.750000 0.767628 0.692625
O O14 0.473470 0.763180 0.663150
O O15 0.586149 0.000000 0.698698
O O16 0.750000 0.795494 0.883761
O O17 0.935407 0.000000 0.863224
O O18 0.750000 0.713734 0.391230
O O19 0.577632 0.500000 0.367354
#
# Coordination Sequence:
#
# PCOD9407635 Si02
#       6
#     8   8   8   8   8   8
#     4  10  21  37  57  80 106 139 180 225 273 325
#     4  10  21  38  61  87 113 144 183 226 274 328
#     4   9  17  31  54  82 111 144 181 222 269 321
#     4  10  20  35  57  84 112 143 182 227 274 325
#     4  10  20  34  54  81 112 145 181 222 269 322
#     4  11  24  39  55  79 112 149 188 229 274 324
#
# _framework density 19.753086
#
# number of rings (size 3 to 8) (size 9 to 14) (size 15 to 20)
#    0.000    2.000    0.000    3.500    0.000   10.000 
#    0.000    0.833    0.000    5.000    0.000    0.000 
#    0.000    0.000    0.000    0.000    0.000    0.000 
#
# Total GULP energy -267785.979795 kJ/mol
# GULP energy per Si atom -5578.874579 kJ/mol
# Density = 1.970813 g / cm^3
# Si number density = 19.753086 Si / 1000 Ang^3
#
#
#
# Elastic Constant Matrix: (Units=GPa)
#
#
# Indices 1 2 3 4 5 6 
#
# 1 29.1840 35.1788 29.0266 0.0000 0.0000 0.0000
# 2 35.1788 29.6124 30.8736 0.0000 0.0000 0.0000
# 3 29.0266 30.8736 55.9726 0.0000 0.0000 0.0000
# 4 0.0000 0.0000 0.0000 25.9148 0.0000 0.0000
# 5 0.0000 0.0000 0.0000 0.0000 -0.2640 0.0000
# 6 0.0000 0.0000 0.0000 0.0000 0.0000 20.1985
#
#
#
# Elastic Compliance Matrix: (Units=1/GPa)
#
#
# Indices 1 2 3 4 5 6 
#
# 1 -0.066364 0.101095 -0.021347 0.000000 0.000000 0.000000
# 2 0.101095 -0.074529 -0.011317 0.000000 0.000000 0.000000
# 3 -0.021347 -0.011317 0.035179 0.000000 0.000000 0.000000
# 4 0.000000 0.000000 0.000000 0.038588 0.000000 0.000000
# 5 0.000000 0.000000 0.000000 0.000000 -3.788424 0.000000
# 6 0.000000 0.000000 0.000000 0.000000 0.000000 0.049509
#
#
# Mechanical properties :
#
#
# Convention : Reuss Voigt Hill
#
# Bulk Modulus (GPa) = 32.10612 33.88077 32.99345
# Shear Modulus (GPa) = -1.27145 10.48251 4.60553
#
# Velocity S-wave (km/s) = -0.80316 2.30614 1.52860
# Velocity P-wave (km/s) = 3.92797 4.92752 4.45586
#
# Compressibility (1/GPa) = 0.03114671
#
# Stress axis : x y z
#
# Youngs Moduli (GPa) = -15.06849 -13.41758 28.42641
#
# Poissons Ratio (x) = 1.35644 0.60682
# Poissons Ratio (y) = 1.52334 0.32171
# Poissons Ratio (z) = -0.32167 -0.15185
#
# Static dielectric constant tensor:
#      x y z
#    x 1.691620 0.000000 0.000000 
#    y 0.000000 1.712450 0.000000 
#    z 0.000000 0.000000 1.645220 
# 
# From -- ./inp_files/36871.got.cif
#   From: 2010.05.17/outbox.ucp.g08.bks.cvg/sg51_19_cif.got.tgz:36871.got - 2010.06.11 16:27:58.
