data_PCOD9407295
_publ_section_title
;
Structure prediction by ZEFSAII (Michael W. Deem and Ramdas Pophale) SiO2 
 PCOD9407295
Probable space group: P M M A
;
_chemical_formula_sum "Si O2"
_cell_formula_units_Z 48
_cell_length_a 7.351663
_cell_length_b 9.390026
_cell_length_c 32.578418
_cell_angle_alpha 90.000000
_cell_angle_beta 90.000000
_cell_angle_gamma 90.000000
_cell_volume 2248.963344
_symmetry_space_group_name_H-M "P M M A"
_symmetry_group_IT_number 51
_symmetry_cell_setting 'orthorhombic'
loop_
_space_group_symop_operation_xyz
x,y,z
1/2-x,-y,z
1/2+x,-y,-z
-x,y,-z
-x,-y,-z
1/2+x,y,-z
1/2-x,y,z
x,-y,z
loop_
_atom_site_type_symbol
_atom_site_label
_atom_site_fract_x
_atom_site_fract_y
_atom_site_fract_z
Si Si1 0.528112 0.663925 0.705435
Si Si2 0.972211 0.836027 0.786136
Si Si3 0.533281 0.336777 0.955718
Si Si4 0.028528 0.333399 0.133709
Si Si5 0.466986 0.662360 0.453834
Si Si6 0.972321 0.163508 0.624792
O O1 0.750000 0.663347 0.705472
O O2 0.469670 0.500000 0.705633
O O3 0.470795 0.747472 0.746212
O O4 0.471224 0.746026 0.664393
O O5 0.750000 0.835289 0.786257
O O6 0.032799 0.759463 0.827929
O O7 0.029100 0.000000 0.784006
O O8 0.750000 0.345189 0.952528
O O9 0.462330 0.500000 0.958082
O O10 0.470200 0.279634 0.911581
O O11 0.500000 0.266604 0.000000
O O12 0.250000 0.330898 0.134661
O O13 0.976815 0.500000 0.137741
O O14 0.500000 0.715707 0.500000
O O15 0.250000 0.653962 0.448886
O O16 0.537987 0.500000 0.451079
O O17 0.533842 0.761344 0.417174
O O18 0.750000 0.163085 0.624709
O O19 0.030249 0.000000 0.627475
#
# Coordination Sequence:
#
# PCOD9407295 Si02
#       6
#     8   8   8   8   8   8
#     4   9  15  22  33  49  71 100 131 160 192 234
#     4   9  15  21  30  46  69  96 125 156 190 230
#     4   8  13  21  34  52  73  97 126 160 195 229
#     4   8  13  21  32  46  66  93 123 153 187 228
#     4   9  17  29  44  61  82 109 140 172 205 240
#     4   9  16  25  37  54  77 104 133 165 201 240
#
# _framework density 21.343167000000001
#
# number of rings (size 3 to 8) (size 9 to 14) (size 15 to 20)
#    0.000    3.333    0.000    2.500    0.000    6.333 
#    0.000    0.000    0.000    0.500    0.000    0.000 
#    0.000    1.333    0.000   11.333    0.000   12.500 
#
# Total GULP energy -267769.792741 kJ/mol
# GULP energy per Si atom -5578.537349 kJ/mol
# Density = 2.129459 g / cm^3
# Si number density = 21.343167 Si / 1000 Ang^3
#
#
#
# Elastic Constant Matrix: (Units=GPa)
#
#
# Indices 1 2 3 4 5 6 
#
# 1 78.7145 4.7011 4.7390 0.0000 0.0000 0.0000
# 2 4.7011 152.2229 141.4372 0.0000 0.0000 0.0000
# 3 4.7390 141.4372 277.3532 0.0000 0.0000 0.0000
# 4 0.0000 0.0000 0.0000 -24.1491 0.0000 0.0000
# 5 0.0000 0.0000 0.0000 0.0000 7.9653 0.0000
# 6 0.0000 0.0000 0.0000 0.0000 0.0000 -11.4690
#
#
#
# Elastic Compliance Matrix: (Units=1/GPa)
#
#
# Indices 1 2 3 4 5 6 
#
# 1 0.012728 -0.000363 -0.000032 0.000000 0.000000 0.000000
# 2 -0.000363 0.012495 -0.006366 0.000000 0.000000 0.000000
# 3 -0.000032 -0.006366 0.006852 0.000000 0.000000 0.000000
# 4 0.000000 0.000000 0.000000 -0.041409 0.000000 0.000000
# 5 0.000000 0.000000 0.000000 0.000000 0.125545 0.000000
# 6 0.000000 0.000000 0.000000 0.000000 0.000000 -0.087192
#
#
# Mechanical properties :
#
#
# Convention : Reuss Voigt Hill
#
# Bulk Modulus (GPa) = 53.89954 90.00504 71.95229
# Shear Modulus (GPa) = 102.61370 18.29697 60.45534
#
# Velocity S-wave (km/s) = 6.94135 2.93110 5.32793
# Velocity P-wave (km/s) = 9.46318 7.32920 8.46371
#
# Compressibility (1/GPa) = 0.01855303
#
# Stress axis : x y z
#
# Youngs Moduli (GPa) = 78.56836 80.03013 145.93569
#
# Poissons Ratio (x) = 0.02905 0.00472
# Poissons Ratio (y) = 0.02852 0.92900
# Poissons Ratio (z) = 0.00254 0.50946
#
# Static dielectric constant tensor:
#      x y z
#    x 1.896990 0.000000 0.000000 
#    y 0.000000 1.710280 0.000000 
#    z 0.000000 0.000000 1.768400 
# 
# From -- ./inp_files/36502.got.cif
#   From: 2010.05.17/outbox.cif.g08.bks.cpg/sg51_19_cif.got.tgz:36502.got - 2010.06.03 11:52:47.
