data_PCOD9407091
_publ_section_title
;
Structure prediction by ZEFSAII (Michael W. Deem and Ramdas Pophale) SiO2 
 PCOD9407091
Probable space group: P M M A
;
_chemical_formula_sum "Si O2"
_cell_formula_units_Z 40
_cell_length_a 8.835224
_cell_length_b 19.261337
_cell_length_c 13.983501
_cell_angle_alpha 90.000000
_cell_angle_beta 90.000000
_cell_angle_gamma 90.000000
_cell_volume 2379.687407
_symmetry_space_group_name_H-M "P M M A"
_symmetry_group_IT_number 51
_symmetry_cell_setting 'orthorhombic'
loop_
_space_group_symop_operation_xyz
x,y,z
1/2-x,-y,z
1/2+x,-y,-z
-x,y,-z
-x,-y,-z
1/2+x,y,-z
1/2-x,y,z
x,-y,z
loop_
_atom_site_type_symbol
_atom_site_label
_atom_site_fract_x
_atom_site_fract_y
_atom_site_fract_z
Si Si1 0.569710 0.287464 0.602391
Si Si2 0.067581 0.921619 0.894976
Si Si3 0.069254 0.352092 0.897643
Si Si4 0.932526 0.579305 0.300501
Si Si5 0.932802 0.214586 0.215893
O O1 0.500000 0.269709 0.500000
O O2 0.750000 0.286306 0.598667
O O3 0.511959 0.363984 0.633395
O O4 0.508861 0.236641 0.685199
O O5 0.250000 0.919180 0.902035
O O6 0.021216 0.860354 0.823763
O O7 0.024297 0.000000 0.865190
O O8 0.000000 0.909295 0.000000
O O9 0.250000 0.354725 0.906618
O O10 0.026599 0.402279 0.809551
O O11 0.027726 0.274590 0.861280
O O12 0.000000 0.368470 0.000000
O O13 0.750000 0.587968 0.308627
O O14 0.970831 0.500000 0.323076
O O15 0.750000 0.216637 0.227530
#
# Coordination Sequence:
#
# PCOD9407091 Si02
#       5
#     8   8   8   8   8
#     4  11  22  36  55  76  96 121 158 203 251 299
#     4   9  17  29  48  76 109 142 171 201 240 285
#     4   9  17  28  44  67  95 129 164 198 236 278
#     4   9  19  36  53  70  97 130 162 199 244 292
#     4   9  18  33  50  70 100 133 166 204 244 287
#
# _framework density 16.80893
#
# number of rings (size 3 to 8) (size 9 to 14) (size 15 to 20)
#    0.000    2.600    0.000    3.600    0.000    5.200 
#    0.000    0.000    0.000    0.600    0.000    0.000 
#    0.000    0.000    0.000    0.000    0.000    0.000 
#
# Total GULP energy -223099.964563 kJ/mol
# GULP energy per Si atom -5577.499114 kJ/mol
# Density = 1.677067 g / cm^3
# Si number density = 16.808930 Si / 1000 Ang^3
#
#
#
# Elastic Constant Matrix: (Units=GPa)
#
#
# Indices 1 2 3 4 5 6 
#
# 1 31.9624 32.6006 24.7151 0.0000 0.0000 0.0000
# 2 32.6006 117.1251 36.4975 0.0000 0.0000 0.0000
# 3 24.7151 36.4975 70.7649 0.0000 0.0000 0.0000
# 4 0.0000 0.0000 0.0000 9.3695 0.0000 0.0000
# 5 0.0000 0.0000 0.0000 0.0000 32.0596 0.0000
# 6 0.0000 0.0000 0.0000 0.0000 0.0000 18.6156
#
#
#
# Elastic Compliance Matrix: (Units=1/GPa)
#
#
# Indices 1 2 3 4 5 6 
#
# 1 0.051758 -0.010453 -0.012685 0.000000 0.000000 0.000000
# 2 -0.010453 0.012284 -0.002685 0.000000 0.000000 0.000000
# 3 -0.012685 -0.002685 0.019946 0.000000 0.000000 0.000000
# 4 0.000000 0.000000 0.000000 0.106730 0.000000 0.000000
# 5 0.000000 0.000000 0.000000 0.000000 0.031192 0.000000
# 6 0.000000 0.000000 0.000000 0.000000 0.000000 0.053718
#
#
# Mechanical properties :
#
#
# Convention : Reuss Voigt Hill
#
# Bulk Modulus (GPa) = 30.92009 45.27545 38.09777
# Shear Modulus (GPa) = 14.79046 20.41154 17.60100
#
# Velocity S-wave (km/s) = 2.96956 3.48850 3.23944
# Velocity P-wave (km/s) = 5.49479 6.57419 6.05858
#
# Compressibility (1/GPa) = 0.03234143
#
# Stress axis : x y z
#
# Youngs Moduli (GPa) = 19.32074 81.40637 50.13437
#
# Poissons Ratio (x) = 0.85097 0.63597
# Poissons Ratio (y) = 0.20197 0.13459
# Poissons Ratio (z) = 0.24509 0.21855
#
# Static dielectric constant tensor:
#      x y z
#    x 1.562160 0.000000 0.000000 
#    y 0.000000 1.576290 0.000000 
#    z 0.000000 0.000000 1.541550 
# 
# From -- ./inp_files/14033.got.cif
#   From: 2010.05.17/outbox.cif.g08.bks.cpg/sg51_8_cif.got.tgz:14033.got - 2010.06.03 11:52:47.
