data_PCOD9407997
_publ_section_title
;
Structure prediction by ZEFSAII (Michael W. Deem and Ramdas Pophale) SiO2 
 PCOD9407997
Probable space group: P N N A
;
_chemical_formula_sum "Si O2"
_cell_formula_units_Z 48
_cell_length_a 8.574309
_cell_length_b 7.915074
_cell_length_c 28.093408
_cell_angle_alpha 90.000000
_cell_angle_beta 90.000000
_cell_angle_gamma 90.000000
_cell_volume 1906.595381
_symmetry_space_group_name_H-M "P N N A"
_symmetry_group_IT_number 52
_symmetry_cell_setting 'orthorhombic'
loop_
_space_group_symop_operation_xyz
x,y,z
1/2-x,-y,z
x,1/2-y,1/2-z
1/2-x,1/2+y,1/2-z
-x,-y,-z
1/2+x,y,-z
-x,1/2+y,1/2+z
1/2+x,1/2-y,1/2+z
loop_
_atom_site_type_symbol
_atom_site_label
_atom_site_fract_x
_atom_site_fract_y
_atom_site_fract_z
Si Si1 0.824853 0.304195 0.013738
Si Si2 0.991959 0.820110 0.178152
Si Si3 0.985003 0.915736 0.685990
Si Si4 0.760466 0.250000 0.250000
Si Si5 0.533574 0.210182 0.070896
Si Si6 0.928670 0.925794 0.585056
Si Si7 0.268935 0.250000 0.250000
O O1 0.750000 0.500000 0.006950
O O2 0.697400 0.195401 0.042727
O O3 0.990557 0.323536 0.041974
O O4 0.883992 0.210355 0.965265
O O5 0.844001 0.849377 0.211552
O O6 0.011070 0.615781 0.178710
O O7 0.984987 0.876813 0.122898
O O8 0.129749 0.866554 0.214147
O O9 0.966474 0.833381 0.633997
O O10 0.840388 0.852614 0.715298
O O11 0.132699 0.859410 0.715480
O O12 0.535118 0.408221 0.083778
O O13 0.750000 0.000000 0.587513
#
# Coordination Sequence:
#
# PCOD9407997 Si02
#       7
#     8   8   8   4   8   8   4
#     4  10  18  26  39  63  89 123 165 190 214 272
#     4  10  20  34  48  67  97 132 164 198 239 282
#     4  10  19  32  48  68  94 128 165 200 239 280
#     4  10  20  32  48  68  88 126 170 204 234 280
#     4  10  18  28  42  61  91 127 161 192 224 273
#     4  10  17  27  43  62  90 126 159 189 223 274
#     4  10  20  30  48  70  90 126 168 202 238 282
#
# _framework density 25.175767
#
# number of rings (size 3 to 8) (size 9 to 14) (size 15 to 20)
#    0.000    2.000    0.000    7.500    0.000    4.000 
#    0.000    0.000    0.000    0.000    0.000    0.000 
#    0.000    0.000    0.000  345.000    0.000   42.833 
#
# Total GULP energy -267495.152597 kJ/mol
# GULP energy per Si atom -5572.815679 kJ/mol
# Density = 2.511847 g / cm^3
# Si number density = 25.175767 Si / 1000 Ang^3
#
#
#
# Elastic Constant Matrix: (Units=GPa)
#
#
# Indices 1 2 3 4 5 6 
#
# 1 187.7739 26.2830 100.7951 0.0000 0.0000 0.0000
# 2 26.2830 29.4581 15.3493 0.0000 0.0000 0.0000
# 3 100.7951 15.3493 253.8351 0.0000 0.0000 0.0000
# 4 0.0000 0.0000 0.0000 23.3377 0.0000 0.0000
# 5 0.0000 0.0000 0.0000 0.0000 248.3750 0.0000
# 6 0.0000 0.0000 0.0000 0.0000 0.0000 17.4831
#
#
#
# Elastic Compliance Matrix: (Units=1/GPa)
#
#
# Indices 1 2 3 4 5 6 
#
# 1 0.007493 -0.005302 -0.002655 0.000000 0.000000 0.000000
# 2 -0.005302 0.038803 -0.000241 0.000000 0.000000 0.000000
# 3 -0.002655 -0.000241 0.005008 0.000000 0.000000 0.000000
# 4 0.000000 0.000000 0.000000 0.042849 0.000000 0.000000
# 5 0.000000 0.000000 0.000000 0.000000 0.004026 0.000000
# 6 0.000000 0.000000 0.000000 0.000000 0.000000 0.057198
#
#
# Mechanical properties :
#
#
# Convention : Reuss Voigt Hill
#
# Bulk Modulus (GPa) = 28.64645 83.99132 56.31888
# Shear Modulus (GPa) = 27.26161 79.74848 53.50505
#
# Velocity S-wave (km/s) = 3.29424 5.63431 4.61506
# Velocity P-wave (km/s) = 5.08652 8.70412 7.12862
#
# Compressibility (1/GPa) = 0.03490834
#
# Stress axis : x y z
#
# Youngs Moduli (GPa) = 133.46423 25.77151 199.66960
#
# Poissons Ratio (x) = 0.13664 0.53005
# Poissons Ratio (y) = 0.70761 0.04814
# Poissons Ratio (z) = 0.35430 0.00621
#
# Static dielectric constant tensor:
#      x y z
#    x 2.033310 0.000000 0.000000 
#    y 0.000000 2.006710 0.000000 
#    z 0.000000 0.000000 2.152860 
# 
# From -- ./inp_files/44505.got.cif
#   From: 2010.05.17/outbox.cif.g08.bks.cpg/sg52_23_cif.got.tgz:44505.got - 2010.06.03 12:15:38.
