data_PCOD9407923
_publ_section_title
;
Structure prediction by ZEFSAII (Michael W. Deem and Ramdas Pophale) SiO2 
 PCOD9407923
Probable space group: P N N A
;
_chemical_formula_sum "Si O2"
_cell_formula_units_Z 52
_cell_length_a 18.071891
_cell_length_b 16.695806
_cell_length_c 9.235191
_cell_angle_alpha 90.000000
_cell_angle_beta 90.000000
_cell_angle_gamma 90.000000
_cell_volume 2786.486030
_symmetry_space_group_name_H-M "P N N A"
_symmetry_group_IT_number 52
_symmetry_cell_setting 'orthorhombic'
loop_
_space_group_symop_operation_xyz
x,y,z
1/2-x,-y,z
x,1/2-y,1/2-z
1/2-x,1/2+y,1/2-z
-x,-y,-z
1/2+x,y,-z
-x,1/2+y,1/2+z
1/2+x,1/2-y,1/2+z
loop_
_atom_site_type_symbol
_atom_site_label
_atom_site_fract_x
_atom_site_fract_y
_atom_site_fract_z
Si Si1 0.596672 0.107032 0.423963
Si Si2 0.633393 0.694408 0.113998
Si Si3 0.403189 0.750000 0.750000
Si Si4 0.453220 0.442458 0.260444
Si Si5 0.480940 0.874303 0.278671
Si Si6 0.822795 0.046125 0.539957
Si Si7 0.979279 0.189357 0.982076
O O1 0.636336 0.173875 0.323913
O O2 0.518938 0.089804 0.343026
O O3 0.574961 0.136012 0.586446
O O4 0.637839 0.022524 0.442055
O O5 0.657694 0.750000 0.250000
O O6 0.564114 0.639121 0.164045
O O7 0.688888 0.629957 0.044701
O O8 0.592378 0.754194 0.001462
O O9 0.458825 0.777193 0.876016
O O10 0.467886 0.536164 0.277359
O O11 0.454260 0.393692 0.409214
O O12 0.377625 0.433460 0.171454
O O13 0.481517 0.819078 0.137457
O O14 0.750000 0.000000 0.591712
#
# Coordination Sequence:
#
# PCOD9407923 Si02
#       7
#     8   8   4   8   8   8   8
#     4  10  18  33  55  79 114 139 186 229 274 330
#     4  10  18  32  53  81 108 139 183 226 268 330
#     4  10  18  30  48  82 112 142 174 230 284 310
#     4  10  18  33  56  84 109 140 182 231 272 330
#     4  10  16  30  52  83 111 136 174 225 278 323
#     4  11  21  36  55  76 106 156 191 223 279 335
#     4  10  19  28  54  85 112 137 178 229 277 330
#
# _framework density 18.661498000000002
#
# number of rings (size 3 to 8) (size 9 to 14) (size 15 to 20)
#    0.000    1.846    4.615    2.308    0.000    0.000 
#    1.385    0.000    0.000   11.077    0.000    0.000 
#    0.000    0.000    0.000    0.000    0.000    0.000 
#
# Total GULP energy -289630.564302 kJ/mol
# GULP energy per Si atom -5569.818544 kJ/mol
# Density = 1.861902 g / cm^3
# Si number density = 18.661498 Si / 1000 Ang^3
#
#
#
# Elastic Constant Matrix: (Units=GPa)
#
#
# Indices 1 2 3 4 5 6 
#
# 1 29.8330 5.9949 3.4669 0.0000 0.0000 0.0000
# 2 5.9949 107.8175 38.0074 0.0000 0.0000 0.0000
# 3 3.4669 38.0074 79.3587 0.0000 0.0000 0.0000
# 4 0.0000 0.0000 0.0000 33.2071 0.0000 0.0000
# 5 0.0000 0.0000 0.0000 0.0000 2.4136 0.0000
# 6 0.0000 0.0000 0.0000 0.0000 0.0000 13.6377
#
#
#
# Elastic Compliance Matrix: (Units=1/GPa)
#
#
# Indices 1 2 3 4 5 6 
#
# 1 0.033931 -0.001641 -0.000696 0.000000 0.000000 0.000000
# 2 -0.001641 0.011238 -0.005311 0.000000 0.000000 0.000000
# 3 -0.000696 -0.005311 0.015175 0.000000 0.000000 0.000000
# 4 0.000000 0.000000 0.000000 0.030114 0.000000 0.000000
# 5 0.000000 0.000000 0.000000 0.000000 0.414314 0.000000
# 6 0.000000 0.000000 0.000000 0.000000 0.000000 0.073326
#
#
# Mechanical properties :
#
#
# Convention : Reuss Voigt Hill
#
# Bulk Modulus (GPa) = 22.19876 34.66084 28.42980
# Shear Modulus (GPa) = 8.21814 21.15436 14.68625
#
# Velocity S-wave (km/s) = 2.10080 3.37053 2.80836
# Velocity P-wave (km/s) = 4.21969 5.81042 5.07774
#
# Compressibility (1/GPa) = 0.04504755
#
# Stress axis : x y z
#
# Youngs Moduli (GPa) = 29.47186 88.98163 65.89839
#
# Poissons Ratio (x) = 0.14603 0.04588
# Poissons Ratio (y) = 0.04837 0.34996
# Poissons Ratio (z) = 0.02052 0.47255
#
# Static dielectric constant tensor:
#      x y z
#    x 1.638610 0.000000 0.000000 
#    y 0.000000 1.735230 0.000000 
#    z 0.000000 0.000000 1.670840 
# 
# From -- ./inp_files/12386.got.cif
#   From: 2010.05.17/outbox.cif.g08.bks.cpg/sg52_7_cif.got.tgz:12386.got - 2010.06.03 12:15:38.
