data_PCOD9407800
_publ_section_title
;
Structure prediction by ZEFSAII (Michael W. Deem and Ramdas Pophale) SiO2 
 PCOD9407800
Probable space group: P M M A
;
_chemical_formula_sum "Si O2"
_cell_formula_units_Z 64
_cell_length_a 9.000000
_cell_length_b 15.000000
_cell_length_c 24.000000
_cell_angle_alpha 90.000000
_cell_angle_beta 90.000000
_cell_angle_gamma 90.000000
_cell_volume 3240.000000
_symmetry_space_group_name_H-M "P M M A"
_symmetry_group_IT_number 51
_symmetry_cell_setting 'orthorhombic'
loop_
_space_group_symop_operation_xyz
x,y,z
1/2-x,-y,z
1/2+x,-y,-z
-x,y,-z
-x,-y,-z
1/2+x,y,-z
1/2-x,y,z
x,-y,z
loop_
_atom_site_type_symbol
_atom_site_label
_atom_site_fract_x
_atom_site_fract_y
_atom_site_fract_z
Si Si1 0.920454 0.400385 0.424217
Si Si2 0.073522 0.216678 0.749054
Si Si3 0.925745 0.218217 0.554875
Si Si4 0.077148 0.404914 0.709636
Si Si5 0.424415 0.099399 0.940155
Si Si6 0.074407 0.239615 0.136340
Si Si7 0.427996 0.397580 0.057695
Si Si8 0.428722 0.101617 0.341107
O O1 0.750000 0.382629 0.442265
O O2 0.963211 0.500000 0.441717
O O3 0.920232 0.402265 0.357133
O O4 0.026798 0.321128 0.441329
O O5 0.250000 0.214417 0.739975
O O6 0.009738 0.312428 0.728874
O O7 0.028592 0.214832 0.812463
O O8 0.999260 0.137787 0.715050
O O9 0.750000 0.210488 0.551367
O O10 0.979234 0.166818 0.609551
O O11 0.000000 0.179009 0.500000
O O12 0.250000 0.405348 0.728163
O O13 0.009356 0.500000 0.727250
O O14 0.250000 0.126871 0.942836
O O15 0.529868 0.167141 0.908715
O O16 0.427379 0.000000 0.914682
O O17 0.500000 0.093184 0.000000
O O18 0.250000 0.237939 0.149821
O O19 0.035563 0.335193 0.109614
O O20 0.250000 0.395278 0.051014
O O21 0.475007 0.500000 0.066233
O O22 0.500000 0.365062 0.000000
O O23 0.250000 0.106753 0.337502
O O24 0.469856 0.000000 0.352753
#
# Coordination Sequence:
#
# PCOD9407800 Si02
#       8
#     8   8   8   8   8   8   8   8
#     4   9  17  33  58  85 116 153 189 227 274 329
#     4  11  22  37  60  87 115 148 190 237 286 342
#     4  11  23  38  60  88 119 151 189 236 286 342
#     4   8  15  30  54  82 111 144 181 223 273 328
#     4  10  21  38  60  85 113 145 184 232 287 345
#     4  11  23  37  56  83 118 156 194 238 286 338
#     4   9  19  36  57  82 115 156 200 243 287 336
#     4  10  23  44  65  84 111 148 189 236 292 351
#
# _framework density 19.753086
#
# number of rings (size 3 to 8) (size 9 to 14) (size 15 to 20)
#    0.000    2.125    1.250    2.625    0.000    5.250 
#    0.000    0.000    0.000    1.125    0.000    0.000 
#    0.000    0.000    0.000    0.000    0.000    0.000 
#
# Total GULP energy -356801.257989 kJ/mol
# GULP energy per Si atom -5575.019656 kJ/mol
# Density = 1.970813 g / cm^3
# Si number density = 19.753086 Si / 1000 Ang^3
#
#
#
# Elastic Constant Matrix: (Units=GPa)
#
#
# Indices 1 2 3 4 5 6 
#
# 1 8.1756 20.8181 -0.7328 0.0000 0.0000 0.0000
# 2 20.8181 64.5981 28.4647 0.0000 0.0000 0.0000
# 3 -0.7328 28.4647 59.4184 0.0000 0.0000 0.0000
# 4 0.0000 0.0000 0.0000 -38.8093 0.0000 0.0000
# 5 0.0000 0.0000 0.0000 0.0000 24.0309 0.0000
# 6 0.0000 0.0000 0.0000 0.0000 0.0000 28.2877
#
#
#
# Elastic Compliance Matrix: (Units=1/GPa)
#
#
# Indices 1 2 3 4 5 6 
#
# 1 -1.595212 0.662637 -0.337114 0.000000 0.000000 0.000000
# 2 0.662637 -0.255631 0.130634 0.000000 0.000000 0.000000
# 3 -0.337114 0.130634 -0.049909 0.000000 0.000000 0.000000
# 4 0.000000 0.000000 0.000000 -0.025767 0.000000 0.000000
# 5 0.000000 0.000000 0.000000 0.000000 0.041613 0.000000
# 6 0.000000 0.000000 0.000000 0.000000 0.000000 0.035351
#
#
# Mechanical properties :
#
#
# Convention : Reuss Voigt Hill
#
# Bulk Modulus (GPa) = -1.01170 25.47687 12.23259
# Shear Modulus (GPa) = -1.61742 8.27800 3.33029
#
# Velocity S-wave (km/s) = -0.90587 2.04935 1.29985
# Velocity P-wave (km/s) = 1.26784 4.30412 2.90844
#
# Compressibility (1/GPa) = -0.98843902
#
# Stress axis : x y z
#
# Youngs Moduli (GPa) = -0.62688 -3.91189 -20.03651
#
# Poissons Ratio (x) = 2.59216 -6.75459
# Poissons Ratio (y) = 0.41539 2.61745
# Poissons Ratio (z) = -0.21133 0.51103
#
# Static dielectric constant tensor:
#      x y z
#    x 1.674120 0.000000 0.000000 
#    y 0.000000 1.716600 0.000000 
#    z 0.000000 0.000000 -4.061550 
# 
# From -- ./inp_files/34998.got.cif
#   From: 2010.05.17/outbox.ucp.g08.bks.cvg/sg51_18_cif.got.tgz:34998.got - 2010.06.11 16:27:58.
