data_PCOD9407306
_publ_section_title
;
Structure prediction by ZEFSAII (Michael W. Deem and Ramdas Pophale) SiO2 
 PCOD9407306
Probable space group: P M M A
;
_chemical_formula_sum "Si O2"
_cell_formula_units_Z 40
_cell_length_a 9.367611
_cell_length_b 7.387019
_cell_length_c 27.306143
_cell_angle_alpha 90.000000
_cell_angle_beta 90.000000
_cell_angle_gamma 90.000000
_cell_volume 1889.550156
_symmetry_space_group_name_H-M "P M M A"
_symmetry_group_IT_number 51
_symmetry_cell_setting 'orthorhombic'
loop_
_space_group_symop_operation_xyz
x,y,z
1/2-x,-y,z
1/2+x,-y,-z
-x,y,-z
-x,-y,-z
1/2+x,y,-z
1/2-x,y,z
x,-y,z
loop_
_atom_site_type_symbol
_atom_site_label
_atom_site_fract_x
_atom_site_fract_y
_atom_site_fract_z
Si Si1 0.083167 0.779400 0.740788
Si Si2 0.914374 0.778809 0.644904
Si Si3 0.085311 0.216878 0.847637
Si Si4 0.088322 0.285160 0.954231
Si Si5 0.085447 0.220978 0.548320
O O1 0.250000 0.727277 0.735814
O O2 0.028673 0.721936 0.794742
O O3 0.990029 0.718807 0.694982
O O4 0.081481 0.000000 0.740028
O O5 0.750000 0.722107 0.641948
O O6 0.004259 0.722061 0.597507
O O7 0.915098 0.000000 0.645062
O O8 0.250000 0.282481 0.849546
O O9 0.020177 0.261938 0.900311
O O10 0.088789 0.000000 0.845589
O O11 0.250000 0.210700 0.953269
O O12 0.099990 0.500000 0.961381
O O13 0.000000 0.211761 0.000000
O O14 0.250000 0.278844 0.547568
O O15 0.000000 0.278128 0.500000
O O16 0.085971 0.000000 0.548260
#
# Coordination Sequence:
#
# PCOD9407306 Si02
#       5
#     8   8   8   8   8
#     4   8  13  22  35  48  62  84 115 148 182 222
#     4   9  15  21  29  42  61  84 110 144 187 230
#     4   8  14  25  41  59  78 101 130 163 197 234
#     4   9  17  29  44  61  81 105 132 161 194 234
#     4   9  15  21  28  38  54  79 114 154 191 226
#
# _framework density 21.169059000000001
#
# number of rings (size 3 to 8) (size 9 to 14) (size 15 to 20)
#    0.000    3.400    0.000    2.400    0.000    5.200 
#    0.000    1.000    0.000    1.200    0.000    0.000 
#    0.000    0.000    0.000    0.000    0.000    1.000 
#
# Total GULP energy -223017.393711 kJ/mol
# GULP energy per Si atom -5575.434843 kJ/mol
# Density = 2.112088 g / cm^3
# Si number density = 21.169059 Si / 1000 Ang^3
#
#
#
# Elastic Constant Matrix: (Units=GPa)
#
#
# Indices 1 2 3 4 5 6 
#
# 1 126.8154 3.6798 120.0574 0.0000 0.0000 0.0000
# 2 3.6798 72.0059 4.5465 0.0000 0.0000 0.0000
# 3 120.0574 4.5465 273.8457 0.0000 0.0000 0.0000
# 4 0.0000 0.0000 0.0000 46.4704 0.0000 0.0000
# 5 0.0000 0.0000 0.0000 0.0000 37.1989 0.0000
# 6 0.0000 0.0000 0.0000 0.0000 0.0000 -17.4958
#
#
#
# Elastic Compliance Matrix: (Units=1/GPa)
#
#
# Indices 1 2 3 4 5 6 
#
# 1 0.013488 -0.000316 -0.005908 0.000000 0.000000 0.000000
# 2 -0.000316 0.013910 -0.000092 0.000000 0.000000 0.000000
# 3 -0.005908 -0.000092 0.006243 0.000000 0.000000 0.000000
# 4 0.000000 0.000000 0.000000 0.021519 0.000000 0.000000
# 5 0.000000 0.000000 0.000000 0.000000 0.026883 0.000000
# 6 0.000000 0.000000 0.000000 0.000000 0.000000 -0.057157
#
#
# Mechanical properties :
#
#
# Convention : Reuss Voigt Hill
#
# Bulk Modulus (GPa) = 47.60119 81.02603 64.31361
# Shear Modulus (GPa) = 112.30561 36.19359 74.24960
#
# Velocity S-wave (km/s) = 7.29157 4.13939 5.92881
# Velocity P-wave (km/s) = 9.66562 7.82335 8.79287
#
# Compressibility (1/GPa) = 0.02100788
#
# Stress axis : x y z
#
# Youngs Moduli (GPa) = 74.14115 71.89208 160.17037
#
# Poissons Ratio (x) = 0.02274 0.94628
# Poissons Ratio (y) = 0.02345 0.01478
# Poissons Ratio (z) = 0.43802 0.00663
#
# Static dielectric constant tensor:
#      x y z
#    x 1.720210 0.000000 0.000000 
#    y 0.000000 1.809170 0.000000 
#    z 0.000000 0.000000 1.775320 
# 
# From -- ./inp_files/35977.got.cif
#   From: 2010.05.17/outbox.cif.g08.bks.cpg/sg51_18_cif.got.tgz:35977.got - 2010.06.03 11:52:47.
