data_PCOD9407435
_publ_section_title
;
Structure prediction by ZEFSAII (Michael W. Deem and Ramdas Pophale) SiO2 
 PCOD9407435
Probable space group: P M M A
;
_chemical_formula_sum "Si O2"
_cell_formula_units_Z 64
_cell_length_a 9.000000
_cell_length_b 15.000000
_cell_length_c 30.000000
_cell_angle_alpha 90.000000
_cell_angle_beta 90.000000
_cell_angle_gamma 90.000000
_cell_volume 4050.000000
_symmetry_space_group_name_H-M "P M M A"
_symmetry_group_IT_number 51
_symmetry_cell_setting 'orthorhombic'
loop_
_space_group_symop_operation_xyz
x,y,z
1/2-x,-y,z
1/2+x,-y,-z
-x,y,-z
-x,-y,-z
1/2+x,y,-z
1/2-x,y,z
x,-y,z
loop_
_atom_site_type_symbol
_atom_site_label
_atom_site_fract_x
_atom_site_fract_y
_atom_site_fract_z
Si Si1 0.578384 0.606721 0.364746
Si Si2 0.080068 0.608184 0.455625
Si Si3 0.569627 0.097222 0.836822
Si Si4 0.569871 0.714719 0.871885
Si Si5 0.573443 0.290448 0.711957
Si Si6 0.572198 0.401525 0.952131
Si Si7 0.427857 0.395867 0.792974
Si Si8 0.569897 0.096782 0.732243
O O1 0.750000 0.631296 0.356965
O O2 0.566991 0.500000 0.358575
O O3 0.524087 0.628884 0.414085
O O4 0.469004 0.656150 0.331686
O O5 0.250000 0.639392 0.450764
O O6 0.087002 0.500000 0.458100
O O7 0.000000 0.640846 0.500000
O O8 0.750000 0.096759 0.838733
O O9 0.518933 0.184771 0.862403
O O10 0.531023 0.105672 0.784585
O O11 0.517949 0.000000 0.852796
O O12 0.750000 0.712048 0.868152
O O13 0.525718 0.676784 0.919563
O O14 0.501913 0.648229 0.835881
O O15 0.750000 0.292096 0.720692
O O16 0.489508 0.339725 0.751748
O O17 0.523338 0.187514 0.708766
O O18 0.750000 0.398860 0.956481
O O19 0.533267 0.500000 0.933491
O O20 0.500000 0.393668 0.000000
O O21 0.250000 0.389434 0.795136
O O22 0.467655 0.500000 0.788488
O O23 0.750000 0.094319 0.730221
O O24 0.515446 0.000000 0.716259
#
# Coordination Sequence:
#
# PCOD9407435 Si02
#       8
#     8   8   8   8   8   8   8   8
#     4  10  20  32  44  61  91 129 162 194 234 277
#     4   9  16  27  44  65  88 117 157 201 240 278
#     4   8  13  24  45  71  93 111 139 182 227 268
#     4  10  18  31  51  72  89 112 150 190 221 257
#     4  11  20  31  48  67  88 120 158 193 226 266
#     4   9  18  31  47  67  90 115 145 182 222 264
#     4  11  23  34  43  61  92 126 153 181 222 269
#     4   8  14  26  45  68  90 112 144 187 230 269
#
# _framework density 15.802469
#
# number of rings (size 3 to 8) (size 9 to 14) (size 15 to 20)
#    0.000    2.500    1.250    3.000    0.000    5.750 
#    0.000    1.250    0.000    3.000    0.000    0.000 
#    0.000    0.500    0.000    1.375    0.000    2.000 
#
# Total GULP energy -356408.684396 kJ/mol
# GULP energy per Si atom -5568.885694 kJ/mol
# Density = 1.576650 g / cm^3
# Si number density = 15.802469 Si / 1000 Ang^3
#
#
#
# Elastic Constant Matrix: (Units=GPa)
#
#
# Indices 1 2 3 4 5 6 
#
# 1 8.2784 19.4519 -3.0733 0.0000 0.0000 0.0000
# 2 19.4519 60.1593 20.8195 0.0000 0.0000 0.0000
# 3 -3.0733 20.8195 40.8389 0.0000 0.0000 0.0000
# 4 0.0000 0.0000 0.0000 -3.0574 0.0000 0.0000
# 5 0.0000 0.0000 0.0000 0.0000 15.8285 0.0000
# 6 0.0000 0.0000 0.0000 0.0000 0.0000 4.3850
#
#
#
# Elastic Compliance Matrix: (Units=1/GPa)
#
#
# Indices 1 2 3 4 5 6 
#
# 1 -1.149992 0.487859 -0.335250 0.000000 0.000000 0.000000
# 2 0.487859 -0.186780 0.131933 0.000000 0.000000 0.000000
# 3 -0.335250 0.131933 -0.068001 0.000000 0.000000 0.000000
# 4 0.000000 0.000000 0.000000 -0.327075 0.000000 0.000000
# 5 0.000000 0.000000 0.000000 0.000000 0.063177 0.000000
# 6 0.000000 0.000000 0.000000 0.000000 0.000000 0.228052
#
#
# Mechanical properties :
#
#
# Convention : Reuss Voigt Hill
#
# Bulk Modulus (GPa) = -1.19662 20.40808 9.60573
# Shear Modulus (GPa) = -2.18506 8.23645 3.02569
#
# Velocity S-wave (km/s) = -1.17717 2.28549 1.38523
# Velocity P-wave (km/s) = 1.61447 4.46174 2.94114
#
# Compressibility (1/GPa) = -0.83568888
#
# Stress axis : x y z
#
# Youngs Moduli (GPa) = -0.86957 -5.35388 -14.70560
#
# Poissons Ratio (x) = 2.61194 -4.93005
# Poissons Ratio (y) = 0.42423 1.94016
# Poissons Ratio (z) = -0.29152 0.70635
#
# Static dielectric constant tensor:
#      x y z
#    x 1.528220 0.000000 0.000000 
#    y 0.000000 1.543860 0.000000 
#    z 0.000000 0.000000 1.574230 
# 
# From -- ./inp_files/37610.got.cif
#   From: 2010.05.17/outbox.ucp.g08.bks.cvg/sg51_19_cif.got.tgz:37610.got - 2010.06.11 16:27:58.
