data_PCOD9407970
_publ_section_title
;
Structure prediction by ZEFSAII (Michael W. Deem and Ramdas Pophale) SiO2 
 PCOD9407970
Probable space group: P N N A
;
_chemical_formula_sum "Si O2"
_cell_formula_units_Z 60
_cell_length_a 8.225888
_cell_length_b 19.215058
_cell_length_c 14.581513
_cell_angle_alpha 90.000000
_cell_angle_beta 90.000000
_cell_angle_gamma 90.000000
_cell_volume 2304.767287
_symmetry_space_group_name_H-M "P N N A"
_symmetry_group_IT_number 52
_symmetry_cell_setting 'orthorhombic'
loop_
_space_group_symop_operation_xyz
x,y,z
1/2-x,-y,z
x,1/2-y,1/2-z
1/2-x,1/2+y,1/2-z
-x,-y,-z
1/2+x,y,-z
-x,1/2+y,1/2+z
1/2+x,1/2-y,1/2+z
loop_
_atom_site_type_symbol
_atom_site_label
_atom_site_fract_x
_atom_site_fract_y
_atom_site_fract_z
Si Si1 0.250000 0.000000 0.681868
Si Si2 0.844988 0.171276 0.437987
Si Si3 0.013284 0.955538 0.822425
Si Si4 0.562047 0.878473 0.809393
Si Si5 0.492186 0.897244 0.610113
Si Si6 0.546415 0.176024 0.741463
Si Si7 0.235430 0.311256 0.621341
Si Si8 0.813809 0.423895 0.506273
O O1 0.170893 0.946582 0.755216
O O2 0.406161 0.973584 0.623721
O O3 0.677392 0.143558 0.396443
O O4 0.986892 0.167814 0.362303
O O5 0.792566 0.251553 0.449283
O O6 0.901652 0.124707 0.523028
O O7 0.891327 0.898425 0.779997
O O8 0.979936 0.037227 0.814791
O O9 0.048568 0.938071 0.928102
O O10 0.591736 0.875763 0.699982
O O11 0.427979 0.816162 0.820212
O O12 0.654640 0.876456 0.906320
O O13 0.639834 0.250000 0.750000
O O14 0.389099 0.187194 0.809108
O O15 0.200515 0.379229 0.559958
O O16 0.750000 0.500000 0.532045
#
# Coordination Sequence:
#
# PCOD9407970 Si02
#       8
#     4   8   8   8   8   8   8   8
#     4  10  18  38  68  96 132 182 228 292 354 422
#     4  11  23  42  67 101 133 183 239 291 346 433
#     4  10  16  34  60  93 131 168 229 275 344 431
#     4  11  22  38  66  97 135 189 228 290 365 434
#     4  11  24  43  69 101 137 180 245 297 355 433
#     4   9  17  35  61  90 123 172 226 276 327 416
#     4  10  21  38  65  96 130 179 233 276 354 434
#     4  11  20  35  60 101 137 170 227 292 354 425
#
# _framework density 26.032997999999999
#
# number of rings (size 3 to 8) (size 9 to 14) (size 15 to 20)
#    0.000    1.600    4.667    2.000    1.867    0.533 
#    0.000    1.333    0.000    0.000    0.000    0.000 
#    0.000    0.000    0.000    0.000    0.000    0.000 
#
# Total GULP energy -334040.370019 kJ/mol
# GULP energy per Si atom -5567.339500 kJ/mol
# Density = 2.597375 g / cm^3
# Si number density = 26.032998 Si / 1000 Ang^3
#
#
#
# Elastic Constant Matrix: (Units=GPa)
#
#
# Indices 1 2 3 4 5 6 
#
# 1 49.8242 21.3843 61.4945 0.0000 0.0000 0.0000
# 2 21.3843 87.5650 35.3162 0.0000 0.0000 0.0000
# 3 61.4945 35.3162 173.3859 0.0000 0.0000 0.0000
# 4 0.0000 0.0000 0.0000 23.3996 0.0000 0.0000
# 5 0.0000 0.0000 0.0000 0.0000 34.5391 0.0000
# 6 0.0000 0.0000 0.0000 0.0000 0.0000 8.7303
#
#
#
# Elastic Compliance Matrix: (Units=1/GPa)
#
#
# Indices 1 2 3 4 5 6 
#
# 1 0.036986 -0.004077 -0.012287 0.000000 0.000000 0.000000
# 2 -0.004077 0.012892 -0.001180 0.000000 0.000000 0.000000
# 3 -0.012287 -0.001180 0.010366 0.000000 0.000000 0.000000
# 4 0.000000 0.000000 0.000000 0.042736 0.000000 0.000000
# 5 0.000000 0.000000 0.000000 0.000000 0.028953 0.000000
# 6 0.000000 0.000000 0.000000 0.000000 0.000000 0.114544
#
#
# Mechanical properties :
#
#
# Convention : Reuss Voigt Hill
#
# Bulk Modulus (GPa) = 39.75337 60.79613 50.27475
# Shear Modulus (GPa) = 17.24445 26.17246 21.70845
#
# Velocity S-wave (km/s) = 2.57652 3.17418 2.89083
# Velocity P-wave (km/s) = 4.91475 6.06944 5.52236
#
# Compressibility (1/GPa) = 0.02515510
#
# Stress axis : x y z
#
# Youngs Moduli (GPa) = 27.03754 77.57015 96.47172
#
# Poissons Ratio (x) = 0.31623 1.18537
# Poissons Ratio (y) = 0.11022 0.11383
# Poissons Ratio (z) = 0.33222 0.09153
#
# Static dielectric constant tensor:
#      x y z
#    x 2.391870 0.000000 0.000000 
#    y 0.000000 2.378460 0.000000 
#    z 0.000000 0.000000 2.035430 
# 
# From -- ./inp_files/18404.got.cif
#   From: 2010.05.17/outbox.cif.g08.bks.cpg/sg52_10_cif.got.tgz:18404.got - 2010.06.03 12:15:38.
