data_PCOD9407374
_publ_section_title
;
Structure prediction by ZEFSAII (Michael W. Deem and Ramdas Pophale) SiO2 
 PCOD9407374
Probable space group: P M M A
;
_chemical_formula_sum "Si O2"
_cell_formula_units_Z 48
_cell_length_a 9.352981
_cell_length_b 7.334239
_cell_length_c 32.154131
_cell_angle_alpha 90.000000
_cell_angle_beta 90.000000
_cell_angle_gamma 90.000000
_cell_volume 2205.676860
_symmetry_space_group_name_H-M "P M M A"
_symmetry_group_IT_number 51
_symmetry_cell_setting 'orthorhombic'
loop_
_space_group_symop_operation_xyz
x,y,z
1/2-x,-y,z
1/2+x,-y,-z
-x,y,-z
-x,-y,-z
1/2+x,y,-z
1/2-x,y,z
x,-y,z
loop_
_atom_site_type_symbol
_atom_site_label
_atom_site_fract_x
_atom_site_fract_y
_atom_site_fract_z
Si Si1 0.914859 0.277641 0.294068
Si Si2 0.413375 0.282868 0.868282
Si Si3 0.912105 0.782065 0.039274
Si Si4 0.084800 0.722419 0.541221
Si Si5 0.584882 0.722433 0.623641
Si Si6 0.085645 0.277207 0.211910
O O1 0.750000 0.219359 0.295311
O O2 0.914103 0.500000 0.294179
O O3 0.002689 0.220241 0.334715
O O4 0.994297 0.220823 0.251965
O O5 0.250000 0.211255 0.866552
O O6 0.403962 0.500000 0.863036
O O7 0.472430 0.251486 0.914646
O O8 0.510362 0.215456 0.830633
O O9 0.750000 0.710558 0.038963
O O10 0.904431 0.000000 0.034828
O O11 0.000000 0.711698 0.000000
O O12 0.250000 0.780396 0.541056
O O13 0.085665 0.500000 0.541214
O O14 0.000000 0.779590 0.500000
O O15 0.001090 0.779593 0.582628
O O16 0.750000 0.780402 0.623051
O O17 0.585650 0.500000 0.623628
O O18 0.250000 0.219376 0.214726
O O19 0.086174 0.500000 0.211806
#
# Coordination Sequence:
#
# PCOD9407374 Si02
#       6
#     8   8   8   8   8   8
#     4   9  15  22  32  45  62  85 111 139 175 222
#     4   9  17  29  44  62  84 109 136 166 201 241
#     4   9  18  32  48  65  86 112 140 169 202 240
#     4   9  15  21  27  34  45  63  90 127 173 223
#     4   9  15  21  28  38  52  71  98 133 173 219
#     4   9  16  25  37  54  75  97 121 151 188 229
#
# _framework density 21.762025000000001
#
# number of rings (size 3 to 8) (size 9 to 14) (size 15 to 20)
#    0.000    3.000    0.000    2.000    0.000    9.000 
#    0.000    0.000    0.000    0.000    0.000    0.000 
#    0.000    0.000    0.000    0.000    0.000    0.000 
#
# Total GULP energy -268139.262941 kJ/mol
# GULP energy per Si atom -5586.234645 kJ/mol
# Density = 2.171249 g / cm^3
# Si number density = 21.762025 Si / 1000 Ang^3
#
#
#
# Elastic Constant Matrix: (Units=GPa)
#
#
# Indices 1 2 3 4 5 6 
#
# 1 208.3093 5.3879 156.8410 0.0000 0.0000 0.0000
# 2 5.3879 84.9856 2.3572 0.0000 0.0000 0.0000
# 3 156.8410 2.3572 268.7709 0.0000 0.0000 0.0000
# 4 0.0000 0.0000 0.0000 50.2565 0.0000 0.0000
# 5 0.0000 0.0000 0.0000 0.0000 39.8801 0.0000
# 6 0.0000 0.0000 0.0000 0.0000 0.0000 -34.7043
#
#
#
# Elastic Compliance Matrix: (Units=1/GPa)
#
#
# Indices 1 2 3 4 5 6 
#
# 1 0.008577 -0.000405 -0.005001 0.000000 0.000000 0.000000
# 2 -0.000405 0.011789 0.000133 0.000000 0.000000 0.000000
# 3 -0.005001 0.000133 0.006638 0.000000 0.000000 0.000000
# 4 0.000000 0.000000 0.000000 0.019898 0.000000 0.000000
# 5 0.000000 0.000000 0.000000 0.000000 0.025075 0.000000
# 6 0.000000 0.000000 0.000000 0.000000 0.000000 -0.028815
#
#
# Mechanical properties :
#
#
# Convention : Reuss Voigt Hill
#
# Bulk Modulus (GPa) = 60.76612 99.02644 79.89628
# Shear Modulus (GPa) = 84.46809 37.58509 61.02659
#
# Velocity S-wave (km/s) = 6.23688 4.16034 5.30128
# Velocity P-wave (km/s) = 8.93580 8.28740 8.61770
#
# Compressibility (1/GPa) = 0.01645654
#
# Stress axis : x y z
#
# Youngs Moduli (GPa) = 116.59540 84.82703 150.64754
#
# Poissons Ratio (x) = 0.03436 0.75344
# Poissons Ratio (y) = 0.04722 -0.02003
# Poissons Ratio (z) = 0.58313 -0.01128
#
# Static dielectric constant tensor:
#      x y z
#    x 1.740060 0.000000 0.000000 
#    y 0.000000 1.844650 0.000000 
#    z 0.000000 0.000000 1.744570 
# 
# From -- ./inp_files/36156.got.cif
#   From: 2010.05.17/outbox.cif.g08.bks.cpg/sg51_19_cif.got.tgz:36156.got - 2010.06.03 11:52:47.
