data_PCOD9407992
_publ_section_title
;
Structure prediction by ZEFSAII (Michael W. Deem and Ramdas Pophale) SiO2 
 PCOD9407992
Probable space group: P N N A
;
_chemical_formula_sum "Si O2"
_cell_formula_units_Z 40
_cell_length_a 9.434936
_cell_length_b 19.040923
_cell_length_c 9.190123
_cell_angle_alpha 90.000000
_cell_angle_beta 90.000000
_cell_angle_gamma 90.000000
_cell_volume 1651.004585
_symmetry_space_group_name_H-M "P N N A"
_symmetry_group_IT_number 52
_symmetry_cell_setting 'orthorhombic'
loop_
_space_group_symop_operation_xyz
x,y,z
1/2-x,-y,z
x,1/2-y,1/2-z
1/2-x,1/2+y,1/2-z
-x,-y,-z
1/2+x,y,-z
-x,1/2+y,1/2+z
1/2+x,1/2-y,1/2+z
loop_
_atom_site_type_symbol
_atom_site_label
_atom_site_fract_x
_atom_site_fract_y
_atom_site_fract_z
Si Si1 0.285302 0.624993 0.060778
Si Si2 0.121032 0.852867 0.874395
Si Si3 0.392207 0.530781 0.329002
Si Si4 0.145053 0.065094 0.755354
Si Si5 0.547707 0.705839 0.051534
O O1 0.331133 0.574669 0.191416
O O2 0.380541 0.695252 0.055482
O O3 0.327682 0.587727 0.910580
O O4 0.125077 0.652194 0.057663
O O5 0.283623 0.878241 0.863847
O O6 0.093222 0.785508 0.973411
O O7 0.093987 0.823117 0.710479
O O8 0.006045 0.914925 0.899457
O O9 0.250000 0.500000 0.403283
O O10 0.489616 0.465019 0.282464
O O11 0.250000 0.000000 0.772536
#
# Coordination Sequence:
#
# PCOD9407992 Si02
#       5
#     8   8   8   8   8
#     4  10  17  26  45  69  96 119 145 186 230 274
#     4   8  17  31  44  60  93 130 154 173 218 285
#     4  10  17  26  44  71  94 114 146 193 232 263
#     4   9  16  27  44  67  94 125 148 176 226 283
#     4   9  17  30  44  64  92 125 154 181 220 274
#
# _framework density 24.227675000000001
#
# number of rings (size 3 to 8) (size 9 to 14) (size 15 to 20)
#    0.000    2.800    0.000    3.600    0.000    0.000 
#    0.000    2.000    0.000    9.600    0.000   18.200 
#    0.000    0.000    0.000    0.000    0.000    0.000 
#
# Total GULP energy -223277.569837 kJ/mol
# GULP energy per Si atom -5581.939246 kJ/mol
# Density = 2.417253 g / cm^3
# Si number density = 24.227675 Si / 1000 Ang^3
#
#
#
# Elastic Constant Matrix: (Units=GPa)
#
#
# Indices 1 2 3 4 5 6 
#
# 1 126.5374 34.0458 -0.0759 0.0000 0.0000 0.0000
# 2 34.0458 108.7429 20.4949 0.0000 0.0000 0.0000
# 3 -0.0759 20.4949 56.5294 0.0000 0.0000 0.0000
# 4 0.0000 0.0000 0.0000 19.6211 0.0000 0.0000
# 5 0.0000 0.0000 0.0000 0.0000 16.2902 0.0000
# 6 0.0000 0.0000 0.0000 0.0000 0.0000 22.9755
#
#
#
# Elastic Compliance Matrix: (Units=1/GPa)
#
#
# Indices 1 2 3 4 5 6 
#
# 1 0.008690 -0.002923 0.001071 0.000000 0.000000 0.000000
# 2 -0.002923 0.010853 -0.003939 0.000000 0.000000 0.000000
# 3 0.001071 -0.003939 0.019119 0.000000 0.000000 0.000000
# 4 0.000000 0.000000 0.000000 0.050966 0.000000 0.000000
# 5 0.000000 0.000000 0.000000 0.000000 0.061387 0.000000
# 6 0.000000 0.000000 0.000000 0.000000 0.000000 0.043525
#
#
# Mechanical properties :
#
#
# Convention : Reuss Voigt Hill
#
# Bulk Modulus (GPa) = 36.92455 44.52658 40.72557
# Shear Modulus (GPa) = 23.23995 27.60037 25.42016
#
# Velocity S-wave (km/s) = 3.10051 3.37888 3.24268
# Velocity P-wave (km/s) = 5.30012 5.80006 5.55572
#
# Compressibility (1/GPa) = 0.02708225
#
# Stress axis : x y z
#
# Youngs Moduli (GPa) = 115.07782 92.13734 52.30295
#
# Poissons Ratio (x) = 0.26927 -0.05603
# Poissons Ratio (y) = 0.33632 0.20601
# Poissons Ratio (z) = -0.12328 0.36291
#
# Static dielectric constant tensor:
#      x y z
#    x 1.907260 0.000000 0.000000 
#    y 0.000000 1.981840 0.000000 
#    z 0.000000 0.000000 1.927410 
# 
# From -- ./inp_files/16664.got.cif
#   From: 2010.05.17/outbox.cif.g08.bks.cpg/sg52_9_cif.got.tgz:16664.got - 2010.06.03 12:15:38.
