data_PCOD9407928
_publ_section_title
;
Structure prediction by ZEFSAII (Michael W. Deem and Ramdas Pophale) SiO2 
 PCOD9407928
Probable space group: P N N A
;
_chemical_formula_sum "Si O2"
_cell_formula_units_Z 40
_cell_length_a 28.556290
_cell_length_b 8.865791
_cell_length_c 9.024298
_cell_angle_alpha 90.000000
_cell_angle_beta 90.000000
_cell_angle_gamma 90.000000
_cell_volume 2284.718514
_symmetry_space_group_name_H-M "P N N A"
_symmetry_group_IT_number 52
_symmetry_cell_setting 'orthorhombic'
loop_
_space_group_symop_operation_xyz
x,y,z
1/2-x,-y,z
x,1/2-y,1/2-z
1/2-x,1/2+y,1/2-z
-x,-y,-z
1/2+x,y,-z
-x,1/2+y,1/2+z
1/2+x,1/2-y,1/2+z
loop_
_atom_site_type_symbol
_atom_site_label
_atom_site_fract_x
_atom_site_fract_y
_atom_site_fract_z
Si Si1 0.946147 0.046080 0.996640
Si Si2 0.146285 0.553260 0.988266
Si Si3 0.897652 0.250000 0.750000
Si Si4 0.115210 0.225344 0.088479
Si Si5 0.704417 0.250000 0.750000
Si Si6 0.750000 0.000000 0.553391
Si Si7 0.093560 0.750000 0.750000
O O1 0.929417 0.139355 0.851064
O O2 0.913518 0.897207 0.000692
O O3 0.936366 0.151784 0.136506
O O4 0.000000 0.000000 0.000000
O O5 0.124429 0.638532 0.849802
O O6 0.133291 0.650271 0.135849
O O7 0.124166 0.386724 0.012676
O O8 0.202116 0.538079 0.969324
O O9 0.091143 0.250000 0.250000
O O10 0.167198 0.168783 0.139043
O O11 0.735445 0.362489 0.841911
#
# Coordination Sequence:
#
# PCOD9407928 Si02
#       7
#     8   8   4   8   4   4   4
#     4  11  23  38  61  83 112 147 194 227 280 339
#     4  10  20  37  59  81 120 147 190 225 285 332
#     4  10  19  38  58  84 116 152 180 246 271 322
#     4   9  18  36  58  83 107 145 184 237 277 309
#     4   8  17  29  54  88 106 136 194 235 265 312
#     4  10  16  30  56  84 108 148 188 228 264 340
#     4  10  26  39  52  86 118 150 174 235 296 326
#
# _framework density 17.507626999999999
#
# number of rings (size 3 to 8) (size 9 to 14) (size 15 to 20)
#    0.600    1.600    2.000    0.600    1.400    4.000 
#    0.000    8.000    0.000    2.400    0.000    0.000 
#    0.000    0.000    0.000    0.000    0.000    0.000 
#
# Total GULP energy -222833.398892 kJ/mol
# GULP energy per Si atom -5570.834972 kJ/mol
# Density = 1.746778 g / cm^3
# Si number density = 17.507627 Si / 1000 Ang^3
#
#
#
# Elastic Constant Matrix: (Units=GPa)
#
#
# Indices 1 2 3 4 5 6 
#
# 1 136.9440 68.5334 48.7619 0.0000 0.0000 0.0000
# 2 68.5334 104.3164 42.8456 0.0000 0.0000 0.0000
# 3 48.7619 42.8456 90.2990 0.0000 0.0000 0.0000
# 4 0.0000 0.0000 0.0000 25.2910 0.0000 0.0000
# 5 0.0000 0.0000 0.0000 0.0000 12.8078 0.0000
# 6 0.0000 0.0000 0.0000 0.0000 0.0000 28.0736
#
#
#
# Elastic Compliance Matrix: (Units=1/GPa)
#
#
# Indices 1 2 3 4 5 6 
#
# 1 0.011618 -0.006280 -0.003294 0.000000 0.000000 0.000000
# 2 -0.006280 0.015301 -0.003869 0.000000 0.000000 0.000000
# 3 -0.003294 -0.003869 0.014689 0.000000 0.000000 0.000000
# 4 0.000000 0.000000 0.000000 0.039540 0.000000 0.000000
# 5 0.000000 0.000000 0.000000 0.000000 0.078077 0.000000
# 6 0.000000 0.000000 0.000000 0.000000 0.000000 0.035621
#
#
# Mechanical properties :
#
#
# Convention : Reuss Voigt Hill
#
# Bulk Modulus (GPa) = 67.92482 72.42680 70.17581
# Shear Modulus (GPa) = 22.06158 24.66238 23.36198
#
# Velocity S-wave (km/s) = 3.55366 3.75729 3.65689
# Velocity P-wave (km/s) = 7.46455 7.76412 7.61580
#
# Compressibility (1/GPa) = 0.01472216
#
# Stress axis : x y z
#
# Youngs Moduli (GPa) = 86.07461 65.35553 68.07850
#
# Poissons Ratio (x) = 0.41041 0.22425
# Poissons Ratio (y) = 0.54052 0.26340
# Poissons Ratio (z) = 0.28353 0.25286
#
# Static dielectric constant tensor:
#      x y z
#    x 1.578900 0.000000 0.000000 
#    y 0.000000 1.602220 0.000000 
#    z 0.000000 0.000000 1.599870 
# 
# From -- ./inp_files/14911.got.cif
#   From: 2010.05.17/outbox.cif.g08.bks.cpg/sg52_8_cif.got.tgz:14911.got - 2010.06.03 12:15:38.
