data_PCOD9407490
_publ_section_title
;
Structure prediction by ZEFSAII (Michael W. Deem and Ramdas Pophale) SiO2 
 PCOD9407490
Probable space group: P M M A
;
_chemical_formula_sum "Si O2"
_cell_formula_units_Z 64
_cell_length_a 9.000000
_cell_length_b 24.000000
_cell_length_c 15.000000
_cell_angle_alpha 90.000000
_cell_angle_beta 90.000000
_cell_angle_gamma 90.000000
_cell_volume 3240.000000
_symmetry_space_group_name_H-M "P M M A"
_symmetry_group_IT_number 51
_symmetry_cell_setting 'orthorhombic'
loop_
_space_group_symop_operation_xyz
x,y,z
1/2-x,-y,z
1/2+x,-y,-z
-x,y,-z
-x,-y,-z
1/2+x,y,-z
1/2-x,y,z
x,-y,z
loop_
_atom_site_type_symbol
_atom_site_label
_atom_site_fract_x
_atom_site_fract_y
_atom_site_fract_z
Si Si1 0.075872 0.851182 0.733984
Si Si2 0.076982 0.359438 0.584749
Si Si3 0.923512 0.290852 0.870767
Si Si4 0.420230 0.562523 0.286330
Si Si5 0.073631 0.588557 0.085616
Si Si6 0.578017 0.257783 0.666376
Si Si7 0.427409 0.831160 0.086424
Si Si8 0.075401 0.937601 0.584113
O O1 0.250000 0.842254 0.753467
O O2 0.011855 0.798757 0.679744
O O3 0.055644 0.904611 0.673705
O O4 0.982668 0.857980 0.823195
O O5 0.250000 0.352652 0.571835
O O6 0.998521 0.300366 0.600355
O O7 0.000000 0.387077 0.500000
O O8 0.037249 0.397815 0.667902
O O9 0.750000 0.291358 0.896612
O O10 0.989932 0.348508 0.902980
O O11 0.986966 0.232772 0.905186
O O12 0.926720 0.286818 0.763988
O O13 0.250000 0.584001 0.299438
O O14 0.427432 0.500000 0.322053
O O15 0.447537 0.561152 0.181026
O O16 0.250000 0.590712 0.071320
O O17 0.000000 0.562411 0.000000
O O18 0.250000 0.247302 0.355499
O O19 0.250000 0.830474 0.081855
O O20 0.500000 0.857301 0.000000
O O21 0.250000 0.940283 0.566021
O O22 0.000000 0.908924 0.500000
O O23 0.014363 0.000000 0.592410
#
# Coordination Sequence:
#
# PCOD9407490 Si02
#       8
#     8   8   8   8   8   8   8   8
#     4  10  20  34  54  84 119 154 194 236 283 340
#     4  12  25  41  63  88 113 144 182 229 284 342
#     4   8  15  29  50  74 104 142 179 219 268 321
#     4  10  22  42  64  82 108 147 186 230 282 335
#     4  10  19  33  53  80 111 144 182 222 272 326
#     4  10  19  36  58  82 116 151 185 226 276 334
#     4  10  19  31  49  76 111 153 194 237 286 336
#     4   9  19  36  58  83 113 150 192 239 288 337
#
# _framework density 19.753086
#
# number of rings (size 3 to 8) (size 9 to 14) (size 15 to 20)
#    0.000    2.125    1.250    3.375    0.000    2.750 
#    0.000    1.875    0.000    0.375    0.000    0.000 
#    0.000    0.000    0.000    0.000    0.000    0.000 
#
# Total GULP energy -356718.134076 kJ/mol
# GULP energy per Si atom -5573.720845 kJ/mol
# Density = 1.970813 g / cm^3
# Si number density = 19.753086 Si / 1000 Ang^3
#
#
#
# Elastic Constant Matrix: (Units=GPa)
#
#
# Indices 1 2 3 4 5 6 
#
# 1 59.6246 34.1025 51.1042 0.0000 0.0000 0.0000
# 2 34.1025 31.8512 20.4320 0.0000 0.0000 0.0000
# 3 51.1042 20.4320 71.7639 0.0000 0.0000 0.0000
# 4 0.0000 0.0000 0.0000 -254.0667 0.0000 0.0000
# 5 0.0000 0.0000 0.0000 0.0000 30.4045 0.0000
# 6 0.0000 0.0000 0.0000 0.0000 0.0000 -1.7116
#
#
#
# Elastic Compliance Matrix: (Units=1/GPa)
#
#
# Indices 1 2 3 4 5 6 
#
# 1 0.116989 -0.087863 -0.058294 0.000000 0.000000 0.000000
# 2 -0.087863 0.104400 0.032845 0.000000 0.000000 0.000000
# 3 -0.058294 0.032845 0.046095 0.000000 0.000000 0.000000
# 4 0.000000 0.000000 0.000000 -0.003936 0.000000 0.000000
# 5 0.000000 0.000000 0.000000 0.000000 0.032890 0.000000
# 6 0.000000 0.000000 0.000000 0.000000 0.000000 -0.584262
#
#
# Mechanical properties :
#
#
# Convention : Reuss Voigt Hill
#
# Bulk Modulus (GPa) = 24.47404 41.61301 33.04353
# Shear Modulus (GPa) = -105.09006 -41.23470 -73.16238
#
# Velocity S-wave (km/s) = -7.30187 -4.57388 -6.09252
# Velocity P-wave (km/s) = 7.65982 2.60414 5.72077
#
# Compressibility (1/GPa) = 0.04085963
#
# Stress axis : x y z
#
# Youngs Moduli (GPa) = 8.54780 9.57853 21.69417
#
# Poissons Ratio (x) = 0.84160 1.26464
# Poissons Ratio (y) = 0.75104 -0.71254
# Poissons Ratio (z) = 0.49829 -0.31461
#
# Static dielectric constant tensor:
#      x y z
#    x 1.662250 0.000000 0.000000 
#    y 0.000000 1.759520 0.000000 
#    z 0.000000 0.000000 1.749480 
# 
# From -- ./inp_files/22270.got.cif
#   From: 2010.05.17/outbox.ucp.g08.bks.cvg/sg51_12_cif.got.tgz:22270.got - 2010.06.11 16:27:58.
