data_PCOD9407902
_publ_section_title
;
Structure prediction by ZEFSAII (Michael W. Deem and Ramdas Pophale) SiO2 
 PCOD9407902
Probable space group: P N N A
;
_chemical_formula_sum "Si O2"
_cell_formula_units_Z 28
_cell_length_a 11.468867
_cell_length_b 7.962375
_cell_length_c 10.785890
_cell_angle_alpha 90.000000
_cell_angle_beta 90.000000
_cell_angle_gamma 90.000000
_cell_volume 984.961218
_symmetry_space_group_name_H-M "P N N A"
_symmetry_group_IT_number 52
_symmetry_cell_setting 'orthorhombic'
loop_
_space_group_symop_operation_xyz
x,y,z
1/2-x,-y,z
x,1/2-y,1/2-z
1/2-x,1/2+y,1/2-z
-x,-y,-z
1/2+x,y,-z
-x,1/2+y,1/2+z
1/2+x,1/2-y,1/2+z
loop_
_atom_site_type_symbol
_atom_site_label
_atom_site_fract_x
_atom_site_fract_y
_atom_site_fract_z
Si Si1 0.664472 0.222048 0.506797
Si Si2 0.775424 0.250000 0.250000
Si Si3 0.641883 0.907140 0.657474
Si Si4 0.498013 0.911823 0.166478
O O1 0.697711 0.200726 0.365545
O O2 0.786963 0.237066 0.584635
O O3 0.569790 0.364388 0.539620
O O4 0.614081 0.041616 0.549981
O O5 0.864748 0.114733 0.187015
O O6 0.750000 0.000000 0.725265
O O7 0.544173 0.922585 0.761660
O O8 0.453166 0.750000 0.250000
#
# Coordination Sequence:
#
# PCOD9407902 Si02
#       4
#     8   4   8   8
#     4   8  16  28  49  73  97 133 159 203 248 285
#     4  10  16  28  54  70 100 134 156 206 254 280
#     4   7  14  29  48  68  96 130 160 202 241 289
#     4   8  15  29  47  74  96 123 171 203 234 300
#
# _framework density 28.427515
#
# number of rings (size 3 to 8) (size 9 to 14) (size 15 to 20)
#    2.571    1.143    0.000    0.000    0.000    1.143 
#    0.000    0.000   15.714    6.857    0.000    0.000 
#    0.000    0.000    0.000    0.000    0.000    0.000 
#
# Total GULP energy -155893.102899 kJ/mol
# GULP energy per Si atom -5567.610818 kJ/mol
# Density = 2.836281 g / cm^3
# Si number density = 28.427515 Si / 1000 Ang^3
#
#
#
# Elastic Constant Matrix: (Units=GPa)
#
#
# Indices 1 2 3 4 5 6 
#
# 1 155.7262 50.5947 84.2186 0.0000 0.0000 0.0000
# 2 50.5947 100.9446 44.4350 0.0000 0.0000 0.0000
# 3 84.2186 44.4350 180.7495 0.0000 0.0000 0.0000
# 4 0.0000 0.0000 0.0000 19.0771 0.0000 0.0000
# 5 0.0000 0.0000 0.0000 0.0000 8.6812 0.0000
# 6 0.0000 0.0000 0.0000 0.0000 0.0000 35.4145
#
#
#
# Elastic Compliance Matrix: (Units=1/GPa)
#
#
# Indices 1 2 3 4 5 6 
#
# 1 0.009384 -0.003116 -0.003607 0.000000 0.000000 0.000000
# 2 -0.003116 0.012143 -0.001533 0.000000 0.000000 0.000000
# 3 -0.003607 -0.001533 0.007590 0.000000 0.000000 0.000000
# 4 0.000000 0.000000 0.000000 0.052419 0.000000 0.000000
# 5 0.000000 0.000000 0.000000 0.000000 0.115192 0.000000
# 6 0.000000 0.000000 0.000000 0.000000 0.000000 0.028237
#
#
# Mechanical properties :
#
#
# Convention : Reuss Voigt Hill
#
# Bulk Modulus (GPa) = 79.32957 88.43523 83.88240
# Shear Modulus (GPa) = 20.35176 29.84602 25.09889
#
# Velocity S-wave (km/s) = 2.67857 3.24373 2.97460
# Velocity P-wave (km/s) = 6.12640 6.72351 6.43189
#
# Compressibility (1/GPa) = 0.01260564
#
# Stress axis : x y z
#
# Youngs Moduli (GPa) = 106.56043 82.35079 131.75388
#
# Poissons Ratio (x) = 0.25660 0.47517
# Poissons Ratio (y) = 0.33204 0.20203
# Poissons Ratio (z) = 0.38431 0.12628
#
# Static dielectric constant tensor:
#      x y z
#    x 2.200390 0.000000 0.000000 
#    y 0.000000 2.436520 0.000000 
#    z 0.000000 0.000000 2.282440 
# 
# From -- ./inp_files/17862.got.cif
#   From: 2010.05.17/outbox.cif.g08.bks.cpg/sg52_9_cif.got.tgz:17862.got - 2010.06.03 12:15:38.
