data_PCOD9407208
_publ_section_title
;
Structure prediction by ZEFSAII (Michael W. Deem and Ramdas Pophale) SiO2 
 PCOD9407208
Probable space group: P M M A
;
_chemical_formula_sum "Si O2"
_cell_formula_units_Z 32
_cell_length_a 12.014512
_cell_length_b 13.059777
_cell_length_c 7.847830
_cell_angle_alpha 90.000000
_cell_angle_beta 90.000000
_cell_angle_gamma 90.000000
_cell_volume 1231.378265
_symmetry_space_group_name_H-M "P M M A"
_symmetry_group_IT_number 51
_symmetry_cell_setting 'orthorhombic'
loop_
_space_group_symop_operation_xyz
x,y,z
1/2-x,-y,z
1/2+x,-y,-z
-x,y,-z
-x,-y,-z
1/2+x,y,-z
1/2-x,y,z
x,-y,z
loop_
_atom_site_type_symbol
_atom_site_label
_atom_site_fract_x
_atom_site_fract_y
_atom_site_fract_z
Si Si1 0.592415 0.621957 0.769811
Si Si2 0.364721 0.622623 0.627956
Si Si3 0.124639 0.882411 0.454563
Si Si4 0.372275 0.173854 0.062629
O O1 0.608894 0.500000 0.805318
O O2 0.464106 0.651315 0.747704
O O3 0.630632 0.643807 0.574472
O O4 0.635725 0.703809 0.900960
O O5 0.250000 0.657646 0.702133
O O6 0.370522 0.500000 0.627575
O O7 0.250000 0.844706 0.511267
O O8 0.128703 0.875276 0.251131
O O9 0.000000 0.838336 0.500000
O O10 0.120781 0.000000 0.513656
O O11 0.250000 0.143477 0.982076
O O12 0.500000 0.151213 0.000000
#
# Coordination Sequence:
#
# PCOD9407208 Si02
#       4
#     8   8   8   8
#     4   9  18  32  50  75 110 152 196 242 290 339
#     4   8  14  26  47  75 103 136 186 244 296 342
#     4   9  20  41  68  96 122 148 186 239 296 353
#     4  11  25  41  57  84 121 161 201 241 289 346
#
# _framework density 25.987141999999999
#
# number of rings (size 3 to 8) (size 9 to 14) (size 15 to 20)
#    0.000    2.750    0.000    2.250    3.500    4.500 
#    0.000    0.000    0.000    0.000    0.000    0.000 
#    0.000    0.000    0.000    0.000    0.000    0.000 
#
# Total GULP energy -178159.076048 kJ/mol
# GULP energy per Si atom -5567.471127 kJ/mol
# Density = 2.592799 g / cm^3
# Si number density = 25.987142 Si / 1000 Ang^3
#
#
#
# Elastic Constant Matrix: (Units=GPa)
#
#
# Indices 1 2 3 4 5 6 
#
# 1 310.2191 3.9982 34.6465 0.0000 0.0000 0.0000
# 2 3.9982 80.4047 -2.0159 0.0000 0.0000 0.0000
# 3 34.6465 -2.0159 47.1711 0.0000 0.0000 0.0000
# 4 0.0000 0.0000 0.0000 8.3540 0.0000 0.0000
# 5 0.0000 0.0000 0.0000 0.0000 95.4487 0.0000
# 6 0.0000 0.0000 0.0000 0.0000 0.0000 -11.7571
#
#
#
# Elastic Compliance Matrix: (Units=1/GPa)
#
#
# Indices 1 2 3 4 5 6 
#
# 1 0.003516 -0.000240 -0.002593 0.000000 0.000000 0.000000
# 2 -0.000240 0.012467 0.000709 0.000000 0.000000 0.000000
# 3 -0.002593 0.000709 0.023134 0.000000 0.000000 0.000000
# 4 0.000000 0.000000 0.000000 0.119704 0.000000 0.000000
# 5 0.000000 0.000000 0.000000 0.000000 0.010477 0.000000
# 6 0.000000 0.000000 0.000000 0.000000 0.000000 -0.085055
#
#
# Mechanical properties :
#
#
# Convention : Reuss Voigt Hill
#
# Bulk Modulus (GPa) = 28.67828 56.78361 42.73095
# Shear Modulus (GPa) = 49.94343 45.15353 47.54848
#
# Velocity S-wave (km/s) = 4.38865 4.17290 4.28213
# Velocity P-wave (km/s) = 6.06134 6.71681 6.39747
#
# Compressibility (1/GPa) = 0.03486960
#
# Stress axis : x y z
#
# Youngs Moduli (GPa) = 284.39801 80.21314 43.22617
#
# Poissons Ratio (x) = 0.01924 0.11208
# Poissons Ratio (y) = 0.06821 -0.03064
# Poissons Ratio (z) = 0.73740 -0.05687
#
# Static dielectric constant tensor:
#      x y z
#    x 2.260040 0.000000 0.000000 
#    y 0.000000 2.060270 0.000000 
#    z 0.000000 0.000000 1.975300 
# 
# From -- ./inp_files/6728.got.cif
#   From: 2010.05.17/outbox.cif.g08.bks.cpg/sg51_4_cif.got.tgz:6728.got - 2010.06.03 11:52:47.
