data_PCOD9407194
_publ_section_title
;
Structure prediction by ZEFSAII (Michael W. Deem and Ramdas Pophale) SiO2 
 PCOD9407194
Probable space group: P M M A
;
_chemical_formula_sum "Si O2"
_cell_formula_units_Z 52
_cell_length_a 9.968514
_cell_length_b 10.879608
_cell_length_c 29.192273
_cell_angle_alpha 90.000000
_cell_angle_beta 90.000000
_cell_angle_gamma 90.000000
_cell_volume 3166.004900
_symmetry_space_group_name_H-M "P M M A"
_symmetry_group_IT_number 51
_symmetry_cell_setting 'orthorhombic'
loop_
_space_group_symop_operation_xyz
x,y,z
1/2-x,-y,z
1/2+x,-y,-z
-x,y,-z
-x,-y,-z
1/2+x,y,-z
1/2-x,y,z
x,-y,z
loop_
_atom_site_type_symbol
_atom_site_label
_atom_site_fract_x
_atom_site_fract_y
_atom_site_fract_z
Si Si1 0.589727 0.144695 0.130738
Si Si2 0.504636 0.256767 0.599343
Si Si3 0.587492 0.359506 0.202846
Si Si4 0.594012 0.851937 0.958420
Si Si5 0.250000 0.850723 0.547144
Si Si6 0.250000 0.139302 0.443775
Si Si7 0.090154 0.500000 0.454540
Si Si8 0.590329 0.645631 0.307075
O O1 0.750000 0.158023 0.119221
O O2 0.555343 0.247417 0.168864
O O3 0.491404 0.168061 0.087857
O O4 0.572822 0.000000 0.144531
O O5 0.376456 0.203805 0.573480
O O6 0.623421 0.166841 0.586902
O O7 0.549825 0.383008 0.575586
O O8 0.478808 0.279109 0.652692
O O9 0.750000 0.364704 0.204214
O O10 0.543384 0.500000 0.190423
O O11 0.543479 0.332160 0.255029
O O12 0.750000 0.807570 0.957876
O O13 0.602926 0.000000 0.963884
O O14 0.500000 0.805125 0.000000
O O15 0.250000 0.800694 0.494536
O O16 0.250000 0.000000 0.550005
O O17 0.250000 0.000000 0.456940
O O18 0.250000 0.500000 0.463799
O O19 0.000000 0.500000 0.500000
O O20 0.750000 0.670150 0.309216
O O21 0.572512 0.500000 0.315994
#
# Coordination Sequence:
#
# PCOD9407194 Si02
#       8
#     8   8   8   8   4   4   4   8
#     4   9  16  27  46  74 103 130 167 219 264 297
#     4  12  22  37  59  81 107 133 172 218 261 315
#     4   8  15  29  51  74 100 134 173 210 256 314
#     4   9  16  26  43  69 103 141 176 211 256 308
#     4  11  24  41  59  79 103 144 185 211 248 313
#     4  11  24  41  55  71 105 146 175 207 252 311
#     4  12  26  38  56  86 112 134 164 212 273 320
#     4   9  17  32  53  80 105 131 163 209 264 313
#
# _framework density 16.424485000000001
#
# number of rings (size 3 to 8) (size 9 to 14) (size 15 to 20)
#    0.000    2.154    2.308    3.231    1.077    3.077 
#    0.000    1.538    1.692    0.923    0.000    0.000 
#    0.000    0.000    0.000    0.000    0.000    0.000 
#
# Total GULP energy -289514.249286 kJ/mol
# GULP energy per Si atom -5567.581717 kJ/mol
# Density = 1.638710 g / cm^3
# Si number density = 16.424485 Si / 1000 Ang^3
#
#
#
# Elastic Constant Matrix: (Units=GPa)
#
#
# Indices 1 2 3 4 5 6 
#
# 1 112.7317 35.5635 60.3917 0.0000 0.0000 0.0000
# 2 35.5635 68.5760 55.2370 0.0000 0.0000 0.0000
# 3 60.3917 55.2370 133.5291 0.0000 0.0000 0.0000
# 4 0.0000 0.0000 0.0000 43.4667 0.0000 0.0000
# 5 0.0000 0.0000 0.0000 0.0000 10.0784 0.0000
# 6 0.0000 0.0000 0.0000 0.0000 0.0000 4.0240
#
#
#
# Elastic Compliance Matrix: (Units=1/GPa)
#
#
# Indices 1 2 3 4 5 6 
#
# 1 0.012053 -0.002789 -0.004297 0.000000 0.000000 0.000000
# 2 -0.002789 0.022515 -0.008052 0.000000 0.000000 0.000000
# 3 -0.004297 -0.008052 0.012764 0.000000 0.000000 0.000000
# 4 0.000000 0.000000 0.000000 0.023006 0.000000 0.000000
# 5 0.000000 0.000000 0.000000 0.000000 0.099222 0.000000
# 6 0.000000 0.000000 0.000000 0.000000 0.000000 0.248512
#
#
# Mechanical properties :
#
#
# Convention : Reuss Voigt Hill
#
# Bulk Modulus (GPa) = 58.63855 68.58013 63.60934
# Shear Modulus (GPa) = 11.01242 22.42345 16.71793
#
# Velocity S-wave (km/s) = 2.59219 3.69893 3.19386
# Velocity P-wave (km/s) = 6.68870 7.75166 7.23971
#
# Compressibility (1/GPa) = 0.01705363
#
# Stress axis : x y z
#
# Youngs Moduli (GPa) = 82.96955 44.41535 78.34803
#
# Poissons Ratio (x) = 0.12388 0.33669
# Poissons Ratio (y) = 0.23141 0.63088
# Poissons Ratio (z) = 0.35655 0.35764
#
# Static dielectric constant tensor:
#      x y z
#    x 1.533890 0.000000 0.000000 
#    y 0.000000 1.559530 0.000000 
#    z 0.000000 0.000000 1.546170 
# 
# From -- ./inp_files/36286.got.cif
#   From: 2010.05.17/outbox.cif.g08.bks.cpg/sg51_19_cif.got.tgz:36286.got - 2010.06.03 11:52:47.
