data_PCOD9407810
_publ_section_title
;
Structure prediction by ZEFSAII (Michael W. Deem and Ramdas Pophale) SiO2 
 PCOD9407810
Probable space group: P M M A
;
_chemical_formula_sum "Si O2"
_cell_formula_units_Z 40
_cell_length_a 9.000000
_cell_length_b 15.000000
_cell_length_c 15.000000
_cell_angle_alpha 90.000000
_cell_angle_beta 90.000000
_cell_angle_gamma 90.000000
_cell_volume 2025.000000
_symmetry_space_group_name_H-M "P M M A"
_symmetry_group_IT_number 51
_symmetry_cell_setting 'orthorhombic'
loop_
_space_group_symop_operation_xyz
x,y,z
1/2-x,-y,z
1/2+x,-y,-z
-x,y,-z
-x,-y,-z
1/2+x,y,-z
1/2-x,y,z
x,-y,z
loop_
_atom_site_type_symbol
_atom_site_label
_atom_site_fract_x
_atom_site_fract_y
_atom_site_fract_z
Si Si1 0.584932 0.834822 0.921712
Si Si2 0.586196 0.604592 0.093139
Si Si3 0.924443 0.000000 0.151458
Si Si4 0.571122 0.198726 0.407925
Si Si5 0.582318 0.705205 0.756480
Si Si6 0.069528 0.000000 0.646371
O O1 0.750000 0.859767 0.949203
O O2 0.594062 0.783228 0.829571
O O3 0.481901 0.916707 0.901028
O O4 0.500000 0.784659 0.000000
O O5 0.750000 0.648184 0.088197
O O6 0.604358 0.500000 0.102511
O O7 0.501259 0.634225 0.182153
O O8 0.500000 0.613610 0.000000
O O9 0.750000 0.000000 0.159003
O O10 0.985264 0.000000 0.251935
O O11 0.500000 0.230265 0.500000
O O12 0.750000 0.202129 0.409501
O O13 0.508542 0.257114 0.326695
O O14 0.524018 0.094547 0.395087
O O15 0.750000 0.678377 0.730894
O O16 0.250000 0.000000 0.645188
#
# Coordination Sequence:
#
# PCOD9407810 Si02
#       6
#     8   8   4   8   8   4
#     4  11  23  36  51  75 107 146 189 232 279 333
#     4  10  21  38  62  92 124 157 191 230 279 338
#     4  11  20  35  54  73 102 144 190 233 282 335
#     4  11  22  39  60  85 115 150 194 244 296 347
#     4  11  23  38  58  85 115 150 191 236 287 340
#     4   9  19  35  57  81 107 147 193 242 296 343
#
# _framework density 19.753086
#
# number of rings (size 3 to 8) (size 9 to 14) (size 15 to 20)
#    0.000    1.400    2.000    3.900    0.000    5.200 
#    0.000    1.500    0.000    0.600    0.000    0.000 
#    0.000    0.000    0.000    0.000    0.000    0.000 
#
# Total GULP energy -222883.076951 kJ/mol
# GULP energy per Si atom -5572.076924 kJ/mol
# Density = 1.970813 g / cm^3
# Si number density = 19.753086 Si / 1000 Ang^3
#
#
#
# Elastic Constant Matrix: (Units=GPa)
#
#
# Indices 1 2 3 4 5 6 
#
# 1 125.3780 38.4946 71.3019 0.0000 0.0000 0.0000
# 2 38.4946 80.6398 39.8990 0.0000 0.0000 0.0000
# 3 71.3019 39.8990 163.0693 0.0000 0.0000 0.0000
# 4 0.0000 0.0000 0.0000 150.0150 0.0000 0.0000
# 5 0.0000 0.0000 0.0000 0.0000 30.0235 0.0000
# 6 0.0000 0.0000 0.0000 0.0000 0.0000 14.4780
#
#
#
# Elastic Compliance Matrix: (Units=1/GPa)
#
#
# Indices 1 2 3 4 5 6 
#
# 1 0.011370 -0.003377 -0.004145 0.000000 0.000000 0.000000
# 2 -0.003377 0.015112 -0.002221 0.000000 0.000000 0.000000
# 3 -0.004145 -0.002221 0.008488 0.000000 0.000000 0.000000
# 4 0.000000 0.000000 0.000000 0.006666 0.000000 0.000000
# 5 0.000000 0.000000 0.000000 0.000000 0.033307 0.000000
# 6 0.000000 0.000000 0.000000 0.000000 0.000000 0.069070
#
#
# Mechanical properties :
#
#
# Convention : Reuss Voigt Hill
#
# Bulk Modulus (GPa) = 64.58274 74.27536 69.42905
# Shear Modulus (GPa) = 29.64531 53.52941 41.58736
#
# Velocity S-wave (km/s) = 3.87821 5.21134 4.59340
# Velocity P-wave (km/s) = 7.26774 8.59618 7.95972
#
# Compressibility (1/GPa) = 0.01548401
#
# Stress axis : x y z
#
# Youngs Moduli (GPa) = 87.95034 66.17427 117.80845
#
# Poissons Ratio (x) = 0.22344 0.48836
# Poissons Ratio (y) = 0.29697 0.26165
# Poissons Ratio (z) = 0.36459 0.14697
#
# Static dielectric constant tensor:
#      x y z
#    x 1.760140 0.000000 0.000000 
#    y 0.000000 1.810560 0.000000 
#    z 0.000000 0.000000 1.684670 
# 
# From -- ./inp_files/20540.got.cif
#   From: 2010.05.17/outbox.ucp.g08.bks.cvg/sg51_11_cif.got.tgz:20540.got - 2010.06.11 16:27:58.
