data_PCOD9407562
_publ_section_title
;
Structure prediction by ZEFSAII (Michael W. Deem and Ramdas Pophale) SiO2 
 PCOD9407562
Probable space group: P M M A
;
_chemical_formula_sum "Si O2"
_cell_formula_units_Z 40
_cell_length_a 9.000000
_cell_length_b 12.000000
_cell_length_c 21.000000
_cell_angle_alpha 90.000000
_cell_angle_beta 90.000000
_cell_angle_gamma 90.000000
_cell_volume 2268.000000
_symmetry_space_group_name_H-M "P M M A"
_symmetry_group_IT_number 51
_symmetry_cell_setting 'orthorhombic'
loop_
_space_group_symop_operation_xyz
x,y,z
1/2-x,-y,z
1/2+x,-y,-z
-x,y,-z
-x,-y,-z
1/2+x,y,-z
1/2-x,y,z
x,-y,z
loop_
_atom_site_type_symbol
_atom_site_label
_atom_site_fract_x
_atom_site_fract_y
_atom_site_fract_z
Si Si1 0.428455 0.762171 0.566139
Si Si2 0.428609 0.629412 0.067126
Si Si3 0.929116 0.760495 0.808693
Si Si4 0.929134 0.000000 0.378554
Si Si5 0.928395 0.629857 0.307927
Si Si6 0.071078 0.000000 0.238765
O O1 0.500000 0.727907 0.500000
O O2 0.250000 0.758842 0.560583
O O3 0.472937 0.888411 0.584256
O O4 0.472788 0.685198 0.625320
O O5 0.250000 0.635778 0.062034
O O6 0.467242 0.500000 0.080680
O O7 0.478718 0.706685 0.125038
O O8 0.500000 0.660391 0.000000
O O9 0.750000 0.753121 0.806695
O O10 0.971776 0.888655 0.798659
O O11 0.994656 0.692075 0.750058
O O12 0.750000 0.000000 0.372056
O O13 0.998706 0.000000 0.308445
O O14 0.750000 0.642436 0.302080
O O15 0.964829 0.500000 0.307011
O O16 0.250000 0.000000 0.246451
#
# Coordination Sequence:
#
# PCOD9407562 Si02
#       6
#     8   8   8   4   8   4
#     4  10  21  35  52  75 103 135 172 216 264 314
#     4   9  18  33  53  77 106 139 174 212 254 301
#     4  10  20  35  55  80 108 138 174 217 261 308
#     4  10  19  35  55  75 101 135 173 217 265 312
#     4  10  21  36  54  77 105 137 175 218 263 313
#     4  10  20  33  54  81 106 135 172 215 262 310
#
# _framework density 17.636683999999999
#
# number of rings (size 3 to 8) (size 9 to 14) (size 15 to 20)
#    0.000    2.200    2.000    0.900    0.000    4.000 
#    0.000    2.500    0.000    0.000    0.000    0.000 
#    0.000    0.000    0.000    0.000    0.000    0.000 
#
# Total GULP energy -223222.392076 kJ/mol
# GULP energy per Si atom -5580.559802 kJ/mol
# Density = 1.759654 g / cm^3
# Si number density = 17.636684 Si / 1000 Ang^3
#
#
#
# Elastic Constant Matrix: (Units=GPa)
#
#
# Indices 1 2 3 4 5 6 
#
# 1 -1.7755 30.1845 31.3131 0.0000 0.0000 0.0000
# 2 30.1845 119.0765 91.6408 0.0000 0.0000 0.0000
# 3 31.3131 91.6408 173.5957 0.0000 0.0000 0.0000
# 4 0.0000 0.0000 0.0000 46.2486 0.0000 0.0000
# 5 0.0000 0.0000 0.0000 0.0000 34.7331 0.0000
# 6 0.0000 0.0000 0.0000 0.0000 0.0000 8.2550
#
#
#
# Elastic Compliance Matrix: (Units=1/GPa)
#
#
# Indices 1 2 3 4 5 6 
#
# 1 -0.099395 0.019197 0.007795 0.000000 0.000000 0.000000
# 2 0.019197 0.010437 -0.008972 0.000000 0.000000 0.000000
# 3 0.007795 -0.008972 0.009091 0.000000 0.000000 0.000000
# 4 0.000000 0.000000 0.000000 0.021622 0.000000 0.000000
# 5 0.000000 0.000000 0.000000 0.000000 0.028791 0.000000
# 6 0.000000 0.000000 0.000000 0.000000 0.000000 0.121138
#
#
# Mechanical properties :
#
#
# Convention : Reuss Voigt Hill
#
# Bulk Modulus (GPa) = -22.81600 66.35261 21.76830
# Shear Modulus (GPa) = 121.84447 27.03122 74.43784
#
# Velocity S-wave (km/s) = 8.32080 3.91918 6.50368
# Velocity P-wave (km/s) = 8.90784 7.62782 8.29256
#
# Compressibility (1/GPa) = -0.04382888
#
# Stress axis : x y z
#
# Youngs Moduli (GPa) = -10.06084 95.81412 110.00020
#
# Poissons Ratio (x) = -1.83930 -0.85745
# Poissons Ratio (y) = 0.19313 0.98695
# Poissons Ratio (z) = 0.07842 0.85967
#
# Static dielectric constant tensor:
#      x y z
#    x 1.594700 0.000000 0.000000 
#    y 0.000000 1.603850 0.000000 
#    z 0.000000 0.000000 1.561040 
# 
# From -- ./inp_files/31395.got.cif
#   From: 2010.05.17/outbox.ucp.g08.bks.cvg/sg51_16_cif.got.tgz:31395.got - 2010.06.11 16:27:58.
