data_PCOD9407414
_publ_section_title
;
Structure prediction by ZEFSAII (Michael W. Deem and Ramdas Pophale) SiO2 
 PCOD9407414
Probable space group: P M M A
;
_chemical_formula_sum "Si O2"
_cell_formula_units_Z 64
_cell_length_a 27.000000
_cell_length_b 9.000000
_cell_length_c 18.000000
_cell_angle_alpha 90.000000
_cell_angle_beta 90.000000
_cell_angle_gamma 90.000000
_cell_volume 4374.000000
_symmetry_space_group_name_H-M "P M M A"
_symmetry_group_IT_number 51
_symmetry_cell_setting 'orthorhombic'
loop_
_space_group_symop_operation_xyz
x,y,z
1/2-x,-y,z
1/2+x,-y,-z
-x,y,-z
-x,-y,-z
1/2+x,y,-z
1/2-x,y,z
x,-y,z
loop_
_atom_site_type_symbol
_atom_site_label
_atom_site_fract_x
_atom_site_fract_y
_atom_site_fract_z
Si Si1 0.894781 0.176667 0.074453
Si Si2 0.519521 0.677223 0.172305
Si Si3 0.692515 0.822291 0.178148
Si Si4 0.050444 0.327855 0.049617
Si Si5 0.515243 0.172005 0.328260
Si Si6 0.110938 0.826184 0.564669
Si Si7 0.191305 0.676581 0.665611
Si Si8 0.047929 0.669682 0.445387
O O1 0.935224 0.245284 0.130181
O O2 0.841852 0.217660 0.108858
O O3 0.899507 0.000000 0.074905
O O4 0.908187 0.236499 0.993233
O O5 0.524424 0.500000 0.164032
O O6 0.468748 0.721555 0.130009
O O7 0.519480 0.726422 0.256564
O O8 0.750000 0.788049 0.164575
O O9 0.676725 0.739833 0.253438
O O10 0.687977 0.000000 0.190854
O O11 0.065108 0.500000 0.051819
O O12 0.000000 0.318633 0.000000
O O13 0.565184 0.185304 0.377124
O O14 0.469663 0.227621 0.378124
O O15 0.509783 0.000000 0.307180
O O16 0.158514 0.755593 0.603544
O O17 0.092701 0.738369 0.492204
O O18 0.118199 0.000000 0.548653
O O19 0.250000 0.706420 0.656359
O O20 0.183467 0.500000 0.663631
O O21 0.057506 0.500000 0.422556
O O22 0.000000 0.667250 0.500000
#
# Coordination Sequence:
#
# PCOD9407414 Si02
#       8
#     8   8   8   8   8   8   8   8
#     4  10  18  27  42  61  79 105 140 173 205 241
#     4  10  19  29  41  58  82 111 139 167 203 246
#     4   9  18  31  43  57  81 110 138 170 208 246
#     4   8  16  29  41  55  78 107 135 165 203 244
#     4  10  19  29  42  62  86 110 139 173 205 242
#     4  10  19  30  44  61  83 112 142 171 207 247
#     4  10  20  31  43  61  83 108 142 180 211 241
#     4   9  17  29  44  61  82 109 139 170 204 242
#
# _framework density 14.631916
#
# number of rings (size 3 to 8) (size 9 to 14) (size 15 to 20)
#    0.000    2.500    0.000    3.750    0.000   10.500 
#    0.000    0.000    0.000    0.000    0.000    0.000 
#    0.000    1.000    0.000    6.500    0.000    4.250 
#
# Total GULP energy -356628.524095 kJ/mol
# GULP energy per Si atom -5572.320689 kJ/mol
# Density = 1.459861 g / cm^3
# Si number density = 14.631916 Si / 1000 Ang^3
#
#
#
# Elastic Constant Matrix: (Units=GPa)
#
#
# Indices 1 2 3 4 5 6 
#
# 1 42.8483 27.4817 8.5213 0.0000 0.0000 0.0000
# 2 27.4817 39.5975 7.5287 0.0000 0.0000 0.0000
# 3 8.5213 7.5287 10.4313 0.0000 0.0000 0.0000
# 4 0.0000 0.0000 0.0000 22.4443 0.0000 0.0000
# 5 0.0000 0.0000 0.0000 0.0000 25.7321 0.0000
# 6 0.0000 0.0000 0.0000 0.0000 0.0000 10.0800
#
#
#
# Elastic Compliance Matrix: (Units=1/GPa)
#
#
# Indices 1 2 3 4 5 6 
#
# 1 0.044311 -0.027667 -0.016229 0.000000 0.000000 0.000000
# 2 -0.027667 0.046546 -0.010993 0.000000 0.000000 0.000000
# 3 -0.016229 -0.010993 0.117056 0.000000 0.000000 0.000000
# 4 0.000000 0.000000 0.000000 0.044555 0.000000 0.000000
# 5 0.000000 0.000000 0.000000 0.000000 0.038862 0.000000
# 6 0.000000 0.000000 0.000000 0.000000 0.000000 0.099206
#
#
# Mechanical properties :
#
#
# Convention : Reuss Voigt Hill
#
# Bulk Modulus (GPa) = 10.18999 19.99340 15.09169
# Shear Modulus (GPa) = 9.38042 14.94098 12.16070
#
# Velocity S-wave (km/s) = 2.53473 3.19897 2.88602
# Velocity P-wave (km/s) = 3.94282 5.22862 4.63056
#
# Compressibility (1/GPa) = 0.09813551
#
# Stress axis : x y z
#
# Youngs Moduli (GPa) = 22.56801 21.48415 8.54289
#
# Poissons Ratio (x) = 0.59440 0.13864
# Poissons Ratio (y) = 0.62439 0.09391
# Poissons Ratio (z) = 0.36625 0.23617
#
# Static dielectric constant tensor:
#      x y z
#    x 1.471730 0.000000 0.000000 
#    y 0.000000 1.487280 0.000000 
#    z 0.000000 0.000000 1.489460 
# 
# From -- ./inp_files/30830.got.cif
#   From: 2010.05.17/outbox.ucp.g08.bks.cvg/sg51_16_cif.got.tgz:30830.got - 2010.06.11 16:27:58.
