data_PCOD9407903
_publ_section_title
;
Structure prediction by ZEFSAII (Michael W. Deem and Ramdas Pophale) SiO2 
 PCOD9407903
Probable space group: P N N A
;
_chemical_formula_sum "Si O2"
_cell_formula_units_Z 56
_cell_length_a 22.530762
_cell_length_b 8.127452
_cell_length_c 18.122562
_cell_angle_alpha 90.000000
_cell_angle_beta 90.000000
_cell_angle_gamma 90.000000
_cell_volume 3318.561630
_symmetry_space_group_name_H-M "P N N A"
_symmetry_group_IT_number 52
_symmetry_cell_setting 'orthorhombic'
loop_
_space_group_symop_operation_xyz
x,y,z
1/2-x,-y,z
x,1/2-y,1/2-z
1/2-x,1/2+y,1/2-z
-x,-y,-z
1/2+x,y,-z
-x,1/2+y,1/2+z
1/2+x,1/2-y,1/2+z
loop_
_atom_site_type_symbol
_atom_site_label
_atom_site_fract_x
_atom_site_fract_y
_atom_site_fract_z
Si Si1 0.399440 0.419362 0.966072
Si Si2 0.076522 0.251143 0.606270
Si Si3 0.343279 0.750000 0.750000
Si Si4 0.750000 0.500000 0.291233
Si Si5 0.796818 0.878407 0.538113
Si Si6 0.791815 0.283529 0.425098
Si Si7 0.463079 0.372866 0.449227
Si Si8 0.851939 0.558923 0.524772
O O1 0.429872 0.563015 0.920118
O O2 0.355434 0.514022 0.022907
O O3 0.351568 0.321312 0.917067
O O4 0.442848 0.288697 0.004535
O O5 0.115944 0.264298 0.678456
O O6 0.112721 0.347157 0.541597
O O7 0.010580 0.324130 0.612397
O O8 0.301221 0.589331 0.754257
O O9 0.773871 0.362016 0.348008
O O10 0.761139 0.820779 0.463103
O O11 0.817223 0.701502 0.568085
O O12 0.750000 0.000000 0.576890
O O13 0.810546 0.426436 0.483433
O O14 0.500000 0.500000 0.500000
O O15 0.401757 0.462608 0.429164
#
# Coordination Sequence:
#
# PCOD9407903 Si02
#       8
#     8   8   4   4   8   8   8   8
#     4   9  18  28  48  69  86 118 159 205 256 291
#     4  10  19  35  44  67  90 120 170 214 251 278
#     4  12  26  34  48  64 100 136 174 214 228 290
#     4  12  22  34  42  62  94 136 174 196 236 278
#     4   9  15  23  41  69  96 116 141 183 239 295
#     4  10  16  29  46  62  94 128 159 195 233 293
#     4   9  18  30  52  64  83 116 162 220 254 292
#     4   9  15  29  45  66  85 123 165 197 246 291
#
# _framework density 16.874780000000001
#
# number of rings (size 3 to 8) (size 9 to 14) (size 15 to 20)
#    0.000    2.286    2.857    1.286    2.000    0.000 
#    1.286    0.000    0.000    0.000    0.000    0.000 
#    0.000    0.000    0.000   38.571    0.000    8.714 
#
# Total GULP energy -311750.161262 kJ/mol
# GULP energy per Si atom -5566.967165 kJ/mol
# Density = 1.683637 g / cm^3
# Si number density = 16.874780 Si / 1000 Ang^3
#
#
#
# Elastic Constant Matrix: (Units=GPa)
#
#
# Indices 1 2 3 4 5 6 
#
# 1 98.2162 42.8737 27.7883 0.0000 0.0000 0.0000
# 2 42.8737 102.5103 11.2524 0.0000 0.0000 0.0000
# 3 27.7883 11.2524 21.0837 0.0000 0.0000 0.0000
# 4 0.0000 0.0000 0.0000 11.8535 0.0000 0.0000
# 5 0.0000 0.0000 0.0000 0.0000 18.3677 0.0000
# 6 0.0000 0.0000 0.0000 0.0000 0.0000 48.5944
#
#
#
# Elastic Compliance Matrix: (Units=1/GPa)
#
#
# Indices 1 2 3 4 5 6 
#
# 1 0.018712 -0.005437 -0.021760 0.000000 0.000000 0.000000
# 2 -0.005437 0.011942 0.000793 0.000000 0.000000 0.000000
# 3 -0.021760 0.000793 0.075687 0.000000 0.000000 0.000000
# 4 0.000000 0.000000 0.000000 0.084364 0.000000 0.000000
# 5 0.000000 0.000000 0.000000 0.000000 0.054444 0.000000
# 6 0.000000 0.000000 0.000000 0.000000 0.000000 0.020579
#
#
# Mechanical properties :
#
#
# Convention : Reuss Voigt Hill
#
# Bulk Modulus (GPa) = 18.68066 42.84880 30.76473
# Shear Modulus (GPa) = 14.86419 25.08949 19.97684
#
# Velocity S-wave (km/s) = 2.97114 3.86009 3.44441
# Velocity P-wave (km/s) = 4.78167 6.73160 5.83861
#
# Compressibility (1/GPa) = 0.05353129
#
# Stress axis : x y z
#
# Youngs Moduli (GPa) = 53.44238 83.73663 13.21239
#
# Poissons Ratio (x) = 0.45531 0.28750
# Poissons Ratio (y) = 0.29059 -0.01048
# Poissons Ratio (z) = 1.16291 -0.06639
#
# Static dielectric constant tensor:
#      x y z
#    x 1.620460 0.000000 0.000000 
#    y 0.000000 1.651270 0.000000 
#    z 0.000000 0.000000 1.514980 
# 
# From -- ./inp_files/34364.got.cif
#   From: 2010.05.17/outbox.cif.g08.bks.cpg/sg52_18_cif.got.tgz:34364.got - 2010.06.03 12:15:38.
