data_PCOD9407079
_publ_section_title
;
Structure prediction by ZEFSAII (Michael W. Deem and Ramdas Pophale) SiO2 
 PCOD9407079
Probable space group: P M M A
;
_chemical_formula_sum "Si O2"
_cell_formula_units_Z 64
_cell_length_a 8.867183
_cell_length_b 20.559406
_cell_length_c 20.397088
_cell_angle_alpha 90.000000
_cell_angle_beta 90.000000
_cell_angle_gamma 90.000000
_cell_volume 3718.471044
_symmetry_space_group_name_H-M "P M M A"
_symmetry_group_IT_number 51
_symmetry_cell_setting 'orthorhombic'
loop_
_space_group_symop_operation_xyz
x,y,z
1/2-x,-y,z
1/2+x,-y,-z
-x,y,-z
-x,-y,-z
1/2+x,y,-z
1/2-x,y,z
x,-y,z
loop_
_atom_site_type_symbol
_atom_site_label
_atom_site_fract_x
_atom_site_fract_y
_atom_site_fract_z
Si Si1 0.571479 0.572572 0.616332
Si Si2 0.566368 0.814451 0.329827
Si Si3 0.930079 0.704193 0.432064
Si Si4 0.071171 0.428438 0.899484
Si Si5 0.928625 0.291040 0.932663
Si Si6 0.931862 0.075560 0.429848
Si Si7 0.571685 0.247522 0.200759
Si Si8 0.423427 0.394612 0.749524
O O1 0.750000 0.579411 0.605952
O O2 0.524902 0.500000 0.595373
O O3 0.486114 0.631370 0.581518
O O4 0.532559 0.580449 0.693368
O O5 0.750000 0.814503 0.327380
O O6 0.522088 0.752101 0.373514
O O7 0.518909 0.877851 0.370497
O O8 0.516682 0.804235 0.254819
O O9 0.750000 0.705221 0.435766
O O10 0.000000 0.727703 0.500000
O O11 0.250000 0.419748 0.913612
O O12 0.023282 0.500000 0.922631
O O13 0.056009 0.426545 0.820492
O O14 0.982377 0.366238 0.925291
O O15 0.750000 0.288788 0.935955
O O16 0.987163 0.253919 0.867994
O O17 0.000000 0.265570 0.000000
O O18 0.750000 0.079735 0.434444
O O19 0.000000 0.095660 0.500000
O O20 0.972640 0.000000 0.418751
O O21 0.750000 0.238137 0.187527
O O22 0.558516 0.317816 0.236520
O O23 0.250000 0.405759 0.727952
#
# Coordination Sequence:
#
# PCOD9407079 Si02
#       8
#     8   8   8   8   8   8   8   8
#     4  11  23  35  47  65  89 117 153 202 257 309
#     4   9  17  32  54  77 103 135 171 206 245 291
#     4  11  22  37  53  70  91 122 161 205 253 301
#     4   9  18  32  49  68  91 121 157 196 244 305
#     4  11  22  35  50  70  96 127 160 201 252 306
#     4   9  17  30  50  78 113 150 182 210 243 288
#     4   9  17  33  53  72  96 127 163 204 247 294
#     4   9  16  30  50  69  89 118 153 195 247 302
#
# _framework density 17.211375
#
# number of rings (size 3 to 8) (size 9 to 14) (size 15 to 20)
#    0.000    2.250    1.250    3.375    0.000    4.250 
#    0.000    1.250    0.000    0.000    0.000    0.000 
#    0.000    0.500    0.000    0.875    0.000    1.250 
#
# Total GULP energy -357146.467271 kJ/mol
# GULP energy per Si atom -5580.413551 kJ/mol
# Density = 1.717220 g / cm^3
# Si number density = 17.211375 Si / 1000 Ang^3
#
#
#
# Elastic Constant Matrix: (Units=GPa)
#
#
# Indices 1 2 3 4 5 6 
#
# 1 46.0858 22.9975 39.5359 0.0000 0.0000 0.0000
# 2 22.9975 68.4120 49.0043 0.0000 0.0000 0.0000
# 3 39.5359 49.0043 125.2996 0.0000 0.0000 0.0000
# 4 0.0000 0.0000 0.0000 16.1483 0.0000 0.0000
# 5 0.0000 0.0000 0.0000 0.0000 28.0998 0.0000
# 6 0.0000 0.0000 0.0000 0.0000 0.0000 9.7086
#
#
#
# Elastic Compliance Matrix: (Units=1/GPa)
#
#
# Indices 1 2 3 4 5 6 
#
# 1 0.030809 -0.004714 -0.007878 0.000000 0.000000 0.000000
# 2 -0.004714 0.021027 -0.006736 0.000000 0.000000 0.000000
# 3 -0.007878 -0.006736 0.013101 0.000000 0.000000 0.000000
# 4 0.000000 0.000000 0.000000 0.061926 0.000000 0.000000
# 5 0.000000 0.000000 0.000000 0.000000 0.035588 0.000000
# 6 0.000000 0.000000 0.000000 0.000000 0.000000 0.103002
#
#
# Mechanical properties :
#
#
# Convention : Reuss Voigt Hill
#
# Bulk Modulus (GPa) = 38.04952 51.43032 44.73992
# Shear Modulus (GPa) = 15.98114 19.34197 17.66156
#
# Velocity S-wave (km/s) = 3.05047 3.35593 3.20684
# Velocity P-wave (km/s) = 5.87898 6.70543 6.30576
#
# Compressibility (1/GPa) = 0.02628154
#
# Stress axis : x y z
#
# Youngs Moduli (GPa) = 32.45809 47.55727 76.32995
#
# Poissons Ratio (x) = 0.22419 0.60129
# Poissons Ratio (y) = 0.15301 0.51418
# Poissons Ratio (z) = 0.25569 0.32036
#
# Static dielectric constant tensor:
#      x y z
#    x 1.571350 0.000000 0.000000 
#    y 0.000000 1.588510 0.000000 
#    z 0.000000 0.000000 1.610260 
# 
# From -- ./inp_files/32342.got.cif
#   From: 2010.05.17/outbox.cif.g08.bks.cpg/sg51_17_cif.got.tgz:32342.got - 2010.06.03 11:52:47.
