data_PCOD9407115
_publ_section_title
;
Structure prediction by ZEFSAII (Michael W. Deem and Ramdas Pophale) SiO2 
 PCOD9407115
Probable space group: P M M A
;
_chemical_formula_sum "Si O2"
_cell_formula_units_Z 48
_cell_length_a 29.089862
_cell_length_b 8.815234
_cell_length_c 10.123984
_cell_angle_alpha 90.000000
_cell_angle_beta 90.000000
_cell_angle_gamma 90.000000
_cell_volume 2596.133111
_symmetry_space_group_name_H-M "P M M A"
_symmetry_group_IT_number 51
_symmetry_cell_setting 'orthorhombic'
loop_
_space_group_symop_operation_xyz
x,y,z
1/2-x,-y,z
1/2+x,-y,-z
-x,y,-z
-x,-y,-z
1/2+x,y,-z
1/2-x,y,z
x,-y,z
loop_
_atom_site_type_symbol
_atom_site_label
_atom_site_fract_x
_atom_site_fract_y
_atom_site_fract_z
Si Si1 0.380529 0.182541 0.792031
Si Si2 0.694997 0.822056 0.701369
Si Si3 0.627544 0.320985 0.496906
Si Si4 0.302611 0.815355 0.999253
Si Si5 0.979949 0.680684 0.145403
Si Si6 0.962909 0.176208 0.617991
O O1 0.370625 0.237590 0.643843
O O2 0.339780 0.231843 0.891097
O O3 0.429315 0.249796 0.837091
O O4 0.383311 0.000000 0.793648
O O5 0.750000 0.812667 0.688230
O O6 0.669339 0.727380 0.590754
O O7 0.682072 0.000000 0.688235
O O8 0.683919 0.771023 0.851295
O O9 0.626533 0.500000 0.475150
O O10 0.581531 0.267381 0.571621
O O11 0.250000 0.765216 0.972716
O O12 0.301624 0.000000 0.999555
O O13 0.977614 0.500000 0.167198
O O14 0.013367 0.754706 0.253341
O O15 0.000000 0.709026 0.000000
O O16 0.000000 0.182827 0.500000
O O17 0.950734 0.000000 0.639730
#
# Coordination Sequence:
#
# PCOD9407115 Si02
#       6
#     8   8   8   8   8   8
#     4  11  22  38  61  90 119 156 205 249 293 350
#     4   9  19  39  65  91 119 154 199 249 297 353
#     4  12  25  39  59  88 124 162 197 244 306 362
#     4   8  17  36  62  90 117 148 192 246 298 344
#     4  11  25  42  60  88 125 160 194 240 302 362
#     4  11  23  41  65  89 115 155 206 250 291 348
#
# _framework density 18.489037
#
# number of rings (size 3 to 8) (size 9 to 14) (size 15 to 20)
#    0.000    1.667    1.667    4.000    2.333    3.000 
#    0.000    2.500    0.000    3.500    0.000    0.000 
#    0.000    0.000    0.000    0.000    0.000    0.000 
#
# Total GULP energy -268217.426093 kJ/mol
# GULP energy per Si atom -5587.863044 kJ/mol
# Density = 1.844695 g / cm^3
# Si number density = 18.489037 Si / 1000 Ang^3
#
#
#
# Elastic Constant Matrix: (Units=GPa)
#
#
# Indices 1 2 3 4 5 6 
#
# 1 62.6019 17.5130 56.3696 0.0000 0.0000 0.0000
# 2 17.5130 60.5689 40.5704 0.0000 0.0000 0.0000
# 3 56.3696 40.5704 121.2953 0.0000 0.0000 0.0000
# 4 0.0000 0.0000 0.0000 7.1743 0.0000 0.0000
# 5 0.0000 0.0000 0.0000 0.0000 37.1820 0.0000
# 6 0.0000 0.0000 0.0000 0.0000 0.0000 -475.5508
#
#
#
# Elastic Compliance Matrix: (Units=1/GPa)
#
#
# Indices 1 2 3 4 5 6 
#
# 1 0.027497 0.000785 -0.013041 0.000000 0.000000 0.000000
# 2 0.000785 0.021299 -0.007489 0.000000 0.000000 0.000000
# 3 -0.013041 -0.007489 0.016810 0.000000 0.000000 0.000000
# 4 0.000000 0.000000 0.000000 0.139387 0.000000 0.000000
# 5 0.000000 0.000000 0.000000 0.000000 0.026895 0.000000
# 6 0.000000 0.000000 0.000000 0.000000 0.000000 -0.002103
#
#
# Mechanical properties :
#
#
# Convention : Reuss Voigt Hill
#
# Bulk Modulus (GPa) = 38.29093 52.59690 45.44392
# Shear Modulus (GPa) = 17.98677 -77.57136 -29.79229
#
# Velocity S-wave (km/s) = 3.12241 -6.48432 -4.01852
# Velocity P-wave (km/s) = 5.80985 5.24905 1.76094
#
# Compressibility (1/GPa) = 0.02611584
#
# Stress axis : x y z
#
# Youngs Moduli (GPa) = 36.36697 46.94965 59.48866
#
# Poissons Ratio (x) = -0.03685 0.77582
# Poissons Ratio (y) = -0.02854 0.44550
# Poissons Ratio (z) = 0.47428 0.35160
#
# Static dielectric constant tensor:
#      x y z
#    x 1.605780 0.000000 0.000000 
#    y 0.000000 1.622110 0.000000 
#    z 0.000000 0.000000 1.614210 
# 
# From -- ./inp_files/12859.got.cif
#   From: 2010.05.17/outbox.cif.g08.bks.cpg/sg51_7_cif.got.tgz:12859.got - 2010.06.03 11:52:47.
