data_PCOD9407710
_publ_section_title
;
Structure prediction by ZEFSAII (Michael W. Deem and Ramdas Pophale) SiO2 
 PCOD9407710
Probable space group: P M M A
;
_chemical_formula_sum "Si O2"
_cell_formula_units_Z 56
_cell_length_a 21.000000
_cell_length_b 9.000000
_cell_length_c 15.000000
_cell_angle_alpha 90.000000
_cell_angle_beta 90.000000
_cell_angle_gamma 90.000000
_cell_volume 2835.000000
_symmetry_space_group_name_H-M "P M M A"
_symmetry_group_IT_number 51
_symmetry_cell_setting 'orthorhombic'
loop_
_space_group_symop_operation_xyz
x,y,z
1/2-x,-y,z
1/2+x,-y,-z
-x,y,-z
-x,-y,-z
1/2+x,y,-z
1/2-x,y,z
x,-y,z
loop_
_atom_site_type_symbol
_atom_site_label
_atom_site_fract_x
_atom_site_fract_y
_atom_site_fract_z
Si Si1 0.178768 0.175103 0.196172
Si Si2 0.321755 0.675845 0.004880
Si Si3 0.927870 0.325503 0.685358
Si Si4 0.055433 0.828396 0.926948
Si Si5 0.175281 0.823597 0.653572
Si Si6 0.564135 0.325640 0.250946
Si Si7 0.422855 0.828536 0.488900
O O1 0.250000 0.191054 0.237995
O O2 0.179190 0.274847 0.107786
O O3 0.119649 0.230835 0.253886
O O4 0.171204 0.000000 0.174097
O O5 0.250000 0.701665 0.969137
O O6 0.335899 0.500000 0.995779
O O7 0.376287 0.776421 0.962634
O O8 0.924360 0.500000 0.708004
O O9 0.906774 0.291561 0.585508
O O10 0.002284 0.277963 0.691811
O O11 0.041250 0.717856 0.846900
O O12 0.057497 0.000000 0.896619
O O13 0.000000 0.816811 0.000000
O O14 0.250000 0.773825 0.644380
O O15 0.132269 0.749257 0.730315
O O16 0.126589 0.801669 0.569867
O O17 0.177914 0.000000 0.668681
O O18 0.572493 0.500000 0.263288
O O19 0.500000 0.818818 0.500000
O O20 0.411340 0.000000 0.459474
#
# Coordination Sequence:
#
# PCOD9407710 Si02
#       7
#     8   8   8   8   8   8   8
#     4  10  21  37  58  85 118 156 198 244 294 352
#     4  10  21  38  60  85 116 154 194 240 298 359
#     4  11  23  37  59  89 121 156 197 244 296 357
#     4  11  24  40  61  89 119 155 202 251 297 352
#     4  10  22  41  64  90 120 157 204 254 302 357
#     4  11  24  40  60  87 120 159 198 244 301 359
#     4  10  20  37  62  88 117 156 198 244 298 356
#
# _framework density 19.753086
#
# number of rings (size 3 to 8) (size 9 to 14) (size 15 to 20)
#    0.000    1.571    1.429    3.000    0.000    9.143 
#    0.000    1.429    0.000    0.000    0.000    0.000 
#    0.000    0.000    0.000    0.000    0.000    0.000 
#
# Total GULP energy -312155.258950 kJ/mol
# GULP energy per Si atom -5574.201053 kJ/mol
# Density = 1.970813 g / cm^3
# Si number density = 19.753086 Si / 1000 Ang^3
#
#
#
# Elastic Constant Matrix: (Units=GPa)
#
#
# Indices 1 2 3 4 5 6 
#
# 1 94.1387 11.3235 10.6285 0.0000 0.0000 0.0000
# 2 11.3235 -31.9011 -2.5519 0.0000 0.0000 0.0000
# 3 10.6285 -2.5519 27.1271 0.0000 0.0000 0.0000
# 4 0.0000 0.0000 0.0000 37.9787 0.0000 0.0000
# 5 0.0000 0.0000 0.0000 0.0000 27.9528 0.0000
# 6 0.0000 0.0000 0.0000 0.0000 0.0000 28.8129
#
#
#
# Elastic Compliance Matrix: (Units=1/GPa)
#
#
# Indices 1 2 3 4 5 6 
#
# 1 0.010560 0.004049 -0.003756 0.000000 0.000000 0.000000
# 2 0.004049 -0.029560 -0.004367 0.000000 0.000000 0.000000
# 3 -0.003756 -0.004367 0.037925 0.000000 0.000000 0.000000
# 4 0.000000 0.000000 0.000000 0.026331 0.000000 0.000000
# 5 0.000000 0.000000 0.000000 0.000000 0.035775 0.000000
# 6 0.000000 0.000000 0.000000 0.000000 0.000000 0.034707
#
#
# Mechanical properties :
#
#
# Convention : Reuss Voigt Hill
#
# Bulk Modulus (GPa) = 92.81431 14.24055 53.52743
# Shear Modulus (GPa) = 39.22281 23.61316 31.41799
#
# Velocity S-wave (km/s) = 4.46090 3.46123 3.99248
# Velocity P-wave (km/s) = 8.58033 4.81647 6.95775
#
# Compressibility (1/GPa) = 0.01077420
#
# Stress axis : x y z
#
# Youngs Moduli (GPa) = 94.69934 -33.82908 26.36817
#
# Poissons Ratio (x) = 0.13697 0.09905
# Poissons Ratio (y) = -0.38341 0.11515
# Poissons Ratio (z) = 0.35574 -0.14773
#
# Static dielectric constant tensor:
#      x y z
#    x 1.682470 0.000000 0.000000 
#    y 0.000000 1.659330 0.000000 
#    z 0.000000 0.000000 1.803360 
# 
# From -- ./inp_files/25723.got.cif
#   From: 2010.05.17/outbox.ucp.g08.bks.cvg/sg51_13_cif.got.tgz:25723.got - 2010.06.11 16:27:58.
