data_PCOD9407154
_publ_section_title
;
Structure prediction by ZEFSAII (Michael W. Deem and Ramdas Pophale) SiO2 
 PCOD9407154
Probable space group: P M M A
;
_chemical_formula_sum "Si O2"
_cell_formula_units_Z 32
_cell_length_a 15.133611
_cell_length_b 8.047703
_cell_length_c 13.128287
_cell_angle_alpha 90.000000
_cell_angle_beta 90.000000
_cell_angle_gamma 90.000000
_cell_volume 1598.904664
_symmetry_space_group_name_H-M "P M M A"
_symmetry_group_IT_number 51
_symmetry_cell_setting 'orthorhombic'
loop_
_space_group_symop_operation_xyz
x,y,z
1/2-x,-y,z
1/2+x,-y,-z
-x,y,-z
-x,-y,-z
1/2+x,y,-z
1/2-x,y,z
x,-y,z
loop_
_atom_site_type_symbol
_atom_site_label
_atom_site_fract_x
_atom_site_fract_y
_atom_site_fract_z
Si Si1 0.351370 0.000000 0.841124
Si Si2 0.154914 0.000000 0.599678
Si Si3 0.147731 0.799458 0.257507
Si Si4 0.896801 0.677837 0.514587
Si Si5 0.980710 0.688918 0.120184
O O1 0.343760 0.000000 0.719738
O O2 0.407735 0.834017 0.866042
O O3 0.250000 0.000000 0.883160
O O4 0.117791 0.171195 0.561031
O O5 0.250000 0.000000 0.549404
O O6 0.250000 0.757563 0.228754
O O7 0.129110 0.729707 0.370786
O O8 0.070478 0.733687 0.182688
O O9 0.140869 0.000000 0.260625
O O10 0.853838 0.500000 0.490033
O O11 0.000000 0.656362 0.500000
O O12 0.953099 0.500000 0.150603
O O13 0.000000 0.686388 0.000000
#
# Coordination Sequence:
#
# PCOD9407154 Si02
#       5
#     4   4   8   8   8
#     4  11  25  44  68  96 133 174 220 276 330 394
#     4  11  23  38  57  86 122 164 208 254 306 372
#     4  11  23  40  67 100 133 173 223 278 335 398
#     4  11  23  38  60  90 127 171 215 263 320 382
#     4  11  25  46  70  97 131 171 219 276 341 407
#
# _framework density 20.0137
#
# number of rings (size 3 to 8) (size 9 to 14) (size 15 to 20)
#    0.000    1.000    2.500    3.750    0.000    8.000 
#    0.000    5.000    0.000    0.000    0.000    0.000 
#    0.000    0.000    0.000    0.000    0.000    0.000 
#
# Total GULP energy -178443.753271 kJ/mol
# GULP energy per Si atom -5576.367290 kJ/mol
# Density = 1.996815 g / cm^3
# Si number density = 20.013700 Si / 1000 Ang^3
#
#
#
# Elastic Constant Matrix: (Units=GPa)
#
#
# Indices 1 2 3 4 5 6 
#
# 1 143.8841 76.2752 16.9045 0.0000 0.0000 0.0000
# 2 76.2752 194.5157 32.6380 0.0000 0.0000 0.0000
# 3 16.9045 32.6380 61.1278 0.0000 0.0000 0.0000
# 4 0.0000 0.0000 0.0000 57.1151 0.0000 0.0000
# 5 0.0000 0.0000 0.0000 0.0000 3.9977 0.0000
# 6 0.0000 0.0000 0.0000 0.0000 0.0000 -417.4770
#
#
#
# Elastic Compliance Matrix: (Units=1/GPa)
#
#
# Indices 1 2 3 4 5 6 
#
# 1 0.008797 -0.003341 -0.000649 0.000000 0.000000 0.000000
# 2 -0.003341 0.006916 -0.002769 0.000000 0.000000 0.000000
# 3 -0.000649 -0.002769 0.018017 0.000000 0.000000 0.000000
# 4 0.000000 0.000000 0.000000 0.017509 0.000000 0.000000
# 5 0.000000 0.000000 0.000000 0.000000 0.250145 0.000000
# 6 0.000000 0.000000 0.000000 0.000000 0.000000 -0.002395
#
#
# Mechanical properties :
#
#
# Convention : Reuss Voigt Hill
#
# Bulk Modulus (GPa) = 49.47339 72.35146 60.91243
# Shear Modulus (GPa) = 15.66211 -53.02551 -18.68170
#
# Velocity S-wave (km/s) = 2.80048 -5.15288 -3.05855
# Velocity P-wave (km/s) = 5.93551 0.90918 4.24600
#
# Compressibility (1/GPa) = 0.02021288
#
# Stress axis : x y z
#
# Youngs Moduli (GPa) = 113.67139 144.60235 55.50353
#
# Poissons Ratio (x) = 0.48308 0.03603
# Poissons Ratio (y) = 0.37975 0.15366
# Poissons Ratio (z) = 0.07378 0.40034
#
# Static dielectric constant tensor:
#      x y z
#    x 1.735010 0.000000 0.000000 
#    y 0.000000 1.591160 0.000000 
#    z 0.000000 0.000000 1.665860 
# 
# From -- ./inp_files/15982.got.cif
#   From: 2010.05.17/outbox.cif.g08.bks.cpg/sg51_8_cif.got.tgz:15982.got - 2010.06.03 11:52:47.
