data_PCOD9407453
_publ_section_title
;
Structure prediction by ZEFSAII (Michael W. Deem and Ramdas Pophale) SiO2 
 PCOD9407453
Probable space group: P M M A
;
_chemical_formula_sum "Si O2"
_cell_formula_units_Z 56
_cell_length_a 21.000000
_cell_length_b 9.000000
_cell_length_c 15.000000
_cell_angle_alpha 90.000000
_cell_angle_beta 90.000000
_cell_angle_gamma 90.000000
_cell_volume 2835.000000
_symmetry_space_group_name_H-M "P M M A"
_symmetry_group_IT_number 51
_symmetry_cell_setting 'orthorhombic'
loop_
_space_group_symop_operation_xyz
x,y,z
1/2-x,-y,z
1/2+x,-y,-z
-x,y,-z
-x,-y,-z
1/2+x,y,-z
1/2-x,y,z
x,-y,z
loop_
_atom_site_type_symbol
_atom_site_label
_atom_site_fract_x
_atom_site_fract_y
_atom_site_fract_z
Si Si1 0.589921 0.676409 0.724358
Si Si2 0.376114 0.178746 0.647262
Si Si3 0.928047 0.827641 0.536225
Si Si4 0.750000 0.839346 0.123725
Si Si5 0.385778 0.168370 0.974273
Si Si6 0.750000 0.330533 0.288697
Si Si7 0.679409 0.677476 0.870149
Si Si8 0.970157 0.820721 0.191535
O O1 0.582581 0.500000 0.723161
O O2 0.581252 0.739660 0.626281
O O3 0.656950 0.714094 0.770531
O O4 0.536721 0.747135 0.787810
O O5 0.389830 0.232906 0.547958
O O6 0.310755 0.245037 0.677581
O O7 0.427177 0.219880 0.722660
O O8 0.375833 0.000000 0.644269
O O9 0.000000 0.825579 0.500000
O O10 0.911671 0.000000 0.553520
O O11 0.815986 0.839085 0.071230
O O12 0.750000 0.693573 0.183079
O O13 0.750000 0.000000 0.174518
O O14 0.435261 0.223996 0.899975
O O15 0.404644 0.000000 0.999164
O O16 0.372464 0.264135 0.060585
O O17 0.750000 0.500000 0.314871
O O18 0.750000 0.737552 0.889188
O O19 0.681596 0.500000 0.878220
O O20 0.975130 0.000000 0.189912
#
# Coordination Sequence:
#
# PCOD9407453 Si02
#       8
#     8   8   8   4   8   4   8   8
#     4  11  24  40  60  87 120 155 194 244 297 352
#     4  10  20  38  61  83 118 160 196 242 298 356
#     4  10  20  39  66  89 111 149 198 244 296 353
#     4  10  18  34  56  81 116 155 196 237 286 344
#     4  10  20  35  61  90 114 148 196 246 287 333
#     4  12  24  34  52  87 126 159 196 241 292 354
#     4  10  23  43  62  81 115 162 200 236 291 350
#     4  10  20  37  61  89 121 155 191 239 296 352
#
# _framework density 19.753086
#
# number of rings (size 3 to 8) (size 9 to 14) (size 15 to 20)
#    0.000    1.714    3.571    1.071    0.000    4.286 
#    1.286    2.857    0.000    0.000    0.000    0.000 
#    0.000    0.000    0.000    0.000    0.000    0.000 
#
# Total GULP energy -312247.322023 kJ/mol
# GULP energy per Si atom -5575.845036 kJ/mol
# Density = 1.970813 g / cm^3
# Si number density = 19.753086 Si / 1000 Ang^3
#
#
#
# Elastic Constant Matrix: (Units=GPa)
#
#
# Indices 1 2 3 4 5 6 
#
# 1 50.2488 32.9467 50.1672 0.0000 0.0000 0.0000
# 2 32.9467 -12.5662 38.0971 0.0000 0.0000 0.0000
# 3 50.1672 38.0971 126.4523 0.0000 0.0000 0.0000
# 4 0.0000 0.0000 0.0000 25.7071 0.0000 0.0000
# 5 0.0000 0.0000 0.0000 0.0000 56.3821 0.0000
# 6 0.0000 0.0000 0.0000 0.0000 0.0000 15.9559
#
#
#
# Elastic Compliance Matrix: (Units=1/GPa)
#
#
# Indices 1 2 3 4 5 6 
#
# 1 0.022951 0.017022 -0.014233 0.000000 0.000000 0.000000
# 2 0.017022 -0.028966 0.001974 0.000000 0.000000 0.000000
# 3 -0.014233 0.001974 0.012960 0.000000 0.000000 0.000000
# 4 0.000000 0.000000 0.000000 0.038900 0.000000 0.000000
# 5 0.000000 0.000000 0.000000 0.000000 0.017736 0.000000
# 6 0.000000 0.000000 0.000000 0.000000 0.000000 0.062673
#
#
# Mechanical properties :
#
#
# Convention : Reuss Voigt Hill
#
# Bulk Modulus (GPa) = 60.72035 45.17299 52.94667
# Shear Modulus (GPa) = 40.91028 22.47062 31.69045
#
# Velocity S-wave (km/s) = 4.55585 3.37645 4.00975
# Velocity P-wave (km/s) = 7.64727 6.17406 6.94982
#
# Compressibility (1/GPa) = 0.01646894
#
# Stress axis : x y z
#
# Youngs Moduli (GPa) = 43.57174 -34.52303 77.15898
#
# Poissons Ratio (x) = 0.58764 1.09824
# Poissons Ratio (y) = -0.74166 -0.15230
# Poissons Ratio (z) = 0.62017 0.06814
#
# Static dielectric constant tensor:
#      x y z
#    x 1.718950 0.000000 0.000000 
#    y 0.000000 1.675560 0.000000 
#    z 0.000000 0.000000 1.528380 
# 
# From -- ./inp_files/25876.got.cif
#   From: 2010.05.17/outbox.ucp.g08.bks.cvg/sg51_13_cif.got.tgz:25876.got - 2010.06.11 16:27:58.
