data_PCOD9407627
_publ_section_title
;
Structure prediction by ZEFSAII (Michael W. Deem and Ramdas Pophale) SiO2 
 PCOD9407627
Probable space group: P M M A
;
_chemical_formula_sum "Si O2"
_cell_formula_units_Z 56
_cell_length_a 9.000000
_cell_length_b 21.000000
_cell_length_c 15.000000
_cell_angle_alpha 90.000000
_cell_angle_beta 90.000000
_cell_angle_gamma 90.000000
_cell_volume 2835.000000
_symmetry_space_group_name_H-M "P M M A"
_symmetry_group_IT_number 51
_symmetry_cell_setting 'orthorhombic'
loop_
_space_group_symop_operation_xyz
x,y,z
1/2-x,-y,z
1/2+x,-y,-z
-x,y,-z
-x,-y,-z
1/2+x,y,-z
1/2-x,y,z
x,-y,z
loop_
_atom_site_type_symbol
_atom_site_label
_atom_site_fract_x
_atom_site_fract_y
_atom_site_fract_z
Si Si1 0.086155 0.923838 0.087893
Si Si2 0.426880 0.857112 0.595252
Si Si3 0.928362 0.575286 0.592219
Si Si4 0.427452 0.000000 0.596423
Si Si5 0.928957 0.378321 0.783555
Si Si6 0.421684 0.274609 0.904884
Si Si7 0.421749 0.845401 0.780813
Si Si8 0.427925 0.500000 0.096980
O O1 0.250000 0.896138 0.083857
O O2 0.011744 0.903486 0.179112
O O3 0.092633 0.000000 0.084309
O O4 0.000000 0.902697 0.000000
O O5 0.500000 0.843625 0.500000
O O6 0.250000 0.852938 0.580493
O O7 0.467158 0.929237 0.628200
O O8 0.469491 0.818521 0.684187
O O9 0.750000 0.580090 0.585826
O O10 0.964009 0.500000 0.602997
O O11 0.977867 0.610999 0.681657
O O12 0.000000 0.597789 0.500000
O O13 0.500000 0.000000 0.500000
O O14 0.250000 0.000000 0.592231
O O15 0.750000 0.373178 0.782741
O O16 0.968423 0.439205 0.843837
O O17 0.000396 0.320016 0.833985
O O18 0.250000 0.292785 0.916281
O O19 0.429802 0.206189 0.858576
O O20 0.500000 0.276739 0.000000
O O21 0.250000 0.864525 0.770098
O O22 0.250000 0.500000 0.085841
O O23 0.500000 0.500000 0.000000
#
# Coordination Sequence:
#
# PCOD9407627 Si02
#       8
#     8   8   8   4   8   8   8   4
#     4  10  21  36  55  82 112 141 178 228 283 339
#     4   9  18  33  53  79 108 142 180 224 275 328
#     4   9  17  32  55  84 118 153 188 229 277 330
#     4   8  14  26  46  72 101 132 167 208 261 320
#     4  10  20  37  59  83 114 151 187 231 282 335
#     4  11  24  41  59  82 111 147 192 238 280 335
#     4  10  22  38  58  81 109 147 189 232 279 333
#     4  10  20  34  53  80 112 142 179 228 283 336
#
# _framework density 19.753086
#
# number of rings (size 3 to 8) (size 9 to 14) (size 15 to 20)
#    0.000    2.286    0.714    1.714    1.000    6.000 
#    0.000    0.714    0.000    3.429    0.000    0.000 
#    0.000    0.000    0.000    0.000    0.000    0.000 
#
# Total GULP energy -311924.565237 kJ/mol
# GULP energy per Si atom -5570.081522 kJ/mol
# Density = 1.970813 g / cm^3
# Si number density = 19.753086 Si / 1000 Ang^3
#
#
#
# Elastic Constant Matrix: (Units=GPa)
#
#
# Indices 1 2 3 4 5 6 
#
# 1 31.5268 24.5559 72.9879 0.0000 0.0000 0.0000
# 2 24.5559 8.5984 24.1684 0.0000 0.0000 0.0000
# 3 72.9879 24.1684 214.9734 0.0000 0.0000 0.0000
# 4 0.0000 0.0000 0.0000 11.0195 0.0000 0.0000
# 5 0.0000 0.0000 0.0000 0.0000 30.9510 0.0000
# 6 0.0000 0.0000 0.0000 0.0000 0.0000 -15.6176
#
#
#
# Elastic Compliance Matrix: (Units=1/GPa)
#
#
# Indices 1 2 3 4 5 6 
#
# 1 -0.025834 0.071820 0.000697 0.000000 0.000000 0.000000
# 2 0.071820 -0.029632 -0.021053 0.000000 0.000000 0.000000
# 3 0.000697 -0.021053 0.006782 0.000000 0.000000 0.000000
# 4 0.000000 0.000000 0.000000 0.090748 0.000000 0.000000
# 5 0.000000 0.000000 0.000000 0.000000 0.032309 0.000000
# 6 0.000000 0.000000 0.000000 0.000000 0.000000 -0.064030
#
#
# Mechanical properties :
#
#
# Convention : Reuss Voigt Hill
#
# Bulk Modulus (GPa) = 18.43530 55.39145 36.91338
# Shear Modulus (GPa) = -67.11176 14.16299 -26.47439
#
# Velocity S-wave (km/s) = -5.83516 2.68059 -3.66494
# Velocity P-wave (km/s) = 6.00380 6.13869 0.90496
#
# Compressibility (1/GPa) = 0.05424376
#
# Stress axis : x y z
#
# Youngs Moduli (GPa) = -38.70881 -33.74768 147.44798
#
# Poissons Ratio (x) = 2.42375 -0.10274
# Poissons Ratio (y) = 2.78006 3.10422
# Poissons Ratio (z) = 0.02697 -0.71049
#
# Static dielectric constant tensor:
#      x y z
#    x 1.705850 0.000000 0.000000 
#    y 0.000000 1.891240 0.000000 
#    z 0.000000 0.000000 1.730640 
# 
# From -- ./inp_files/21945.got.cif
#   From: 2010.05.17/outbox.ucp.g08.bks.cvg/sg51_11_cif.got.tgz:21945.got - 2010.06.11 16:27:58.
