data_PCOD9407664
_publ_section_title
;
Structure prediction by ZEFSAII (Michael W. Deem and Ramdas Pophale) SiO2 
 PCOD9407664
Probable space group: P M M A
;
_chemical_formula_sum "Si O2"
_cell_formula_units_Z 44
_cell_length_a 9.000000
_cell_length_b 30.000000
_cell_length_c 9.000000
_cell_angle_alpha 90.000000
_cell_angle_beta 90.000000
_cell_angle_gamma 90.000000
_cell_volume 2430.000000
_symmetry_space_group_name_H-M "P M M A"
_symmetry_group_IT_number 51
_symmetry_cell_setting 'orthorhombic'
loop_
_space_group_symop_operation_xyz
x,y,z
1/2-x,-y,z
1/2+x,-y,-z
-x,y,-z
-x,-y,-z
1/2+x,y,-z
1/2-x,y,z
x,-y,z
loop_
_atom_site_type_symbol
_atom_site_label
_atom_site_fract_x
_atom_site_fract_y
_atom_site_fract_z
Si Si1 0.428579 0.769741 0.161833
Si Si2 0.928150 0.682401 0.661414
Si Si3 0.429480 0.500000 0.837356
Si Si4 0.927920 0.950171 0.337193
Si Si5 0.429458 0.417084 0.335419
Si Si6 0.571416 0.131664 0.836707
O O1 0.250000 0.767541 0.148250
O O2 0.479273 0.725902 0.249420
O O3 0.462550 0.818825 0.228788
O O4 0.500000 0.768500 0.000000
O O5 0.750000 0.685035 0.647104
O O6 0.959979 0.633001 0.725997
O O7 0.000000 0.683829 0.500000
O O8 0.250000 0.500000 0.839460
O O9 0.492451 0.456146 0.755594
O O10 0.500000 0.500000 0.000000
O O11 0.750000 0.944589 0.346225
O O12 0.000000 0.949824 0.500000
O O13 0.000673 0.909582 0.249333
O O14 0.956578 0.000000 0.272855
O O15 0.500000 0.418436 0.500000
O O16 0.250000 0.423361 0.341252
O O17 0.750000 0.127017 0.844315
O O18 0.500000 0.131445 0.000000
#
# Coordination Sequence:
#
# PCOD9407664 Si02
#       6
#     8   8   4   8   8   8
#     4   9  19  35  53  77 107 140 176 215 261 311
#     4   9  19  35  55  80 109 139 176 218 259 308
#     4  12  25  40  57  80 110 142 178 222 269 318
#     4  10  21  37  56  78 105 137 174 217 266 318
#     4  10  20  37  59  82 109 143 181 220 263 314
#     4  10  20  35  55  78 107 141 179 220 262 313
#
# _framework density 18.106995999999999
#
# number of rings (size 3 to 8) (size 9 to 14) (size 15 to 20)
#    0.000    2.182    0.000    2.727    0.000    5.091 
#    0.000    3.636    0.000    0.000    0.000    0.000 
#    0.000    0.000    0.000    0.000    0.000    0.000 
#
# Total GULP energy -245326.175432 kJ/mol
# GULP energy per Si atom -5575.594896 kJ/mol
# Density = 1.806578 g / cm^3
# Si number density = 18.106996 Si / 1000 Ang^3
#
#
#
# Elastic Constant Matrix: (Units=GPa)
#
#
# Indices 1 2 3 4 5 6 
#
# 1 83.1796 79.7762 29.8494 0.0000 0.0000 0.0000
# 2 79.7762 227.6618 85.5209 0.0000 0.0000 0.0000
# 3 29.8494 85.5209 58.4920 0.0000 0.0000 0.0000
# 4 0.0000 0.0000 0.0000 45.7463 0.0000 0.0000
# 5 0.0000 0.0000 0.0000 0.0000 29.5073 0.0000
# 6 0.0000 0.0000 0.0000 0.0000 0.0000 33.0721
#
#
#
# Elastic Compliance Matrix: (Units=1/GPa)
#
#
# Indices 1 2 3 4 5 6 
#
# 1 0.018108 -0.006376 0.000081 0.000000 0.000000 0.000000
# 2 -0.006376 0.011989 -0.014276 0.000000 0.000000 0.000000
# 3 0.000081 -0.014276 0.037928 0.000000 0.000000 0.000000
# 4 0.000000 0.000000 0.000000 0.021860 0.000000 0.000000
# 5 0.000000 0.000000 0.000000 0.000000 0.033890 0.000000
# 6 0.000000 0.000000 0.000000 0.000000 0.000000 0.030237
#
#
# Mechanical properties :
#
#
# Convention : Reuss Voigt Hill
#
# Bulk Modulus (GPa) = 37.19670 84.40294 60.79982
# Shear Modulus (GPa) = 24.49607 33.27759 28.88683
#
# Velocity S-wave (km/s) = 3.68210 4.29164 3.99850
# Velocity P-wave (km/s) = 6.21808 8.44229 7.41407
#
# Compressibility (1/GPa) = 0.02688410
#
# Stress axis : x y z
#
# Youngs Moduli (GPa) = 55.22427 83.40658 26.36588
#
# Poissons Ratio (x) = 0.53179 -0.00214
# Poissons Ratio (y) = 0.35210 0.37640
# Poissons Ratio (z) = -0.00449 1.19072
#
# Static dielectric constant tensor:
#      x y z
#    x 1.594070 0.000000 0.000000 
#    y 0.000000 1.664230 0.000000 
#    z 0.000000 0.000000 1.614000 
# 
# From -- ./inp_files/5853.got.cif
#   From: 2010.05.17/outbox.ucp.g08.bks.cvg/sg51_3_cif.got.tgz:5853.got - 2010.06.11 16:27:58.
