data_PCOD9407727
_publ_section_title
;
Structure prediction by ZEFSAII (Michael W. Deem and Ramdas Pophale) SiO2 
 PCOD9407727
Probable space group: P M M A
;
_chemical_formula_sum "Si O2"
_cell_formula_units_Z 40
_cell_length_a 9.000000
_cell_length_b 27.000000
_cell_length_c 9.000000
_cell_angle_alpha 90.000000
_cell_angle_beta 90.000000
_cell_angle_gamma 90.000000
_cell_volume 2187.000000
_symmetry_space_group_name_H-M "P M M A"
_symmetry_group_IT_number 51
_symmetry_cell_setting 'orthorhombic'
loop_
_space_group_symop_operation_xyz
x,y,z
1/2-x,-y,z
1/2+x,-y,-z
-x,y,-z
-x,-y,-z
1/2+x,y,-z
1/2-x,y,z
x,-y,z
loop_
_atom_site_type_symbol
_atom_site_label
_atom_site_fract_x
_atom_site_fract_y
_atom_site_fract_z
Si Si1 0.429350 0.149380 0.659002
Si Si2 0.928617 0.647928 0.161168
Si Si3 0.071417 0.446617 0.661229
Si Si4 0.428242 0.755024 0.838586
Si Si5 0.428306 0.053827 0.838670
O O1 0.500000 0.149722 0.500000
O O2 0.250000 0.149420 0.650961
O O3 0.478202 0.198343 0.745178
O O4 0.478160 0.100086 0.743520
O O5 0.750000 0.644886 0.148073
O O6 0.982860 0.600707 0.250222
O O7 0.964929 0.701455 0.230415
O O8 0.000000 0.647181 0.000000
O O9 0.250000 0.443631 0.647596
O O10 0.035841 0.500000 0.732332
O O11 0.000000 0.445956 0.500000
O O12 0.250000 0.757517 0.854374
O O13 0.500000 0.757325 0.000000
O O14 0.250000 0.056340 0.853909
O O15 0.465997 0.000000 0.772685
O O16 0.500000 0.056636 0.000000
#
# Coordination Sequence:
#
# PCOD9407727 Si02
#       5
#     8   8   8   8   8
#     4  10  21  34  48  70  99 127 156 192 233 276
#     4   9  18  32  49  70  95 121 152 192 235 276
#     4   9  18  32  48  67  93 124 156 190 229 274
#     4   9  18  33  51  70  93 122 156 193 232 276
#     4   9  18  33  52  73  96 123 157 195 233 275
#
# _framework density 18.289895000000001
#
# number of rings (size 3 to 8) (size 9 to 14) (size 15 to 20)
#    0.000    2.800    0.000    0.600    0.000    4.000 
#    0.000    0.000    0.000    0.000    0.000    0.000 
#    0.000    0.000    0.000    0.000    0.000    0.000 
#
# Total GULP energy -222717.083269 kJ/mol
# GULP energy per Si atom -5567.927082 kJ/mol
# Density = 1.824827 g / cm^3
# Si number density = 18.289895 Si / 1000 Ang^3
#
#
#
# Elastic Constant Matrix: (Units=GPa)
#
#
# Indices 1 2 3 4 5 6 
#
# 1 -16.3517 33.2024 8.2788 0.0000 0.0000 0.0000
# 2 33.2024 233.5062 102.0837 0.0000 0.0000 0.0000
# 3 8.2788 102.0837 62.7297 0.0000 0.0000 0.0000
# 4 0.0000 0.0000 0.0000 39.8702 0.0000 0.0000
# 5 0.0000 0.0000 0.0000 0.0000 26.5392 0.0000
# 6 0.0000 0.0000 0.0000 0.0000 0.0000 17.5279
#
#
#
# Elastic Compliance Matrix: (Units=1/GPa)
#
#
# Indices 1 2 3 4 5 6 
#
# 1 -0.043063 0.012610 -0.014837 0.000000 0.000000 0.000000
# 2 0.012610 0.011149 -0.019808 0.000000 0.000000 0.000000
# 3 -0.014837 -0.019808 0.050134 0.000000 0.000000 0.000000
# 4 0.000000 0.000000 0.000000 0.025081 0.000000 0.000000
# 5 0.000000 0.000000 0.000000 0.000000 0.037680 0.000000
# 6 0.000000 0.000000 0.000000 0.000000 0.000000 0.057052
#
#
# Mechanical properties :
#
#
# Convention : Reuss Voigt Hill
#
# Bulk Modulus (GPa) = -38.68313 63.00156 12.15922
# Shear Modulus (GPa) = 28.82087 25.87542 27.34815
#
# Velocity S-wave (km/s) = 3.97392 3.76538 3.87105
# Velocity P-wave (km/s) = 0.37402 7.30924 5.16164
#
# Compressibility (1/GPa) = -0.02585106
#
# Stress axis : x y z
#
# Youngs Moduli (GPa) = -23.22154 89.69435 19.94672
#
# Poissons Ratio (x) = -1.13102 0.29595
# Poissons Ratio (y) = 0.29282 0.39510
# Poissons Ratio (z) = -0.34454 1.77663
#
# Static dielectric constant tensor:
#      x y z
#    x 1.596180 0.000000 0.000000 
#    y 0.000000 1.702750 0.000000 
#    z 0.000000 0.000000 1.568620 
# 
# From -- ./inp_files/886.got.cif
#   From: 2010.05.17/outbox.ucp.g08.bks.cvg/sg51_1_cif.got.tgz:886.got - 2010.06.11 16:27:58.
