data_PCOD9407240
_publ_section_title
;
Structure prediction by ZEFSAII (Michael W. Deem and Ramdas Pophale) SiO2 
 PCOD9407240
Probable space group: P M M A
;
_chemical_formula_sum "Si O2"
_cell_formula_units_Z 48
_cell_length_a 9.333893
_cell_length_b 7.360878
_cell_length_c 33.104418
_cell_angle_alpha 90.000000
_cell_angle_beta 90.000000
_cell_angle_gamma 90.000000
_cell_volume 2274.460478
_symmetry_space_group_name_H-M "P M M A"
_symmetry_group_IT_number 51
_symmetry_cell_setting 'orthorhombic'
loop_
_space_group_symop_operation_xyz
x,y,z
1/2-x,-y,z
1/2+x,-y,-z
-x,y,-z
-x,-y,-z
1/2+x,y,-z
1/2-x,y,z
x,-y,z
loop_
_atom_site_type_symbol
_atom_site_label
_atom_site_fract_x
_atom_site_fract_y
_atom_site_fract_z
Si Si1 0.914949 0.221742 0.039946
Si Si2 0.414644 0.778229 0.119700
Si Si3 0.583503 0.777911 0.199061
Si Si4 0.575687 0.214120 0.287306
Si Si5 0.087490 0.716255 0.538117
Si Si6 0.085139 0.782109 0.626203
O O1 0.750000 0.279542 0.039221
O O2 0.995260 0.279258 0.080657
O O3 0.914932 0.000000 0.039933
O O4 0.000000 0.279136 0.000000
O O5 0.250000 0.721134 0.117024
O O6 0.488874 0.719821 0.161320
O O7 0.415790 0.000000 0.119764
O O8 0.750000 0.725863 0.193593
O O9 0.532317 0.713910 0.243389
O O10 0.581897 0.000000 0.199852
O O11 0.750000 0.228137 0.288146
O O12 0.524163 0.285651 0.330869
O O13 0.540425 0.000000 0.286577
O O14 0.250000 0.789781 0.538587
O O15 0.097850 0.500000 0.532995
O O16 0.019263 0.743659 0.582489
O O17 0.000000 0.788161 0.500000
O O18 0.250000 0.714525 0.623743
O O19 0.091053 0.000000 0.629596
#
# Coordination Sequence:
#
# PCOD9407240 Si02
#       6
#     8   8   8   8   8   8
#     4   9  15  21  27  33  42  58  83 118 159 199
#     4   9  15  20  25  34  48  66  88 113 145 190
#     4   8  12  18  28  40  52  66  86 114 148 186
#     4   7  10  17  30  47  63  78 100 131 164 198
#     4   9  17  28  41  57  77 100 125 153 185 220
#     4   8  13  22  37  56  75  95 121 152 184 219
#
# _framework density 21.103905999999998
#
# number of rings (size 3 to 8) (size 9 to 14) (size 15 to 20)
#    0.000    3.667    0.000    3.000    0.000    4.333 
#    0.000    0.000    0.000    1.000    0.000    2.333 
#    0.000    0.000    0.000    0.000    0.000    0.000 
#
# Total GULP energy -267424.253128 kJ/mol
# GULP energy per Si atom -5571.338607 kJ/mol
# Density = 2.105587 g / cm^3
# Si number density = 21.103906 Si / 1000 Ang^3
#
#
#
# Elastic Constant Matrix: (Units=GPa)
#
#
# Indices 1 2 3 4 5 6 
#
# 1 95.9368 3.2202 104.5035 0.0000 0.0000 0.0000
# 2 3.2202 76.8756 7.3319 0.0000 0.0000 0.0000
# 3 104.5035 7.3319 285.5180 0.0000 0.0000 0.0000
# 4 0.0000 0.0000 0.0000 46.8632 0.0000 0.0000
# 5 0.0000 0.0000 0.0000 0.0000 29.6437 0.0000
# 6 0.0000 0.0000 0.0000 0.0000 0.0000 -21.8715
#
#
#
# Elastic Compliance Matrix: (Units=1/GPa)
#
#
# Indices 1 2 3 4 5 6 
#
# 1 0.017336 -0.000121 -0.006342 0.000000 0.000000 0.000000
# 2 -0.000121 0.013041 -0.000290 0.000000 0.000000 0.000000
# 3 -0.006342 -0.000290 0.005831 0.000000 0.000000 0.000000
# 4 0.000000 0.000000 0.000000 0.021339 0.000000 0.000000
# 5 0.000000 0.000000 0.000000 0.000000 0.033734 0.000000
# 6 0.000000 0.000000 0.000000 0.000000 0.000000 -0.045722
#
#
# Mechanical properties :
#
#
# Convention : Reuss Voigt Hill
#
# Bulk Modulus (GPa) = 44.05246 76.49352 60.27299
# Shear Modulus (GPa) = 75.03725 33.81207 54.42466
#
# Velocity S-wave (km/s) = 5.96936 4.00706 5.08379
# Velocity P-wave (km/s) = 8.27227 7.59826 7.94242
#
# Compressibility (1/GPa) = 0.02270021
#
# Stress axis : x y z
#
# Youngs Moduli (GPa) = 57.68333 76.68238 171.49233
#
# Poissons Ratio (x) = 0.00930 1.08762
# Poissons Ratio (y) = 0.00700 0.04982
# Poissons Ratio (z) = 0.36583 0.02227
#
# Static dielectric constant tensor:
#      x y z
#    x 1.710200 0.000000 0.000000 
#    y 0.000000 1.825850 0.000000 
#    z 0.000000 0.000000 1.798360 
# 
# From -- ./inp_files/37309.got.cif
#   From: 2010.05.17/outbox.cif.g08.bks.cpg/sg51_19_cif.got.tgz:37309.got - 2010.06.03 11:52:47.
