data_PCOD9407110
_publ_section_title
;
Structure prediction by ZEFSAII (Michael W. Deem and Ramdas Pophale) SiO2 
 PCOD9407110
Probable space group: P M M A
;
_chemical_formula_sum "Si O2"
_cell_formula_units_Z 48
_cell_length_a 19.604819
_cell_length_b 8.618805
_cell_length_c 15.409221
_cell_angle_alpha 90.000000
_cell_angle_beta 90.000000
_cell_angle_gamma 90.000000
_cell_volume 2603.697799
_symmetry_space_group_name_H-M "P M M A"
_symmetry_group_IT_number 51
_symmetry_cell_setting 'orthorhombic'
loop_
_space_group_symop_operation_xyz
x,y,z
1/2-x,-y,z
1/2+x,-y,-z
-x,y,-z
-x,-y,-z
1/2+x,y,-z
1/2-x,y,z
x,-y,z
loop_
_atom_site_type_symbol
_atom_site_label
_atom_site_fract_x
_atom_site_fract_y
_atom_site_fract_z
Si Si1 0.330280 0.813508 0.427394
Si Si2 0.672337 0.188902 0.374274
Si Si3 0.585050 0.683516 0.730852
Si Si4 0.563390 0.813925 0.231067
Si Si5 0.574431 0.314344 0.038546
Si Si6 0.329581 0.814377 0.108206
O O1 0.250000 0.781961 0.410965
O O2 0.345131 0.766307 0.526818
O O3 0.377262 0.731071 0.357495
O O4 0.339393 0.000000 0.420277
O O5 0.750000 0.239218 0.355489
O O6 0.618220 0.239575 0.302780
O O7 0.672744 0.000000 0.374030
O O8 0.574767 0.500000 0.735614
O O9 0.512256 0.766192 0.739994
O O10 0.632227 0.737007 0.810815
O O11 0.577959 0.741072 0.137348
O O12 0.567234 0.000000 0.223921
O O13 0.580541 0.500000 0.033844
O O14 0.500000 0.271448 0.000000
O O15 0.631767 0.237765 0.978618
O O16 0.250000 0.771056 0.106486
O O17 0.334313 0.000000 0.117450
#
# Coordination Sequence:
#
# PCOD9407110 Si02
#       6
#     8   8   8   8   8   8
#     4   9  18  36  61  85 113 151 194 240 290 345
#     4   8  17  36  61  88 115 146 191 245 293 339
#     4  12  24  37  55  84 122 158 193 237 292 352
#     4  11  22  37  62  89 116 153 197 244 290 344
#     4  11  23  40  61  86 119 157 192 234 293 356
#     4  11  24  41  63  90 116 149 198 247 289 343
#
# _framework density 18.435317999999999
#
# number of rings (size 3 to 8) (size 9 to 14) (size 15 to 20)
#    0.000    1.667    1.667    4.500    0.000    5.667 
#    0.000    6.667    0.000    3.500    0.000    0.000 
#    0.000    0.000    0.000    0.000    0.000    0.000 
#
# Total GULP energy -268234.343884 kJ/mol
# GULP energy per Si atom -5588.215498 kJ/mol
# Density = 1.839336 g / cm^3
# Si number density = 18.435318 Si / 1000 Ang^3
#
#
#
# Elastic Constant Matrix: (Units=GPa)
#
#
# Indices 1 2 3 4 5 6 
#
# 1 82.0421 -2.6118 52.0301 0.0000 0.0000 0.0000
# 2 -2.6118 13.4494 -3.7055 0.0000 0.0000 0.0000
# 3 52.0301 -3.7055 117.4277 0.0000 0.0000 0.0000
# 4 0.0000 0.0000 0.0000 -236.5795 0.0000 0.0000
# 5 0.0000 0.0000 0.0000 0.0000 58.8579 0.0000
# 6 0.0000 0.0000 0.0000 0.0000 0.0000 -9.1758
#
#
#
# Elastic Compliance Matrix: (Units=1/GPa)
#
#
# Indices 1 2 3 4 5 6 
#
# 1 0.016973 0.001235 -0.007481 0.000000 0.000000 0.000000
# 2 0.001235 0.075094 0.001823 0.000000 0.000000 0.000000
# 3 -0.007481 0.001823 0.011888 0.000000 0.000000 0.000000
# 4 0.000000 0.000000 0.000000 -0.004227 0.000000 0.000000
# 5 0.000000 0.000000 0.000000 0.000000 0.016990 0.000000
# 6 0.000000 0.000000 0.000000 0.000000 0.000000 -0.108982
#
#
# Mechanical properties :
#
#
# Convention : Reuss Voigt Hill
#
# Bulk Modulus (GPa) = 10.51443 33.81610 22.16527
# Shear Modulus (GPa) = 103.54736 -26.23238 38.65749
#
# Velocity S-wave (km/s) = 7.50266 -3.77628 4.58419
# Velocity P-wave (km/s) = 8.98715 0.79424 6.33001
#
# Compressibility (1/GPa) = 0.09510736
#
# Stress axis : x y z
#
# Youngs Moduli (GPa) = 58.91797 13.31656 84.11678
#
# Poissons Ratio (x) = -0.01644 0.62931
# Poissons Ratio (y) = -0.07275 -0.15331
# Poissons Ratio (z) = 0.44079 -0.02427
#
# Static dielectric constant tensor:
#      x y z
#    x 1.611400 0.000000 0.000000 
#    y 0.000000 1.618220 0.000000 
#    z 0.000000 0.000000 1.611980 
# 
# From -- ./inp_files/24799.got.cif
#   From: 2010.05.17/outbox.cif.g08.bks.cpg/sg51_13_cif.got.tgz:24799.got - 2010.06.03 11:52:47.
