data_PCOD9407718
_publ_section_title
;
Structure prediction by ZEFSAII (Michael W. Deem and Ramdas Pophale) SiO2 
 PCOD9407718
Probable space group: P M M A
;
_chemical_formula_sum "Si O2"
_cell_formula_units_Z 64
_cell_length_a 18.000000
_cell_length_b 21.000000
_cell_length_c 9.000000
_cell_angle_alpha 90.000000
_cell_angle_beta 90.000000
_cell_angle_gamma 90.000000
_cell_volume 3402.000000
_symmetry_space_group_name_H-M "P M M A"
_symmetry_group_IT_number 51
_symmetry_cell_setting 'orthorhombic'
loop_
_space_group_symop_operation_xyz
x,y,z
1/2-x,-y,z
1/2+x,-y,-z
-x,y,-z
-x,-y,-z
1/2+x,y,-z
1/2-x,y,z
x,-y,z
loop_
_atom_site_type_symbol
_atom_site_label
_atom_site_fract_x
_atom_site_fract_y
_atom_site_fract_z
Si Si1 0.664715 0.355024 0.023916
Si Si2 0.335575 0.789595 0.916595
Si Si3 0.338337 0.678546 0.494401
Si Si4 0.927353 0.075697 0.601855
Si Si5 0.546514 0.183135 0.851991
Si Si6 0.954738 0.671373 0.771526
Si Si7 0.838876 0.175272 0.398931
Si Si8 0.095704 0.423399 0.720831
O O1 0.750000 0.359774 0.965585
O O2 0.661962 0.286779 0.109857
O O3 0.644665 0.412966 0.131275
O O4 0.596288 0.348698 0.910704
O O5 0.250000 0.807608 0.927826
O O6 0.367401 0.825848 0.772188
O O7 0.373315 0.802893 0.073877
O O8 0.250000 0.675738 0.459571
O O9 0.395964 0.670999 0.361102
O O10 0.353038 0.751512 0.549789
O O11 0.359188 0.618858 0.600175
O O12 0.946900 0.123596 0.739870
O O13 0.871303 0.119677 0.503110
O O14 0.000000 0.071130 0.500000
O O15 0.906073 0.000000 0.634763
O O16 0.520711 0.253693 0.791985
O O17 0.500000 0.167729 0.000000
O O18 0.020232 0.619576 0.745081
O O19 0.750000 0.168376 0.396365
O O20 0.084536 0.500000 0.691325
#
# Coordination Sequence:
#
# PCOD9407718 Si02
#       8
#     8   8   8   8   8   8   8   8
#     4  10  20  38  62  89 123 162 211 265 309 365
#     4   9  18  35  61  92 121 155 207 260 305 359
#     4  11  23  40  65  94 119 161 212 259 315 377
#     4  11  25  41  61  92 129 169 208 253 312 375
#     4  11  22  37  62  92 123 163 210 256 307 363
#     4  11  23  39  63  93 126 161 211 265 315 372
#     4  10  20  39  66  93 123 161 208 258 307 368
#     4  12  26  42  60  89 127 168 210 258 320 388
#
# _framework density 18.812463000000001
#
# number of rings (size 3 to 8) (size 9 to 14) (size 15 to 20)
#    0.000    1.375    2.500    3.750    1.750    4.500 
#    0.000    0.625    0.000    3.000    0.000    0.000 
#    0.000    0.000    0.000    0.000    0.000    0.000 
#
# Total GULP energy -356586.024934 kJ/mol
# GULP energy per Si atom -5571.656640 kJ/mol
# Density = 1.876965 g / cm^3
# Si number density = 18.812463 Si / 1000 Ang^3
#
#
#
# Elastic Constant Matrix: (Units=GPa)
#
#
# Indices 1 2 3 4 5 6 
#
# 1 84.8548 34.7550 17.8685 0.0000 0.0000 0.0000
# 2 34.7550 163.7894 43.9143 0.0000 0.0000 0.0000
# 3 17.8685 43.9143 53.4469 0.0000 0.0000 0.0000
# 4 0.0000 0.0000 0.0000 26.5344 0.0000 0.0000
# 5 0.0000 0.0000 0.0000 0.0000 29.7819 0.0000
# 6 0.0000 0.0000 0.0000 0.0000 0.0000 29.5895
#
#
#
# Elastic Compliance Matrix: (Units=1/GPa)
#
#
# Indices 1 2 3 4 5 6 
#
# 1 0.013206 -0.002076 -0.002709 0.000000 0.000000 0.000000
# 2 -0.002076 0.008157 -0.006008 0.000000 0.000000 0.000000
# 3 -0.002709 -0.006008 0.024552 0.000000 0.000000 0.000000
# 4 0.000000 0.000000 0.000000 0.037687 0.000000 0.000000
# 5 0.000000 0.000000 0.000000 0.000000 0.033577 0.000000
# 6 0.000000 0.000000 0.000000 0.000000 0.000000 0.033796
#
#
# Mechanical properties :
#
#
# Convention : Reuss Voigt Hill
#
# Bulk Modulus (GPa) = 41.10409 55.01853 48.06131
# Shear Modulus (GPa) = 27.67472 30.88470 29.27971
#
# Velocity S-wave (km/s) = 3.83963 4.05620 3.94940
# Velocity P-wave (km/s) = 6.44623 7.15865 6.81176
#
# Compressibility (1/GPa) = 0.02432848
#
# Stress axis : x y z
#
# Youngs Moduli (GPa) = 75.72570 122.59918 40.72929
#
# Poissons Ratio (x) = 0.25448 0.11035
# Poissons Ratio (y) = 0.15718 0.24470
# Poissons Ratio (z) = 0.20517 0.73657
#
# Static dielectric constant tensor:
#      x y z
#    x 1.697650 0.000000 0.000000 
#    y 0.000000 1.627990 0.000000 
#    z 0.000000 0.000000 1.754840 
# 
# From -- ./inp_files/10071.got.cif
#   From: 2010.05.17/outbox.ucp.g08.bks.cvg/sg51_6_cif.got.tgz:10071.got - 2010.06.11 16:27:58.
