data_PCOD9407205
_publ_section_title
;
Structure prediction by ZEFSAII (Michael W. Deem and Ramdas Pophale) SiO2 
 PCOD9407205
Probable space group: P M M A
;
_chemical_formula_sum "Si O2"
_cell_formula_units_Z 56
_cell_length_a 14.880761
_cell_length_b 7.819699
_cell_length_c 23.369587
_cell_angle_alpha 90.000000
_cell_angle_beta 90.000000
_cell_angle_gamma 90.000000
_cell_volume 2719.356933
_symmetry_space_group_name_H-M "P M M A"
_symmetry_group_IT_number 51
_symmetry_cell_setting 'orthorhombic'
loop_
_space_group_symop_operation_xyz
x,y,z
1/2-x,-y,z
1/2+x,-y,-z
-x,y,-z
-x,-y,-z
1/2+x,y,-z
1/2-x,y,z
x,-y,z
loop_
_atom_site_type_symbol
_atom_site_label
_atom_site_fract_x
_atom_site_fract_y
_atom_site_fract_z
Si Si1 0.978854 0.806548 0.152031
Si Si2 0.354595 0.293570 0.953029
Si Si3 0.855742 0.690279 0.539594
Si Si4 0.092562 0.000000 0.534611
Si Si5 0.853540 0.706999 0.918190
Si Si6 0.352939 0.707623 0.334776
Si Si7 0.534950 0.694993 0.275427
Si Si8 0.641257 0.000000 0.333883
O O1 0.914998 0.774405 0.097822
O O2 0.956628 0.694626 0.206982
O O3 0.078784 0.775027 0.128684
O O4 0.968746 0.000000 0.171571
O O5 0.250000 0.247489 0.945067
O O6 0.360897 0.500000 0.952191
O O7 0.380880 0.238622 0.017361
O O8 0.750000 0.671574 0.549587
O O9 0.893204 0.500000 0.528002
O O10 0.865452 0.824884 0.489359
O O11 0.887397 0.758253 0.601575
O O12 0.100255 0.000000 0.602246
O O13 0.000000 0.000000 0.500000
O O14 0.750000 0.756862 0.909226
O O15 0.857490 0.500000 0.917097
O O16 0.250000 0.769453 0.323987
O O17 0.347585 0.500000 0.335674
O O18 0.432385 0.751422 0.291089
O O19 0.547636 0.500000 0.297054
O O20 0.603196 0.830978 0.302403
O O21 0.750000 0.000000 0.336029
#
# Coordination Sequence:
#
# PCOD9407205 Si02
#       8
#     8   8   8   4   8   8   8   4
#     4  12  24  38  58  87 124 161 209 264 316 377
#     4   9  19  37  61  88 116 153 206 259 313 377
#     4   9  18  35  59  89 123 155 192 239 296 368
#     4  12  24  38  64  96 127 159 199 253 319 383
#     4   9  19  37  61  90 124 160 200 251 312 385
#     4   8  16  34  63  96 128 163 205 257 318 387
#     4  11  24  45  67  88 123 171 221 270 320 374
#     4  12  28  48  65  92 132 169 222 277 315 369
#
# _framework density 20.593104
#
# number of rings (size 3 to 8) (size 9 to 14) (size 15 to 20)
#    0.000    2.000    0.714    4.929    0.000    5.143 
#    0.000    3.929    0.000    0.000    0.000    0.000 
#    0.000    0.000    0.000    0.000    0.000    0.000 
#
# Total GULP energy -312545.418995 kJ/mol
# GULP energy per Si atom -5581.168196 kJ/mol
# Density = 2.054623 g / cm^3
# Si number density = 20.593104 Si / 1000 Ang^3
#
#
#
# Elastic Constant Matrix: (Units=GPa)
#
#
# Indices 1 2 3 4 5 6 
#
# 1 84.0563 27.8861 37.4209 0.0000 0.0000 0.0000
# 2 27.8861 75.8435 19.4070 0.0000 0.0000 0.0000
# 3 37.4209 19.4070 76.2029 0.0000 0.0000 0.0000
# 4 0.0000 0.0000 0.0000 28.3826 0.0000 0.0000
# 5 0.0000 0.0000 0.0000 0.0000 12.8957 0.0000
# 6 0.0000 0.0000 0.0000 0.0000 0.0000 36.4453
#
#
#
# Elastic Compliance Matrix: (Units=1/GPa)
#
#
# Indices 1 2 3 4 5 6 
#
# 1 0.016413 -0.004249 -0.006978 0.000000 0.000000 0.000000
# 2 -0.004249 0.015204 -0.001785 0.000000 0.000000 0.000000
# 3 -0.006978 -0.001785 0.017004 0.000000 0.000000 0.000000
# 4 0.000000 0.000000 0.000000 0.035233 0.000000 0.000000
# 5 0.000000 0.000000 0.000000 0.000000 0.077545 0.000000
# 6 0.000000 0.000000 0.000000 0.000000 0.000000 0.027438
#
#
# Mechanical properties :
#
#
# Convention : Reuss Voigt Hill
#
# Bulk Modulus (GPa) = 44.25472 45.05897 44.65684
# Shear Modulus (GPa) = 22.48255 25.63729 24.05992
#
# Velocity S-wave (km/s) = 3.30775 3.53221 3.42182
# Velocity P-wave (km/s) = 6.01041 6.20995 6.11099
#
# Compressibility (1/GPa) = 0.02259646
#
# Stress axis : x y z
#
# Youngs Moduli (GPa) = 60.92780 65.77098 58.80931
#
# Poissons Ratio (x) = 0.27947 0.41035
# Poissons Ratio (y) = 0.25890 0.10500
# Poissons Ratio (z) = 0.42514 0.11743
#
# Static dielectric constant tensor:
#      x y z
#    x 1.774300 0.000000 0.000000 
#    y 0.000000 1.720590 0.000000 
#    z 0.000000 0.000000 1.738350 
# 
# From -- ./inp_files/33501.got.cif
#   From: 2010.05.17/outbox.cif.g08.bks.cpg/sg51_17_cif.got.tgz:33501.got - 2010.06.03 11:52:47.
