data_PCOD9407174
_publ_section_title
;
Structure prediction by ZEFSAII (Michael W. Deem and Ramdas Pophale) SiO2 
 PCOD9407174
Probable space group: P M M A
;
_chemical_formula_sum "Si O2"
_cell_formula_units_Z 40
_cell_length_a 14.655619
_cell_length_b 8.541593
_cell_length_c 17.538979
_cell_angle_alpha 90.000000
_cell_angle_beta 90.000000
_cell_angle_gamma 90.000000
_cell_volume 2195.570304
_symmetry_space_group_name_H-M "P M M A"
_symmetry_group_IT_number 51
_symmetry_cell_setting 'orthorhombic'
loop_
_space_group_symop_operation_xyz
x,y,z
1/2-x,-y,z
1/2+x,-y,-z
-x,y,-z
-x,-y,-z
1/2+x,y,-z
1/2-x,y,z
x,-y,z
loop_
_atom_site_type_symbol
_atom_site_label
_atom_site_fract_x
_atom_site_fract_y
_atom_site_fract_z
Si Si1 0.482479 0.189608 0.623675
Si Si2 0.444026 0.187140 0.076867
Si Si3 0.750000 0.183926 0.141351
Si Si4 0.933268 0.684823 0.211235
Si Si5 0.646213 0.809565 0.515972
Si Si6 0.250000 0.314386 0.028788
O O1 0.465389 0.263643 0.705298
O O2 0.403422 0.233974 0.563127
O O3 0.578270 0.236607 0.584322
O O4 0.481808 0.000000 0.630441
O O5 0.491958 0.267709 0.148419
O O6 0.340794 0.241208 0.064762
O O7 0.448456 0.000000 0.086376
O O8 0.500000 0.227678 0.000000
O O9 0.659924 0.228089 0.188082
O O10 0.750000 0.000000 0.123630
O O11 0.750000 0.274706 0.061203
O O12 0.917213 0.500000 0.208654
O O13 0.750000 0.753119 0.521900
O O14 0.648159 0.000000 0.516768
O O15 0.250000 0.500000 0.039135
#
# Coordination Sequence:
#
# PCOD9407174 Si02
#       6
#     8   8   4   8   8   4
#     4   9  18  34  57  85 116 150 196 242 289 352
#     4  11  23  41  65  88 117 160 208 246 289 352
#     4  12  24  40  62  88 117 154 201 246 294 358
#     4  12  25  40  59  88 124 157 195 249 307 352
#     4   8  15  31  57  86 113 149 196 244 287 343
#     4  12  24  40  64  92 121 154 195 248 310 358
#
# _framework density 18.218499999999999
#
# number of rings (size 3 to 8) (size 9 to 14) (size 15 to 20)
#    0.000    1.600    2.000    5.400    1.400    0.800 
#    1.800    2.000    0.000    1.200    0.000    0.000 
#    0.000    0.000    0.000    0.000    0.000    0.000 
#
# Total GULP energy -223509.048420 kJ/mol
# GULP energy per Si atom -5587.726211 kJ/mol
# Density = 1.817703 g / cm^3
# Si number density = 18.218500 Si / 1000 Ang^3
#
#
#
# Elastic Constant Matrix: (Units=GPa)
#
#
# Indices 1 2 3 4 5 6 
#
# 1 141.3571 -7.1035 36.5351 0.0000 0.0000 0.0000
# 2 -7.1035 20.6503 -9.6434 0.0000 0.0000 0.0000
# 3 36.5351 -9.6434 94.1671 0.0000 0.0000 0.0000
# 4 0.0000 0.0000 0.0000 -28.2231 0.0000 0.0000
# 5 0.0000 0.0000 0.0000 0.0000 1.8978 0.0000
# 6 0.0000 0.0000 0.0000 0.0000 0.0000 16.8177
#
#
#
# Elastic Compliance Matrix: (Units=1/GPa)
#
#
# Indices 1 2 3 4 5 6 
#
# 1 0.007898 0.001351 -0.002926 0.000000 0.000000 0.000000
# 2 0.001351 0.051089 0.004708 0.000000 0.000000 0.000000
# 3 -0.002926 0.004708 0.012237 0.000000 0.000000 0.000000
# 4 0.000000 0.000000 0.000000 -0.035432 0.000000 0.000000
# 5 0.000000 0.000000 0.000000 0.000000 0.526925 0.000000
# 6 0.000000 0.000000 0.000000 0.000000 0.000000 0.059461
#
#
# Mechanical properties :
#
#
# Convention : Reuss Voigt Hill
#
# Bulk Modulus (GPa) = 12.90517 32.86120 22.88318
# Shear Modulus (GPa) = 7.79128 13.85756 10.82442
#
# Velocity S-wave (km/s) = 2.07023 2.76095 2.44015
# Velocity P-wave (km/s) = 3.57958 5.31415 4.53065
#
# Compressibility (1/GPa) = 0.07748833
#
# Stress axis : x y z
#
# Youngs Moduli (GPa) = 126.60725 19.57386 81.72044
#
# Poissons Ratio (x) = -0.02643 0.23913
# Poissons Ratio (y) = -0.17098 -0.38473
# Poissons Ratio (z) = 0.37047 -0.09215
#
# Static dielectric constant tensor:
#      x y z
#    x 1.614180 0.000000 0.000000 
#    y 0.000000 1.606970 0.000000 
#    z 0.000000 0.000000 1.589250 
# 
# From -- ./inp_files/23817.got.cif
#   From: 2010.05.17/outbox.cif.g08.bks.cpg/sg51_12_cif.got.tgz:23817.got - 2010.06.03 11:52:47.
