data_PCOD9407426
_publ_section_title
;
Structure prediction by ZEFSAII (Michael W. Deem and Ramdas Pophale) SiO2 
 PCOD9407426
Probable space group: P M M A
;
_chemical_formula_sum "Si O2"
_cell_formula_units_Z 56
_cell_length_a 9.000000
_cell_length_b 21.000000
_cell_length_c 15.000000
_cell_angle_alpha 90.000000
_cell_angle_beta 90.000000
_cell_angle_gamma 90.000000
_cell_volume 2835.000000
_symmetry_space_group_name_H-M "P M M A"
_symmetry_group_IT_number 51
_symmetry_cell_setting 'orthorhombic'
loop_
_space_group_symop_operation_xyz
x,y,z
1/2-x,-y,z
1/2+x,-y,-z
-x,y,-z
-x,-y,-z
1/2+x,y,-z
1/2-x,y,z
x,-y,z
loop_
_atom_site_type_symbol
_atom_site_label
_atom_site_fract_x
_atom_site_fract_y
_atom_site_fract_z
Si Si1 0.927094 0.664780 0.912899
Si Si2 0.569073 0.428050 0.754570
Si Si3 0.928224 0.931511 0.155948
Si Si4 0.571144 0.068033 0.647265
Si Si5 0.928112 0.656071 0.590357
Si Si6 0.427370 0.206323 0.855012
Si Si7 0.430211 0.794581 0.340908
O O1 0.750000 0.667570 0.918128
O O2 0.973060 0.619566 0.832689
O O3 0.989598 0.735563 0.900240
O O4 0.000000 0.636531 0.000000
O O5 0.750000 0.430283 0.754175
O O6 0.514985 0.500000 0.763320
O O7 0.521082 0.392112 0.666068
O O8 0.750000 0.929418 0.172751
O O9 0.965448 0.864663 0.109945
O O10 0.012038 0.931675 0.250946
O O11 0.961528 0.000000 0.112311
O O12 0.750000 0.066516 0.647039
O O13 0.529445 0.138215 0.612112
O O14 0.518043 0.000000 0.608023
O O15 0.750000 0.654436 0.586589
O O16 0.969596 0.729438 0.610097
O O17 0.000000 0.635237 0.500000
O O18 0.250000 0.215394 0.860032
O O19 0.484434 0.206949 0.752986
O O20 0.250000 0.793973 0.325526
#
# Coordination Sequence:
#
# PCOD9407426 Si02
#       7
#     8   8   8   8   8   8   8
#     4  11  22  38  59  84 113 145 180 221 267 320
#     4   9  19  38  62  84 110 145 179 214 266 327
#     4   8  14  24  39  64  99 136 174 218 267 315
#     4   8  13  21  37  63  93 127 172 222 266 314
#     4  10  20  35  55  81 110 145 183 223 268 318
#     4  10  18  29  50  78 107 142 183 225 269 319
#     4   9  16  29  48  71 102 141 181 222 274 324
#
# _framework density 19.753086
#
# number of rings (size 3 to 8) (size 9 to 14) (size 15 to 20)
#    0.000    2.714    1.429    0.857    0.000    1.714 
#    0.000    0.000    0.000    3.857    0.000    0.000 
#    0.000    0.000    0.000    0.000    0.000    0.000 
#
# Total GULP energy -311756.707353 kJ/mol
# GULP energy per Si atom -5567.084060 kJ/mol
# Density = 1.970813 g / cm^3
# Si number density = 19.753086 Si / 1000 Ang^3
#
#
#
# Elastic Constant Matrix: (Units=GPa)
#
#
# Indices 1 2 3 4 5 6 
#
# 1 10.9655 27.8989 23.3292 0.0000 0.0000 0.0000
# 2 27.8989 165.0502 62.6580 0.0000 0.0000 0.0000
# 3 23.3292 62.6580 103.8563 0.0000 0.0000 0.0000
# 4 0.0000 0.0000 0.0000 -60.2833 0.0000 0.0000
# 5 0.0000 0.0000 0.0000 0.0000 14.0908 0.0000
# 6 0.0000 0.0000 0.0000 0.0000 0.0000 5.8140
#
#
#
# Elastic Compliance Matrix: (Units=1/GPa)
#
#
# Indices 1 2 3 4 5 6 
#
# 1 0.236786 -0.025724 -0.037669 0.000000 0.000000 0.000000
# 2 -0.025724 0.010653 -0.000649 0.000000 0.000000 0.000000
# 3 -0.037669 -0.000649 0.018482 0.000000 0.000000 0.000000
# 4 0.000000 0.000000 0.000000 -0.016588 0.000000 0.000000
# 5 0.000000 0.000000 0.000000 0.000000 0.070968 0.000000
# 6 0.000000 0.000000 0.000000 0.000000 0.000000 0.171999
#
#
# Mechanical properties :
#
#
# Convention : Reuss Voigt Hill
#
# Bulk Modulus (GPa) = 7.25499 56.40491 31.82995
# Shear Modulus (GPa) = 7.50378 2.99002 5.24690
#
# Velocity S-wave (km/s) = 1.95116 1.23166 1.63157
# Velocity P-wave (km/s) = 2.95920 5.53531 4.43827
#
# Compressibility (1/GPa) = 0.13783614
#
# Stress axis : x y z
#
# Youngs Moduli (GPa) = 4.22322 93.86726 54.10720
#
# Poissons Ratio (x) = 2.41466 2.03818
# Poissons Ratio (y) = 0.10864 0.03511
# Poissons Ratio (z) = 0.15909 0.06091
#
# Static dielectric constant tensor:
#      x y z
#    x 1.650370 0.000000 0.000000 
#    y 0.000000 1.746290 0.000000 
#    z 0.000000 0.000000 1.651800 
# 
# From -- ./inp_files/21765.got.cif
#   From: 2010.05.17/outbox.ucp.g08.bks.cvg/sg51_11_cif.got.tgz:21765.got - 2010.06.11 16:27:58.
