data_PCOD9407160
_publ_section_title
;
Structure prediction by ZEFSAII (Michael W. Deem and Ramdas Pophale) SiO2 
 PCOD9407160
Probable space group: P M M A
;
_chemical_formula_sum "Si O2"
_cell_formula_units_Z 40
_cell_length_a 8.235915
_cell_length_b 27.016454
_cell_length_c 9.481325
_cell_angle_alpha 90.000000
_cell_angle_beta 90.000000
_cell_angle_gamma 90.000000
_cell_volume 2109.644293
_symmetry_space_group_name_H-M "P M M A"
_symmetry_group_IT_number 51
_symmetry_cell_setting 'orthorhombic'
loop_
_space_group_symop_operation_xyz
x,y,z
1/2-x,-y,z
1/2+x,-y,-z
-x,y,-z
-x,-y,-z
1/2+x,y,-z
1/2-x,y,z
x,-y,z
loop_
_atom_site_type_symbol
_atom_site_label
_atom_site_fract_x
_atom_site_fract_y
_atom_site_fract_z
Si Si1 0.946340 0.311561 0.338608
Si Si2 0.055839 0.405189 0.838953
Si Si3 0.554139 0.000000 0.163474
Si Si4 0.557244 0.500000 0.661799
Si Si5 0.553830 0.799167 0.339443
Si Si6 0.553467 0.107417 0.162111
O O1 0.750000 0.311945 0.337085
O O2 0.005302 0.354776 0.235492
O O3 0.000931 0.256141 0.296275
O O4 0.000000 0.320506 0.500000
O O5 0.250000 0.403726 0.838900
O O6 0.002627 0.451679 0.745154
O O7 0.000000 0.409775 0.000000
O O8 0.498708 0.053468 0.220778
O O9 0.750000 0.000000 0.168861
O O10 0.500000 0.000000 0.000000
O O11 0.750000 0.500000 0.662430
O O12 0.500000 0.500000 0.500000
O O13 0.500000 0.806210 0.500000
O O14 0.750000 0.799316 0.333840
O O15 0.493142 0.844816 0.246293
O O16 0.750000 0.107860 0.166285
O O17 0.500000 0.110667 0.000000
#
# Coordination Sequence:
#
# PCOD9407160 Si02
#       6
#     8   8   4   4   8   8
#     4   9  19  35  55  76 101 134 173 211 252 303
#     4  11  23  39  58  83 113 143 175 216 262 307
#     4   8  14  26  43  64  90 124 160 200 247 296
#     4  12  25  42  63  86 112 144 180 216 255 306
#     4   9  18  33  50  71  99 132 167 207 252 302
#     4   9  17  29  47  69  95 125 163 206 250 299
#
# _framework density 18.960543999999999
#
# number of rings (size 3 to 8) (size 9 to 14) (size 15 to 20)
#    0.000    2.400    0.000    2.400    0.000    4.800 
#    0.000    0.500    0.000    0.000    0.000    0.000 
#    0.000    0.000    0.000    0.000    0.000    0.000 
#
# Total GULP energy -223074.458577 kJ/mol
# GULP energy per Si atom -5576.861464 kJ/mol
# Density = 1.891739 g / cm^3
# Si number density = 18.960544 Si / 1000 Ang^3
#
#
#
# Elastic Constant Matrix: (Units=GPa)
#
#
# Indices 1 2 3 4 5 6 
#
# 1 23.6513 25.0464 13.8995 0.0000 0.0000 0.0000
# 2 25.0464 227.1244 117.3434 0.0000 0.0000 0.0000
# 3 13.8995 117.3434 111.5778 0.0000 0.0000 0.0000
# 4 0.0000 0.0000 0.0000 40.8950 0.0000 0.0000
# 5 0.0000 0.0000 0.0000 0.0000 29.3396 0.0000
# 6 0.0000 0.0000 0.0000 0.0000 0.0000 -72.7300
#
#
#
# Elastic Compliance Matrix: (Units=1/GPa)
#
#
# Indices 1 2 3 4 5 6 
#
# 1 0.047913 -0.004818 -0.000902 0.000000 0.000000 0.000000
# 2 -0.004818 0.010126 -0.010049 0.000000 0.000000 0.000000
# 3 -0.000902 -0.010049 0.019643 0.000000 0.000000 0.000000
# 4 0.000000 0.000000 0.000000 0.024453 0.000000 0.000000
# 5 0.000000 0.000000 0.000000 0.000000 0.034084 0.000000
# 6 0.000000 0.000000 0.000000 0.000000 0.000000 -0.013749
#
#
# Mechanical properties :
#
#
# Convention : Reuss Voigt Hill
#
# Bulk Modulus (GPa) = 21.67112 74.99247 48.33180
# Shear Modulus (GPa) = 29.51808 13.23855 21.37832
#
# Velocity S-wave (km/s) = 3.94993 2.64524 3.36149
# Velocity P-wave (km/s) = 5.67953 6.99768 6.37277
#
# Compressibility (1/GPa) = 0.04614435
#
# Stress axis : x y z
#
# Youngs Moduli (GPa) = 20.87126 98.75596 50.90856
#
# Poissons Ratio (x) = 0.47577 0.04592
# Poissons Ratio (y) = 0.10055 0.51158
# Poissons Ratio (z) = 0.01883 0.99241
#
# Static dielectric constant tensor:
#      x y z
#    x 1.649260 0.000000 0.000000 
#    y 0.000000 1.721160 0.000000 
#    z 0.000000 0.000000 1.589010 
# 
# From -- ./inp_files/5565.got.cif
#   From: 2010.05.17/outbox.cif.g08.bks.cpg/sg51_3_cif.got.tgz:5565.got - 2010.06.03 11:52:47.
