data_PCOD9407916
_publ_section_title
;
Structure prediction by ZEFSAII (Michael W. Deem and Ramdas Pophale) SiO2 
 PCOD9407916
Probable space group: P N N A
;
_chemical_formula_sum "Si O2"
_cell_formula_units_Z 48
_cell_length_a 18.036922
_cell_length_b 19.812685
_cell_length_c 5.332758
_cell_angle_alpha 90.000000
_cell_angle_beta 90.000000
_cell_angle_gamma 90.000000
_cell_volume 1905.713620
_symmetry_space_group_name_H-M "P N N A"
_symmetry_group_IT_number 52
_symmetry_cell_setting 'orthorhombic'
loop_
_space_group_symop_operation_xyz
x,y,z
1/2-x,-y,z
x,1/2-y,1/2-z
1/2-x,1/2+y,1/2-z
-x,-y,-z
1/2+x,y,-z
-x,1/2+y,1/2+z
1/2+x,1/2-y,1/2+z
loop_
_atom_site_type_symbol
_atom_site_label
_atom_site_fract_x
_atom_site_fract_y
_atom_site_fract_z
Si Si1 0.956616 0.818492 0.393507
Si Si2 0.092964 0.825153 0.675935
Si Si3 0.665401 0.470094 0.726647
Si Si4 0.422163 0.396688 0.329167
Si Si5 0.705280 0.429739 0.218992
Si Si6 0.716089 0.292489 0.006219
O O1 0.981799 0.750000 0.250000
O O2 0.872131 0.806079 0.465126
O O3 0.003335 0.825527 0.647148
O O4 0.991202 0.878593 0.219762
O O5 0.114126 0.750000 0.750000
O O6 0.112666 0.852930 0.400288
O O7 0.110018 0.871462 0.909294
O O8 0.750000 0.500000 0.752284
O O9 0.604917 0.526975 0.676645
O O10 0.673651 0.417100 0.497795
O O11 0.645547 0.445206 0.003810
O O12 0.750000 0.500000 0.251384
O O13 0.746348 0.367177 0.085013
O O14 0.735426 0.250000 0.250000
O O15 0.731661 0.250000 0.750000
#
# Coordination Sequence:
#
# PCOD9407916 Si02
#       6
#     8   8   8   8   8   8
#     4   9  19  32  56  89 129 167 200 258 324 382
#     4  10  16  30  50  81 122 165 196 247 311 376
#     4  10  21  40  63  82 112 166 218 262 313 374
#     4  10  19  30  56  85 119 163 207 248 310 388
#     4  10  22  43  67  88 123 171 214 273 334 381
#     4  11  23  38  66 100 127 164 220 270 320 393
#
# _framework density 25.187414
#
# number of rings (size 3 to 8) (size 9 to 14) (size 15 to 20)
#    1.000    1.000    1.667    3.000    2.333    0.000 
#    0.000    1.667    0.000   52.000    0.000    0.000 
#    0.000    0.000    0.000    0.000    0.000    0.000 
#
# Total GULP energy -267316.865670 kJ/mol
# GULP energy per Si atom -5569.101368 kJ/mol
# Density = 2.513009 g / cm^3
# Si number density = 25.187414 Si / 1000 Ang^3
#
#
#
# Elastic Constant Matrix: (Units=GPa)
#
#
# Indices 1 2 3 4 5 6 
#
# 1 102.1397 -7.4658 6.1213 0.0000 0.0000 0.0000
# 2 -7.4658 84.9619 6.4505 0.0000 0.0000 0.0000
# 3 6.1213 6.4505 159.2250 0.0000 0.0000 0.0000
# 4 0.0000 0.0000 0.0000 38.7793 0.0000 0.0000
# 5 0.0000 0.0000 0.0000 0.0000 6.1733 0.0000
# 6 0.0000 0.0000 0.0000 0.0000 0.0000 25.0951
#
#
#
# Elastic Compliance Matrix: (Units=1/GPa)
#
#
# Indices 1 2 3 4 5 6 
#
# 1 0.009881 0.000900 -0.000416 0.000000 0.000000 0.000000
# 2 0.000900 0.011888 -0.000516 0.000000 0.000000 0.000000
# 3 -0.000416 -0.000516 0.006317 0.000000 0.000000 0.000000
# 4 0.000000 0.000000 0.000000 0.025787 0.000000 0.000000
# 5 0.000000 0.000000 0.000000 0.000000 0.161987 0.000000
# 6 0.000000 0.000000 0.000000 0.000000 0.000000 0.039848
#
#
# Mechanical properties :
#
#
# Convention : Reuss Voigt Hill
#
# Bulk Modulus (GPa) = 35.68686 39.61541 37.65114
# Shear Modulus (GPa) = 18.85973 36.75759 27.80866
#
# Velocity S-wave (km/s) = 2.73935 3.82431 3.32636
# Velocity P-wave (km/s) = 4.91982 5.93825 5.45286
#
# Compressibility (1/GPa) = 0.02802152
#
# Stress axis : x y z
#
# Youngs Moduli (GPa) = 101.20190 84.11671 158.29449
#
# Poissons Ratio (x) = -0.07570 0.06590
# Poissons Ratio (y) = -0.09107 0.08171
# Poissons Ratio (z) = 0.04213 0.04342
#
# Static dielectric constant tensor:
#      x y z
#    x 2.233680 0.000000 0.000000 
#    y 0.000000 2.221630 0.000000 
#    z 0.000000 0.000000 2.001290 
# 
# From -- ./inp_files/5884.got.cif
#   From: 2010.05.17/outbox.cif.g08.bks.cpg/sg52_3_cif.got.tgz:5884.got - 2010.06.03 12:15:38.
