data_PCOD9407739
_publ_section_title
;
Structure prediction by ZEFSAII (Michael W. Deem and Ramdas Pophale) SiO2 
 PCOD9407739
Probable space group: P M M A
;
_chemical_formula_sum "Si O2"
_cell_formula_units_Z 56
_cell_length_a 21.000000
_cell_length_b 9.000000
_cell_length_c 15.000000
_cell_angle_alpha 90.000000
_cell_angle_beta 90.000000
_cell_angle_gamma 90.000000
_cell_volume 2835.000000
_symmetry_space_group_name_H-M "P M M A"
_symmetry_group_IT_number 51
_symmetry_cell_setting 'orthorhombic'
loop_
_space_group_symop_operation_xyz
x,y,z
1/2-x,-y,z
1/2+x,-y,-z
-x,y,-z
-x,-y,-z
1/2+x,y,-z
1/2-x,y,z
x,-y,z
loop_
_atom_site_type_symbol
_atom_site_label
_atom_site_fract_x
_atom_site_fract_y
_atom_site_fract_z
Si Si1 0.995933 0.674967 0.768427
Si Si2 0.321682 0.318611 0.548716
Si Si3 0.320965 0.179475 0.935913
Si Si4 0.353206 0.675348 0.750183
Si Si5 0.402860 0.325671 0.385548
Si Si6 0.916145 0.828554 0.914581
Si Si7 0.176404 0.835556 0.252931
O O1 0.979910 0.500000 0.774243
O O2 0.959671 0.734441 0.678794
O O3 0.972816 0.747346 0.861455
O O4 0.070612 0.690548 0.754682
O O5 0.250000 0.274036 0.519758
O O6 0.323595 0.500000 0.547029
O O7 0.331320 0.274559 0.651835
O O8 0.377892 0.267454 0.481365
O O9 0.250000 0.221461 0.970264
O O10 0.326616 0.238122 0.835278
O O11 0.324031 0.000000 0.937113
O O12 0.380288 0.232347 0.997542
O O13 0.336916 0.500000 0.758642
O O14 0.416197 0.500000 0.398497
O O15 0.343749 0.292702 0.320341
O O16 0.861872 0.825654 0.838479
O O17 0.934704 0.000000 0.931051
O O18 0.250000 0.829032 0.233471
O O19 0.161682 0.000000 0.292543
#
# Coordination Sequence:
#
# PCOD9407739 Si02
#       7
#     8   8   8   8   8   8   8
#     4   9  19  34  51  76 106 134 168 208 249 295
#     4   9  17  30  50  75 100 130 170 211 251 297
#     4  10  21  37  56  78 102 130 169 214 256 299
#     4  10  21  36  53  73 102 139 174 209 249 296
#     4   9  17  30  49  72  99 130 165 206 249 295
#     4   9  18  33  53  74  99 132 166 203 251 305
#     4   9  16  27  45  70  99 129 160 197 246 303
#
# _framework density 19.753086
#
# number of rings (size 3 to 8) (size 9 to 14) (size 15 to 20)
#    0.000    2.714    0.000    1.286    0.000    5.714 
#    0.000    6.429    0.000    5.143    0.000    5.000 
#    0.000    0.000    0.000    0.000    0.000    0.000 
#
# Total GULP energy -311857.763577 kJ/mol
# GULP energy per Si atom -5568.888635 kJ/mol
# Density = 1.970813 g / cm^3
# Si number density = 19.753086 Si / 1000 Ang^3
#
#
#
# Elastic Constant Matrix: (Units=GPa)
#
#
# Indices 1 2 3 4 5 6 
#
# 1 57.0602 10.8129 17.6969 0.0000 0.0000 0.0000
# 2 10.8129 1.1067 4.4149 0.0000 0.0000 0.0000
# 3 17.6969 4.4149 98.4496 0.0000 0.0000 0.0000
# 4 0.0000 0.0000 0.0000 21.7892 0.0000 0.0000
# 5 0.0000 0.0000 0.0000 0.0000 32.2114 0.0000
# 6 0.0000 0.0000 0.0000 0.0000 0.0000 11.6747
#
#
#
# Elastic Compliance Matrix: (Units=1/GPa)
#
#
# Indices 1 2 3 4 5 6 
#
# 1 -0.017672 0.194837 -0.005561 0.000000 0.000000 0.000000
# 2 0.194837 -1.047745 0.011962 0.000000 0.000000 0.000000
# 3 -0.005561 0.011962 0.010621 0.000000 0.000000 0.000000
# 4 0.000000 0.000000 0.000000 0.045894 0.000000 0.000000
# 5 0.000000 0.000000 0.000000 0.000000 0.031045 0.000000
# 6 0.000000 0.000000 0.000000 0.000000 0.000000 0.085656
#
#
# Mechanical properties :
#
#
# Convention : Reuss Voigt Hill
#
# Bulk Modulus (GPa) = -1.53299 24.71841 11.59271
# Shear Modulus (GPa) = -3.30662 21.38117 9.03727
#
# Velocity S-wave (km/s) = -1.29523 3.29359 2.14127
# Velocity P-wave (km/s) = 1.73625 5.19658 3.46337
#
# Compressibility (1/GPa) = -0.65231957
#
# Stress axis : x y z
#
# Youngs Moduli (GPa) = -56.58818 -0.95443 94.15631
#
# Poissons Ratio (x) = 0.18596 0.52357
# Poissons Ratio (y) = 11.02548 -1.12628
# Poissons Ratio (z) = -0.31467 0.01142
#
# Static dielectric constant tensor:
#      x y z
#    x 1.738110 0.000000 0.000000 
#    y 0.000000 1.706380 0.000000 
#    z 0.000000 0.000000 1.695190 
# 
# From -- ./inp_files/25695.got.cif
#   From: 2010.05.17/outbox.ucp.g08.bks.cvg/sg51_13_cif.got.tgz:25695.got - 2010.06.11 16:27:58.
