data_PCOD9407570
_publ_section_title
;
Structure prediction by ZEFSAII (Michael W. Deem and Ramdas Pophale) SiO2 
 PCOD9407570
Probable space group: P M M A
;
_chemical_formula_sum "Si O2"
_cell_formula_units_Z 48
_cell_length_a 15.000000
_cell_length_b 9.000000
_cell_length_c 18.000000
_cell_angle_alpha 90.000000
_cell_angle_beta 90.000000
_cell_angle_gamma 90.000000
_cell_volume 2430.000000
_symmetry_space_group_name_H-M "P M M A"
_symmetry_group_IT_number 51
_symmetry_cell_setting 'orthorhombic'
loop_
_space_group_symop_operation_xyz
x,y,z
1/2-x,-y,z
1/2+x,-y,-z
-x,y,-z
-x,-y,-z
1/2+x,y,-z
1/2-x,y,z
x,-y,z
loop_
_atom_site_type_symbol
_atom_site_label
_atom_site_fract_x
_atom_site_fract_y
_atom_site_fract_z
Si Si1 0.848766 0.827306 0.169694
Si Si2 0.250000 0.176974 0.572672
Si Si3 0.250000 0.819395 0.403325
Si Si4 0.500493 0.338024 0.087441
Si Si5 0.610261 0.326114 0.323891
Si Si6 0.073100 0.829523 0.322356
Si Si7 0.645575 0.163770 0.843530
O O1 0.750000 0.805883 0.136902
O O2 0.857394 0.732541 0.244200
O O3 0.927598 0.778396 0.116311
O O4 0.858562 0.000000 0.189933
O O5 0.250000 0.224363 0.487984
O O6 0.334702 0.240682 0.614349
O O7 0.250000 0.000000 0.576554
O O8 0.160057 0.771917 0.363920
O O9 0.250000 0.000000 0.397275
O O10 0.523461 0.500000 0.119129
O O11 0.402548 0.289829 0.111154
O O12 0.500000 0.343680 0.000000
O O13 0.624184 0.500000 0.329726
O O14 0.508576 0.278668 0.332101
O O15 0.098628 0.837521 0.236132
O O16 0.051880 0.000000 0.346326
O O17 0.750000 0.185743 0.833436
O O18 0.632095 0.000000 0.878082
#
# Coordination Sequence:
#
# PCOD9407570 Si02
#       7
#     8   4   4   8   8   8   8
#     4  11  23  40  65  92 118 155 207 259 302 359
#     4  11  23  41  63  89 122 163 208 253 299 358
#     4   9  20  39  65  93 122 159 206 253 301 356
#     4  11  25  42  60  88 128 166 200 246 306 367
#     4  12  24  38  60  91 124 161 202 250 307 368
#     4  10  19  37  64  92 120 155 202 252 300 358
#     4  10  20  36  63  93 120 155 202 253 301 356
#
# _framework density 19.753086
#
# number of rings (size 3 to 8) (size 9 to 14) (size 15 to 20)
#    0.000    1.333    3.333    2.750    0.000    4.000 
#    0.000    8.750    0.000    0.000    0.000    0.000 
#    0.000    0.000    0.000    0.000    0.000    0.000 
#
# Total GULP energy -267924.698521 kJ/mol
# GULP energy per Si atom -5581.764553 kJ/mol
# Density = 1.970813 g / cm^3
# Si number density = 19.753086 Si / 1000 Ang^3
#
#
#
# Elastic Constant Matrix: (Units=GPa)
#
#
# Indices 1 2 3 4 5 6 
#
# 1 51.0609 -11.5877 14.0277 0.0000 0.0000 0.0000
# 2 -11.5877 22.2756 31.0451 0.0000 0.0000 0.0000
# 3 14.0277 31.0451 37.5447 0.0000 0.0000 0.0000
# 4 0.0000 0.0000 0.0000 17.5496 0.0000 0.0000
# 5 0.0000 0.0000 0.0000 0.0000 11.5599 0.0000
# 6 0.0000 0.0000 0.0000 0.0000 0.0000 438.0742
#
#
#
# Elastic Compliance Matrix: (Units=1/GPa)
#
#
# Indices 1 2 3 4 5 6 
#
# 1 0.004898 -0.033449 0.025829 0.000000 0.000000 0.000000
# 2 -0.033449 -0.066100 0.067154 0.000000 0.000000 0.000000
# 3 0.025829 0.067154 -0.038544 0.000000 0.000000 0.000000
# 4 0.000000 0.000000 0.000000 0.056981 0.000000 0.000000
# 5 0.000000 0.000000 0.000000 0.000000 0.086506 0.000000
# 6 0.000000 0.000000 0.000000 0.000000 0.000000 0.002283
#
#
# Mechanical properties :
#
#
# Convention : Reuss Voigt Hill
#
# Bulk Modulus (GPa) = 51.75651 19.76126 35.75888
# Shear Modulus (GPa) = -75.07214 98.59648 11.76217
#
# Velocity S-wave (km/s) = -6.17153 7.07268 2.44285
# Velocity P-wave (km/s) = 4.95228 8.75916 5.10871
#
# Compressibility (1/GPa) = 0.01932124
#
# Stress axis : x y z
#
# Youngs Moduli (GPa) = 204.17772 -15.12870 -25.94440
#
# Poissons Ratio (x) = -0.50605 0.67011
# Poissons Ratio (y) = 6.82963 1.74227
# Poissons Ratio (z) = -5.27367 1.01595
#
# Static dielectric constant tensor:
#      x y z
#    x 1.711310 0.000000 0.000000 
#    y 0.000000 1.705150 0.000000 
#    z 0.000000 0.000000 1.672300 
# 
# From -- ./inp_files/29607.got.cif
#   From: 2010.05.17/outbox.ucp.g08.bks.cvg/sg51_15_cif.got.tgz:29607.got - 2010.06.11 16:27:58.
