data_PCOD9407034
_publ_section_title
;
Structure prediction by ZEFSAII (Michael W. Deem and Ramdas Pophale) SiO2 
 PCOD9407034
Probable space group: P M M A
;
_chemical_formula_sum "Si O2"
_cell_formula_units_Z 48
_cell_length_a 8.543410
_cell_length_b 32.126974
_cell_length_c 9.642747
_cell_angle_alpha 90.000000
_cell_angle_beta 90.000000
_cell_angle_gamma 90.000000
_cell_volume 2646.682481
_symmetry_space_group_name_H-M "P M M A"
_symmetry_group_IT_number 51
_symmetry_cell_setting 'orthorhombic'
loop_
_space_group_symop_operation_xyz
x,y,z
1/2-x,-y,z
1/2+x,-y,-z
-x,y,-z
-x,-y,-z
1/2+x,y,-z
1/2-x,y,z
x,-y,z
loop_
_atom_site_type_symbol
_atom_site_label
_atom_site_fract_x
_atom_site_fract_y
_atom_site_fract_z
Si Si1 0.937860 0.214158 0.657925
Si Si2 0.938881 0.547511 0.652684
Si Si3 0.561983 0.623316 0.844039
Si Si4 0.439000 0.877166 0.343323
Si Si5 0.563627 0.301507 0.342130
Si Si6 0.060845 0.953506 0.155861
O O1 0.750000 0.217911 0.657844
O O2 0.982189 0.168637 0.715920
O O3 0.000000 0.212912 0.500000
O O4 0.009962 0.256486 0.716471
O O5 0.750000 0.547780 0.648410
O O6 0.990353 0.500000 0.681688
O O7 0.989825 0.580894 0.766565
O O8 0.000000 0.559156 0.500000
O O9 0.750000 0.624169 0.845922
O O10 0.501616 0.661796 0.752795
O O11 0.500000 0.625219 0.000000
O O12 0.500000 0.880546 0.500000
O O13 0.250000 0.878203 0.348102
O O14 0.495080 0.915912 0.252304
O O15 0.500000 0.305506 0.500000
O O16 0.750000 0.303051 0.347668
O O17 0.250000 0.952406 0.153639
O O18 0.013515 0.000000 0.203937
O O19 0.000000 0.948247 0.000000
#
# Coordination Sequence:
#
# PCOD9407034 Si02
#       6
#     8   8   8   8   8   8
#     4   9  16  29  49  73 101 131 166 208 255 303
#     4   9  19  36  58  83 109 138 175 217 258 304
#     4  11  23  38  55  78 110 144 178 217 263 311
#     4   9  18  31  49  74 102 130 162 206 254 301
#     4  11  21  35  56  80 105 136 176 217 259 307
#     4   9  18  33  50  69  96 130 167 205 246 295
#
# _framework density 18.135912000000001
#
# number of rings (size 3 to 8) (size 9 to 14) (size 15 to 20)
#    0.000    2.333    0.000    4.000    0.000    4.667 
#    0.000    0.833    0.000    2.000    0.000    0.000 
#    0.000    0.000    0.000    0.000    0.000    0.000 
#
# Total GULP energy -267689.195942 kJ/mol
# GULP energy per Si atom -5576.858249 kJ/mol
# Density = 1.809463 g / cm^3
# Si number density = 18.135912 Si / 1000 Ang^3
#
#
#
# Elastic Constant Matrix: (Units=GPa)
#
#
# Indices 1 2 3 4 5 6 
#
# 1 50.9203 42.7637 26.6213 0.0000 0.0000 0.0000
# 2 42.7637 180.3714 97.9427 0.0000 0.0000 0.0000
# 3 26.6213 97.9427 92.4815 0.0000 0.0000 0.0000
# 4 0.0000 0.0000 0.0000 -5.4820 0.0000 0.0000
# 5 0.0000 0.0000 0.0000 0.0000 26.1678 0.0000
# 6 0.0000 0.0000 0.0000 0.0000 0.0000 7.3521
#
#
#
# Elastic Compliance Matrix: (Units=1/GPa)
#
#
# Indices 1 2 3 4 5 6 
#
# 1 0.024699 -0.004695 -0.002137 0.000000 0.000000 0.000000
# 2 -0.004695 0.013940 -0.013411 0.000000 0.000000 0.000000
# 3 -0.002137 -0.013411 0.025631 0.000000 0.000000 0.000000
# 4 0.000000 0.000000 0.000000 -0.182417 0.000000 0.000000
# 5 0.000000 0.000000 0.000000 0.000000 0.038215 0.000000
# 6 0.000000 0.000000 0.000000 0.000000 0.000000 0.136016
#
#
# Mechanical properties :
#
#
# Convention : Reuss Voigt Hill
#
# Bulk Modulus (GPa) = 42.04751 73.15873 57.60312
# Shear Modulus (GPa) = 47.84707 16.03728 31.94218
#
# Velocity S-wave (km/s) = 5.14196 2.97692 4.20130
# Velocity P-wave (km/s) = 7.64775 7.22792 7.44079
#
# Compressibility (1/GPa) = 0.02378262
#
# Stress axis : x y z
#
# Youngs Moduli (GPa) = 40.48742 71.73715 39.01449
#
# Poissons Ratio (x) = 0.33683 0.08338
# Poissons Ratio (y) = 0.19010 0.52324
# Poissons Ratio (z) = 0.08653 0.96209
#
# Static dielectric constant tensor:
#      x y z
#    x 1.610270 0.000000 0.000000 
#    y 0.000000 1.670710 0.000000 
#    z 0.000000 0.000000 1.571680 
# 
# From -- ./inp_files/6054.got.cif
#   From: 2010.05.17/outbox.cif.g08.bks.cpg/sg51_4_cif.got.tgz:6054.got - 2010.06.03 11:52:47.
