data_PCOD9407206
_publ_section_title
;
Structure prediction by ZEFSAII (Michael W. Deem and Ramdas Pophale) SiO2 
 PCOD9407206
Probable space group: P M M A
;
_chemical_formula_sum "Si O2"
_cell_formula_units_Z 30
_cell_length_a 16.280767
_cell_length_b 13.031056
_cell_length_c 5.150492
_cell_angle_alpha 90.000000
_cell_angle_beta 90.000000
_cell_angle_gamma 90.000000
_cell_volume 1092.705651
_symmetry_space_group_name_H-M "P M M A"
_symmetry_group_IT_number 51
_symmetry_cell_setting 'orthorhombic'
loop_
_space_group_symop_operation_xyz
x,y,z
1/2-x,-y,z
1/2+x,-y,-z
-x,y,-z
-x,-y,-z
1/2+x,y,-z
1/2-x,y,z
x,-y,z
loop_
_atom_site_type_symbol
_atom_site_label
_atom_site_fract_x
_atom_site_fract_y
_atom_site_fract_z
Si Si1 0.250000 0.000000 0.738794
Si Si2 0.616021 0.291844 0.621028
Si Si3 0.750000 0.183873 0.858568
Si Si4 0.500000 0.818734 0.000000
Si Si5 0.075303 0.000000 0.699247
Si Si6 0.250000 0.374470 0.779562
Si Si7 0.441753 0.500000 0.242184
O O1 0.250000 0.097893 0.928575
O O2 0.334225 0.000000 0.584573
O O3 0.529796 0.250196 0.755946
O O4 0.665483 0.333477 0.364402
O O5 0.614078 0.401024 0.763710
O O6 0.669628 0.192252 0.685935
O O7 0.750000 0.299735 0.973744
O O8 0.564977 0.898045 0.124788
O O9 0.000000 0.000000 0.500000
O O10 0.250000 0.500000 0.792996
O O11 0.500000 0.500000 0.500000
O O12 0.500000 0.500000 0.000000
#
# Coordination Sequence:
#
# PCOD9407206 Si02
#       7
#     2   8   4   4   4   4   4
#     4  12  24  52  76 116 150 212 282 352 420 520
#     4  11  25  45  70 108 149 206 258 340 413 501
#     4  11  27  46  75 106 157 211 272 342 421 496
#     4  11  24  47  72 106 146 197 268 333 428 502
#     4  11  27  47  75 108 154 204 265 350 417 508
#     4  11  26  43  70 108 152 208 272 333 427 510
#     4  12  28  45  74 115 158 209 262 335 417 508
#
# _framework density 27.454784
#
# number of rings (size 3 to 8) (size 9 to 14) (size 15 to 20)
#    0.000    0.800    5.333    0.000    9.333    1.067 
#    0.000    5.333    0.000    0.000    0.000    0.000 
#    0.000    0.000    0.000    0.000    0.000    0.000 
#
# Total GULP energy -167218.054921 kJ/mol
# GULP energy per Si atom -5573.935164 kJ/mol
# Density = 2.739230 g / cm^3
# Si number density = 27.454784 Si / 1000 Ang^3
#
#
#
# Elastic Constant Matrix: (Units=GPa)
#
#
# Indices 1 2 3 4 5 6 
#
# 1 98.4407 37.2591 16.1040 0.0000 0.0000 0.0000
# 2 37.2591 229.1399 57.3508 0.0000 0.0000 0.0000
# 3 16.1040 57.3508 103.3210 0.0000 0.0000 0.0000
# 4 0.0000 0.0000 0.0000 38.8466 0.0000 0.0000
# 5 0.0000 0.0000 0.0000 0.0000 25.7809 0.0000
# 6 0.0000 0.0000 0.0000 0.0000 0.0000 -5.6234
#
#
#
# Elastic Compliance Matrix: (Units=1/GPa)
#
#
# Indices 1 2 3 4 5 6 
#
# 1 0.010885 -0.001562 -0.000829 0.000000 0.000000 0.000000
# 2 -0.001562 0.005293 -0.002694 0.000000 0.000000 0.000000
# 3 -0.000829 -0.002694 0.011303 0.000000 0.000000 0.000000
# 4 0.000000 0.000000 0.000000 0.025742 0.000000 0.000000
# 5 0.000000 0.000000 0.000000 0.000000 0.038788 0.000000
# 6 0.000000 0.000000 0.000000 0.000000 0.000000 -0.177828
#
#
# Mechanical properties :
#
#
# Convention : Reuss Voigt Hill
#
# Bulk Modulus (GPa) = 57.77260 72.48105 65.12683
# Shear Modulus (GPa) = -71.55739 33.14667 -19.20536
#
# Velocity S-wave (km/s) = -5.11080 3.47842 -2.64773
# Velocity P-wave (km/s) = 3.70656 6.52610 3.79812
#
# Compressibility (1/GPa) = 0.01730924
#
# Stress axis : x y z
#
# Youngs Moduli (GPa) = 91.86577 188.94548 88.46948
#
# Poissons Ratio (x) = 0.29522 0.07337
# Poissons Ratio (y) = 0.14353 0.23836
# Poissons Ratio (z) = 0.07619 0.50906
#
# Static dielectric constant tensor:
#      x y z
#    x 2.546220 0.000000 0.000000 
#    y 0.000000 1.979770 0.000000 
#    z 0.000000 0.000000 2.248280 
# 
# From -- ./inp_files/1828.got.cif
#   From: 2010.05.17/outbox.cif.g08.bks.cpg/sg51_1_cif.got.tgz:1828.got - 2010.06.03 11:52:47.
