data_PCOD9407214
_publ_section_title
;
Structure prediction by ZEFSAII (Michael W. Deem and Ramdas Pophale) SiO2 
 PCOD9407214
Probable space group: P M M A
;
_chemical_formula_sum "Si O2"
_cell_formula_units_Z 56
_cell_length_a 27.310642
_cell_length_b 8.520016
_cell_length_c 15.128903
_cell_angle_alpha 90.000000
_cell_angle_beta 90.000000
_cell_angle_gamma 90.000000
_cell_volume 3520.300668
_symmetry_space_group_name_H-M "P M M A"
_symmetry_group_IT_number 51
_symmetry_cell_setting 'orthorhombic'
loop_
_space_group_symop_operation_xyz
x,y,z
1/2-x,-y,z
1/2+x,-y,-z
-x,y,-z
-x,-y,-z
1/2+x,y,-z
1/2-x,y,z
x,-y,z
loop_
_atom_site_type_symbol
_atom_site_label
_atom_site_fract_x
_atom_site_fract_y
_atom_site_fract_z
Si Si1 0.035011 0.683990 0.124226
Si Si2 0.544768 0.689118 0.381513
Si Si3 0.609592 0.311148 0.022543
Si Si4 0.805990 0.692487 0.889470
Si Si5 0.624912 0.315394 0.737924
Si Si6 0.433536 0.816045 0.807106
Si Si7 0.933366 0.691969 0.576230
O O1 0.021308 0.500000 0.113941
O O2 0.076989 0.691732 0.199216
O O3 0.987457 0.774485 0.155355
O O4 0.062098 0.739594 0.035212
O O5 0.544897 0.500000 0.378945
O O6 0.568341 0.749721 0.291889
O O7 0.487505 0.737550 0.388970
O O8 0.569732 0.739002 0.473773
O O9 0.608972 0.500000 0.019925
O O10 0.603978 0.255988 0.122234
O O11 0.657897 0.259333 0.969162
O O12 0.750000 0.742005 0.899261
O O13 0.806868 0.500000 0.888092
O O14 0.830917 0.748155 0.797688
O O15 0.635771 0.500000 0.723995
O O16 0.608038 0.249222 0.643605
O O17 0.426848 0.000000 0.804458
O O18 0.932686 0.500000 0.578275
#
# Coordination Sequence:
#
# PCOD9407214 Si02
#       7
#     8   8   8   8   8   8   8
#     4   9  16  28  44  59  80 114 150 176 202 247
#     4   9  16  27  43  59  80 113 153 184 203 241
#     4   9  18  30  45  62  82 113 146 174 209 258
#     4   8  14  25  43  69  93 107 127 169 222 266
#     4   8  12  21  41  65  86 108 137 171 208 255
#     4  12  22  28  37  58  88 119 147 182 217 246
#     4   8  13  23  42  63  79 106 148 183 206 241
#
# _framework density 15.907733
#
# number of rings (size 3 to 8) (size 9 to 14) (size 15 to 20)
#    0.000    3.000    1.429    4.286    0.000    2.286 
#    0.000    1.429    0.000    0.429    0.000    1.000 
#    0.000    5.714    0.000    0.000    0.000    0.000 
#
# Total GULP energy -311831.611588 kJ/mol
# GULP energy per Si atom -5568.421635 kJ/mol
# Density = 1.587153 g / cm^3
# Si number density = 15.907733 Si / 1000 Ang^3
#
#
#
# Elastic Constant Matrix: (Units=GPa)
#
#
# Indices 1 2 3 4 5 6 
#
# 1 70.7642 8.6907 52.9635 0.0000 0.0000 0.0000
# 2 8.6907 6.1779 15.5679 0.0000 0.0000 0.0000
# 3 52.9635 15.5679 154.5366 0.0000 0.0000 0.0000
# 4 0.0000 0.0000 0.0000 -5.5418 0.0000 0.0000
# 5 0.0000 0.0000 0.0000 0.0000 13.6906 0.0000
# 6 0.0000 0.0000 0.0000 0.0000 0.0000 -17.4626
#
#
#
# Elastic Compliance Matrix: (Units=1/GPa)
#
#
# Indices 1 2 3 4 5 6 
#
# 1 0.019932 -0.014508 -0.005370 0.000000 0.000000 0.000000
# 2 -0.014508 0.227498 -0.017946 0.000000 0.000000 0.000000
# 3 -0.005370 -0.017946 0.010119 0.000000 0.000000 0.000000
# 4 0.000000 0.000000 0.000000 -0.180447 0.000000 0.000000
# 5 0.000000 0.000000 0.000000 0.000000 0.073043 0.000000
# 6 0.000000 0.000000 0.000000 0.000000 0.000000 -0.057265
#
#
# Mechanical properties :
#
#
# Convention : Reuss Voigt Hill
#
# Bulk Modulus (GPa) = 5.49747 42.88033 24.18890
# Shear Modulus (GPa) = 21.81873 8.42102 15.11987
#
# Velocity S-wave (km/s) = 3.70750 2.30329 3.08632
# Velocity P-wave (km/s) = 4.66806 5.83847 5.28576
#
# Compressibility (1/GPa) = 0.18190200
#
# Stress axis : x y z
#
# Youngs Moduli (GPa) = 50.17016 4.39565 98.82278
#
# Poissons Ratio (x) = 0.06377 0.53065
# Poissons Ratio (y) = 0.72787 1.77344
# Poissons Ratio (z) = 0.26940 0.07888
#
# Static dielectric constant tensor:
#      x y z
#    x 1.518330 0.000000 0.000000 
#    y 0.000000 1.533000 0.000000 
#    z 0.000000 0.000000 1.573690 
# 
# From -- ./inp_files/26519.got.cif
#   From: 2010.05.17/outbox.cif.g08.bks.cpg/sg51_14_cif.got.tgz:26519.got - 2010.06.03 11:52:47.
