data_PCOD9407171
_publ_section_title
;
Structure prediction by ZEFSAII (Michael W. Deem and Ramdas Pophale) SiO2 
 PCOD9407171
Probable space group: P M M A
;
_chemical_formula_sum "Si O2"
_cell_formula_units_Z 48
_cell_length_a 14.523611
_cell_length_b 9.875211
_cell_length_c 16.210594
_cell_angle_alpha 90.000000
_cell_angle_beta 90.000000
_cell_angle_gamma 90.000000
_cell_volume 2324.983745
_symmetry_space_group_name_H-M "P M M A"
_symmetry_group_IT_number 51
_symmetry_cell_setting 'orthorhombic'
loop_
_space_group_symop_operation_xyz
x,y,z
1/2-x,-y,z
1/2+x,-y,-z
-x,y,-z
-x,-y,-z
1/2+x,y,-z
1/2-x,y,z
x,-y,z
loop_
_atom_site_type_symbol
_atom_site_label
_atom_site_fract_x
_atom_site_fract_y
_atom_site_fract_z
Si Si1 0.139448 0.500000 0.810909
Si Si2 0.360304 0.500000 0.612038
Si Si3 0.359654 0.000000 0.886074
Si Si4 0.150658 0.345250 0.349776
Si Si5 0.966721 0.730683 0.088338
Si Si6 0.859501 0.000000 0.312050
Si Si7 0.965430 0.773681 0.412945
Si Si8 0.350896 0.344292 0.152714
O O1 0.250000 0.500000 0.822257
O O2 0.121583 0.500000 0.712070
O O3 0.092582 0.628279 0.855606
O O4 0.250000 0.500000 0.600123
O O5 0.407623 0.365338 0.575877
O O6 0.408216 0.866450 0.921372
O O7 0.374646 0.000000 0.786468
O O8 0.250000 0.000000 0.900496
O O9 0.250000 0.293579 0.380663
O O10 0.139900 0.500000 0.379796
O O11 0.155295 0.350677 0.251068
O O12 0.061291 0.262318 0.370270
O O13 0.065009 0.751976 0.131808
O O14 0.000000 0.674891 0.000000
O O15 0.905301 0.128665 0.356214
O O16 0.750000 0.000000 0.325424
O O17 0.000000 0.831509 0.500000
O O18 0.250000 0.305634 0.119563
O O19 0.370551 0.500000 0.125215
#
# Coordination Sequence:
#
# PCOD9407171 Si02
#       8
#     4   4   4   8   8   4   8   8
#     4  11  23  40  65  95 129 171 220 265 306 372
#     4  11  23  40  65  95 129 171 220 265 306 372
#     4  11  25  46  69  89 121 171 218 261 316 386
#     4   9  18  34  58  86 118 161 205 244 295 363
#     4  12  24  40  61  96 129 163 207 263 327 373
#     4  11  25  46  69  89 121 171 218 261 316 386
#     4  12  24  40  61  96 129 163 207 263 327 373
#     4   9  18  34  58  86 118 161 205 244 295 363
#
# _framework density 20.645306999999999
#
# number of rings (size 3 to 8) (size 9 to 14) (size 15 to 20)
#    0.000    1.333    1.667    6.000    0.000    5.333 
#    0.000    0.833    0.000    3.000    0.000    0.000 
#    0.000    0.000    0.000    0.000    0.000    0.000 
#
# Total GULP energy -268115.187718 kJ/mol
# GULP energy per Si atom -5585.733077 kJ/mol
# Density = 2.059832 g / cm^3
# Si number density = 20.645307 Si / 1000 Ang^3
#
#
#
# Elastic Constant Matrix: (Units=GPa)
#
#
# Indices 1 2 3 4 5 6 
#
# 1 156.2828 32.3175 26.9979 0.0000 0.0000 0.0000
# 2 32.3175 58.6013 -8.1352 0.0000 0.0000 0.0000
# 3 26.9979 -8.1352 54.9441 0.0000 0.0000 0.0000
# 4 0.0000 0.0000 0.0000 -21.9734 0.0000 0.0000
# 5 0.0000 0.0000 0.0000 0.0000 -54.2123 0.0000
# 6 0.0000 0.0000 0.0000 0.0000 0.0000 -334.8784
#
#
#
# Elastic Compliance Matrix: (Units=1/GPa)
#
#
# Indices 1 2 3 4 5 6 
#
# 1 0.008331 -0.005271 -0.004874 0.000000 0.000000 0.000000
# 2 -0.005271 0.020757 0.005663 0.000000 0.000000 0.000000
# 3 -0.004874 0.005663 0.021434 0.000000 0.000000 0.000000
# 4 0.000000 0.000000 0.000000 -0.045510 0.000000 0.000000
# 5 0.000000 0.000000 0.000000 0.000000 -0.018446 0.000000
# 6 0.000000 0.000000 0.000000 0.000000 0.000000 -0.002986
#
#
# Mechanical properties :
#
#
# Convention : Reuss Voigt Hill
#
# Bulk Modulus (GPa) = 24.06212 41.35429 32.70821
# Shear Modulus (GPa) = 781.82397 -67.63629 357.09384
#
# Velocity S-wave (km/s) = 19.48116 -5.72994 13.16593
# Velocity P-wave (km/s) = 22.75304 4.86847 15.71622
#
# Compressibility (1/GPa) = 0.04155910
#
# Stress axis : x y z
#
# Youngs Moduli (GPa) = 120.04042 48.17569 46.65560
#
# Poissons Ratio (x) = 0.25392 0.22739
# Poissons Ratio (y) = 0.63270 -0.26422
# Poissons Ratio (z) = 0.58505 -0.27283
#
# Static dielectric constant tensor:
#      x y z
#    x 1.744520 0.000000 0.000000 
#    y 0.000000 1.734270 0.000000 
#    z 0.000000 0.000000 1.835320 
# 
# From -- ./inp_files/29708.got.cif
#   From: 2010.05.17/outbox.cif.g08.bks.cpg/sg51_15_cif.got.tgz:29708.got - 2010.06.03 11:52:47.
