data_PCOD9407044
_publ_section_title
;
Structure prediction by ZEFSAII (Michael W. Deem and Ramdas Pophale) SiO2 
 PCOD9407044
Probable space group: P M M A
;
_chemical_formula_sum "Si O2"
_cell_formula_units_Z 48
_cell_length_a 16.348133
_cell_length_b 14.491642
_cell_length_c 10.010242
_cell_angle_alpha 90.000000
_cell_angle_beta 90.000000
_cell_angle_gamma 90.000000
_cell_volume 2371.539353
_symmetry_space_group_name_H-M "P M M A"
_symmetry_group_IT_number 51
_symmetry_cell_setting 'orthorhombic'
loop_
_space_group_symop_operation_xyz
x,y,z
1/2-x,-y,z
1/2+x,-y,-z
-x,y,-z
-x,-y,-z
1/2+x,y,-z
1/2-x,y,z
x,-y,z
loop_
_atom_site_type_symbol
_atom_site_label
_atom_site_fract_x
_atom_site_fract_y
_atom_site_fract_z
Si Si1 0.915953 0.000000 0.325164
Si Si2 0.886203 0.000000 0.632853
Si Si3 0.849815 0.500000 0.881358
Si Si4 0.843300 0.693439 0.010290
Si Si5 0.625379 0.195629 0.747935
Si Si6 0.849898 0.500000 0.572206
Si Si7 0.070367 0.199943 0.753283
Si Si8 0.343990 0.303704 0.518693
O O1 0.874424 0.000000 0.472201
O O2 0.897857 0.905717 0.246883
O O3 0.014578 0.000000 0.349315
O O4 0.853138 0.908040 0.703084
O O5 0.750000 0.500000 0.878076
O O6 0.877435 0.500000 0.726706
O O7 0.874320 0.594444 0.955581
O O8 0.750000 0.680030 0.057335
O O9 0.895696 0.738156 0.127429
O O10 0.842871 0.764594 0.886626
O O11 0.527161 0.198803 0.756712
O O12 0.654069 0.262002 0.629397
O O13 0.750000 0.500000 0.576286
O O14 0.874599 0.591947 0.495296
O O15 0.100400 0.243333 0.614514
O O16 0.250000 0.302731 0.567216
#
# Coordination Sequence:
#
# PCOD9407044 Si02
#       8
#     4   4   4   8   8   4   8   8
#     4   9  18  37  60  83 119 161 190 228 297 366
#     4   9  18  35  62  87 113 157 202 230 279 364
#     4   9  18  37  62  82 111 162 202 230 287 364
#     4  11  23  41  62  86 119 157 199 243 293 353
#     4  11  21  39  63  88 115 156 203 242 282 348
#     4   9  18  35  60  86 115 156 198 234 287 360
#     4  11  23  39  60  90 122 154 192 244 301 346
#     4  11  21  37  61  88 117 153 197 241 290 348
#
# _framework density 20.240017999999999
#
# number of rings (size 3 to 8) (size 9 to 14) (size 15 to 20)
#    0.000    1.667    3.333    2.000    0.000    1.333 
#    0.000   15.000    0.000    0.000    0.000    0.000 
#    0.000    0.000    0.000    0.000    0.000    0.000 
#
# Total GULP energy -268217.870134 kJ/mol
# GULP energy per Si atom -5587.872294 kJ/mol
# Density = 2.019395 g / cm^3
# Si number density = 20.240018 Si / 1000 Ang^3
#
#
#
# Elastic Constant Matrix: (Units=GPa)
#
#
# Indices 1 2 3 4 5 6 
#
# 1 51.1315 15.2609 11.6203 0.0000 0.0000 0.0000
# 2 15.2609 113.4988 -12.7742 0.0000 0.0000 0.0000
# 3 11.6203 -12.7742 39.0132 0.0000 0.0000 0.0000
# 4 0.0000 0.0000 0.0000 28.6567 0.0000 0.0000
# 5 0.0000 0.0000 0.0000 0.0000 34.8834 0.0000
# 6 0.0000 0.0000 0.0000 0.0000 0.0000 -13.9025
#
#
#
# Elastic Compliance Matrix: (Units=1/GPa)
#
#
# Indices 1 2 3 4 5 6 
#
# 1 0.022550 -0.003933 -0.008005 0.000000 0.000000 0.000000
# 2 -0.003933 0.009834 0.004391 0.000000 0.000000 0.000000
# 3 -0.008005 0.004391 0.029454 0.000000 0.000000 0.000000
# 4 0.000000 0.000000 0.000000 0.034896 0.000000 0.000000
# 5 0.000000 0.000000 0.000000 0.000000 0.028667 0.000000
# 6 0.000000 0.000000 0.000000 0.000000 0.000000 -0.071930
#
#
# Mechanical properties :
#
#
# Convention : Reuss Voigt Hill
#
# Bulk Modulus (GPa) = 21.39215 25.76196 23.57705
# Shear Modulus (GPa) = 59.42025 22.56328 40.99176
#
# Velocity S-wave (km/s) = 5.42416 3.34246 4.50520
# Velocity P-wave (km/s) = 7.05839 5.25851 6.22386
#
# Compressibility (1/GPa) = 0.04674612
#
# Stress axis : x y z
#
# Youngs Moduli (GPa) = 44.34499 101.69071 33.95072
#
# Poissons Ratio (x) = 0.39995 0.27176
# Poissons Ratio (y) = 0.17441 -0.14909
# Poissons Ratio (z) = 0.35496 -0.44656
#
# Static dielectric constant tensor:
#      x y z
#    x 1.720250 0.000000 0.000000 
#    y 0.000000 1.724080 0.000000 
#    z 0.000000 0.000000 1.663980 
# 
# From -- ./inp_files/9740.got.cif
#   From: 2010.05.17/outbox.cif.g08.bks.cpg/sg51_5_cif.got.tgz:9740.got - 2010.06.03 11:52:47.
