data_PCOD9407425
_publ_section_title
;
Structure prediction by ZEFSAII (Michael W. Deem and Ramdas Pophale) SiO2 
 PCOD9407425
Probable space group: P M M A
;
_chemical_formula_sum "Si O2"
_cell_formula_units_Z 56
_cell_length_a 15.000000
_cell_length_b 15.000000
_cell_length_c 12.000000
_cell_angle_alpha 90.000000
_cell_angle_beta 90.000000
_cell_angle_gamma 90.000000
_cell_volume 2700.000000
_symmetry_space_group_name_H-M "P M M A"
_symmetry_group_IT_number 51
_symmetry_cell_setting 'orthorhombic'
loop_
_space_group_symop_operation_xyz
x,y,z
1/2-x,-y,z
1/2+x,-y,-z
-x,y,-z
-x,-y,-z
1/2+x,y,-z
1/2-x,y,z
x,-y,z
loop_
_atom_site_type_symbol
_atom_site_label
_atom_site_fract_x
_atom_site_fract_y
_atom_site_fract_z
Si Si1 0.359274 0.906181 0.318012
Si Si2 0.648906 0.766170 0.840489
Si Si3 0.095579 0.593363 0.056582
Si Si4 0.103613 0.100876 0.967937
Si Si5 0.141243 0.782870 0.755758
Si Si6 0.641445 0.094151 0.428185
Si Si7 0.350498 0.595315 0.814775
O O1 0.250000 0.903235 0.313276
O O2 0.395517 0.822115 0.255998
O O3 0.386527 0.905503 0.444966
O O4 0.385887 0.000000 0.264199
O O5 0.750000 0.741752 0.812525
O O6 0.599215 0.677529 0.867982
O O7 0.649816 0.833756 0.944132
O O8 0.117387 0.500000 0.112450
O O9 0.156608 0.604880 0.948143
O O10 0.000000 0.589336 0.000000
O O11 0.114199 0.147849 0.849944
O O12 0.138280 0.000000 0.968914
O O13 0.000000 0.099311 0.000000
O O14 0.250000 0.778751 0.760598
O O15 0.111545 0.822092 0.639399
O O16 0.105107 0.684565 0.774018
O O17 0.750000 0.094641 0.428430
O O18 0.613347 0.000000 0.375776
O O19 0.250000 0.591869 0.769467
O O20 0.394663 0.500000 0.792121
#
# Coordination Sequence:
#
# PCOD9407425 Si02
#       7
#     8   8   8   8   8   8   8
#     4   8  15  28  46  69  96 127 163 201 243 291
#     4  11  20  31  50  73  97 127 161 199 241 293
#     4  10  20  33  49  70  97 130 164 197 238 292
#     4  11  23  34  44  66 101 134 160 195 246 296
#     4  10  18  29  49  73  95 125 165 207 246 290
#     4   8  14  26  45  69  95 123 161 206 244 284
#     4   9  17  29  45  68  96 122 152 193 241 289
#
# _framework density 20.740741
#
# number of rings (size 3 to 8) (size 9 to 14) (size 15 to 20)
#    0.000    2.429    1.429    3.000    0.000    3.143 
#    0.000    0.000    0.000    1.714    0.000    8.000 
#    0.000    3.429    0.000    0.000    0.000    0.000 
#
# Total GULP energy -311875.930021 kJ/mol
# GULP energy per Si atom -5569.213036 kJ/mol
# Density = 2.069353 g / cm^3
# Si number density = 20.740741 Si / 1000 Ang^3
#
#
#
# Elastic Constant Matrix: (Units=GPa)
#
#
# Indices 1 2 3 4 5 6 
#
# 1 40.1297 23.2432 3.4202 0.0000 0.0000 0.0000
# 2 23.2432 230.9734 84.8639 0.0000 0.0000 0.0000
# 3 3.4202 84.8639 58.0560 0.0000 0.0000 0.0000
# 4 0.0000 0.0000 0.0000 1.5014 0.0000 0.0000
# 5 0.0000 0.0000 0.0000 0.0000 -5.5305 0.0000
# 6 0.0000 0.0000 0.0000 0.0000 0.0000 35.9461
#
#
#
# Elastic Compliance Matrix: (Units=1/GPa)
#
#
# Indices 1 2 3 4 5 6 
#
# 1 0.027163 -0.004635 0.005174 0.000000 0.000000 0.000000
# 2 -0.004635 0.010143 -0.014554 0.000000 0.000000 0.000000
# 3 0.005174 -0.014554 0.038194 0.000000 0.000000 0.000000
# 4 0.000000 0.000000 0.000000 0.666032 0.000000 0.000000
# 5 0.000000 0.000000 0.000000 0.000000 -0.180814 0.000000
# 6 0.000000 0.000000 0.000000 0.000000 0.000000 0.027819
#
#
# Mechanical properties :
#
#
# Convention : Reuss Voigt Hill
#
# Bulk Modulus (GPa) = 21.06511 61.35707 41.21109
# Shear Modulus (GPa) = 7.90652 20.89218 14.39935
#
# Velocity S-wave (km/s) = 1.95457 3.17724 2.63773
# Velocity P-wave (km/s) = 3.90797 6.56559 5.40274
#
# Compressibility (1/GPa) = 0.04747187
#
# Stress axis : x y z
#
# Youngs Moduli (GPa) = 36.81545 98.58708 26.18180
#
# Poissons Ratio (x) = 0.45691 -0.13548
# Poissons Ratio (y) = 0.17062 0.38105
# Poissons Ratio (z) = -0.19050 1.43484
#
# Static dielectric constant tensor:
#      x y z
#    x 1.840190 0.000000 0.000000 
#    y 0.000000 1.792240 0.000000 
#    z 0.000000 0.000000 1.751480 
# 
# From -- ./inp_files/16611.got.cif
#   From: 2010.05.17/outbox.ucp.g08.bks.cvg/sg51_9_cif.got.tgz:16611.got - 2010.06.11 16:27:58.
