data_PCOD9407103
_publ_section_title
;
Structure prediction by ZEFSAII (Michael W. Deem and Ramdas Pophale) SiO2 
 PCOD9407103
Probable space group: P M M A
;
_chemical_formula_sum "Si O2"
_cell_formula_units_Z 48
_cell_length_a 19.499440
_cell_length_b 8.642450
_cell_length_c 15.500354
_cell_angle_alpha 90.000000
_cell_angle_beta 90.000000
_cell_angle_gamma 90.000000
_cell_volume 2612.165153
_symmetry_space_group_name_H-M "P M M A"
_symmetry_group_IT_number 51
_symmetry_cell_setting 'orthorhombic'
loop_
_space_group_symop_operation_xyz
x,y,z
1/2-x,-y,z
1/2+x,-y,-z
-x,y,-z
-x,-y,-z
1/2+x,y,-z
1/2-x,y,z
x,-y,z
loop_
_atom_site_type_symbol
_atom_site_label
_atom_site_fract_x
_atom_site_fract_y
_atom_site_fract_z
Si Si1 0.424892 0.685271 0.537981
Si Si2 0.328958 0.813446 0.876459
Si Si3 0.169755 0.814963 0.390297
Si Si4 0.170844 0.686515 0.063129
Si Si5 0.935333 0.185812 0.270732
Si Si6 0.415233 0.685815 0.229717
O O1 0.500000 0.726708 0.500000
O O2 0.418683 0.500000 0.534746
O O3 0.367941 0.760697 0.477037
O O4 0.420600 0.743037 0.635729
O O5 0.250000 0.764172 0.861344
O O6 0.379315 0.764204 0.800097
O O7 0.329965 0.000000 0.879855
O O8 0.350283 0.750216 0.969956
O O9 0.250000 0.774164 0.391167
O O10 0.131566 0.735731 0.310165
O O11 0.163494 0.000000 0.381983
O O12 0.250000 0.735542 0.078938
O O13 0.170105 0.500000 0.060070
O O14 0.122163 0.735254 0.141387
O O15 0.010406 0.239649 0.241012
O O16 0.933826 0.000000 0.277444
O O17 0.422041 0.500000 0.229878
#
# Coordination Sequence:
#
# PCOD9407103 Si02
#       6
#     8   8   8   8   8   8
#     4  11  23  40  62  87 116 154 196 239 291 350
#     4   9  20  39  60  83 113 150 193 241 291 345
#     4  11  24  40  61  90 120 153 195 241 290 347
#     4   9  19  36  58  83 113 152 194 238 289 342
#     4  11  23  38  60  87 117 153 194 243 295 350
#     4  11  22  37  58  86 120 156 195 239 289 348
#
# _framework density 18.375561999999999
#
# number of rings (size 3 to 8) (size 9 to 14) (size 15 to 20)
#    0.000    1.667    1.667    2.500    0.000    6.667 
#    0.000    6.667    0.000    0.000    0.000    0.000 
#    0.000    0.000    0.000    0.000    0.000    0.000 
#
# Total GULP energy -268228.579243 kJ/mol
# GULP energy per Si atom -5588.095401 kJ/mol
# Density = 1.833374 g / cm^3
# Si number density = 18.375562 Si / 1000 Ang^3
#
#
#
# Elastic Constant Matrix: (Units=GPa)
#
#
# Indices 1 2 3 4 5 6 
#
# 1 92.1785 11.0461 65.3259 0.0000 0.0000 0.0000
# 2 11.0461 14.3335 7.6736 0.0000 0.0000 0.0000
# 3 65.3259 7.6736 151.4260 0.0000 0.0000 0.0000
# 4 0.0000 0.0000 0.0000 35.7220 0.0000 0.0000
# 5 0.0000 0.0000 0.0000 0.0000 2.9160 0.0000
# 6 0.0000 0.0000 0.0000 0.0000 0.0000 21.0495
#
#
#
# Elastic Compliance Matrix: (Units=1/GPa)
#
#
# Indices 1 2 3 4 5 6 
#
# 1 0.016749 -0.009291 -0.006755 0.000000 0.000000 0.000000
# 2 -0.009291 0.076867 0.000113 0.000000 0.000000 0.000000
# 3 -0.006755 0.000113 0.009512 0.000000 0.000000 0.000000
# 4 0.000000 0.000000 0.000000 0.027994 0.000000 0.000000
# 5 0.000000 0.000000 0.000000 0.000000 0.342930 0.000000
# 6 0.000000 0.000000 0.000000 0.000000 0.000000 0.047507
#
#
# Mechanical properties :
#
#
# Convention : Reuss Voigt Hill
#
# Bulk Modulus (GPa) = 14.03279 47.33656 30.68467
# Shear Modulus (GPa) = 8.66283 23.53034 16.09659
#
# Velocity S-wave (km/s) = 2.17360 3.58232 2.96290
# Velocity P-wave (km/s) = 3.73532 6.55189 5.33291
#
# Compressibility (1/GPa) = 0.07126167
#
# Stress axis : x y z
#
# Youngs Moduli (GPa) = 59.70531 13.00956 105.12842
#
# Poissons Ratio (x) = 0.12088 0.71011
# Poissons Ratio (y) = 0.55474 -0.01189
# Poissons Ratio (z) = 0.40329 -0.00147
#
# Static dielectric constant tensor:
#      x y z
#    x 1.615690 0.000000 0.000000 
#    y 0.000000 1.622480 0.000000 
#    z 0.000000 0.000000 1.599740 
# 
# From -- ./inp_files/24823.got.cif
#   From: 2010.05.17/outbox.cif.g08.bks.cpg/sg51_13_cif.got.tgz:24823.got - 2010.06.03 11:52:47.
