data_PCOD9407536
_publ_section_title
;
Structure prediction by ZEFSAII (Michael W. Deem and Ramdas Pophale) SiO2 
 PCOD9407536
Probable space group: P M M A
;
_chemical_formula_sum "Si O2"
_cell_formula_units_Z 64
_cell_length_a 15.000000
_cell_length_b 9.000000
_cell_length_c 24.000000
_cell_angle_alpha 90.000000
_cell_angle_beta 90.000000
_cell_angle_gamma 90.000000
_cell_volume 3240.000000
_symmetry_space_group_name_H-M "P M M A"
_symmetry_group_IT_number 51
_symmetry_cell_setting 'orthorhombic'
loop_
_space_group_symop_operation_xyz
x,y,z
1/2-x,-y,z
1/2+x,-y,-z
-x,y,-z
-x,-y,-z
1/2+x,y,-z
1/2-x,y,z
x,-y,z
loop_
_atom_site_type_symbol
_atom_site_label
_atom_site_fract_x
_atom_site_fract_y
_atom_site_fract_z
Si Si1 0.851502 0.821368 0.643114
Si Si2 0.396249 0.827953 0.483077
Si Si3 0.465968 0.175711 0.884437
Si Si4 0.654558 0.678130 0.406593
Si Si5 0.849613 0.675739 0.892211
Si Si6 0.146544 0.322647 0.788901
Si Si7 0.850885 0.675188 0.026060
Si Si8 0.480595 0.322057 0.684605
O O1 0.750000 0.777367 0.654683
O O2 0.876508 0.776057 0.579543
O O3 0.923397 0.752288 0.684440
O O4 0.857507 0.000000 0.645064
O O5 0.500000 0.821984 0.500000
O O6 0.349764 0.733364 0.530632
O O7 0.367246 0.000000 0.486513
O O8 0.563281 0.241649 0.870359
O O9 0.394255 0.234813 0.840281
O O10 0.427629 0.235932 0.942946
O O11 0.470757 0.000000 0.885046
O O12 0.750000 0.722247 0.381471
O O13 0.650087 0.500000 0.405668
O O14 0.572822 0.734361 0.369880
O O15 0.750000 0.725821 0.874406
O O16 0.856678 0.500000 0.879953
O O17 0.853382 0.692046 0.959453
O O18 0.250000 0.286938 0.778507
O O19 0.141512 0.500000 0.800052
O O20 0.083569 0.291070 0.736294
O O21 0.750000 0.718019 0.044297
O O22 0.862261 0.500000 0.038483
O O23 0.491259 0.500000 0.680919
#
# Coordination Sequence:
#
# PCOD9407536 Si02
#       8
#     8   8   8   8   8   8   8   8
#     4  10  21  37  56  79 111 149 185 222 267 323
#     4  10  19  33  53  77 108 147 186 219 255 313
#     4  12  24  35  53  85 121 153 186 231 287 341
#     4  10  20  33  52  80 111 139 170 216 274 327
#     4   9  19  37  60  84 112 152 200 240 274 323
#     4  10  22  42  65  84 106 142 186 231 280 334
#     4   9  18  34  57  84 115 154 198 238 276 327
#     4  10  21  38  60  83 106 134 178 232 281 328
#
# _framework density 19.753086
#
# number of rings (size 3 to 8) (size 9 to 14) (size 15 to 20)
#    0.000    2.000    1.250    3.375    0.000    8.000 
#    0.000    1.875    0.000    3.000    0.000    0.000 
#    0.000    0.000    0.000    0.000    0.000    0.000 
#
# Total GULP energy -357264.515397 kJ/mol
# GULP energy per Si atom -5582.258053 kJ/mol
# Density = 1.970813 g / cm^3
# Si number density = 19.753086 Si / 1000 Ang^3
#
#
#
# Elastic Constant Matrix: (Units=GPa)
#
#
# Indices 1 2 3 4 5 6 
#
# 1 154.7488 48.1246 27.1443 0.0000 0.0000 0.0000
# 2 48.1246 22.7096 22.8883 0.0000 0.0000 0.0000
# 3 27.1443 22.8883 21.3422 0.0000 0.0000 0.0000
# 4 0.0000 0.0000 0.0000 251.4431 0.0000 0.0000
# 5 0.0000 0.0000 0.0000 0.0000 21.8044 0.0000
# 6 0.0000 0.0000 0.0000 0.0000 0.0000 -26.8974
#
#
#
# Elastic Compliance Matrix: (Units=1/GPa)
#
#
# Indices 1 2 3 4 5 6 
#
# 1 0.003154 0.032649 -0.039026 0.000000 0.000000 0.000000
# 2 0.032649 -0.206442 0.179872 0.000000 0.000000 0.000000
# 3 -0.039026 0.179872 -0.096412 0.000000 0.000000 0.000000
# 4 0.000000 0.000000 0.000000 0.003977 0.000000 0.000000
# 5 0.000000 0.000000 0.000000 0.000000 0.045862 0.000000
# 6 0.000000 0.000000 0.000000 0.000000 0.000000 -0.037178
#
#
# Mechanical properties :
#
#
# Convention : Reuss Voigt Hill
#
# Bulk Modulus (GPa) = 21.14554 43.90166 32.52360
# Shear Modulus (GPa) = -8.08714 55.97957 23.94622
#
# Velocity S-wave (km/s) = -2.02559 5.32928 3.48555
# Velocity P-wave (km/s) = 2.29292 7.75511 5.71836
#
# Compressibility (1/GPa) = 0.04729131
#
# Stress axis : x y z
#
# Youngs Moduli (GPa) = 317.04101 -4.84397 -10.37220
#
# Poissons Ratio (x) = 0.15815 -0.40479
# Poissons Ratio (y) = -10.35117 1.86567
# Poissons Ratio (z) = 12.37292 0.87130
#
# Static dielectric constant tensor:
#      x y z
#    x 1.728010 0.000000 0.000000 
#    y 0.000000 1.658860 0.000000 
#    z 0.000000 0.000000 1.710740 
# 
# From -- ./inp_files/35828.got.cif
#   From: 2010.05.17/outbox.ucp.g08.bks.cvg/sg51_18_cif.got.tgz:35828.got - 2010.06.11 16:27:58.
