data_PCOD9407652
_publ_section_title
;
Structure prediction by ZEFSAII (Michael W. Deem and Ramdas Pophale) SiO2 
 PCOD9407652
Probable space group: P M M A
;
_chemical_formula_sum "Si O2"
_cell_formula_units_Z 64
_cell_length_a 15.000000
_cell_length_b 9.000000
_cell_length_c 24.000000
_cell_angle_alpha 90.000000
_cell_angle_beta 90.000000
_cell_angle_gamma 90.000000
_cell_volume 3240.000000
_symmetry_space_group_name_H-M "P M M A"
_symmetry_group_IT_number 51
_symmetry_cell_setting 'orthorhombic'
loop_
_space_group_symop_operation_xyz
x,y,z
1/2-x,-y,z
1/2+x,-y,-z
-x,y,-z
-x,-y,-z
1/2+x,y,-z
1/2-x,y,z
x,-y,z
loop_
_atom_site_type_symbol
_atom_site_label
_atom_site_fract_x
_atom_site_fract_y
_atom_site_fract_z
Si Si1 0.035772 0.323452 0.740713
Si Si2 0.354519 0.327449 0.534672
Si Si3 0.037542 0.824566 0.630819
Si Si4 0.651246 0.831734 0.887370
Si Si5 0.349902 0.823504 0.415510
Si Si6 0.351714 0.318329 0.847858
Si Si7 0.651392 0.829932 0.753574
Si Si8 0.487016 0.677768 0.938260
O O1 0.038746 0.500000 0.739541
O O2 0.076001 0.257621 0.684373
O O3 0.089348 0.270803 0.795039
O O4 0.934100 0.268638 0.742143
O O5 0.250000 0.314886 0.549876
O O6 0.380402 0.500000 0.537517
O O7 0.413794 0.231369 0.575782
O O8 0.362856 0.266816 0.472234
O O9 0.932391 0.789078 0.624044
O O10 0.047021 0.000000 0.636996
O O11 0.750000 0.789516 0.907664
O O12 0.654629 0.837365 0.820635
O O13 0.575371 0.720000 0.905054
O O14 0.631331 0.000000 0.906689
O O15 0.250000 0.792514 0.394342
O O16 0.354361 0.000000 0.427947
O O17 0.250000 0.268741 0.844325
O O18 0.351429 0.500000 0.847708
O O19 0.401869 0.267903 0.903714
O O20 0.750000 0.778826 0.735277
O O21 0.638654 0.000000 0.732554
O O22 0.478975 0.500000 0.941598
O O23 0.500000 0.738724 0.000000
#
# Coordination Sequence:
#
# PCOD9407652 Si02
#       8
#     8   8   8   8   8   8   8   8
#     4  11  22  36  56  81 109 147 193 239 286 335
#     4  10  21  37  58  84 114 148 188 237 290 339
#     4  11  23  37  56  83 115 151 191 237 286 339
#     4   9  18  33  54  79 109 144 178 217 272 333
#     4   9  19  37  59  82 111 149 188 226 278 344
#     4   9  19  37  57  77 108 149 188 228 280 338
#     4   9  18  34  56  79 105 141 180 220 275 339
#     4  10  20  34  56  86 114 143 184 233 283 336
#
# _framework density 19.753086
#
# number of rings (size 3 to 8) (size 9 to 14) (size 15 to 20)
#    0.000    2.250    1.250    2.250    0.000    5.500 
#    0.000    5.000    0.000    3.000    0.000    0.000 
#    0.000    0.000    0.000    0.000    0.000    0.000 
#
# Total GULP energy -356998.741698 kJ/mol
# GULP energy per Si atom -5578.105339 kJ/mol
# Density = 1.970813 g / cm^3
# Si number density = 19.753086 Si / 1000 Ang^3
#
#
#
# Elastic Constant Matrix: (Units=GPa)
#
#
# Indices 1 2 3 4 5 6 
#
# 1 93.7831 34.7170 55.7926 0.0000 0.0000 0.0000
# 2 34.7170 15.9525 32.7351 0.0000 0.0000 0.0000
# 3 55.7926 32.7351 91.4801 0.0000 0.0000 0.0000
# 4 0.0000 0.0000 0.0000 17.9006 0.0000 0.0000
# 5 0.0000 0.0000 0.0000 0.0000 -32.5013 0.0000
# 6 0.0000 0.0000 0.0000 0.0000 0.0000 12.9059
#
#
#
# Elastic Compliance Matrix: (Units=1/GPa)
#
#
# Indices 1 2 3 4 5 6 
#
# 1 0.118892 -0.413803 0.075563 0.000000 0.000000 0.000000
# 2 -0.413803 1.676159 -0.347421 0.000000 0.000000 0.000000
# 3 0.075563 -0.347421 0.089167 0.000000 0.000000 0.000000
# 4 0.000000 0.000000 0.000000 0.055864 0.000000 0.000000
# 5 0.000000 0.000000 0.000000 0.000000 -0.030768 0.000000
# 6 0.000000 0.000000 0.000000 0.000000 0.000000 0.077484
#
#
# Mechanical properties :
#
#
# Convention : Reuss Voigt Hill
#
# Bulk Modulus (GPa) = 1.94971 49.74502 25.84736
# Shear Modulus (GPa) = 1.41680 4.85910 3.13795
#
# Velocity S-wave (km/s) = 0.84783 1.57011 1.26176
# Velocity P-wave (km/s) = 1.39556 5.34089 3.90338
#
# Compressibility (1/GPa) = 0.51289801
#
# Stress axis : x y z
#
# Youngs Moduli (GPa) = 8.41096 0.59660 11.21495
#
# Poissons Ratio (x) = 0.24688 -0.84744
# Poissons Ratio (y) = 3.48048 3.89631
# Poissons Ratio (z) = -0.63556 0.20727
#
# Static dielectric constant tensor:
#      x y z
#    x 1.694840 0.000000 0.000000 
#    y 0.000000 1.663870 0.000000 
#    z 0.000000 0.000000 1.715140 
# 
# From -- ./inp_files/35673.got.cif
#   From: 2010.05.17/outbox.ucp.g08.bks.cvg/sg51_18_cif.got.tgz:35673.got - 2010.06.11 16:27:58.
