data_PCOD9407982
_publ_section_title
;
Structure prediction by ZEFSAII (Michael W. Deem and Ramdas Pophale) SiO2 
 PCOD9407982
Probable space group: P N N A
;
_chemical_formula_sum "Si O2"
_cell_formula_units_Z 44
_cell_length_a 18.017006
_cell_length_b 9.501602
_cell_length_c 11.796794
_cell_angle_alpha 90.000000
_cell_angle_beta 90.000000
_cell_angle_gamma 90.000000
_cell_volume 2019.498122
_symmetry_space_group_name_H-M "P N N A"
_symmetry_group_IT_number 52
_symmetry_cell_setting 'orthorhombic'
loop_
_space_group_symop_operation_xyz
x,y,z
1/2-x,-y,z
x,1/2-y,1/2-z
1/2-x,1/2+y,1/2-z
-x,-y,-z
1/2+x,y,-z
-x,1/2+y,1/2+z
1/2+x,1/2-y,1/2+z
loop_
_atom_site_type_symbol
_atom_site_label
_atom_site_fract_x
_atom_site_fract_y
_atom_site_fract_z
Si Si1 0.617335 0.750000 0.250000
Si Si2 0.248877 0.303597 0.897528
Si Si3 0.974416 0.998342 0.133083
Si Si4 0.882108 0.750000 0.250000
Si Si5 0.280653 0.830494 0.350741
Si Si6 0.638108 0.454361 0.670851
Si Si7 0.750000 0.000000 0.016311
O O1 0.675022 0.669308 0.167319
O O2 0.570351 0.863084 0.176414
O O3 0.173852 0.339667 0.830734
O O4 0.251744 0.350782 0.026935
O O5 0.240786 0.134665 0.907845
O O6 0.930456 0.858921 0.174089
O O7 0.054923 0.004561 0.190244
O O8 0.000000 0.000000 0.000000
O O9 0.235540 0.750000 0.250000
O O10 0.180044 0.038637 0.290788
O O11 0.346297 0.709635 0.365401
O O12 0.681235 0.529965 0.568651
#
# Coordination Sequence:
#
# PCOD9407982 Si02
#       7
#     4   8   8   4   8   8   4
#     4  11  24  40  74  97 128 180 232 275 344 414
#     4  10  19  37  61  96 131 166 227 280 330 403
#     4  12  24  45  67  98 139 184 224 281 344 419
#     4  11  26  40  66  97 134 176 224 281 352 396
#     4   7  15  33  59  90 126 167 207 280 333 378
#     4   8  17  32  60  89 121 167 227 253 329 397
#     4  10  16  36  68  94 122 174 218 280 326 396
#
# _framework density 21.787590999999999
#
# number of rings (size 3 to 8) (size 9 to 14) (size 15 to 20)
#    1.091    1.091    0.000    5.455    0.000    2.182 
#    0.000   10.909    0.000    0.000    0.000    0.000 
#    0.000    0.000    0.000    0.000    0.000    0.000 
#
# Total GULP energy -245003.775311 kJ/mol
# GULP energy per Si atom -5568.267621 kJ/mol
# Density = 2.173800 g / cm^3
# Si number density = 21.787591 Si / 1000 Ang^3
#
#
#
# Elastic Constant Matrix: (Units=GPa)
#
#
# Indices 1 2 3 4 5 6 
#
# 1 157.7111 32.7130 67.0482 0.0000 0.0000 0.0000
# 2 32.7130 109.7921 41.4237 0.0000 0.0000 0.0000
# 3 67.0482 41.4237 181.4942 0.0000 0.0000 0.0000
# 4 0.0000 0.0000 0.0000 31.1432 0.0000 0.0000
# 5 0.0000 0.0000 0.0000 0.0000 23.5824 0.0000
# 6 0.0000 0.0000 0.0000 0.0000 0.0000 -4.4561
#
#
#
# Elastic Compliance Matrix: (Units=1/GPa)
#
#
# Indices 1 2 3 4 5 6 
#
# 1 0.007697 -0.001336 -0.002539 0.000000 0.000000 0.000000
# 2 -0.001336 0.010198 -0.001834 0.000000 0.000000 0.000000
# 3 -0.002539 -0.001834 0.006866 0.000000 0.000000 0.000000
# 4 0.000000 0.000000 0.000000 0.032110 0.000000 0.000000
# 5 0.000000 0.000000 0.000000 0.000000 0.042405 0.000000
# 6 0.000000 0.000000 0.000000 0.000000 0.000000 -0.224412
#
#
# Mechanical properties :
#
#
# Convention : Reuss Voigt Hill
#
# Bulk Modulus (GPa) = 74.93663 81.26303 78.09983
# Shear Modulus (GPa) = -45.75768 30.57471 -7.59148
#
# Velocity S-wave (km/s) = -4.58773 3.75014 -1.86866
# Velocity P-wave (km/s) = 2.53096 7.49201 5.59178
#
# Compressibility (1/GPa) = 0.01334461
#
# Stress axis : x y z
#
# Youngs Moduli (GPa) = 129.92098 98.05760 145.63927
#
# Poissons Ratio (x) = 0.13096 0.36972
# Poissons Ratio (y) = 0.17352 0.26713
# Poissons Ratio (z) = 0.32982 0.17986
#
# Static dielectric constant tensor:
#      x y z
#    x 1.828080 0.000000 0.000000 
#    y 0.000000 1.949320 0.000000 
#    z 0.000000 0.000000 1.877610 
# 
# From -- ./inp_files/20561.got.cif
#   From: 2010.05.17/outbox.cif.g08.bks.cpg/sg52_11_cif.got.tgz:20561.got - 2010.06.03 12:15:38.
