data_PCOD9407650
_publ_section_title
;
Structure prediction by ZEFSAII (Michael W. Deem and Ramdas Pophale) SiO2 
 PCOD9407650
Probable space group: P M M A
;
_chemical_formula_sum "Si O2"
_cell_formula_units_Z 64
_cell_length_a 15.000000
_cell_length_b 9.000000
_cell_length_c 24.000000
_cell_angle_alpha 90.000000
_cell_angle_beta 90.000000
_cell_angle_gamma 90.000000
_cell_volume 3240.000000
_symmetry_space_group_name_H-M "P M M A"
_symmetry_group_IT_number 51
_symmetry_cell_setting 'orthorhombic'
loop_
_space_group_symop_operation_xyz
x,y,z
1/2-x,-y,z
1/2+x,-y,-z
-x,y,-z
-x,-y,-z
1/2+x,y,-z
1/2-x,y,z
x,-y,z
loop_
_atom_site_type_symbol
_atom_site_label
_atom_site_fract_x
_atom_site_fract_y
_atom_site_fract_z
Si Si1 0.845413 0.167484 0.870858
Si Si2 0.354808 0.673216 0.538276
Si Si3 0.973571 0.175265 0.370947
Si Si4 0.349795 0.322024 0.407853
Si Si5 0.973893 0.173890 0.060176
Si Si6 0.037596 0.824190 0.749071
Si Si7 0.150423 0.326101 0.241403
Si Si8 0.646096 0.677720 0.150382
O O1 0.750000 0.175567 0.901721
O O2 0.845045 0.294081 0.824600
O O3 0.933900 0.179416 0.905987
O O4 0.847658 0.000000 0.844842
O O5 0.250000 0.688492 0.551101
O O6 0.379688 0.500000 0.545555
O O7 0.414680 0.770838 0.577882
O O8 0.365752 0.709779 0.473237
O O9 0.925249 0.209598 0.312460
O O10 0.069267 0.253250 0.374813
O O11 0.987674 0.000000 0.372935
O O12 0.250000 0.269371 0.393891
O O13 0.350487 0.500000 0.401348
O O14 0.898882 0.258769 0.094540
O O15 0.947714 0.000000 0.054381
O O16 0.000000 0.234973 0.000000
O O17 0.089321 0.741570 0.797967
O O18 0.935159 0.771586 0.744167
O O19 0.041205 0.000000 0.759911
O O20 0.250000 0.286482 0.263112
O O21 0.135419 0.500000 0.253653
O O22 0.750000 0.720897 0.154755
O O23 0.640285 0.500000 0.150713
#
# Coordination Sequence:
#
# PCOD9407650 Si02
#       8
#     8   8   8   8   8   8   8   8
#     4   9  17  31  53  81 114 150 185 223 272 333
#     4   9  19  37  60  84 112 150 196 243 292 348
#     4  11  24  37  54  85 120 152 192 243 298 353
#     4   9  19  37  60  85 115 154 197 239 288 350
#     4  10  21  37  61  93 125 158 195 235 283 343
#     4  11  24  41  59  82 116 158 199 242 294 352
#     4  10  20  34  56  85 112 142 183 231 285 343
#     4  11  25  44  65  89 118 156 202 250 299 347
#
# _framework density 19.753086
#
# number of rings (size 3 to 8) (size 9 to 14) (size 15 to 20)
#    0.000    2.000    1.250    2.625    0.000    8.000 
#    0.000    7.500    0.000    1.500    0.000    0.000 
#    0.000    0.000    0.000    0.000    0.000    0.000 
#
# Total GULP energy -357024.983226 kJ/mol
# GULP energy per Si atom -5578.515363 kJ/mol
# Density = 1.970813 g / cm^3
# Si number density = 19.753086 Si / 1000 Ang^3
#
#
#
# Elastic Constant Matrix: (Units=GPa)
#
#
# Indices 1 2 3 4 5 6 
#
# 1 79.8134 34.1825 55.3061 0.0000 0.0000 0.0000
# 2 34.1825 33.7467 45.3566 0.0000 0.0000 0.0000
# 3 55.3061 45.3566 108.9055 0.0000 0.0000 0.0000
# 4 0.0000 0.0000 0.0000 33.3655 0.0000 0.0000
# 5 0.0000 0.0000 0.0000 0.0000 -52.9640 0.0000
# 6 0.0000 0.0000 0.0000 0.0000 0.0000 56.8083
#
#
#
# Elastic Compliance Matrix: (Units=1/GPa)
#
#
# Indices 1 2 3 4 5 6 
#
# 1 0.023062 -0.017306 -0.004504 0.000000 0.000000 0.000000
# 2 -0.017306 0.080296 -0.024653 0.000000 0.000000 0.000000
# 3 -0.004504 -0.024653 0.021737 0.000000 0.000000 0.000000
# 4 0.000000 0.000000 0.000000 0.029971 0.000000 0.000000
# 5 0.000000 0.000000 0.000000 0.000000 -0.018881 0.000000
# 6 0.000000 0.000000 0.000000 0.000000 0.000000 0.017603
#
#
# Mechanical properties :
#
#
# Convention : Reuss Voigt Hill
#
# Bulk Modulus (GPa) = 31.08581 54.68400 42.88491
# Shear Modulus (GPa) = 19.42211 13.28333 16.35272
#
# Velocity S-wave (km/s) = 3.13907 2.59601 2.88037
# Velocity P-wave (km/s) = 5.37678 6.06049 5.72885
#
# Compressibility (1/GPa) = 0.03216901
#
# Stress axis : x y z
#
# Youngs Moduli (GPa) = 43.36072 12.45387 46.00467
#
# Poissons Ratio (x) = 0.21553 0.20721
# Poissons Ratio (y) = 0.75042 1.13414
# Poissons Ratio (z) = 0.19530 0.30702
#
# Static dielectric constant tensor:
#      x y z
#    x 1.692430 0.000000 0.000000 
#    y 0.000000 1.669400 0.000000 
#    z 0.000000 0.000000 1.730380 
# 
# From -- ./inp_files/35658.got.cif
#   From: 2010.05.17/outbox.ucp.g08.bks.cvg/sg51_18_cif.got.tgz:35658.got - 2010.06.11 16:27:58.
