data_PCOD9407141
_publ_section_title
;
Structure prediction by ZEFSAII (Michael W. Deem and Ramdas Pophale) SiO2 
 PCOD9407141
Probable space group: P M M A
;
_chemical_formula_sum "Si O2"
_cell_formula_units_Z 48
_cell_length_a 14.463592
_cell_length_b 19.386519
_cell_length_c 9.761383
_cell_angle_alpha 90.000000
_cell_angle_beta 90.000000
_cell_angle_gamma 90.000000
_cell_volume 2737.079114
_symmetry_space_group_name_H-M "P M M A"
_symmetry_group_IT_number 51
_symmetry_cell_setting 'orthorhombic'
loop_
_space_group_symop_operation_xyz
x,y,z
1/2-x,-y,z
1/2+x,-y,-z
-x,y,-z
-x,-y,-z
1/2+x,y,-z
1/2-x,y,z
x,-y,z
loop_
_atom_site_type_symbol
_atom_site_label
_atom_site_fract_x
_atom_site_fract_y
_atom_site_fract_z
Si Si1 0.999540 0.721521 0.155269
Si Si2 0.994331 0.581590 0.729773
Si Si3 0.859621 0.803378 0.661584
Si Si4 0.499034 0.077412 0.335445
Si Si5 0.351634 0.582822 0.504416
Si Si6 0.140332 0.803684 0.664174
O O1 0.002221 0.638707 0.154899
O O2 0.086329 0.749713 0.242892
O O3 0.910690 0.748590 0.239664
O O4 0.000000 0.747964 0.000000
O O5 0.996471 0.500000 0.764983
O O6 0.904073 0.596147 0.636967
O O7 0.080254 0.598181 0.629022
O O8 0.750000 0.804033 0.682903
O O9 0.908673 0.876574 0.695727
O O10 0.876777 0.789298 0.498663
O O11 0.500000 0.071594 0.500000
O O12 0.588237 0.124276 0.301688
O O13 0.499259 0.000000 0.278060
O O14 0.250000 0.614734 0.513698
O O15 0.343143 0.500000 0.509088
O O16 0.250000 0.806723 0.684516
#
# Coordination Sequence:
#
# PCOD9407141 Si02
#       6
#     8   8   8   8   8   8
#     4  11  23  36  51  73 105 140 176 219 264 314
#     4   9  19  33  50  74 100 128 169 216 264 316
#     4   9  19  35  55  78 105 140 179 215 254 305
#     4   8  14  27  51  84 116 136 160 209 264 308
#     4   8  15  29  50  75  99 122 153 201 258 312
#     4   9  19  35  55  78 105 140 179 215 254 305
#
# _framework density 17.536943000000001
#
# number of rings (size 3 to 8) (size 9 to 14) (size 15 to 20)
#    0.000    3.000    0.000    2.500    4.667    3.000 
#    0.000    3.333    0.000    8.000    0.000   16.333 
#    0.000    0.000    0.000    0.000    0.000    0.000 
#
# Total GULP energy -267247.976151 kJ/mol
# GULP energy per Si atom -5567.666170 kJ/mol
# Density = 1.749703 g / cm^3
# Si number density = 17.536943 Si / 1000 Ang^3
#
#
#
# Elastic Constant Matrix: (Units=GPa)
#
#
# Indices 1 2 3 4 5 6 
#
# 1 125.5593 25.1448 38.9721 0.0000 0.0000 0.0000
# 2 25.1448 106.9029 39.3092 0.0000 0.0000 0.0000
# 3 38.9721 39.3092 70.5342 0.0000 0.0000 0.0000
# 4 0.0000 0.0000 0.0000 5.9932 0.0000 0.0000
# 5 0.0000 0.0000 0.0000 0.0000 -5.3984 0.0000
# 6 0.0000 0.0000 0.0000 0.0000 0.0000 5.2312
#
#
#
# Elastic Compliance Matrix: (Units=1/GPa)
#
#
# Indices 1 2 3 4 5 6 
#
# 1 0.009626 -0.000388 -0.005102 0.000000 0.000000 0.000000
# 2 -0.000388 0.011781 -0.006351 0.000000 0.000000 0.000000
# 3 -0.005102 -0.006351 0.020536 0.000000 0.000000 0.000000
# 4 0.000000 0.000000 0.000000 0.166857 0.000000 0.000000
# 5 0.000000 0.000000 0.000000 0.000000 -0.185241 0.000000
# 6 0.000000 0.000000 0.000000 0.000000 0.000000 0.191160
#
#
# Mechanical properties :
#
#
# Convention : Reuss Voigt Hill
#
# Bulk Modulus (GPa) = 54.76452 56.64986 55.70719
# Shear Modulus (GPa) = 20.45092 14.46990 17.46041
#
# Velocity S-wave (km/s) = 3.41862 2.87559 3.15879
# Velocity P-wave (km/s) = 6.84679 6.58776 6.71852
#
# Compressibility (1/GPa) = 0.01826000
#
# Stress axis : x y z
#
# Youngs Moduli (GPa) = 103.88811 84.88290 48.69435
#
# Poissons Ratio (x) = 0.03293 0.24845
# Poissons Ratio (y) = 0.04030 0.30927
# Poissons Ratio (z) = 0.53007 0.53911
#
# Static dielectric constant tensor:
#      x y z
#    x 1.619720 0.000000 0.000000 
#    y 0.000000 1.642970 0.000000 
#    z 0.000000 0.000000 1.567410 
# 
# From -- ./inp_files/8228.got.cif
#   From: 2010.05.17/outbox.cif.g08.bks.cpg/sg51_5_cif.got.tgz:8228.got - 2010.06.03 11:52:47.
