data_PCOD9407210
_publ_section_title
;
Structure prediction by ZEFSAII (Michael W. Deem and Ramdas Pophale) SiO2 
 PCOD9407210
Probable space group: P M M A
;
_chemical_formula_sum "Si O2"
_cell_formula_units_Z 32
_cell_length_a 15.183954
_cell_length_b 10.298993
_cell_length_c 10.578609
_cell_angle_alpha 90.000000
_cell_angle_beta 90.000000
_cell_angle_gamma 90.000000
_cell_volume 1654.276909
_symmetry_space_group_name_H-M "P M M A"
_symmetry_group_IT_number 51
_symmetry_cell_setting 'orthorhombic'
loop_
_space_group_symop_operation_xyz
x,y,z
1/2-x,-y,z
1/2+x,-y,-z
-x,y,-z
-x,-y,-z
1/2+x,y,-z
1/2-x,y,z
x,-y,z
loop_
_atom_site_type_symbol
_atom_site_label
_atom_site_fract_x
_atom_site_fract_y
_atom_site_fract_z
Si Si1 0.586745 0.500000 0.419804
Si Si2 0.250000 0.268323 0.193663
Si Si3 0.394114 0.654683 0.989072
Si Si4 0.146719 0.748675 0.718631
Si Si5 0.750000 0.000000 0.653155
Si Si6 0.597243 0.000000 0.442051
Si Si7 0.250000 0.500000 0.392407
O O1 0.500000 0.500000 0.500000
O O2 0.593893 0.373522 0.334434
O O3 0.666381 0.500000 0.517663
O O4 0.250000 0.374132 0.304509
O O5 0.250000 0.127295 0.258274
O O6 0.163538 0.295770 0.107488
O O7 0.373640 0.500000 0.970888
O O8 0.364932 0.739764 0.868806
O O9 0.500000 0.665443 0.000000
O O10 0.250000 0.732123 0.689136
O O11 0.113840 0.875888 0.647086
O O12 0.666403 0.000000 0.558152
O O13 0.500000 0.000000 0.500000
#
# Coordination Sequence:
#
# PCOD9407210 Si02
#       7
#     4   4   8   8   2   4   2
#     4  12  26  39  68 102 132 179 235 281 339 404
#     4  12  26  44  69  95 143 181 216 282 349 397
#     4  11  25  44  71 105 136 176 231 287 337 398
#     4  12  23  46  71  97 138 180 230 287 337 402
#     4  12  28  48  64 102 146 178 228 276 344 420
#     4  12  28  49  72  98 140 185 227 285 343 406
#     4  12  24  40  66  96 132 180 228 280 346 402
#
# _framework density 19.343799000000001
#
# number of rings (size 3 to 8) (size 9 to 14) (size 15 to 20)
#    0.000    0.250    6.250    2.250    7.000    1.000 
#    0.000    1.250    0.000    0.000    0.000    0.000 
#    0.000    0.000    0.000    0.000    0.000    0.000 
#
# Total GULP energy -179006.068211 kJ/mol
# GULP energy per Si atom -5593.939632 kJ/mol
# Density = 1.929977 g / cm^3
# Si number density = 19.343799 Si / 1000 Ang^3
#
#
#
# Elastic Constant Matrix: (Units=GPa)
#
#
# Indices 1 2 3 4 5 6 
#
# 1 94.3859 -0.5779 4.9834 0.0000 0.0000 0.0000
# 2 -0.5779 126.8052 28.0937 0.0000 0.0000 0.0000
# 3 4.9834 28.0937 89.9913 0.0000 0.0000 0.0000
# 4 0.0000 0.0000 0.0000 43.3330 0.0000 0.0000
# 5 0.0000 0.0000 0.0000 0.0000 27.0301 0.0000
# 6 0.0000 0.0000 0.0000 0.0000 0.0000 67.0731
#
#
#
# Elastic Compliance Matrix: (Units=1/GPa)
#
#
# Indices 1 2 3 4 5 6 
#
# 1 0.010630 0.000192 -0.000649 0.000000 0.000000 0.000000
# 2 0.000192 0.008476 -0.002657 0.000000 0.000000 0.000000
# 3 -0.000649 -0.002657 0.011977 0.000000 0.000000 0.000000
# 4 0.000000 0.000000 0.000000 0.023077 0.000000 0.000000
# 5 0.000000 0.000000 0.000000 0.000000 0.036996 0.000000
# 6 0.000000 0.000000 0.000000 0.000000 0.000000 0.014909
#
#
# Mechanical properties :
#
#
# Convention : Reuss Voigt Hill
#
# Bulk Modulus (GPa) = 40.22997 41.79788 41.01392
# Shear Modulus (GPa) = 41.46728 46.06613 43.76671
#
# Velocity S-wave (km/s) = 4.63503 4.88530 4.76181
# Velocity P-wave (km/s) = 7.03471 7.31275 7.17508
#
# Compressibility (1/GPa) = 0.02485709
#
# Stress axis : x y z
#
# Youngs Moduli (GPa) = 94.07138 117.98650 83.49037
#
# Poissons Ratio (x) = -0.02267 0.05416
# Poissons Ratio (y) = -0.01808 0.22180
# Poissons Ratio (z) = 0.06102 0.31344
#
# Static dielectric constant tensor:
#      x y z
#    x 1.661740 0.000000 0.000000 
#    y 0.000000 1.649450 0.000000 
#    z 0.000000 0.000000 1.659510 
# 
# From -- ./inp_files/7671.got.cif
#   From: 2010.05.17/outbox.cif.g08.bks.cpg/sg51_4_cif.got.tgz:7671.got - 2010.06.03 11:52:47.
