data_PCOD9407231
_publ_section_title
;
Structure prediction by ZEFSAII (Michael W. Deem and Ramdas Pophale) SiO2 
 PCOD9407231
Probable space group: P M M A
;
_chemical_formula_sum "Si O2"
_cell_formula_units_Z 28
_cell_length_a 8.674860
_cell_length_b 7.646931
_cell_length_c 21.125524
_cell_angle_alpha 90.000000
_cell_angle_beta 90.000000
_cell_angle_gamma 90.000000
_cell_volume 1401.383940
_symmetry_space_group_name_H-M "P M M A"
_symmetry_group_IT_number 51
_symmetry_cell_setting 'orthorhombic'
loop_
_space_group_symop_operation_xyz
x,y,z
1/2-x,-y,z
1/2+x,-y,-z
-x,y,-z
-x,-y,-z
1/2+x,y,-z
1/2-x,y,z
x,-y,z
loop_
_atom_site_type_symbol
_atom_site_label
_atom_site_fract_x
_atom_site_fract_y
_atom_site_fract_z
Si Si1 0.066106 0.500000 0.070630
Si Si2 0.073738 0.209511 0.700107
Si Si3 0.575444 0.709875 0.435478
Si Si4 0.937259 0.205058 0.161281
O O1 0.250000 0.500000 0.068822
O O2 0.005713 0.330743 0.108673
O O3 0.000000 0.500000 0.000000
O O4 0.250000 0.279966 0.697223
O O5 0.998839 0.252149 0.632566
O O6 0.008525 0.263727 0.768165
O O7 0.082775 0.000000 0.703886
O O8 0.500000 0.776187 0.500000
O O9 0.750000 0.779283 0.432902
O O10 0.581732 0.500000 0.440289
O O11 0.750000 0.216928 0.161184
O O12 0.976269 0.000000 0.151912
#
# Coordination Sequence:
#
# PCOD9407231 Si02
#       4
#     4   8   8   8
#     4  12  26  42  62  90 121 156 191 228 277 340
#     4   8  15  29  51  77 101 132 179 227 273 328
#     4   9  17  28  43  66  97 136 177 221 270 320
#     4   9  19  38  64  91 118 150 191 241 290 339
#
# _framework density 19.980250000000002
#
# number of rings (size 3 to 8) (size 9 to 14) (size 15 to 20)
#    0.000    2.857    0.000    3.000    2.000    1.714 
#    0.000    1.429    0.000    1.714    0.000    0.000 
#    0.000    0.000    0.000    0.000    0.000    0.000 
#
# Total GULP energy -156015.800056 kJ/mol
# GULP energy per Si atom -5571.992859 kJ/mol
# Density = 1.993477 g / cm^3
# Si number density = 19.980250 Si / 1000 Ang^3
#
#
#
# Elastic Constant Matrix: (Units=GPa)
#
#
# Indices 1 2 3 4 5 6 
#
# 1 34.8608 25.4597 53.3318 0.0000 0.0000 0.0000
# 2 25.4597 76.9475 68.5210 0.0000 0.0000 0.0000
# 3 53.3318 68.5210 251.7962 0.0000 0.0000 0.0000
# 4 0.0000 0.0000 0.0000 45.6963 0.0000 0.0000
# 5 0.0000 0.0000 0.0000 0.0000 27.9432 0.0000
# 6 0.0000 0.0000 0.0000 0.0000 0.0000 16.6590
#
#
#
# Elastic Compliance Matrix: (Units=1/GPa)
#
#
# Indices 1 2 3 4 5 6 
#
# 1 0.046491 -0.008729 -0.007472 0.000000 0.000000 0.000000
# 2 -0.008729 0.018791 -0.003265 0.000000 0.000000 0.000000
# 3 -0.007472 -0.003265 0.006442 0.000000 0.000000 0.000000
# 4 0.000000 0.000000 0.000000 0.021884 0.000000 0.000000
# 5 0.000000 0.000000 0.000000 0.000000 0.035787 0.000000
# 6 0.000000 0.000000 0.000000 0.000000 0.000000 0.060028
#
#
# Mechanical properties :
#
#
# Convention : Reuss Voigt Hill
#
# Bulk Modulus (GPa) = 30.49362 73.13662 51.81512
# Shear Modulus (GPa) = 20.89556 32.47917 26.68736
#
# Velocity S-wave (km/s) = 3.23741 4.03620 3.65867
# Velocity P-wave (km/s) = 5.41012 7.64233 6.62097
#
# Compressibility (1/GPa) = 0.03279375
#
# Stress axis : x y z
#
# Youngs Moduli (GPa) = 21.50950 53.21593 155.22074
#
# Poissons Ratio (x) = 0.46453 1.15975
# Poissons Ratio (y) = 0.18776 0.50676
# Poissons Ratio (z) = 0.16071 0.17374
#
# Static dielectric constant tensor:
#      x y z
#    x 1.706820 0.000000 0.000000 
#    y 0.000000 1.705720 0.000000 
#    z 0.000000 0.000000 1.751640 
# 
# From -- ./inp_files/26869.got.cif
#   From: 2010.05.17/outbox.cif.g08.bks.cpg/sg51_14_cif.got.tgz:26869.got - 2010.06.03 11:52:47.
