data_PCOD9407095
_publ_section_title
;
Structure prediction by ZEFSAII (Michael W. Deem and Ramdas Pophale) SiO2 
 PCOD9407095
Probable space group: P M M A
;
_chemical_formula_sum "Si O2"
_cell_formula_units_Z 58
_cell_length_a 28.581741
_cell_length_b 9.248341
_cell_length_c 11.674114
_cell_angle_alpha 90.000000
_cell_angle_beta 90.000000
_cell_angle_gamma 90.000000
_cell_volume 3085.861598
_symmetry_space_group_name_H-M "P M M A"
_symmetry_group_IT_number 51
_symmetry_cell_setting 'orthorhombic'
loop_
_space_group_symop_operation_xyz
x,y,z
1/2-x,-y,z
1/2+x,-y,-z
-x,y,-z
-x,-y,-z
1/2+x,y,-z
1/2-x,y,z
x,-y,z
loop_
_atom_site_type_symbol
_atom_site_label
_atom_site_fract_x
_atom_site_fract_y
_atom_site_fract_z
Si Si1 0.519865 0.670471 0.691881
Si Si2 0.302668 0.279571 0.306333
Si Si3 0.302880 0.674076 0.048091
Si Si4 0.111914 0.673620 0.898602
Si Si5 0.046703 0.166013 0.075827
Si Si6 0.923323 0.172543 0.331478
Si Si7 0.388884 0.659039 0.467155
Si Si8 0.750000 0.000000 0.633741
O O1 0.509706 0.500000 0.712998
O O2 0.534289 0.754636 0.806693
O O3 0.473555 0.751055 0.646979
O O4 0.564215 0.676885 0.607907
O O5 0.250000 0.349890 0.303700
O O6 0.318367 0.271240 0.173513
O O7 0.343919 0.340257 0.384231
O O8 0.290142 0.124952 0.356673
O O9 0.250000 0.725375 0.030169
O O10 0.303197 0.500000 0.058006
O O11 0.335794 0.708793 0.941584
O O12 0.106669 0.500000 0.885107
O O13 0.096325 0.757919 0.785491
O O14 0.081224 0.733778 0.003380
O O15 0.063578 0.000000 0.092987
O O16 0.000000 0.156948 0.000000
O O17 0.889879 0.219597 0.435651
O O18 0.928305 0.000000 0.321296
O O19 0.391162 0.500000 0.523636
#
# Coordination Sequence:
#
# PCOD9407095 Si02
#       8
#     8   8   8   8   8   8   8   2
#     4  11  23  41  63  88 117 155 203 249 296 354
#     4   9  19  38  61  91 124 151 191 237 295 352
#     4   9  18  36  62  91 119 149 191 245 293 347
#     4  11  22  39  62  86 116 161 203 243 297 353
#     4  11  22  36  57  86 121 153 191 240 295 353
#     4  12  26  42  58  84 120 160 201 248 304 356
#     4  11  24  41  64  90 116 156 206 249 294 353
#     4   8  20  36  58  92 128 162 182 230 310 354
#
# _framework density 18.795399
#
# number of rings (size 3 to 8) (size 9 to 14) (size 15 to 20)
#    0.414    1.103    1.379    4.138    0.966    6.345 
#    4.966    0.690    0.000    2.483    0.000    0.000 
#    0.000    0.000    0.000    0.000    0.000    0.000 
#
# Total GULP energy -322924.344539 kJ/mol
# GULP energy per Si atom -5567.661113 kJ/mol
# Density = 1.875262 g / cm^3
# Si number density = 18.795399 Si / 1000 Ang^3
#
#
#
# Elastic Constant Matrix: (Units=GPa)
#
#
# Indices 1 2 3 4 5 6 
#
# 1 85.8113 32.6925 36.6379 0.0000 0.0000 0.0000
# 2 32.6925 128.1319 35.7320 0.0000 0.0000 0.0000
# 3 36.6379 35.7320 61.5629 0.0000 0.0000 0.0000
# 4 0.0000 0.0000 0.0000 11.4136 0.0000 0.0000
# 5 0.0000 0.0000 0.0000 0.0000 20.7290 0.0000
# 6 0.0000 0.0000 0.0000 0.0000 0.0000 20.8121
#
#
#
# Elastic Compliance Matrix: (Units=1/GPa)
#
#
# Indices 1 2 3 4 5 6 
#
# 1 0.015926 -0.001695 -0.008494 0.000000 0.000000 0.000000
# 2 -0.001695 0.009492 -0.004501 0.000000 0.000000 0.000000
# 3 -0.008494 -0.004501 0.023911 0.000000 0.000000 0.000000
# 4 0.000000 0.000000 0.000000 0.087615 0.000000 0.000000
# 5 0.000000 0.000000 0.000000 0.000000 0.048242 0.000000
# 6 0.000000 0.000000 0.000000 0.000000 0.000000 0.048049
#
#
# Mechanical properties :
#
#
# Convention : Reuss Voigt Hill
#
# Bulk Modulus (GPa) = 50.12676 53.95900 52.04288
# Shear Modulus (GPa) = 18.56919 21.95386 20.26152
#
# Velocity S-wave (km/s) = 3.14660 3.42137 3.28686
# Velocity P-wave (km/s) = 6.31894 6.66173 6.49260
#
# Compressibility (1/GPa) = 0.01994943
#
# Stress axis : x y z
#
# Youngs Moduli (GPa) = 62.79111 105.35236 41.82162
#
# Poissons Ratio (x) = 0.17853 0.35525
# Poissons Ratio (y) = 0.10641 0.18823
# Poissons Ratio (z) = 0.53337 0.47417
#
# Static dielectric constant tensor:
#      x y z
#    x 1.700110 0.000000 0.000000 
#    y 0.000000 1.656180 0.000000 
#    z 0.000000 0.000000 1.631790 
# 
# From -- ./inp_files/19163.got.cif
#   From: 2010.05.17/outbox.cif.g08.bks.cpg/sg51_10_cif.got.tgz:19163.got - 2010.06.03 11:52:47.
