data_PCOD9407925
_publ_section_title
;
Structure prediction by ZEFSAII (Michael W. Deem and Ramdas Pophale) SiO2 
 PCOD9407925
Probable space group: P N N A
;
_chemical_formula_sum "Si O2"
_cell_formula_units_Z 52
_cell_length_a 14.130909
_cell_length_b 17.106691
_cell_length_c 12.036152
_cell_angle_alpha 90.000000
_cell_angle_beta 90.000000
_cell_angle_gamma 90.000000
_cell_volume 2909.536261
_symmetry_space_group_name_H-M "P N N A"
_symmetry_group_IT_number 52
_symmetry_cell_setting 'orthorhombic'
loop_
_space_group_symop_operation_xyz
x,y,z
1/2-x,-y,z
x,1/2-y,1/2-z
1/2-x,1/2+y,1/2-z
-x,-y,-z
1/2+x,y,-z
-x,1/2+y,1/2+z
1/2+x,1/2-y,1/2+z
loop_
_atom_site_type_symbol
_atom_site_label
_atom_site_fract_x
_atom_site_fract_y
_atom_site_fract_z
Si Si1 0.126342 0.738902 0.508025
Si Si2 0.420142 0.790911 0.477088
Si Si3 0.950597 0.661627 0.221383
Si Si4 0.747710 0.324274 0.831890
Si Si5 0.377108 0.093768 0.165234
Si Si6 0.250000 0.000000 0.021148
Si Si7 0.296819 0.661536 0.597168
O O1 0.178244 0.803198 0.430361
O O2 0.114610 0.664807 0.424377
O O3 0.200242 0.710531 0.600268
O O4 0.026323 0.766953 0.554027
O O5 0.431767 0.839448 0.591093
O O6 0.354551 0.834184 0.387954
O O7 0.363241 0.711817 0.512770
O O8 0.989066 0.750000 0.250000
O O9 0.853884 0.655965 0.289397
O O10 0.025120 0.599208 0.267752
O O11 0.740460 0.250000 0.750000
O O12 0.793804 0.389015 0.753624
O O13 0.341805 0.019968 0.096019
O O14 0.226019 0.076496 0.950316
#
# Coordination Sequence:
#
# PCOD9407925 Si02
#       7
#     8   8   8   8   8   4   8
#     4   9  15  29  49  75 102 127 167 215 266 307
#     4  10  17  30  54  79  99 132 171 223 271 311
#     4  10  16  30  53  76  99 134 173 215 271 314
#     4   9  17  29  50  75 103 130 172 219 260 304
#     4  10  16  31  50  71 101 140 177 207 251 317
#     4  10  22  32  48  76 112 142 176 208 252 314
#     4   9  19  30  47  80 106 134 172 210 254 319
#
# _framework density 17.872264999999999
#
# number of rings (size 3 to 8) (size 9 to 14) (size 15 to 20)
#    0.000    2.462    4.615    1.385    0.000    0.615 
#    0.000    3.846    0.000    1.846    0.000    0.000 
#    0.000    0.000    0.000    0.000    0.000    0.000 
#
# Total GULP energy -289642.459003 kJ/mol
# GULP energy per Si atom -5570.047289 kJ/mol
# Density = 1.783159 g / cm^3
# Si number density = 17.872265 Si / 1000 Ang^3
#
#
#
# Elastic Constant Matrix: (Units=GPa)
#
#
# Indices 1 2 3 4 5 6 
#
# 1 138.7313 8.2275 38.2530 0.0000 0.0000 0.0000
# 2 8.2275 20.7719 3.4967 0.0000 0.0000 0.0000
# 3 38.2530 3.4967 40.2516 0.0000 0.0000 0.0000
# 4 0.0000 0.0000 0.0000 5.0193 0.0000 0.0000
# 5 0.0000 0.0000 0.0000 0.0000 33.9370 0.0000
# 6 0.0000 0.0000 0.0000 0.0000 0.0000 15.2309
#
#
#
# Elastic Compliance Matrix: (Units=1/GPa)
#
#
# Indices 1 2 3 4 5 6 
#
# 1 0.009881 -0.002368 -0.009185 0.000000 0.000000 0.000000
# 2 -0.002368 0.049424 -0.002043 0.000000 0.000000 0.000000
# 3 -0.009185 -0.002043 0.033750 0.000000 0.000000 0.000000
# 4 0.000000 0.000000 0.000000 0.199231 0.000000 0.000000
# 5 0.000000 0.000000 0.000000 0.000000 0.029466 0.000000
# 6 0.000000 0.000000 0.000000 0.000000 0.000000 0.065656
#
#
# Mechanical properties :
#
#
# Convention : Reuss Voigt Hill
#
# Bulk Modulus (GPa) = 15.18302 33.30102 24.24202
# Shear Modulus (GPa) = 11.45333 20.82263 16.13798
#
# Velocity S-wave (km/s) = 2.53424 3.41703 3.00819
# Velocity P-wave (km/s) = 4.13242 5.85161 5.06548
#
# Compressibility (1/GPa) = 0.06586306
#
# Stress axis : x y z
#
# Youngs Moduli (GPa) = 101.20259 20.23321 29.62960
#
# Poissons Ratio (x) = 0.04790 0.27214
# Poissons Ratio (y) = 0.23961 0.06055
# Poissons Ratio (z) = 0.92953 0.04135
#
# Static dielectric constant tensor:
#      x y z
#    x 1.650550 0.000000 0.000000 
#    y 0.000000 1.596470 0.000000 
#    z 0.000000 0.000000 1.625810 
# 
# From -- ./inp_files/19784.got.cif
#   From: 2010.05.17/outbox.cif.g08.bks.cpg/sg52_10_cif.got.tgz:19784.got - 2010.06.03 12:15:38.
