data_PCOD9407108
_publ_section_title
;
Structure prediction by ZEFSAII (Michael W. Deem and Ramdas Pophale) SiO2 
 PCOD9407108
Probable space group: P M M A
;
_chemical_formula_sum "Si O2"
_cell_formula_units_Z 56
_cell_length_a 14.930448
_cell_length_b 19.764741
_cell_length_c 9.193502
_cell_angle_alpha 90.000000
_cell_angle_beta 90.000000
_cell_angle_gamma 90.000000
_cell_volume 2712.969691
_symmetry_space_group_name_H-M "P M M A"
_symmetry_group_IT_number 51
_symmetry_cell_setting 'orthorhombic'
loop_
_space_group_symop_operation_xyz
x,y,z
1/2-x,-y,z
1/2+x,-y,-z
-x,y,-z
-x,-y,-z
1/2+x,y,-z
1/2-x,y,z
x,-y,z
loop_
_atom_site_type_symbol
_atom_site_label
_atom_site_fract_x
_atom_site_fract_y
_atom_site_fract_z
Si Si1 0.645303 0.785869 0.164263
Si Si2 0.027821 0.653245 0.847537
Si Si3 0.098167 0.423592 0.574408
Si Si4 0.858068 0.076308 0.669775
Si Si5 0.155986 0.673964 0.323920
Si Si6 0.641098 0.075974 0.008424
Si Si7 0.399480 0.205049 0.500111
O O1 0.750000 0.775105 0.123120
O O2 0.582496 0.722645 0.122352
O O3 0.613447 0.857671 0.097518
O O4 0.638671 0.791913 0.338682
O O5 0.085442 0.609579 0.732916
O O6 0.932911 0.666613 0.769794
O O7 0.000000 0.619934 0.000000
O O8 0.133357 0.500000 0.583044
O O9 0.150360 0.375313 0.463749
O O10 0.000000 0.426972 0.500000
O O11 0.750000 0.083183 0.660896
O O12 0.900981 0.130565 0.564845
O O13 0.881156 0.000000 0.627998
O O14 0.883071 0.085706 0.839002
O O15 0.250000 0.661402 0.244762
O O16 0.154401 0.748909 0.389078
O O17 0.750000 0.074306 0.015983
O O18 0.610598 0.000000 0.054492
O O19 0.500000 0.234175 0.500000
#
# Coordination Sequence:
#
# PCOD9407108 Si02
#       7
#     8   8   8   8   8   8   8
#     4  11  22  37  59  87 121 162 207 261 320 375
#     4  11  24  40  60  95 135 167 209 258 310 379
#     4   9  19  40  67  94 125 163 203 246 298 359
#     4   9  19  36  57  82 112 152 202 253 312 380
#     4  11  22  41  65  91 124 167 213 256 306 367
#     4   8  17  35  57  82 114 155 204 253 310 384
#     4  12  22  37  57  83 121 153 203 264 314 366
#
# _framework density 20.641587000000001
#
# number of rings (size 3 to 8) (size 9 to 14) (size 15 to 20)
#    0.000    1.857    2.857    2.571    2.000    2.000 
#    0.000    1.429    0.000    2.143    0.000    2.000 
#    0.000    0.000    0.000    0.000    0.000    0.000 
#
# Total GULP energy -312680.481165 kJ/mol
# GULP energy per Si atom -5583.580021 kJ/mol
# Density = 2.059461 g / cm^3
# Si number density = 20.641587 Si / 1000 Ang^3
#
#
#
# Elastic Constant Matrix: (Units=GPa)
#
#
# Indices 1 2 3 4 5 6 
#
# 1 90.2697 16.7594 2.9483 0.0000 0.0000 0.0000
# 2 16.7594 83.1425 14.3426 0.0000 0.0000 0.0000
# 3 2.9483 14.3426 52.6799 0.0000 0.0000 0.0000
# 4 0.0000 0.0000 0.0000 13.1429 0.0000 0.0000
# 5 0.0000 0.0000 0.0000 0.0000 16.1209 0.0000
# 6 0.0000 0.0000 0.0000 0.0000 0.0000 44.3642
#
#
#
# Elastic Compliance Matrix: (Units=1/GPa)
#
#
# Indices 1 2 3 4 5 6 
#
# 1 0.011509 -0.002318 -0.000013 0.000000 0.000000 0.000000
# 2 -0.002318 0.013087 -0.003433 0.000000 0.000000 0.000000
# 3 -0.000013 -0.003433 0.019918 0.000000 0.000000 0.000000
# 4 0.000000 0.000000 0.000000 0.076087 0.000000 0.000000
# 5 0.000000 0.000000 0.000000 0.000000 0.062031 0.000000
# 6 0.000000 0.000000 0.000000 0.000000 0.000000 0.022541
#
#
# Mechanical properties :
#
#
# Convention : Reuss Voigt Hill
#
# Bulk Modulus (GPa) = 30.31627 32.68808 31.50218
# Shear Modulus (GPa) = 21.95915 27.52839 24.74377
#
# Velocity S-wave (km/s) = 3.26518 3.65586 3.46603
# Velocity P-wave (km/s) = 5.37904 5.80438 5.59575
#
# Compressibility (1/GPa) = 0.03298559
#
# Stress axis : x y z
#
# Youngs Moduli (GPa) = 86.89136 76.41176 50.20563
#
# Poissons Ratio (x) = 0.17709 0.00066
# Poissons Ratio (y) = 0.20138 0.17237
# Poissons Ratio (z) = 0.00114 0.26235
#
# Static dielectric constant tensor:
#      x y z
#    x 1.811890 0.000000 0.000000 
#    y 0.000000 1.730550 0.000000 
#    z 0.000000 0.000000 1.712580 
# 
# From -- ./inp_files/8497.got.cif
#   From: 2010.05.17/outbox.cif.g08.bks.cpg/sg51_5_cif.got.tgz:8497.got - 2010.06.03 11:52:47.
