data_PCOD9407957
_publ_section_title
;
Structure prediction by ZEFSAII (Michael W. Deem and Ramdas Pophale) SiO2 
 PCOD9407957
Probable space group: P N N A
;
_chemical_formula_sum "Si O2"
_cell_formula_units_Z 40
_cell_length_a 8.863166
_cell_length_b 21.396976
_cell_length_c 11.583667
_cell_angle_alpha 90.000000
_cell_angle_beta 90.000000
_cell_angle_gamma 90.000000
_cell_volume 2196.783951
_symmetry_space_group_name_H-M "P N N A"
_symmetry_group_IT_number 52
_symmetry_cell_setting 'orthorhombic'
loop_
_space_group_symop_operation_xyz
x,y,z
1/2-x,-y,z
x,1/2-y,1/2-z
1/2-x,1/2+y,1/2-z
-x,-y,-z
1/2+x,y,-z
-x,1/2+y,1/2+z
1/2+x,1/2-y,1/2+z
loop_
_atom_site_type_symbol
_atom_site_label
_atom_site_fract_x
_atom_site_fract_y
_atom_site_fract_z
Si Si1 0.384515 0.151495 0.934452
Si Si2 0.844637 0.297957 0.850664
Si Si3 0.350215 0.090718 0.182851
Si Si4 0.378782 0.739336 0.520408
Si Si5 0.024699 0.469802 0.372931
O O1 0.230194 0.188929 0.917342
O O2 0.407439 0.087436 0.863973
O O3 0.393595 0.131183 0.069954
O O4 0.522624 0.200011 0.927001
O O5 0.800111 0.250000 0.750000
O O6 0.843149 0.365496 0.793261
O O7 0.006761 0.275140 0.896776
O O8 0.728921 0.287403 0.954534
O O9 0.187191 0.062861 0.145756
O O10 0.463986 0.032653 0.202030
O O11 0.000000 0.500000 0.500000
#
# Coordination Sequence:
#
# PCOD9407957 Si02
#       5
#     8   8   8   8   8
#     4  10  16  33  52  83 114 139 188 236 297 348
#     4  11  20  37  57  79 122 157 195 237 299 353
#     4  10  18  32  56  78 114 157 176 232 310 356
#     4  10  20  31  57  86 113 160 192 238 290 360
#     4   9  18  30  56  87 109 144 194 241 299 356
#
# _framework density 18.208435999999999
#
# number of rings (size 3 to 8) (size 9 to 14) (size 15 to 20)
#    0.000    2.000    6.000    0.000    0.000    0.000 
#    0.000    8.000    0.000    4.800    0.000    0.000 
#    0.000    0.000    0.000    0.000    0.000    0.000 
#
# Total GULP energy -222750.515810 kJ/mol
# GULP energy per Si atom -5568.762895 kJ/mol
# Density = 1.816699 g / cm^3
# Si number density = 18.208436 Si / 1000 Ang^3
#
#
#
# Elastic Constant Matrix: (Units=GPa)
#
#
# Indices 1 2 3 4 5 6 
#
# 1 87.2233 43.0980 18.5882 0.0000 0.0000 0.0000
# 2 43.0980 124.2396 35.2089 0.0000 0.0000 0.0000
# 3 18.5882 35.2089 32.1876 0.0000 0.0000 0.0000
# 4 0.0000 0.0000 0.0000 40.0750 0.0000 0.0000
# 5 0.0000 0.0000 0.0000 0.0000 21.0953 0.0000
# 6 0.0000 0.0000 0.0000 0.0000 0.0000 27.6427
#
#
#
# Elastic Compliance Matrix: (Units=1/GPa)
#
#
# Indices 1 2 3 4 5 6 
#
# 1 0.014196 -0.003770 -0.004074 0.000000 0.000000 0.000000
# 2 -0.003770 0.012666 -0.011678 0.000000 0.000000 0.000000
# 3 -0.004074 -0.011678 0.046195 0.000000 0.000000 0.000000
# 4 0.000000 0.000000 0.000000 0.024953 0.000000 0.000000
# 5 0.000000 0.000000 0.000000 0.000000 0.047404 0.000000
# 6 0.000000 0.000000 0.000000 0.000000 0.000000 0.036176
#
#
# Mechanical properties :
#
#
# Convention : Reuss Voigt Hill
#
# Bulk Modulus (GPa) = 29.40089 48.60453 39.00271
# Shear Modulus (GPa) = 21.55431 27.54629 24.55030
#
# Velocity S-wave (km/s) = 3.44431 3.89373 3.67589
# Velocity P-wave (km/s) = 5.65681 6.85319 6.28354
#
# Compressibility (1/GPa) = 0.03401258
#
# Stress axis : x y z
#
# Youngs Moduli (GPa) = 70.44329 78.95035 21.64733
#
# Poissons Ratio (x) = 0.29763 0.08820
# Poissons Ratio (y) = 0.26556 0.25280
# Poissons Ratio (z) = 0.28701 0.92199
#
# Static dielectric constant tensor:
#      x y z
#    x 1.708230 0.000000 0.000000 
#    y 0.000000 1.694510 0.000000 
#    z 0.000000 0.000000 1.589860 
# 
# From -- ./inp_files/16803.got.cif
#   From: 2010.05.17/outbox.cif.g08.bks.cpg/sg52_9_cif.got.tgz:16803.got - 2010.06.03 12:15:38.
