data_PCOD9407725
_publ_section_title
;
Structure prediction by ZEFSAII (Michael W. Deem and Ramdas Pophale) SiO2 
 PCOD9407725
Probable space group: P M M A
;
_chemical_formula_sum "Si O2"
_cell_formula_units_Z 64
_cell_length_a 9.000000
_cell_length_b 15.000000
_cell_length_c 30.000000
_cell_angle_alpha 90.000000
_cell_angle_beta 90.000000
_cell_angle_gamma 90.000000
_cell_volume 4050.000000
_symmetry_space_group_name_H-M "P M M A"
_symmetry_group_IT_number 51
_symmetry_cell_setting 'orthorhombic'
loop_
_space_group_symop_operation_xyz
x,y,z
1/2-x,-y,z
1/2+x,-y,-z
-x,y,-z
-x,-y,-z
1/2+x,y,-z
1/2-x,y,z
x,-y,z
loop_
_atom_site_type_symbol
_atom_site_label
_atom_site_fract_x
_atom_site_fract_y
_atom_site_fract_z
Si Si1 0.573588 0.104873 0.186983
Si Si2 0.068184 0.896324 0.643952
Si Si3 0.420943 0.108373 0.545082
Si Si4 0.928936 0.100994 0.908000
Si Si5 0.429145 0.279720 0.046431
Si Si6 0.073632 0.394519 0.132486
Si Si7 0.429323 0.397813 0.772809
Si Si8 0.069055 0.779397 0.727744
O O1 0.750000 0.119419 0.180262
O O2 0.489895 0.124241 0.141028
O O3 0.524480 0.163527 0.228820
O O4 0.552369 0.000000 0.197191
O O5 0.250000 0.896125 0.642968
O O6 0.017794 0.868389 0.594183
O O7 0.018910 0.829793 0.683010
O O8 0.025555 0.000000 0.652415
O O9 0.500000 0.139254 0.500000
O O10 0.250000 0.136919 0.543153
O O11 0.423081 0.000000 0.544597
O O12 0.750000 0.101104 0.906122
O O13 0.974283 0.177971 0.942115
O O14 0.978719 0.000000 0.918902
O O15 0.250000 0.284024 0.043003
O O16 0.473560 0.338948 0.089184
O O17 0.500000 0.308822 0.000000
O O18 0.250000 0.379088 0.139095
O O19 0.051565 0.500000 0.124378
O O20 0.989657 0.372014 0.178251
O O21 0.250000 0.397337 0.774531
O O22 0.477380 0.500000 0.763484
O O23 0.476282 0.322615 0.737274
O O24 0.250000 0.780943 0.726379
#
# Coordination Sequence:
#
# PCOD9407725 Si02
#       8
#     8   8   8   8   8   8   8   8
#     4   9  16  25  40  62  81  99 129 163 189 218
#     4   8  13  21  34  54  79 107 139 169 197 234
#     4   8  13  21  34  51  71  99 135 170 201 233
#     4   9  18  32  46  59  79 106 131 155 186 224
#     4  10  21  34  47  64  83 102 126 156 190 228
#     4   9  18  33  50  65  82 104 128 154 187 230
#     4   9  17  28  43  64  85 104 129 159 190 226
#     4   9  15  23  37  57  83 109 129 158 198 231
#
# _framework density 15.802469
#
# number of rings (size 3 to 8) (size 9 to 14) (size 15 to 20)
#    0.000    3.125    0.000    1.875    0.000    3.000 
#    0.000    0.000    0.000    1.500    0.000    3.500 
#    0.000    0.500    0.000    0.375    0.000    0.750 
#
# Total GULP energy -356388.050928 kJ/mol
# GULP energy per Si atom -5568.563296 kJ/mol
# Density = 1.576650 g / cm^3
# Si number density = 15.802469 Si / 1000 Ang^3
#
#
#
# Elastic Constant Matrix: (Units=GPa)
#
#
# Indices 1 2 3 4 5 6 
#
# 1 0.6400 13.1964 13.3431 0.0000 0.0000 0.0000
# 2 13.1964 65.1097 61.1717 0.0000 0.0000 0.0000
# 3 13.3431 61.1717 105.5139 0.0000 0.0000 0.0000
# 4 0.0000 0.0000 0.0000 19.7378 0.0000 0.0000
# 5 0.0000 0.0000 0.0000 0.0000 20.2421 0.0000
# 6 0.0000 0.0000 0.0000 0.0000 0.0000 10.5988
#
#
#
# Elastic Compliance Matrix: (Units=1/GPa)
#
#
# Indices 1 2 3 4 5 6 
#
# 1 -0.487038 0.089713 0.009579 0.000000 0.000000 0.000000
# 2 0.089713 0.017207 -0.021321 0.000000 0.000000 0.000000
# 3 0.009579 -0.021321 0.020627 0.000000 0.000000 0.000000
# 4 0.000000 0.000000 0.000000 0.050664 0.000000 0.000000
# 5 0.000000 0.000000 0.000000 0.000000 0.049402 0.000000
# 6 0.000000 0.000000 0.000000 0.000000 0.000000 0.094351
#
#
# Mechanical properties :
#
#
# Convention : Reuss Voigt Hill
#
# Bulk Modulus (GPa) = -3.40993 38.52067 17.55537
# Shear Modulus (GPa) = -9.83314 15.68588 2.92637
#
# Velocity S-wave (km/s) = -2.49721 3.15401 1.36230
# Velocity P-wave (km/s) = 3.23686 6.13946 3.68888
#
# Compressibility (1/GPa) = -0.29326150
#
# Stress axis : x y z
#
# Youngs Moduli (GPa) = -2.05323 58.11683 48.48086
#
# Poissons Ratio (x) = -5.21385 -0.46439
# Poissons Ratio (y) = 0.18420 1.03364
# Poissons Ratio (z) = 0.01967 1.23909
#
# Static dielectric constant tensor:
#      x y z
#    x 1.532960 0.000000 0.000000 
#    y 0.000000 1.548080 0.000000 
#    z 0.000000 0.000000 1.521440 
# 
# From -- ./inp_files/37541.got.cif
#   From: 2010.05.17/outbox.ucp.g08.bks.cvg/sg51_19_cif.got.tgz:37541.got - 2010.06.11 16:27:58.
