data_PCOD9407851
_publ_section_title
;
Structure prediction by ZEFSAII (Michael W. Deem and Ramdas Pophale) SiO2 
 PCOD9407851
Probable space group: P N N A
;
_chemical_formula_sum "Si O2"
_cell_formula_units_Z 48
_cell_length_a 22.191279
_cell_length_b 12.000822
_cell_length_c 7.696634
_cell_angle_alpha 90.000000
_cell_angle_beta 90.000000
_cell_angle_gamma 90.000000
_cell_volume 2049.718226
_symmetry_space_group_name_H-M "P N N A"
_symmetry_group_IT_number 52
_symmetry_cell_setting 'orthorhombic'
loop_
_space_group_symop_operation_xyz
x,y,z
1/2-x,-y,z
x,1/2-y,1/2-z
1/2-x,1/2+y,1/2-z
-x,-y,-z
1/2+x,y,-z
-x,1/2+y,1/2+z
1/2+x,1/2-y,1/2+z
loop_
_atom_site_type_symbol
_atom_site_label
_atom_site_fract_x
_atom_site_fract_y
_atom_site_fract_z
Si Si1 0.011100 0.064278 0.323569
Si Si2 0.901163 0.803703 0.495088
Si Si3 0.068304 0.084818 0.877194
Si Si4 0.266410 0.754432 0.538357
Si Si5 0.583989 0.750000 0.250000
Si Si6 0.250000 0.500000 0.888064
Si Si7 0.668932 0.584428 0.424314
O O1 0.076104 0.119058 0.349852
O O2 0.959032 0.155936 0.321487
O O3 0.000000 0.000000 0.500000
O O4 0.992227 0.980492 0.173191
O O5 0.905227 0.870468 0.310978
O O6 0.945438 0.698028 0.478403
O O7 0.835746 0.750254 0.515607
O O8 0.118828 0.008628 0.971691
O O9 0.263908 0.750000 0.750000
O O10 0.251633 0.885322 0.502026
O O11 0.225871 0.647401 0.481601
O O12 0.628089 0.692033 0.385761
O O13 0.303583 0.471659 0.751251
#
# Coordination Sequence:
#
# PCOD9407851 Si02
#       7
#     8   8   8   8   4   4   8
#     4   9  20  31  48  67  96 138 174 204 241 298
#     4  10  16  29  43  67  95 135 173 195 242 301
#     4   9  16  28  44  63  96 133 163 207 244 288
#     4  10  16  22  40  67  95 130 151 189 251 317
#     4  10  18  32  46  72 104 134 160 210 242 292
#     4  10  14  22  36  64  94 128 152 178 250 318
#     4  10  16  25  41  66  97 130 150 189 260 312
#
# _framework density 23.417850999999999
#
# number of rings (size 3 to 8) (size 9 to 14) (size 15 to 20)
#    0.000    2.333    5.833    1.000    0.000    0.000 
#    0.000    3.333    0.000    0.000    0.000    0.000 
#    0.000   18.667    0.000    0.000    0.000    0.000 
#
# Total GULP energy -267257.544597 kJ/mol
# GULP energy per Si atom -5567.865512 kJ/mol
# Density = 2.336455 g / cm^3
# Si number density = 23.417851 Si / 1000 Ang^3
#
#
#
# Elastic Constant Matrix: (Units=GPa)
#
#
# Indices 1 2 3 4 5 6 
#
# 1 88.0426 23.4398 18.2151 0.0000 0.0000 0.0000
# 2 23.4398 127.8149 21.3717 0.0000 0.0000 0.0000
# 3 18.2151 21.3717 62.0280 0.0000 0.0000 0.0000
# 4 0.0000 0.0000 0.0000 8.7010 0.0000 0.0000
# 5 0.0000 0.0000 0.0000 0.0000 2.7645 0.0000
# 6 0.0000 0.0000 0.0000 0.0000 0.0000 33.7894
#
#
#
# Elastic Compliance Matrix: (Units=1/GPa)
#
#
# Indices 1 2 3 4 5 6 
#
# 1 0.012461 -0.001776 -0.003048 0.000000 0.000000 0.000000
# 2 -0.001776 0.008555 -0.002426 0.000000 0.000000 0.000000
# 3 -0.003048 -0.002426 0.017853 0.000000 0.000000 0.000000
# 4 0.000000 0.000000 0.000000 0.114930 0.000000 0.000000
# 5 0.000000 0.000000 0.000000 0.000000 0.361723 0.000000
# 6 0.000000 0.000000 0.000000 0.000000 0.000000 0.029595
#
#
# Mechanical properties :
#
#
# Convention : Reuss Voigt Hill
#
# Bulk Modulus (GPa) = 41.03376 44.88209 42.95793
# Shear Modulus (GPa) = 8.80686 23.37491 16.09089
#
# Velocity S-wave (km/s) = 1.94137 3.16280 2.62414
# Velocity P-wave (km/s) = 4.75244 5.70484 5.25028
#
# Compressibility (1/GPa) = 0.02437018
#
# Stress axis : x y z
#
# Youngs Moduli (GPa) = 80.24783 116.88872 56.01404
#
# Poissons Ratio (x) = 0.20756 0.17071
# Poissons Ratio (y) = 0.14250 0.13590
# Poissons Ratio (z) = 0.24456 0.28360
#
# Static dielectric constant tensor:
#      x y z
#    x 1.956390 0.000000 0.000000 
#    y 0.000000 2.021090 0.000000 
#    z 0.000000 0.000000 1.894920 
# 
# From -- ./inp_files/21653.got.cif
#   From: 2010.05.17/outbox.cif.g08.bks.cpg/sg52_11_cif.got.tgz:21653.got - 2010.06.03 12:15:38.
