data_PCOD9407060
_publ_section_title
;
Structure prediction by ZEFSAII (Michael W. Deem and Ramdas Pophale) SiO2 
 PCOD9407060
Probable space group: P M M A
;
_chemical_formula_sum "Si O2"
_cell_formula_units_Z 64
_cell_length_a 18.429340
_cell_length_b 7.696824
_cell_length_c 23.873614
_cell_angle_alpha 90.000000
_cell_angle_beta 90.000000
_cell_angle_gamma 90.000000
_cell_volume 3386.409750
_symmetry_space_group_name_H-M "P M M A"
_symmetry_group_IT_number 51
_symmetry_cell_setting 'orthorhombic'
loop_
_space_group_symop_operation_xyz
x,y,z
1/2-x,-y,z
1/2+x,-y,-z
-x,y,-z
-x,-y,-z
1/2+x,y,-z
1/2-x,y,z
x,-y,z
loop_
_atom_site_type_symbol
_atom_site_label
_atom_site_fract_x
_atom_site_fract_y
_atom_site_fract_z
Si Si1 0.956817 0.208158 0.872432
Si Si2 0.926375 0.199335 0.537290
Si Si3 0.333017 0.786647 0.564553
Si Si4 0.974591 0.202799 0.370320
Si Si5 0.021496 0.301381 0.755090
Si Si6 0.329386 0.210401 0.812565
Si Si7 0.667218 0.786897 0.951941
Si Si8 0.604694 0.788343 0.071026
O O1 0.882893 0.270553 0.900448
O O2 0.972179 0.246273 0.807649
O O3 0.025209 0.272031 0.909420
O O4 0.957727 0.000000 0.877524
O O5 0.864467 0.271722 0.496155
O O6 0.000000 0.196858 0.500000
O O7 0.957588 0.280122 0.594601
O O8 0.903264 0.000000 0.548429
O O9 0.250000 0.730499 0.574822
O O10 0.395425 0.730501 0.609120
O O11 0.331873 0.000000 0.564884
O O12 0.985545 0.209968 0.304275
O O13 0.973573 0.000000 0.386680
O O14 0.006426 0.500000 0.743634
O O15 0.103735 0.278406 0.776966
O O16 0.250000 0.267302 0.793831
O O17 0.342724 0.258386 0.877505
O O18 0.332558 0.000000 0.809752
O O19 0.750000 0.729590 0.948127
O O20 0.667721 0.000000 0.952625
O O21 0.631542 0.730027 0.010662
O O22 0.602776 0.000000 0.068909
#
# Coordination Sequence:
#
# PCOD9407060 Si02
#       8
#     8   8   8   8   8   8   8   8
#     4   9  17  30  47  66  90 121 154 187 227 277
#     4   7  11  21  39  63  89 114 138 167 206 250
#     4   8  13  22  41  71  99 116 135 170 216 264
#     4   9  16  28  46  66  88 117 151 183 217 260
#     4  11  22  33  45  62  87 122 162 199 229 257
#     4   9  17  30  48  68  91 120 151 182 221 274
#     4   9  15  23  42  73  98 111 135 186 243 284
#     4   8  13  23  42  69  95 115 139 176 225 281
#
# _framework density 18.899070999999999
#
# number of rings (size 3 to 8) (size 9 to 14) (size 15 to 20)
#    0.000    3.250    0.000    4.125    0.000    3.750 
#    0.000    1.250    0.000   10.500    0.000    3.500 
#    0.000    0.000    0.000    0.000    0.000    0.000 
#
# Total GULP energy -356377.131571 kJ/mol
# GULP energy per Si atom -5568.392681 kJ/mol
# Density = 1.885606 g / cm^3
# Si number density = 18.899071 Si / 1000 Ang^3
#
#
#
# Elastic Constant Matrix: (Units=GPa)
#
#
# Indices 1 2 3 4 5 6 
#
# 1 65.0029 6.4072 51.4860 0.0000 0.0000 0.0000
# 2 6.4072 25.4186 -3.0269 0.0000 0.0000 0.0000
# 3 51.4860 -3.0269 126.5254 0.0000 0.0000 0.0000
# 4 0.0000 0.0000 0.0000 -46.4502 0.0000 0.0000
# 5 0.0000 0.0000 0.0000 0.0000 9.1607 0.0000
# 6 0.0000 0.0000 0.0000 0.0000 0.0000 -8.0912
#
#
#
# Elastic Compliance Matrix: (Units=1/GPa)
#
#
# Indices 1 2 3 4 5 6 
#
# 1 0.023952 -0.007219 -0.009919 0.000000 0.000000 0.000000
# 2 -0.007219 0.041629 0.003933 0.000000 0.000000 0.000000
# 3 -0.009919 0.003933 0.012034 0.000000 0.000000 0.000000
# 4 0.000000 0.000000 0.000000 -0.021528 0.000000 0.000000
# 5 0.000000 0.000000 0.000000 0.000000 0.109162 0.000000
# 6 0.000000 0.000000 0.000000 0.000000 0.000000 -0.123591
#
#
# Mechanical properties :
#
#
# Convention : Reuss Voigt Hill
#
# Bulk Modulus (GPa) = 19.52897 36.29771 27.91334
# Shear Modulus (GPa) = 58.72922 1.72923 30.22922
#
# Velocity S-wave (km/s) = 5.58056 0.95758 4.00372
# Velocity P-wave (km/s) = 7.20273 4.52442 6.01455
#
# Compressibility (1/GPa) = 0.05120598
#
# Stress axis : x y z
#
# Youngs Moduli (GPa) = 41.74983 24.02157 83.09740
#
# Poissons Ratio (x) = 0.17341 0.82427
# Poissons Ratio (y) = 0.30138 -0.32686
# Poissons Ratio (z) = 0.41413 -0.09449
#
# Static dielectric constant tensor:
#      x y z
#    x 1.659440 0.000000 0.000000 
#    y 0.000000 1.714130 0.000000 
#    z 0.000000 0.000000 1.701150 
# 
# From -- ./inp_files/35913.got.cif
#   From: 2010.05.17/outbox.cif.g08.bks.cpg/sg51_18_cif.got.tgz:35913.got - 2010.06.03 11:52:47.
