data_PCOD9407419
_publ_section_title
;
Structure prediction by ZEFSAII (Michael W. Deem and Ramdas Pophale) SiO2 
 PCOD9407419
Probable space group: P M M A
;
_chemical_formula_sum "Si O2"
_cell_formula_units_Z 48
_cell_length_a 15.000000
_cell_length_b 9.000000
_cell_length_c 18.000000
_cell_angle_alpha 90.000000
_cell_angle_beta 90.000000
_cell_angle_gamma 90.000000
_cell_volume 2430.000000
_symmetry_space_group_name_H-M "P M M A"
_symmetry_group_IT_number 51
_symmetry_cell_setting 'orthorhombic'
loop_
_space_group_symop_operation_xyz
x,y,z
1/2-x,-y,z
1/2+x,-y,-z
-x,y,-z
-x,-y,-z
1/2+x,y,-z
1/2-x,y,z
x,-y,z
loop_
_atom_site_type_symbol
_atom_site_label
_atom_site_fract_x
_atom_site_fract_y
_atom_site_fract_z
Si Si1 0.750000 0.666515 0.055754
Si Si2 0.940477 0.170154 0.211854
Si Si3 0.436560 0.823891 0.571386
Si Si4 0.250000 0.677989 0.532967
Si Si5 0.750000 0.178601 0.214549
Si Si6 0.250000 0.320401 0.358279
Si Si7 0.939487 0.675596 0.693253
Si Si8 0.405796 0.162494 0.963254
O O1 0.750000 0.500000 0.080625
O O2 0.750000 0.765661 0.129978
O O3 0.838173 0.711049 0.013138
O O4 0.845635 0.223554 0.246854
O O5 0.923853 0.166876 0.124429
O O6 0.021011 0.278688 0.228248
O O7 0.958381 0.000000 0.235731
O O8 0.500000 0.796511 0.500000
O O9 0.341009 0.746197 0.564133
O O10 0.492951 0.757079 0.638283
O O11 0.423465 0.000000 0.578700
O O12 0.250000 0.500000 0.541613
O O13 0.250000 0.715132 0.445132
O O14 0.750000 0.000000 0.214701
O O15 0.250000 0.500000 0.352780
O O16 0.340452 0.267341 0.321055
O O17 0.942181 0.500000 0.680507
O O18 0.367063 0.000000 0.980931
O O19 0.500000 0.177202 0.000000
#
# Coordination Sequence:
#
# PCOD9407419 Si02
#       8
#     4   8   8   4   4   4   8   8
#     4  10  18  28  48  80 112 139 174 223 278 329
#     4   9  18  34  55  82 110 140 181 232 280 322
#     4  11  23  38  57  84 113 140 177 228 280 323
#     4  11  21  38  62  84 110 145 188 229 270 326
#     4   8  16  33  55  73 103 145 180 214 265 332
#     4   9  20  37  57  77 103 145 190 226 263 323
#     4  11  22  38  58  80 109 149 190 226 274 333
#     4   9  18  35  58  79 106 148 192 228 270 330
#
# _framework density 19.753086
#
# number of rings (size 3 to 8) (size 9 to 14) (size 15 to 20)
#    0.000    2.167    1.667    3.000    0.000    4.333 
#    0.000    5.000    0.000    3.000    0.000    0.000 
#    0.000    0.000    0.000    0.000    0.000    0.000 
#
# Total GULP energy -267337.875899 kJ/mol
# GULP energy per Si atom -5569.539081 kJ/mol
# Density = 1.970813 g / cm^3
# Si number density = 19.753086 Si / 1000 Ang^3
#
#
#
# Elastic Constant Matrix: (Units=GPa)
#
#
# Indices 1 2 3 4 5 6 
#
# 1 171.9677 54.0047 41.0565 0.0000 0.0000 0.0000
# 2 54.0047 7.3865 22.9142 0.0000 0.0000 0.0000
# 3 41.0565 22.9142 21.0022 0.0000 0.0000 0.0000
# 4 0.0000 0.0000 0.0000 42.7782 0.0000 0.0000
# 5 0.0000 0.0000 0.0000 0.0000 15.3153 0.0000
# 6 0.0000 0.0000 0.0000 0.0000 0.0000 23.9060
#
#
#
# Elastic Compliance Matrix: (Units=1/GPa)
#
#
# Indices 1 2 3 4 5 6 
#
# 1 0.010360 0.005417 -0.026163 0.000000 0.000000 0.000000
# 2 0.005417 -0.053941 0.048261 0.000000 0.000000 0.000000
# 3 -0.026163 0.048261 0.046105 0.000000 0.000000 0.000000
# 4 0.000000 0.000000 0.000000 0.023376 0.000000 0.000000
# 5 0.000000 0.000000 0.000000 0.000000 0.065294 0.000000
# 6 0.000000 0.000000 0.000000 0.000000 0.000000 0.041831
#
#
# Mechanical properties :
#
#
# Convention : Reuss Voigt Hill
#
# Bulk Modulus (GPa) = 17.37464 48.47858 32.92661
# Shear Modulus (GPa) = 51.45066 21.89196 36.67131
#
# Velocity S-wave (km/s) = 5.10915 3.33270 4.31337
# Velocity P-wave (km/s) = 6.60451 6.27732 6.44299
#
# Compressibility (1/GPa) = 0.05755514
#
# Stress axis : x y z
#
# Youngs Moduli (GPa) = 96.52374 -18.53884 21.68942
#
# Poissons Ratio (x) = 0.10043 0.56747
# Poissons Ratio (y) = -0.52291 -1.04676
# Poissons Ratio (z) = 2.52539 0.89471
#
# Static dielectric constant tensor:
#      x y z
#    x 1.678600 0.000000 0.000000 
#    y 0.000000 1.687250 0.000000 
#    z 0.000000 0.000000 1.800570 
# 
# From -- ./inp_files/29709.got.cif
#   From: 2010.05.17/outbox.ucp.g08.bks.cvg/sg51_15_cif.got.tgz:29709.got - 2010.06.11 16:27:58.
