data_PCOD9407080
_publ_section_title
;
Structure prediction by ZEFSAII (Michael W. Deem and Ramdas Pophale) SiO2 
 PCOD9407080
Probable space group: P M M A
;
_chemical_formula_sum "Si O2"
_cell_formula_units_Z 48
_cell_length_a 9.091953
_cell_length_b 13.970596
_cell_length_c 24.667644
_cell_angle_alpha 90.000000
_cell_angle_beta 90.000000
_cell_angle_gamma 90.000000
_cell_volume 3133.284195
_symmetry_space_group_name_H-M "P M M A"
_symmetry_group_IT_number 51
_symmetry_cell_setting 'orthorhombic'
loop_
_space_group_symop_operation_xyz
x,y,z
1/2-x,-y,z
1/2+x,-y,-z
-x,y,-z
-x,-y,-z
1/2+x,y,-z
1/2-x,y,z
x,-y,z
loop_
_atom_site_type_symbol
_atom_site_label
_atom_site_fract_x
_atom_site_fract_y
_atom_site_fract_z
Si Si1 0.574438 0.790468 0.943388
Si Si2 0.575625 0.706466 0.224538
Si Si3 0.572259 0.388452 0.673674
Si Si4 0.079899 0.616470 0.445732
Si Si5 0.425478 0.611095 0.890590
Si Si6 0.074734 0.889966 0.842666
O O1 0.750000 0.792516 0.946930
O O2 0.516815 0.684532 0.926987
O O3 0.515232 0.858639 0.895570
O O4 0.500000 0.817679 0.000000
O O5 0.750000 0.700983 0.235136
O O6 0.489739 0.672302 0.277027
O O7 0.545186 0.639363 0.172144
O O8 0.539412 0.813565 0.204254
O O9 0.750000 0.385689 0.673304
O O10 0.528982 0.500000 0.680952
O O11 0.521332 0.355383 0.613693
O O12 0.250000 0.644408 0.449050
O O13 0.074819 0.500000 0.445520
O O14 0.000000 0.649929 0.500000
O O15 0.250000 0.626512 0.899564
O O16 0.458799 0.500000 0.900248
O O17 0.250000 0.878492 0.854234
O O18 0.047526 0.000000 0.828370
#
# Coordination Sequence:
#
# PCOD9407080 Si02
#       6
#     8   8   8   8   8   8
#     4  11  22  35  51  71  94 117 145 180 217 263
#     4   9  17  29  46  68  89 111 144 181 216 258
#     4   9  17  27  39  59  90 125 154 180 214 255
#     4   8  14  24  36  52  78 114 154 189 217 246
#     4   9  18  33  50  67  91 122 153 185 219 255
#     4   9  19  37  56  70  88 114 142 178 225 270
#
# _framework density 15.319388999999999
#
# number of rings (size 3 to 8) (size 9 to 14) (size 15 to 20)
#    0.000    2.833    0.000    4.000    0.000    5.667 
#    0.000    1.667    0.000    0.000    0.000    0.000 
#    0.000    0.667    0.000    1.500    0.000    2.333 
#
# Total GULP energy -267470.096042 kJ/mol
# GULP energy per Si atom -5572.293668 kJ/mol
# Density = 1.528452 g / cm^3
# Si number density = 15.319389 Si / 1000 Ang^3
#
#
#
# Elastic Constant Matrix: (Units=GPa)
#
#
# Indices 1 2 3 4 5 6 
#
# 1 47.3391 24.4620 48.8385 0.0000 0.0000 0.0000
# 2 24.4620 67.2462 30.1361 0.0000 0.0000 0.0000
# 3 48.8385 30.1361 116.6180 0.0000 0.0000 0.0000
# 4 0.0000 0.0000 0.0000 9.6901 0.0000 0.0000
# 5 0.0000 0.0000 0.0000 0.0000 30.7515 0.0000
# 6 0.0000 0.0000 0.0000 0.0000 0.0000 17.8079
#
#
#
# Elastic Compliance Matrix: (Units=1/GPa)
#
#
# Indices 1 2 3 4 5 6 
#
# 1 0.040770 -0.008119 -0.014976 0.000000 0.000000 0.000000
# 2 -0.008119 0.018435 -0.001364 0.000000 0.000000 0.000000
# 3 -0.014976 -0.001364 0.015199 0.000000 0.000000 0.000000
# 4 0.000000 0.000000 0.000000 0.103198 0.000000 0.000000
# 5 0.000000 0.000000 0.000000 0.000000 0.032519 0.000000
# 6 0.000000 0.000000 0.000000 0.000000 0.000000 0.056155
#
#
# Mechanical properties :
#
#
# Convention : Reuss Voigt Hill
#
# Bulk Modulus (GPa) = 39.23631 48.67518 43.95574
# Shear Modulus (GPa) = 15.44687 20.16768 17.80728
#
# Velocity S-wave (km/s) = 3.17885 3.63227 3.41310
# Velocity P-wave (km/s) = 6.25630 7.03091 6.65489
#
# Compressibility (1/GPa) = 0.02548660
#
# Stress axis : x y z
#
# Youngs Moduli (GPa) = 24.52775 54.24327 65.79295
#
# Poissons Ratio (x) = 0.44043 0.98531
# Poissons Ratio (y) = 0.19915 0.08972
# Poissons Ratio (z) = 0.36733 0.07397
#
# Static dielectric constant tensor:
#      x y z
#    x 1.512290 0.000000 0.000000 
#    y 0.000000 1.499970 0.000000 
#    z 0.000000 0.000000 1.510510 
# 
# From -- ./inp_files/31608.got.cif
#   From: 2010.05.17/outbox.cif.g08.bks.cpg/sg51_16_cif.got.tgz:31608.got - 2010.06.03 11:52:47.
