data_PCOD9407617
_publ_section_title
;
Structure prediction by ZEFSAII (Michael W. Deem and Ramdas Pophale) SiO2 
 PCOD9407617
Probable space group: P M M A
;
_chemical_formula_sum "Si O2"
_cell_formula_units_Z 64
_cell_length_a 9.000000
_cell_length_b 24.000000
_cell_length_c 15.000000
_cell_angle_alpha 90.000000
_cell_angle_beta 90.000000
_cell_angle_gamma 90.000000
_cell_volume 3240.000000
_symmetry_space_group_name_H-M "P M M A"
_symmetry_group_IT_number 51
_symmetry_cell_setting 'orthorhombic'
loop_
_space_group_symop_operation_xyz
x,y,z
1/2-x,-y,z
1/2+x,-y,-z
-x,y,-z
-x,-y,-z
1/2+x,y,-z
1/2-x,y,z
x,-y,z
loop_
_atom_site_type_symbol
_atom_site_label
_atom_site_fract_x
_atom_site_fract_y
_atom_site_fract_z
Si Si1 0.421693 0.632252 0.589448
Si Si2 0.581166 0.933798 0.586385
Si Si3 0.077538 0.739199 0.687264
Si Si4 0.424057 0.175405 0.917767
Si Si5 0.919858 0.561944 0.737309
Si Si6 0.425653 0.406193 0.912523
Si Si7 0.574847 0.709856 0.865853
Si Si8 0.579354 0.136162 0.280656
O O1 0.500000 0.614915 0.500000
O O2 0.250000 0.616050 0.591539
O O3 0.430105 0.698742 0.603769
O O4 0.507454 0.604149 0.669769
O O5 0.500000 0.910365 0.500000
O O6 0.750000 0.919155 0.576175
O O7 0.521138 0.909883 0.677250
O O8 0.563563 0.000000 0.586767
O O9 0.250000 0.735745 0.722198
O O10 0.046764 0.803922 0.674579
O O11 0.966665 0.716361 0.761956
O O12 0.250000 0.185633 0.933145
O O13 0.510990 0.233461 0.906565
O O14 0.439633 0.144480 0.824210
O O15 0.500000 0.144760 0.000000
O O16 0.750000 0.577386 0.759073
O O17 0.920134 0.500000 0.698356
O O18 0.016484 0.562995 0.825800
O O19 0.250000 0.406121 0.918941
O O20 0.487248 0.343353 0.901428
O O21 0.500000 0.430648 0.000000
O O22 0.750000 0.704143 0.880795
O O23 0.750000 0.122415 0.299108
#
# Coordination Sequence:
#
# PCOD9407617 Si02
#       8
#     8   8   8   8   8   8   8   8
#     4  11  23  40  64  89 118 153 190 234 286 345
#     4  10  21  37  58  84 114 150 195 245 294 344
#     4   9  19  36  56  83 118 154 188 231 283 339
#     4  10  20  34  52  79 117 156 196 239 284 336
#     4  11  25  45  66  88 114 144 186 240 292 347
#     4  12  24  39  60  86 116 150 189 232 283 343
#     4  11  20  32  54  82 114 152 191 232 280 334
#     4   9  19  35  56  84 119 155 192 237 288 340
#
# _framework density 19.753086
#
# number of rings (size 3 to 8) (size 9 to 14) (size 15 to 20)
#    0.000    1.625    1.250    4.875    0.000    5.750 
#    0.000    1.250    0.000    0.375    0.000    0.000 
#    0.000    0.000    0.000    0.000    0.000    0.000 
#
# Total GULP energy -357100.973889 kJ/mol
# GULP energy per Si atom -5579.702717 kJ/mol
# Density = 1.970813 g / cm^3
# Si number density = 19.753086 Si / 1000 Ang^3
#
#
#
# Elastic Constant Matrix: (Units=GPa)
#
#
# Indices 1 2 3 4 5 6 
#
# 1 138.1656 61.2588 61.6925 0.0000 0.0000 0.0000
# 2 61.2588 36.8929 31.7425 0.0000 0.0000 0.0000
# 3 61.6925 31.7425 56.7414 0.0000 0.0000 0.0000
# 4 0.0000 0.0000 0.0000 73.8470 0.0000 0.0000
# 5 0.0000 0.0000 0.0000 0.0000 31.2130 0.0000
# 6 0.0000 0.0000 0.0000 0.0000 0.0000 14.5435
#
#
#
# Elastic Compliance Matrix: (Units=1/GPa)
#
#
# Indices 1 2 3 4 5 6 
#
# 1 0.029669 -0.041470 -0.009059 0.000000 0.000000 0.000000
# 2 -0.041470 0.110224 -0.016573 0.000000 0.000000 0.000000
# 3 -0.009059 -0.016573 0.036744 0.000000 0.000000 0.000000
# 4 0.000000 0.000000 0.000000 0.013542 0.000000 0.000000
# 5 0.000000 0.000000 0.000000 0.000000 0.032038 0.000000
# 6 0.000000 0.000000 0.000000 0.000000 0.000000 0.068759
#
#
# Mechanical properties :
#
#
# Convention : Reuss Voigt Hill
#
# Bulk Modulus (GPa) = 23.56629 60.13195 41.84912
# Shear Modulus (GPa) = 11.38112 29.06113 20.22113
#
# Velocity S-wave (km/s) = 2.40296 3.83981 3.20299
# Velocity P-wave (km/s) = 4.43343 7.08285 5.90855
#
# Compressibility (1/GPa) = 0.04243350
#
# Stress axis : x y z
#
# Youngs Moduli (GPa) = 33.70502 9.07246 27.21508
#
# Poissons Ratio (x) = 0.37624 0.24653
# Poissons Ratio (y) = 1.39775 0.45104
# Poissons Ratio (z) = 0.30532 0.15036
#
# Static dielectric constant tensor:
#      x y z
#    x 1.660330 0.000000 0.000000 
#    y 0.000000 1.690520 0.000000 
#    z 0.000000 0.000000 1.700630 
# 
# From -- ./inp_files/22212.got.cif
#   From: 2010.05.17/outbox.ucp.g08.bks.cvg/sg51_12_cif.got.tgz:22212.got - 2010.06.11 16:27:58.
