data_PCOD9407576
_publ_section_title
;
Structure prediction by ZEFSAII (Michael W. Deem and Ramdas Pophale) SiO2 
 PCOD9407576
Probable space group: P M M A
;
_chemical_formula_sum "Si O2"
_cell_formula_units_Z 64
_cell_length_a 24.000000
_cell_length_b 9.000000
_cell_length_c 18.000000
_cell_angle_alpha 90.000000
_cell_angle_beta 90.000000
_cell_angle_gamma 90.000000
_cell_volume 3888.000000
_symmetry_space_group_name_H-M "P M M A"
_symmetry_group_IT_number 51
_symmetry_cell_setting 'orthorhombic'
loop_
_space_group_symop_operation_xyz
x,y,z
1/2-x,-y,z
1/2+x,-y,-z
-x,y,-z
-x,-y,-z
1/2+x,y,-z
1/2-x,y,z
x,-y,z
loop_
_atom_site_type_symbol
_atom_site_label
_atom_site_fract_x
_atom_site_fract_y
_atom_site_fract_z
Si Si1 0.591683 0.178301 0.640959
Si Si2 0.685087 0.680799 0.082007
Si Si3 0.315300 0.172005 0.623835
Si Si4 0.817593 0.671848 0.916611
Si Si5 0.522952 0.322295 0.333624
Si Si6 0.404260 0.677523 0.522295
Si Si7 0.368607 0.678935 0.762732
Si Si8 0.814876 0.820967 0.760731
O O1 0.534126 0.235152 0.676872
O O2 0.592469 0.246862 0.558033
O O3 0.643696 0.223782 0.693806
O O4 0.592184 0.000000 0.635246
O O5 0.750000 0.726326 0.093917
O O6 0.685380 0.500000 0.078985
O O7 0.647158 0.722666 0.152878
O O8 0.665895 0.729592 0.999122
O O9 0.250000 0.176782 0.609134
O O10 0.348698 0.267437 0.563704
O O11 0.328138 0.239939 0.704651
O O12 0.334122 0.000000 0.621089
O O13 0.750000 0.673060 0.919070
O O14 0.835575 0.500000 0.909686
O O15 0.833131 0.758169 0.841436
O O16 0.513171 0.500000 0.332758
O O17 0.548318 0.285690 0.415689
O O18 0.569862 0.289381 0.271025
O O19 0.405104 0.500000 0.513115
O O20 0.361053 0.500000 0.756974
O O21 0.750000 0.775456 0.747888
O O22 0.815768 0.000000 0.764564
#
# Coordination Sequence:
#
# PCOD9407576 Si02
#       8
#     8   8   8   8   8   8   8   8
#     4  11  22  34  52  74  93 120 157 196 243 295
#     4   8  13  23  44  74 102 126 156 195 235 276
#     4  10  20  32  46  68 101 135 163 195 236 281
#     4   8  14  26  46  72  98 123 154 192 233 277
#     4   9  19  34  50  70  96 125 159 199 237 277
#     4  10  21  36  53  72  94 123 161 203 243 283
#     4   9  17  30  49  71  97 131 166 198 235 279
#     4   9  19  35  51  69  96 125 152 188 237 289
#
# _framework density 16.460905
#
# number of rings (size 3 to 8) (size 9 to 14) (size 15 to 20)
#    0.000    2.750    0.000    3.375    0.000    7.000 
#    0.000    1.875    0.000    3.000    0.000    5.250 
#    0.000    0.000    0.000    0.000    0.000    0.000 
#
# Total GULP energy -356529.487135 kJ/mol
# GULP energy per Si atom -5570.773236 kJ/mol
# Density = 1.642344 g / cm^3
# Si number density = 16.460905 Si / 1000 Ang^3
#
#
#
# Elastic Constant Matrix: (Units=GPa)
#
#
# Indices 1 2 3 4 5 6 
#
# 1 79.5640 28.5401 57.6266 0.0000 0.0000 0.0000
# 2 28.5401 27.6610 31.5767 0.0000 0.0000 0.0000
# 3 57.6266 31.5767 131.4094 0.0000 0.0000 0.0000
# 4 0.0000 0.0000 0.0000 18.2364 0.0000 0.0000
# 5 0.0000 0.0000 0.0000 0.0000 18.3296 0.0000
# 6 0.0000 0.0000 0.0000 0.0000 0.0000 23.8877
#
#
#
# Elastic Compliance Matrix: (Units=1/GPa)
#
#
# Indices 1 2 3 4 5 6 
#
# 1 0.022968 -0.016812 -0.006032 0.000000 0.000000 0.000000
# 2 -0.016812 0.062123 -0.007555 0.000000 0.000000 0.000000
# 3 -0.006032 -0.007555 0.012071 0.000000 0.000000 0.000000
# 4 0.000000 0.000000 0.000000 0.054835 0.000000 0.000000
# 5 0.000000 0.000000 0.000000 0.000000 0.054557 0.000000
# 6 0.000000 0.000000 0.000000 0.000000 0.000000 0.041863
#
#
# Mechanical properties :
#
#
# Convention : Reuss Voigt Hill
#
# Bulk Modulus (GPa) = 27.50063 52.68013 40.09038
# Shear Modulus (GPa) = 15.56004 20.15013 17.85508
#
# Velocity S-wave (km/s) = 3.07786 3.50254 3.29705
# Velocity P-wave (km/s) = 5.41977 6.95914 6.23713
#
# Compressibility (1/GPa) = 0.03636280
#
# Stress axis : x y z
#
# Youngs Moduli (GPa) = 43.53861 16.09714 82.84549
#
# Poissons Ratio (x) = 0.27062 0.49976
# Poissons Ratio (y) = 0.73196 0.62592
# Poissons Ratio (z) = 0.26264 0.12162
#
# Static dielectric constant tensor:
#      x y z
#    x 1.556970 0.000000 0.000000 
#    y 0.000000 1.556920 0.000000 
#    z 0.000000 0.000000 1.558800 
# 
# From -- ./inp_files/30899.got.cif
#   From: 2010.05.17/outbox.ucp.g08.bks.cvg/sg51_16_cif.got.tgz:30899.got - 2010.06.11 16:27:58.
