data_PCOD9407241
_publ_section_title
;
Structure prediction by ZEFSAII (Michael W. Deem and Ramdas Pophale) SiO2 
 PCOD9407241
Probable space group: P M M A
;
_chemical_formula_sum "Si O2"
_cell_formula_units_Z 48
_cell_length_a 13.893476
_cell_length_b 7.287000
_cell_length_c 18.548954
_cell_angle_alpha 90.000000
_cell_angle_beta 90.000000
_cell_angle_gamma 90.000000
_cell_volume 1877.928742
_symmetry_space_group_name_H-M "P M M A"
_symmetry_group_IT_number 51
_symmetry_cell_setting 'orthorhombic'
loop_
_space_group_symop_operation_xyz
x,y,z
1/2-x,-y,z
1/2+x,-y,-z
-x,y,-z
-x,-y,-z
1/2+x,y,-z
1/2-x,y,z
x,-y,z
loop_
_atom_site_type_symbol
_atom_site_label
_atom_site_fract_x
_atom_site_fract_y
_atom_site_fract_z
Si Si1 0.063297 0.218993 0.101863
Si Si2 0.617875 0.715750 0.434620
Si Si3 0.143263 0.223567 0.948097
Si Si4 0.931604 0.716921 0.741516
Si Si5 0.111713 0.714508 0.410925
Si Si6 0.648457 0.724126 0.274965
O O1 0.109710 0.261782 0.178807
O O2 0.951984 0.286030 0.095139
O O3 0.058512 0.000000 0.096721
O O4 0.121029 0.278068 0.030986
O O5 0.641812 0.500000 0.437360
O O6 0.646632 0.793099 0.512504
O O7 0.503085 0.723985 0.423191
O O8 0.654402 0.783643 0.358500
O O9 0.250000 0.286637 0.926861
O O10 0.144258 0.000000 0.944791
O O11 0.939744 0.500000 0.727316
O O12 0.876521 0.789180 0.670322
O O13 0.042118 0.788175 0.747769
O O14 0.140775 0.500000 0.409928
O O15 0.750000 0.782232 0.239545
O O16 0.646714 0.500000 0.272011
#
# Coordination Sequence:
#
# PCOD9407241 Si02
#       6
#     8   8   8   8   8   8
#     4   9  17  29  47  69  86 104 138 175 202 242
#     4   7   9  15  28  45  65  92 131 171 195 221
#     4   8  15  30  50  67  83 106 137 173 208 239
#     4   9  16  25  38  58  87 116 134 160 209 258
#     4   7  10  17  30  48  68  95 131 163 194 232
#     4   8  13  20  31  51  79 109 141 176 212 247
#
# _framework density 25.560074
#
# number of rings (size 3 to 8) (size 9 to 14) (size 15 to 20)
#    0.000    4.000    0.000    4.000    0.000    0.667 
#    0.000    1.667    0.000    2.500    0.000   11.667 
#    0.000    0.000    0.000    0.000    0.000    0.000 
#
# Total GULP energy -267406.266618 kJ/mol
# GULP energy per Si atom -5570.963888 kJ/mol
# Density = 2.550190 g / cm^3
# Si number density = 25.560074 Si / 1000 Ang^3
#
#
#
# Elastic Constant Matrix: (Units=GPa)
#
#
# Indices 1 2 3 4 5 6 
#
# 1 90.9820 -2.3917 -4.1720 0.0000 0.0000 0.0000
# 2 -2.3917 104.8575 -8.1339 0.0000 0.0000 0.0000
# 3 -4.1720 -8.1339 205.1978 0.0000 0.0000 0.0000
# 4 0.0000 0.0000 0.0000 17.1620 0.0000 0.0000
# 5 0.0000 0.0000 0.0000 0.0000 -26.8896 0.0000
# 6 0.0000 0.0000 0.0000 0.0000 0.0000 -16.4947
#
#
#
# Elastic Compliance Matrix: (Units=1/GPa)
#
#
# Indices 1 2 3 4 5 6 
#
# 1 0.011009 0.000269 0.000235 0.000000 0.000000 0.000000
# 2 0.000269 0.009573 0.000385 0.000000 0.000000 0.000000
# 3 0.000235 0.000385 0.004893 0.000000 0.000000 0.000000
# 4 0.000000 0.000000 0.000000 0.058268 0.000000 0.000000
# 5 0.000000 0.000000 0.000000 0.000000 -0.037189 0.000000
# 6 0.000000 0.000000 0.000000 0.000000 0.000000 -0.060626
#
#
# Mechanical properties :
#
#
# Convention : Reuss Voigt Hill
#
# Bulk Modulus (GPa) = 36.69374 41.29357 38.99365
# Shear Modulus (GPa) = -739.12452 22.47122 -358.32665
#
# Velocity S-wave (km/s) = -17.02349 2.96827 -11.85303
# Velocity P-wave (km/s) = 19.28761 5.28565 13.11629
#
# Compressibility (1/GPa) = 0.02725261
#
# Stress axis : x y z
#
# Youngs Moduli (GPa) = 90.83464 104.46312 204.35802
#
# Poissons Ratio (x) = -0.02813 -0.04792
# Poissons Ratio (y) = -0.02446 -0.07866
# Poissons Ratio (z) = -0.02130 -0.04021
#
# Static dielectric constant tensor:
#      x y z
#    x 1.756080 0.000000 0.000000 
#    y 0.000000 2.023900 0.000000 
#    z 0.000000 0.000000 2.042550 
# 
# From -- ./inp_files/29736.got.cif
#   From: 2010.05.17/outbox.cif.g08.bks.cpg/sg51_15_cif.got.tgz:29736.got - 2010.06.03 11:52:47.
