data_PCOD9407276
_publ_section_title
;
Structure prediction by ZEFSAII (Michael W. Deem and Ramdas Pophale) SiO2 
 PCOD9407276
Probable space group: P M M A
;
_chemical_formula_sum "Si O2"
_cell_formula_units_Z 48
_cell_length_a 9.702542
_cell_length_b 7.349086
_cell_length_c 32.604754
_cell_angle_alpha 90.000000
_cell_angle_beta 90.000000
_cell_angle_gamma 90.000000
_cell_volume 2324.875971
_symmetry_space_group_name_H-M "P M M A"
_symmetry_group_IT_number 51
_symmetry_cell_setting 'orthorhombic'
loop_
_space_group_symop_operation_xyz
x,y,z
1/2-x,-y,z
1/2+x,-y,-z
-x,y,-z
-x,-y,-z
1/2+x,y,-z
1/2-x,y,z
x,-y,z
loop_
_atom_site_type_symbol
_atom_site_label
_atom_site_fract_x
_atom_site_fract_y
_atom_site_fract_z
Si Si1 0.907321 0.714413 0.718043
Si Si2 0.590728 0.218197 0.627795
Si Si3 0.908560 0.722723 0.206588
Si Si4 0.410810 0.778155 0.461587
Si Si5 0.409045 0.278444 0.037931
Si Si6 0.090716 0.721472 0.129702
O O1 0.750000 0.789376 0.718935
O O2 0.894490 0.500000 0.725665
O O3 0.967958 0.733243 0.672133
O O4 0.006080 0.785139 0.753584
O O5 0.750000 0.281779 0.628920
O O6 0.535106 0.279004 0.583537
O O7 0.592198 0.000000 0.626541
O O8 0.750000 0.780765 0.207096
O O9 0.907706 0.500000 0.206771
O O10 0.990038 0.780257 0.165792
O O11 0.500000 0.715031 0.500000
O O12 0.250000 0.726126 0.465144
O O13 0.413325 0.000000 0.462177
O O14 0.250000 0.226112 0.032508
O O15 0.413474 0.500000 0.037758
O O16 0.452051 0.221871 0.083794
O O17 0.500000 0.214871 0.000000
O O18 0.250000 0.776622 0.136697
O O19 0.090985 0.500000 0.130000
#
# Coordination Sequence:
#
# PCOD9407276 Si02
#       6
#     8   8   8   8   8   8
#     4   9  16  26  41  58  74  96 127 159 189 223
#     4   8  14  25  41  60  80 101 126 156 188 222
#     4   9  16  24  34  49  68  90 117 151 190 227
#     4   8  13  22  37  56  76  97 122 152 183 215
#     4   8  13  19  26  37  54  77 106 142 183 223
#     4   8  13  21  31  42  58  82 114 151 186 221
#
# _framework density 20.646260999999999
#
# number of rings (size 3 to 8) (size 9 to 14) (size 15 to 20)
#    0.000    3.667    0.000    2.500    0.000    2.667 
#    0.000    4.167    0.000    2.000    0.000    0.000 
#    0.000    0.000    0.000    0.000    0.000    0.833 
#
# Total GULP energy -267493.989544 kJ/mol
# GULP energy per Si atom -5572.791449 kJ/mol
# Density = 2.059927 g / cm^3
# Si number density = 20.646261 Si / 1000 Ang^3
#
#
#
# Elastic Constant Matrix: (Units=GPa)
#
#
# Indices 1 2 3 4 5 6 
#
# 1 99.2403 4.7899 126.0078 0.0000 0.0000 0.0000
# 2 4.7899 75.2117 4.4065 0.0000 0.0000 0.0000
# 3 126.0078 4.4065 264.4101 0.0000 0.0000 0.0000
# 4 0.0000 0.0000 0.0000 9.9740 0.0000 0.0000
# 5 0.0000 0.0000 0.0000 0.0000 33.9664 0.0000
# 6 0.0000 0.0000 0.0000 0.0000 0.0000 -14.0367
#
#
#
# Elastic Compliance Matrix: (Units=1/GPa)
#
#
# Indices 1 2 3 4 5 6 
#
# 1 0.025580 -0.000916 -0.012175 0.000000 0.000000 0.000000
# 2 -0.000916 0.013342 0.000214 0.000000 0.000000 0.000000
# 3 -0.012175 0.000214 0.009581 0.000000 0.000000 0.000000
# 4 0.000000 0.000000 0.000000 0.100261 0.000000 0.000000
# 5 0.000000 0.000000 0.000000 0.000000 0.029441 0.000000
# 6 0.000000 0.000000 0.000000 0.000000 0.000000 -0.071242
#
#
# Mechanical properties :
#
#
# Convention : Reuss Voigt Hill
#
# Bulk Modulus (GPa) = 43.95906 78.80782 61.38344
# Shear Modulus (GPa) = 35.63832 26.22458 30.93145
#
# Velocity S-wave (km/s) = 4.15919 3.56783 3.87481
# Velocity P-wave (km/s) = 6.66355 7.43142 7.05793
#
# Compressibility (1/GPa) = 0.02274844
#
# Stress axis : x y z
#
# Youngs Moduli (GPa) = 39.09347 74.95360 104.37752
#
# Poissons Ratio (x) = 0.06864 1.27080
# Poissons Ratio (y) = 0.03580 -0.02234
# Poissons Ratio (z) = 0.47597 -0.01604
#
# Static dielectric constant tensor:
#      x y z
#    x 1.690670 0.000000 0.000000 
#    y 0.000000 1.862960 0.000000 
#    z 0.000000 0.000000 1.750790 
# 
# From -- ./inp_files/37308.got.cif
#   From: 2010.05.17/outbox.cif.g08.bks.cpg/sg51_19_cif.got.tgz:37308.got - 2010.06.03 11:52:47.
