data_PCOD9407512
_publ_section_title
;
Structure prediction by ZEFSAII (Michael W. Deem and Ramdas Pophale) SiO2 
 PCOD9407512
Probable space group: P M M A
;
_chemical_formula_sum "Si O2"
_cell_formula_units_Z 64
_cell_length_a 9.000000
_cell_length_b 24.000000
_cell_length_c 15.000000
_cell_angle_alpha 90.000000
_cell_angle_beta 90.000000
_cell_angle_gamma 90.000000
_cell_volume 3240.000000
_symmetry_space_group_name_H-M "P M M A"
_symmetry_group_IT_number 51
_symmetry_cell_setting 'orthorhombic'
loop_
_space_group_symop_operation_xyz
x,y,z
1/2-x,-y,z
1/2+x,-y,-z
-x,y,-z
-x,-y,-z
1/2+x,y,-z
1/2-x,y,z
x,-y,z
loop_
_atom_site_type_symbol
_atom_site_label
_atom_site_fract_x
_atom_site_fract_y
_atom_site_fract_z
Si Si1 0.571861 0.649410 0.587520
Si Si2 0.585283 0.934353 0.584916
Si Si3 0.927251 0.759831 0.672347
Si Si4 0.421741 0.157894 0.913040
Si Si5 0.929912 0.559494 0.723878
Si Si6 0.572669 0.395705 0.913184
Si Si7 0.424421 0.717681 0.852949
Si Si8 0.573090 0.129679 0.280867
O O1 0.500000 0.625462 0.500000
O O2 0.750000 0.646934 0.583824
O O3 0.531093 0.713647 0.600382
O O4 0.517189 0.612495 0.669562
O O5 0.500000 0.910274 0.500000
O O6 0.750000 0.910350 0.594533
O O7 0.487924 0.924139 0.671502
O O8 0.599658 0.000000 0.570627
O O9 0.750000 0.766743 0.674889
O O10 0.983929 0.732595 0.764502
O O11 0.008885 0.818173 0.664398
O O12 0.250000 0.142660 0.916307
O O13 0.430262 0.225114 0.908711
O O14 0.484124 0.136228 0.819620
O O15 0.500000 0.136326 0.000000
O O16 0.750000 0.559447 0.716845
O O17 0.985130 0.500000 0.690592
O O18 0.963197 0.568388 0.826698
O O19 0.750000 0.389899 0.921367
O O20 0.499361 0.335117 0.898295
O O21 0.500000 0.421153 0.000000
O O22 0.250000 0.707153 0.833568
O O23 0.750000 0.132722 0.280213
#
# Coordination Sequence:
#
# PCOD9407512 Si02
#       8
#     8   8   8   8   8   8   8   8
#     4  10  21  37  57  82 106 138 178 219 274 334
#     4  10  21  38  61  88 116 150 193 240 290 341
#     4  10  19  34  54  79 112 148 185 223 273 333
#     4   9  19  32  48  75 110 148 187 226 271 321
#     4   9  19  38  59  76 102 139 177 222 276 334
#     4  11  21  34  53  79 106 138 177 219 271 330
#     4  10  19  32  51  77 108 143 181 224 272 325
#     4  10  21  36  55  84 119 154 193 235 282 333
#
# _framework density 19.753086
#
# number of rings (size 3 to 8) (size 9 to 14) (size 15 to 20)
#    0.000    2.125    1.250    3.000    0.000    6.750 
#    0.000    1.250    0.000    3.000    0.000    0.000 
#    0.000    0.000    0.000    0.000    0.000    0.000 
#
# Total GULP energy -356586.311945 kJ/mol
# GULP energy per Si atom -5571.661124 kJ/mol
# Density = 1.970813 g / cm^3
# Si number density = 19.753086 Si / 1000 Ang^3
#
#
#
# Elastic Constant Matrix: (Units=GPa)
#
#
# Indices 1 2 3 4 5 6 
#
# 1 41.2219 21.2517 31.5622 0.0000 0.0000 0.0000
# 2 21.2517 24.5407 31.2070 0.0000 0.0000 0.0000
# 3 31.5622 31.2070 79.0315 0.0000 0.0000 0.0000
# 4 0.0000 0.0000 0.0000 -10.3390 0.0000 0.0000
# 5 0.0000 0.0000 0.0000 0.0000 21.0680 0.0000
# 6 0.0000 0.0000 0.0000 0.0000 0.0000 6.8397
#
#
#
# Elastic Compliance Matrix: (Units=1/GPa)
#
#
# Indices 1 2 3 4 5 6 
#
# 1 0.044853 -0.032264 -0.005173 0.000000 0.000000 0.000000
# 2 -0.032264 0.105055 -0.028598 0.000000 0.000000 0.000000
# 3 -0.005173 -0.028598 0.026011 0.000000 0.000000 0.000000
# 4 0.000000 0.000000 0.000000 -0.096721 0.000000 0.000000
# 5 0.000000 0.000000 0.000000 0.000000 0.047465 0.000000
# 6 0.000000 0.000000 0.000000 0.000000 0.000000 0.146205
#
#
# Mechanical properties :
#
#
# Convention : Reuss Voigt Hill
#
# Bulk Modulus (GPa) = 22.80487 34.75954 28.78221
# Shear Modulus (GPa) = 11.91744 7.56528 9.74136
#
# Velocity S-wave (km/s) = 2.45892 1.95914 2.22312
# Velocity P-wave (km/s) = 4.43077 4.77000 4.60351
#
# Compressibility (1/GPa) = 0.04385027
#
# Stress axis : x y z
#
# Youngs Moduli (GPa) = 22.29505 9.51884 38.44500
#
# Poissons Ratio (x) = 0.30712 0.19886
# Poissons Ratio (y) = 0.71933 1.09944
# Poissons Ratio (z) = 0.11532 0.27222
#
# Static dielectric constant tensor:
#      x y z
#    x 1.674190 0.000000 0.000000 
#    y 0.000000 1.717910 0.000000 
#    z 0.000000 0.000000 1.709430 
# 
# From -- ./inp_files/22211.got.cif
#   From: 2010.05.17/outbox.ucp.g08.bks.cvg/sg51_12_cif.got.tgz:22211.got - 2010.06.11 16:27:58.
