data_PCOD9407633
_publ_section_title
;
Structure prediction by ZEFSAII (Michael W. Deem and Ramdas Pophale) SiO2 
 PCOD9407633
Probable space group: P M M A
;
_chemical_formula_sum "Si O2"
_cell_formula_units_Z 48
_cell_length_a 24.000000
_cell_length_b 9.000000
_cell_length_c 12.000000
_cell_angle_alpha 90.000000
_cell_angle_beta 90.000000
_cell_angle_gamma 90.000000
_cell_volume 2592.000000
_symmetry_space_group_name_H-M "P M M A"
_symmetry_group_IT_number 51
_symmetry_cell_setting 'orthorhombic'
loop_
_space_group_symop_operation_xyz
x,y,z
1/2-x,-y,z
1/2+x,-y,-z
-x,y,-z
-x,-y,-z
1/2+x,y,-z
1/2-x,y,z
x,-y,z
loop_
_atom_site_type_symbol
_atom_site_label
_atom_site_fract_x
_atom_site_fract_y
_atom_site_fract_z
Si Si1 0.088860 0.820921 0.710752
Si Si2 0.912473 0.176236 0.549942
Si Si3 0.815152 0.672299 0.669491
Si Si4 0.975561 0.321461 0.756573
Si Si5 0.870721 0.676274 0.904906
Si Si6 0.185029 0.179263 0.878650
O O1 0.084742 0.779389 0.579819
O O2 0.146886 0.780109 0.771426
O O3 0.036721 0.745374 0.772466
O O4 0.083432 0.000000 0.716525
O O5 0.851387 0.218305 0.594884
O O6 0.952526 0.259262 0.638078
O O7 0.923354 0.000000 0.557268
O O8 0.750000 0.687869 0.650340
O O9 0.831798 0.500000 0.646569
O O10 0.829796 0.698505 0.799081
O O11 0.977007 0.500000 0.752175
O O12 0.931075 0.279043 0.853430
O O13 0.873006 0.500000 0.929162
O O14 0.846625 0.759098 0.012095
O O15 0.250000 0.229111 0.873341
O O16 0.185750 0.000000 0.884747
#
# Coordination Sequence:
#
# PCOD9407633 Si02
#       6
#     8   8   8   8   8   8
#     4  10  22  38  55  78 110 145 179 219 265 315
#     4  10  20  34  54  80 110 144 181 221 269 323
#     4   9  18  33  53  78 109 143 180 226 276 321
#     4  10  21  37  58  83 110 139 174 221 274 323
#     4   9  19  36  56  79 107 138 174 220 272 319
#     4  10  22  39  57  78 107 144 182 219 262 313
#
# _framework density 18.518519000000001
#
# number of rings (size 3 to 8) (size 9 to 14) (size 15 to 20)
#    0.000    2.333    0.000    3.000    0.000   10.000 
#    0.000    5.000    0.000    0.000    0.000    0.000 
#    0.000    0.000    0.000    0.000    0.000    0.000 
#
# Total GULP energy -267841.936669 kJ/mol
# GULP energy per Si atom -5580.040347 kJ/mol
# Density = 1.847637 g / cm^3
# Si number density = 18.518519 Si / 1000 Ang^3
#
#
#
# Elastic Constant Matrix: (Units=GPa)
#
#
# Indices 1 2 3 4 5 6 
#
# 1 125.6569 27.2048 47.9804 0.0000 0.0000 0.0000
# 2 27.2048 24.6857 18.6496 0.0000 0.0000 0.0000
# 3 47.9804 18.6496 67.8356 0.0000 0.0000 0.0000
# 4 0.0000 0.0000 0.0000 -4.7820 0.0000 0.0000
# 5 0.0000 0.0000 0.0000 0.0000 15.5688 0.0000
# 6 0.0000 0.0000 0.0000 0.0000 0.0000 29.5052
#
#
#
# Elastic Compliance Matrix: (Units=1/GPa)
#
#
# Indices 1 2 3 4 5 6 
#
# 1 0.012243 -0.008772 -0.006248 0.000000 0.000000 0.000000
# 2 -0.008772 0.057414 -0.009580 0.000000 0.000000 0.000000
# 3 -0.006248 -0.009580 0.021794 0.000000 0.000000 0.000000
# 4 0.000000 0.000000 0.000000 -0.209119 0.000000 0.000000
# 5 0.000000 0.000000 0.000000 0.000000 0.064231 0.000000
# 6 0.000000 0.000000 0.000000 0.000000 0.000000 0.033892
#
#
# Mechanical properties :
#
#
# Convention : Reuss Voigt Hill
#
# Bulk Modulus (GPa) = 23.66769 45.09419 34.38094
# Shear Modulus (GPa) = 114.31197 16.34796 65.32997
#
# Velocity S-wave (km/s) = 7.86527 2.97440 5.94599
# Velocity P-wave (km/s) = 9.76174 6.01663 8.10837
#
# Compressibility (1/GPa) = 0.04225170
#
# Stress axis : x y z
#
# Youngs Moduli (GPa) = 81.67904 17.41730 45.88339
#
# Poissons Ratio (x) = 0.15279 0.28667
# Poissons Ratio (y) = 0.71651 0.43955
# Poissons Ratio (z) = 0.51032 0.16685
#
# Static dielectric constant tensor:
#      x y z
#    x 1.661500 0.000000 0.000000 
#    y 0.000000 1.628040 0.000000 
#    z 0.000000 0.000000 1.623230 
# 
# From -- ./inp_files/18607.got.cif
#   From: 2010.05.17/outbox.ucp.g08.bks.cvg/sg51_10_cif.got.tgz:18607.got - 2010.06.11 16:27:58.
