data_PCOD9407671
_publ_section_title
;
Structure prediction by ZEFSAII (Michael W. Deem and Ramdas Pophale) SiO2 
 PCOD9407671
Probable space group: P M M A
;
_chemical_formula_sum "Si O2"
_cell_formula_units_Z 64
_cell_length_a 9.000000
_cell_length_b 21.000000
_cell_length_c 18.000000
_cell_angle_alpha 90.000000
_cell_angle_beta 90.000000
_cell_angle_gamma 90.000000
_cell_volume 3402.000000
_symmetry_space_group_name_H-M "P M M A"
_symmetry_group_IT_number 51
_symmetry_cell_setting 'orthorhombic'
loop_
_space_group_symop_operation_xyz
x,y,z
1/2-x,-y,z
1/2+x,-y,-z
-x,y,-z
-x,-y,-z
1/2+x,y,-z
1/2-x,y,z
x,-y,z
loop_
_atom_site_type_symbol
_atom_site_label
_atom_site_fract_x
_atom_site_fract_y
_atom_site_fract_z
Si Si1 0.427245 0.929160 0.623317
Si Si2 0.927624 0.333332 0.423301
Si Si3 0.071689 0.428767 0.857359
Si Si4 0.073274 0.704049 0.923606
Si Si5 0.426688 0.202614 0.374820
Si Si6 0.574825 0.931019 0.783772
Si Si7 0.925694 0.425798 0.695745
Si Si8 0.075618 0.792575 0.195851
O O1 0.250000 0.921671 0.615476
O O2 0.511509 0.865555 0.597027
O O3 0.474024 0.931325 0.710328
O O4 0.468799 0.000000 0.593440
O O5 0.750000 0.333843 0.426873
O O6 0.000000 0.356609 0.500000
O O7 0.987698 0.261889 0.409883
O O8 0.986829 0.378196 0.357503
O O9 0.250000 0.425750 0.844517
O O10 0.037132 0.500000 0.885824
O O11 0.031139 0.369773 0.909248
O O12 0.988604 0.420406 0.779037
O O13 0.250000 0.708337 0.929520
O O14 0.018649 0.744233 0.852711
O O15 0.000000 0.726774 0.000000
O O16 0.250000 0.206657 0.388344
O O17 0.450138 0.208615 0.285017
O O18 0.750000 0.926371 0.760166
O O19 0.544563 0.866040 0.827053
O O20 0.556723 0.000000 0.821251
O O21 0.750000 0.410962 0.694419
O O22 0.944927 0.500000 0.673236
O O23 0.250000 0.778823 0.184105
#
# Coordination Sequence:
#
# PCOD9407671 Si02
#       8
#     8   8   8   8   8   8   8   8
#     4   9  16  26  44  74 109 141 176 220 267 315
#     4  12  25  40  58  80 110 146 183 224 269 318
#     4   9  19  37  59  82 107 137 175 217 262 312
#     4  11  23  36  52  74 103 139 176 217 263 314
#     4  10  20  35  56  81 109 142 181 224 271 323
#     4   8  14  26  45  70 100 134 171 213 264 316
#     4  10  21  38  61  88 115 143 177 217 262 314
#     4   9  18  32  52  77 105 136 171 215 262 312
#
# _framework density 18.812463000000001
#
# number of rings (size 3 to 8) (size 9 to 14) (size 15 to 20)
#    0.000    2.250    0.000    4.125    0.000    7.500 
#    0.000    0.000    0.000    0.750    0.000    0.000 
#    0.000    0.000    0.000    0.000    0.000    0.000 
#
# Total GULP energy -357090.954158 kJ/mol
# GULP energy per Si atom -5579.546159 kJ/mol
# Density = 1.876965 g / cm^3
# Si number density = 18.812463 Si / 1000 Ang^3
#
#
#
# Elastic Constant Matrix: (Units=GPa)
#
#
# Indices 1 2 3 4 5 6 
#
# 1 70.3978 34.8661 17.4394 0.0000 0.0000 0.0000
# 2 34.8661 79.1744 16.8375 0.0000 0.0000 0.0000
# 3 17.4394 16.8375 34.6170 0.0000 0.0000 0.0000
# 4 0.0000 0.0000 0.0000 -10.9003 0.0000 0.0000
# 5 0.0000 0.0000 0.0000 0.0000 22.4111 0.0000
# 6 0.0000 0.0000 0.0000 0.0000 0.0000 33.4822
#
#
#
# Elastic Compliance Matrix: (Units=1/GPa)
#
#
# Indices 1 2 3 4 5 6 
#
# 1 0.019303 -0.007174 -0.006235 0.000000 0.000000 0.000000
# 2 -0.007174 0.016754 -0.004535 0.000000 0.000000 0.000000
# 3 -0.006235 -0.004535 0.034234 0.000000 0.000000 0.000000
# 4 0.000000 0.000000 0.000000 -0.091741 0.000000 0.000000
# 5 0.000000 0.000000 0.000000 0.000000 0.044621 0.000000
# 6 0.000000 0.000000 0.000000 0.000000 0.000000 0.029867
#
#
# Mechanical properties :
#
#
# Convention : Reuss Voigt Hill
#
# Bulk Modulus (GPa) = 29.06712 35.83059 32.44886
# Shear Modulus (GPa) = 49.80397 16.66835 33.23616
#
# Velocity S-wave (km/s) = 5.15086 2.97985 4.20778
# Velocity P-wave (km/s) = 7.13160 5.56120 6.39479
#
# Compressibility (1/GPa) = 0.03440313
#
# Stress axis : x y z
#
# Youngs Moduli (GPa) = 51.80586 59.68666 29.21056
#
# Poissons Ratio (x) = 0.42822 0.18212
# Poissons Ratio (y) = 0.37168 0.13246
# Poissons Ratio (z) = 0.32300 0.27066
#
# Static dielectric constant tensor:
#      x y z
#    x 1.626050 0.000000 0.000000 
#    y 0.000000 1.697050 0.000000 
#    z 0.000000 0.000000 1.625350 
# 
# From -- ./inp_files/28420.got.cif
#   From: 2010.05.17/outbox.ucp.g08.bks.cvg/sg51_15_cif.got.tgz:28420.got - 2010.06.11 16:27:58.
