data_PCOD9407251
_publ_section_title
;
Structure prediction by ZEFSAII (Michael W. Deem and Ramdas Pophale) SiO2 
 PCOD9407251
Probable space group: P M M A
;
_chemical_formula_sum "Si O2"
_cell_formula_units_Z 48
_cell_length_a 14.394907
_cell_length_b 7.385342
_cell_length_c 24.731366
_cell_angle_alpha 90.000000
_cell_angle_beta 90.000000
_cell_angle_gamma 90.000000
_cell_volume 2629.223949
_symmetry_space_group_name_H-M "P M M A"
_symmetry_group_IT_number 51
_symmetry_cell_setting 'orthorhombic'
loop_
_space_group_symop_operation_xyz
x,y,z
1/2-x,-y,z
1/2+x,-y,-z
-x,y,-z
-x,-y,-z
1/2+x,y,-z
1/2-x,y,z
x,-y,z
loop_
_atom_site_type_symbol
_atom_site_label
_atom_site_fract_x
_atom_site_fract_y
_atom_site_fract_z
Si Si1 0.963334 0.784961 0.081626
Si Si2 0.645494 0.778696 0.976159
Si Si3 0.854705 0.716340 0.189395
Si Si4 0.857370 0.720620 0.310558
Si Si5 0.144842 0.720604 0.476519
Si Si6 0.036168 0.720636 0.584317
O O1 0.925190 0.753244 0.141185
O O2 0.066381 0.719214 0.066221
O O3 0.967013 0.000000 0.074477
O O4 0.891915 0.720456 0.035262
O O5 0.750000 0.716609 0.965987
O O6 0.647997 0.000000 0.975754
O O7 0.750000 0.783403 0.176613
O O8 0.848532 0.500000 0.193276
O O9 0.881078 0.780616 0.249586
O O10 0.750000 0.771368 0.321218
O O11 0.859754 0.500000 0.311102
O O12 0.924537 0.782713 0.358328
O O13 0.250000 0.782253 0.467781
O O14 0.146089 0.500000 0.475988
O O15 0.104980 0.773148 0.535356
O O16 0.067333 0.777653 0.432982
O O17 0.035770 0.500000 0.584997
#
# Coordination Sequence:
#
# PCOD9407251 Si02
#       6
#     8   8   8   8   8   8
#     4   9  16  26  43  63  78  97 125 154 185 220
#     4   8  14  25  41  61  82 100 120 149 185 225
#     4   9  17  27  38  54  77 103 128 155 187 221
#     4   8  13  21  32  44  60  87 120 146 171 211
#     4   8  12  16  23  38  58  77 102 140 180 212
#     4   8  12  17  26  39  55  79 110 141 172 207
#
# _framework density 18.256336999999998
#
# number of rings (size 3 to 8) (size 9 to 14) (size 15 to 20)
#    0.000    3.667    0.000    4.000    0.000    3.000 
#    0.000    1.667    0.000    2.500    0.000    2.333 
#    0.000    0.000    0.000    3.000    0.000    9.333 
#
# Total GULP energy -267447.382905 kJ/mol
# GULP energy per Si atom -5571.820477 kJ/mol
# Density = 1.821478 g / cm^3
# Si number density = 18.256337 Si / 1000 Ang^3
#
#
#
# Elastic Constant Matrix: (Units=GPa)
#
#
# Indices 1 2 3 4 5 6 
#
# 1 185.9654 5.9557 120.1226 0.0000 0.0000 0.0000
# 2 5.9557 59.7384 1.9304 0.0000 0.0000 0.0000
# 3 120.1226 1.9304 164.1810 0.0000 0.0000 0.0000
# 4 0.0000 0.0000 0.0000 14.6491 0.0000 0.0000
# 5 0.0000 0.0000 0.0000 0.0000 27.4150 0.0000
# 6 0.0000 0.0000 0.0000 0.0000 0.0000 -3.1786
#
#
#
# Elastic Compliance Matrix: (Units=1/GPa)
#
#
# Indices 1 2 3 4 5 6 
#
# 1 0.010232 -0.000778 -0.007477 0.000000 0.000000 0.000000
# 2 -0.000778 0.016805 0.000372 0.000000 0.000000 0.000000
# 3 -0.007477 0.000372 0.011557 0.000000 0.000000 0.000000
# 4 0.000000 0.000000 0.000000 0.068264 0.000000 0.000000
# 5 0.000000 0.000000 0.000000 0.000000 0.036476 0.000000
# 6 0.000000 0.000000 0.000000 0.000000 0.000000 -0.314600
#
#
# Mechanical properties :
#
#
# Convention : Reuss Voigt Hill
#
# Bulk Modulus (GPa) = 43.80746 73.98913 58.89829
# Shear Modulus (GPa) = -33.80896 26.56883 -3.62006
#
# Velocity S-wave (km/s) = -4.30804 3.81901 -1.40968
# Velocity P-wave (km/s) = 0.83534 7.74999 5.44814
#
# Compressibility (1/GPa) = 0.02282716
#
# Stress axis : x y z
#
# Youngs Moduli (GPa) = 97.73233 59.50525 86.52721
#
# Poissons Ratio (x) = 0.04632 0.64697
# Poissons Ratio (y) = 0.07608 -0.03219
# Poissons Ratio (z) = 0.73075 -0.02214
#
# Static dielectric constant tensor:
#      x y z
#    x 1.624000 0.000000 0.000000 
#    y 0.000000 1.715770 0.000000 
#    z 0.000000 0.000000 1.618420 
# 
# From -- ./inp_files/35488.got.cif
#   From: 2010.05.17/outbox.cif.g08.bks.cpg/sg51_18_cif.got.tgz:35488.got - 2010.06.03 11:52:47.
