data_PCOD9407772
_publ_section_title
;
Structure prediction by ZEFSAII (Michael W. Deem and Ramdas Pophale) SiO2 
 PCOD9407772
Probable space group: P M M A
;
_chemical_formula_sum "Si O2"
_cell_formula_units_Z 64
_cell_length_a 9.000000
_cell_length_b 15.000000
_cell_length_c 24.000000
_cell_angle_alpha 90.000000
_cell_angle_beta 90.000000
_cell_angle_gamma 90.000000
_cell_volume 3240.000000
_symmetry_space_group_name_H-M "P M M A"
_symmetry_group_IT_number 51
_symmetry_cell_setting 'orthorhombic'
loop_
_space_group_symop_operation_xyz
x,y,z
1/2-x,-y,z
1/2+x,-y,-z
-x,y,-z
-x,-y,-z
1/2+x,y,-z
1/2-x,y,z
x,-y,z
loop_
_atom_site_type_symbol
_atom_site_label
_atom_site_fract_x
_atom_site_fract_y
_atom_site_fract_z
Si Si1 0.582369 0.893332 0.445034
Si Si2 0.922340 0.232342 0.632191
Si Si3 0.924141 0.895648 0.152943
Si Si4 0.074456 0.403727 0.077596
Si Si5 0.427125 0.207397 0.054033
Si Si6 0.416785 0.775199 0.741799
Si Si7 0.913930 0.596181 0.188787
Si Si8 0.070685 0.399286 0.439658
O O1 0.500000 0.861044 0.500000
O O2 0.750000 0.862569 0.447322
O O3 0.502769 0.852562 0.392856
O O4 0.578612 0.000000 0.444169
O O5 0.750000 0.225528 0.620038
O O6 0.978234 0.322769 0.602851
O O7 0.957687 0.231154 0.696443
O O8 0.750000 0.883071 0.137869
O O9 0.942587 0.852251 0.213424
O O10 0.022905 0.843153 0.109051
O O11 0.957082 0.000000 0.153087
O O12 0.250000 0.404832 0.066366
O O13 0.010485 0.500000 0.059591
O O14 0.014004 0.309491 0.057095
O O15 0.041670 0.400000 0.143268
O O16 0.250000 0.208581 0.049519
O O17 0.500000 0.163744 0.000000
O O18 0.250000 0.787685 0.717496
O O19 0.418160 0.681105 0.773009
O O20 0.750000 0.598572 0.160175
O O21 0.923420 0.500000 0.218006
O O22 0.250000 0.396382 0.444280
O O23 0.029851 0.500000 0.421931
O O24 0.000000 0.383309 0.500000
#
# Coordination Sequence:
#
# PCOD9407772 Si02
#       8
#     8   8   8   8   8   8   8   8
#     4  10  21  38  60  84 112 146 183 228 285 344
#     4  11  23  36  55  84 117 152 193 238 283 336
#     4  10  22  42  65  85 109 145 189 237 291 348
#     4   9  18  33  54  82 115 149 184 223 270 325
#     4  11  23  38  60  88 119 151 187 232 282 338
#     4  10  21  37  56  81 114 149 188 233 285 342
#     4   9  17  31  54  81 108 142 184 228 273 326
#     4   9  19  36  56  80 113 154 198 241 286 335
#
# _framework density 19.753086
#
# number of rings (size 3 to 8) (size 9 to 14) (size 15 to 20)
#    0.000    2.125    1.250    1.500    0.000    6.000 
#    0.000    1.250    0.000    0.000    0.000    0.000 
#    0.000    0.000    0.000    0.000    0.000    0.000 
#
# Total GULP energy -356635.169760 kJ/mol
# GULP energy per Si atom -5572.424527 kJ/mol
# Density = 1.970813 g / cm^3
# Si number density = 19.753086 Si / 1000 Ang^3
#
#
#
# Elastic Constant Matrix: (Units=GPa)
#
#
# Indices 1 2 3 4 5 6 
#
# 1 28.3219 38.2536 28.9532 0.0000 0.0000 0.0000
# 2 38.2536 52.7482 21.3505 0.0000 0.0000 0.0000
# 3 28.9532 21.3505 36.0582 0.0000 0.0000 0.0000
# 4 0.0000 0.0000 0.0000 -185.3669 0.0000 0.0000
# 5 0.0000 0.0000 0.0000 0.0000 23.2874 0.0000
# 6 0.0000 0.0000 0.0000 0.0000 0.0000 31.9862
#
#
#
# Elastic Compliance Matrix: (Units=1/GPa)
#
#
# Indices 1 2 3 4 5 6 
#
# 1 -0.165629 0.087179 0.081373 0.000000 0.000000 0.000000
# 2 0.087179 -0.020953 -0.057595 0.000000 0.000000 0.000000
# 3 0.081373 -0.057595 -0.003504 0.000000 0.000000 0.000000
# 4 0.000000 0.000000 0.000000 -0.005395 0.000000 0.000000
# 5 0.000000 0.000000 0.000000 0.000000 0.042942 0.000000
# 6 0.000000 0.000000 0.000000 0.000000 0.000000 0.031263
#
#
# Mechanical properties :
#
#
# Convention : Reuss Voigt Hill
#
# Bulk Modulus (GPa) = 31.41725 32.69366 32.05545
# Shear Modulus (GPa) = -15.03392 -24.11393 -19.57393
#
# Velocity S-wave (km/s) = -2.76178 -3.49774 -3.15132
# Velocity P-wave (km/s) = 2.40200 0.52426 1.73845
#
# Compressibility (1/GPa) = 0.03182965
#
# Stress axis : x y z
#
# Youngs Moduli (GPa) = -6.03759 -47.72588 -285.37978
#
# Poissons Ratio (x) = 4.16069 23.22234
# Poissons Ratio (y) = 0.52635 -16.43633
# Poissons Ratio (z) = 0.49130 -2.74875
#
# Static dielectric constant tensor:
#      x y z
#    x 1.684580 0.000000 0.000000 
#    y 0.000000 1.697040 0.000000 
#    z 0.000000 0.000000 1.627500 
# 
# From -- ./inp_files/34849.got.cif
#   From: 2010.05.17/outbox.ucp.g08.bks.cvg/sg51_18_cif.got.tgz:34849.got - 2010.06.11 16:27:58.
