data_PCOD9407591
_publ_section_title
;
Structure prediction by ZEFSAII (Michael W. Deem and Ramdas Pophale) SiO2 
 PCOD9407591
Probable space group: P M M A
;
_chemical_formula_sum "Si O2"
_cell_formula_units_Z 64
_cell_length_a 9.000000
_cell_length_b 15.000000
_cell_length_c 24.000000
_cell_angle_alpha 90.000000
_cell_angle_beta 90.000000
_cell_angle_gamma 90.000000
_cell_volume 3240.000000
_symmetry_space_group_name_H-M "P M M A"
_symmetry_group_IT_number 51
_symmetry_cell_setting 'orthorhombic'
loop_
_space_group_symop_operation_xyz
x,y,z
1/2-x,-y,z
1/2+x,-y,-z
-x,y,-z
-x,-y,-z
1/2+x,y,-z
1/2-x,y,z
x,-y,z
loop_
_atom_site_type_symbol
_atom_site_label
_atom_site_fract_x
_atom_site_fract_y
_atom_site_fract_z
Si Si1 0.578170 0.727824 0.052294
Si Si2 0.573551 0.903537 0.333593
Si Si3 0.071111 0.281882 0.655463
Si Si4 0.572330 0.897055 0.903607
Si Si5 0.428005 0.397440 0.554125
Si Si6 0.085240 0.106965 0.221833
Si Si7 0.078317 0.401789 0.262325
Si Si8 0.416948 0.602440 0.129207
O O1 0.750000 0.735150 0.042874
O O2 0.509513 0.825532 0.059637
O O3 0.537287 0.667832 0.104684
O O4 0.500000 0.682437 0.000000
O O5 0.750000 0.909254 0.340475
O O6 0.518003 0.815545 0.363321
O O7 0.534776 0.881397 0.269526
O O8 0.507637 0.000000 0.347338
O O9 0.250000 0.280418 0.658059
O O10 0.021159 0.351097 0.609662
O O11 0.009246 0.319685 0.712596
O O12 0.750000 0.894540 0.911764
O O13 0.544521 0.865088 0.840004
O O14 0.524320 0.000000 0.910738
O O15 0.500000 0.355092 0.500000
O O16 0.250000 0.392765 0.550462
O O17 0.473047 0.500000 0.556682
O O18 0.250000 0.142537 0.237038
O O19 0.100156 0.000000 0.216802
O O20 0.250000 0.397139 0.280193
O O21 0.018090 0.500000 0.278922
O O22 0.076914 0.397612 0.195835
O O23 0.250000 0.632448 0.112751
O O24 0.436472 0.500000 0.110970
#
# Coordination Sequence:
#
# PCOD9407591 Si02
#       8
#     8   8   8   8   8   8   8   8
#     4  12  26  41  59  82 108 139 179 225 272 326
#     4   9  18  31  46  69 105 144 180 217 257 306
#     4  10  20  32  50  78 110 144 181 220 267 315
#     4   9  19  37  59  81 108 142 178 219 269 323
#     4   9  18  33  52  74 102 137 177 224 273 321
#     4   8  15  29  49  72  98 132 172 211 254 304
#     4   9  19  35  55  81 111 141 172 209 259 319
#     4   9  20  41  64  83 108 141 176 219 270 324
#
# _framework density 19.753086
#
# number of rings (size 3 to 8) (size 9 to 14) (size 15 to 20)
#    0.000    2.625    0.000    3.000    1.750    3.750 
#    0.000    3.750    0.000    0.375    0.000    0.000 
#    0.000    0.000    0.000    0.000    0.000    0.000 
#
# Total GULP energy -356301.792416 kJ/mol
# GULP energy per Si atom -5567.215506 kJ/mol
# Density = 1.970813 g / cm^3
# Si number density = 19.753086 Si / 1000 Ang^3
#
#
#
# Elastic Constant Matrix: (Units=GPa)
#
#
# Indices 1 2 3 4 5 6 
#
# 1 -22.1415 15.1973 2.4743 0.0000 0.0000 0.0000
# 2 15.1973 81.5395 19.3754 0.0000 0.0000 0.0000
# 3 2.4743 19.3754 12.4522 0.0000 0.0000 0.0000
# 4 0.0000 0.0000 0.0000 -11.4123 0.0000 0.0000
# 5 0.0000 0.0000 0.0000 0.0000 12.7871 0.0000
# 6 0.0000 0.0000 0.0000 0.0000 0.0000 7.6025
#
#
#
# Elastic Compliance Matrix: (Units=1/GPa)
#
#
# Indices 1 2 3 4 5 6 
#
# 1 -0.039779 0.008783 -0.005762 0.000000 0.000000 0.000000
# 2 0.008783 0.017519 -0.029005 0.000000 0.000000 0.000000
# 3 -0.005762 -0.029005 0.126583 0.000000 0.000000 0.000000
# 4 0.000000 0.000000 0.000000 -0.087625 0.000000 0.000000
# 5 0.000000 0.000000 0.000000 0.000000 0.078204 0.000000
# 6 0.000000 0.000000 0.000000 0.000000 0.000000 0.131537
#
#
# Mechanical properties :
#
#
# Convention : Reuss Voigt Hill
#
# Bulk Modulus (GPa) = 19.10023 16.21601 17.65812
# Shear Modulus (GPa) = 16.90002 4.11567 10.50784
#
# Velocity S-wave (km/s) = 2.92817 1.44502 2.30893
# Velocity P-wave (km/s) = 4.59595 3.31833 4.00837
#
# Compressibility (1/GPa) = 0.05235539
#
# Stress axis : x y z
#
# Youngs Moduli (GPa) = -25.13867 57.08077 7.89994
#
# Poissons Ratio (x) = -0.50136 0.04552
# Poissons Ratio (y) = 0.22080 0.22914
# Poissons Ratio (z) = -0.14486 1.65561
#
# Static dielectric constant tensor:
#      x y z
#    x 1.640680 0.000000 0.000000 
#    y 0.000000 1.753250 0.000000 
#    z 0.000000 0.000000 1.636210 
# 
# From -- ./inp_files/34953.got.cif
#   From: 2010.05.17/outbox.ucp.g08.bks.cvg/sg51_18_cif.got.tgz:34953.got - 2010.06.11 16:27:58.
