data_PCOD9407464
_publ_section_title
;
Structure prediction by ZEFSAII (Michael W. Deem and Ramdas Pophale) SiO2 
 PCOD9407464
Probable space group: P M M A
;
_chemical_formula_sum "Si O2"
_cell_formula_units_Z 64
_cell_length_a 18.000000
_cell_length_b 15.000000
_cell_length_c 15.000000
_cell_angle_alpha 90.000000
_cell_angle_beta 90.000000
_cell_angle_gamma 90.000000
_cell_volume 4050.000000
_symmetry_space_group_name_H-M "P M M A"
_symmetry_group_IT_number 51
_symmetry_cell_setting 'orthorhombic'
loop_
_space_group_symop_operation_xyz
x,y,z
1/2-x,-y,z
1/2+x,-y,-z
-x,y,-z
-x,-y,-z
1/2+x,y,-z
1/2-x,y,z
x,-y,z
loop_
_atom_site_type_symbol
_atom_site_label
_atom_site_fract_x
_atom_site_fract_y
_atom_site_fract_z
Si Si1 0.903776 0.209711 0.771114
Si Si2 0.160300 0.400481 0.955273
Si Si3 0.659959 0.792172 0.104970
Si Si4 0.428422 0.106712 0.553315
Si Si5 0.662485 0.896672 0.611790
Si Si6 0.338422 0.899194 0.069485
Si Si7 0.441952 0.890650 0.759154
Si Si8 0.839507 0.395172 0.832274
O O1 0.878540 0.172700 0.675202
O O2 0.854444 0.156382 0.842544
O O3 0.885982 0.315008 0.785528
O O4 0.985721 0.167848 0.785846
O O5 0.250000 0.402724 0.946910
O O6 0.132658 0.500000 0.929063
O O7 0.135375 0.311808 0.902626
O O8 0.145888 0.388136 0.061094
O O9 0.750000 0.792812 0.109585
O O10 0.624958 0.851134 0.182824
O O11 0.635097 0.842070 0.014531
O O12 0.500000 0.142542 0.500000
O O13 0.358121 0.123857 0.490419
O O14 0.426662 0.132493 0.655715
O O15 0.436573 0.000000 0.556513
O O16 0.750000 0.893174 0.626981
O O17 0.637539 0.000000 0.630431
O O18 0.250000 0.906465 0.059970
O O19 0.369214 0.000000 0.072899
O O20 0.450841 0.000000 0.768720
O O21 0.750000 0.380637 0.819035
O O22 0.854694 0.500000 0.807582
#
# Coordination Sequence:
#
# PCOD9407464 Si02
#       8
#     8   8   8   8   8   8   8   8
#     4  12  20  31  49  74 107 135 167 206 254 312
#     4   8  14  29  53  74  93 126 173 221 264 299
#     4  10  20  35  51  71  99 136 182 222 255 299
#     4   9  17  34  52  67  95 133 167 205 255 303
#     4  10  19  30  50  79 103 127 166 212 253 303
#     4  10  19  30  45  66  99 140 173 204 243 290
#     4  11  23  35  51  73 102 143 177 208 257 312
#     4   9  17  31  52  76 102 134 172 213 257 304
#
# _framework density 15.802469
#
# number of rings (size 3 to 8) (size 9 to 14) (size 15 to 20)
#    0.000    2.125    2.500    3.375    0.000    2.750 
#    0.000    3.125    0.000    1.500    0.000    2.625 
#    0.000    2.000    0.000    0.000    0.000    0.000 
#
# Total GULP energy -356298.078502 kJ/mol
# GULP energy per Si atom -5567.157477 kJ/mol
# Density = 1.576650 g / cm^3
# Si number density = 15.802469 Si / 1000 Ang^3
#
#
#
# Elastic Constant Matrix: (Units=GPa)
#
#
# Indices 1 2 3 4 5 6 
#
# 1 23.0693 26.2712 3.3067 0.0000 0.0000 0.0000
# 2 26.2712 130.3997 34.7806 0.0000 0.0000 0.0000
# 3 3.3067 34.7806 60.7121 0.0000 0.0000 0.0000
# 4 0.0000 0.0000 0.0000 6.5842 0.0000 0.0000
# 5 0.0000 0.0000 0.0000 0.0000 16.0501 0.0000
# 6 0.0000 0.0000 0.0000 0.0000 0.0000 21.0934
#
#
#
# Elastic Compliance Matrix: (Units=1/GPa)
#
#
# Indices 1 2 3 4 5 6 
#
# 1 0.057109 -0.012601 0.004109 0.000000 0.000000 0.000000
# 2 -0.012601 0.011832 -0.006092 0.000000 0.000000 0.000000
# 3 0.004109 -0.006092 0.019737 0.000000 0.000000 0.000000
# 4 0.000000 0.000000 0.000000 0.151879 0.000000 0.000000
# 5 0.000000 0.000000 0.000000 0.000000 0.062305 0.000000
# 6 0.000000 0.000000 0.000000 0.000000 0.000000 0.047408
#
#
# Mechanical properties :
#
#
# Convention : Reuss Voigt Hill
#
# Bulk Modulus (GPa) = 16.80414 38.09980 27.45197
# Shear Modulus (GPa) = 12.52261 18.73372 15.62816
#
# Velocity S-wave (km/s) = 2.81810 3.44683 3.14820
# Velocity P-wave (km/s) = 4.60932 6.32481 5.53395
#
# Compressibility (1/GPa) = 0.05950915
#
# Stress axis : x y z
#
# Youngs Moduli (GPa) = 17.51027 84.51345 50.66499
#
# Poissons Ratio (x) = 1.06500 -0.20816
# Poissons Ratio (y) = 0.22066 0.30866
# Poissons Ratio (z) = -0.07194 0.51487
#
# Static dielectric constant tensor:
#      x y z
#    x 1.565320 0.000000 0.000000 
#    y 0.000000 1.538360 0.000000 
#    z 0.000000 0.000000 1.532890 
# 
# From -- ./inp_files/25346.got.cif
#   From: 2010.05.17/outbox.ucp.g08.bks.cvg/sg51_13_cif.got.tgz:25346.got - 2010.06.11 16:27:58.
