data_PCOD9407628
_publ_section_title
;
Structure prediction by ZEFSAII (Michael W. Deem and Ramdas Pophale) SiO2 
 PCOD9407628
Probable space group: P M M A
;
_chemical_formula_sum "Si O2"
_cell_formula_units_Z 56
_cell_length_a 21.000000
_cell_length_b 9.000000
_cell_length_c 15.000000
_cell_angle_alpha 90.000000
_cell_angle_beta 90.000000
_cell_angle_gamma 90.000000
_cell_volume 2835.000000
_symmetry_space_group_name_H-M "P M M A"
_symmetry_group_IT_number 51
_symmetry_cell_setting 'orthorhombic'
loop_
_space_group_symop_operation_xyz
x,y,z
1/2-x,-y,z
1/2+x,-y,-z
-x,y,-z
-x,-y,-z
1/2+x,y,-z
1/2-x,y,z
x,-y,z
loop_
_atom_site_type_symbol
_atom_site_label
_atom_site_fract_x
_atom_site_fract_y
_atom_site_fract_z
Si Si1 0.047308 0.174866 0.727168
Si Si2 0.321873 0.322452 0.992274
Si Si3 0.679743 0.673897 0.526555
Si Si4 0.180012 0.673610 0.687907
Si Si5 0.176726 0.823564 0.185099
Si Si6 0.416673 0.179187 0.345958
Si Si7 0.948065 0.175550 0.070694
O O1 0.116085 0.248203 0.719078
O O2 0.025719 0.191028 0.829638
O O3 0.989333 0.232454 0.666231
O O4 0.055139 0.000000 0.708688
O O5 0.250000 0.276627 0.964134
O O6 0.324697 0.500000 0.989112
O O7 0.330786 0.265107 0.093470
O O8 0.380114 0.254454 0.937696
O O9 0.750000 0.729862 0.555630
O O10 0.675548 0.500000 0.550997
O O11 0.678590 0.682270 0.419681
O O12 0.621583 0.759944 0.569997
O O13 0.250000 0.731815 0.717025
O O14 0.177590 0.500000 0.713348
O O15 0.250000 0.802474 0.215870
O O16 0.126341 0.778977 0.260188
O O17 0.168253 0.000000 0.167004
O O18 0.418165 0.000000 0.349073
O O19 0.938134 0.000000 0.053123
O O20 0.000000 0.231822 0.000000
#
# Coordination Sequence:
#
# PCOD9407628 Si02
#       7
#     8   8   8   8   8   8   8
#     4  10  22  37  55  82 110 138 176 222 270 318
#     4  10  21  35  52  78 109 138 173 221 273 321
#     4   9  19  36  57  81 109 143 182 220 260 310
#     4   9  20  40  61  79 105 143 183 222 267 319
#     4   9  17  31  52  76 105 144 184 218 258 313
#     4  10  20  34  53  80 113 144 177 218 265 318
#     4  10  21  39  60  78 103 142 183 222 267 320
#
# _framework density 19.753086
#
# number of rings (size 3 to 8) (size 9 to 14) (size 15 to 20)
#    0.000    2.429    0.000    2.571    0.000    8.000 
#    0.000   10.000    0.000    0.000    0.000    0.000 
#    0.000    0.000    0.000    0.000    0.000    0.000 
#
# Total GULP energy -312496.657850 kJ/mol
# GULP energy per Si atom -5580.297462 kJ/mol
# Density = 1.970813 g / cm^3
# Si number density = 19.753086 Si / 1000 Ang^3
#
#
#
# Elastic Constant Matrix: (Units=GPa)
#
#
# Indices 1 2 3 4 5 6 
#
# 1 131.1226 34.1214 22.6756 0.0000 0.0000 0.0000
# 2 34.1214 21.3666 13.7890 0.0000 0.0000 0.0000
# 3 22.6756 13.7890 18.5312 0.0000 0.0000 0.0000
# 4 0.0000 0.0000 0.0000 33.6407 0.0000 0.0000
# 5 0.0000 0.0000 0.0000 0.0000 32.1054 0.0000
# 6 0.0000 0.0000 0.0000 0.0000 0.0000 30.6115
#
#
#
# Elastic Compliance Matrix: (Units=1/GPa)
#
#
# Indices 1 2 3 4 5 6 
#
# 1 0.013057 -0.020278 -0.000888 0.000000 0.000000 0.000000
# 2 -0.020278 0.121533 -0.065619 0.000000 0.000000 0.000000
# 3 -0.000888 -0.065619 0.103877 0.000000 0.000000 0.000000
# 4 0.000000 0.000000 0.000000 0.029726 0.000000 0.000000
# 5 0.000000 0.000000 0.000000 0.000000 0.031147 0.000000
# 6 0.000000 0.000000 0.000000 0.000000 0.000000 0.032667
#
#
# Mechanical properties :
#
#
# Convention : Reuss Voigt Hill
#
# Bulk Modulus (GPa) = 15.40928 34.68805 25.04866
# Shear Modulus (GPa) = 9.48390 25.96715 17.72553
#
# Velocity S-wave (km/s) = 2.19355 3.62966 2.99884
# Velocity P-wave (km/s) = 3.77272 5.92999 4.96982
#
# Compressibility (1/GPa) = 0.06489596
#
# Stress axis : x y z
#
# Youngs Moduli (GPa) = 76.58775 8.22824 9.62681
#
# Poissons Ratio (x) = 0.16685 0.00855
# Poissons Ratio (y) = 1.55305 0.63170
# Poissons Ratio (z) = 0.06803 0.53993
#
# Static dielectric constant tensor:
#      x y z
#    x 1.701440 0.000000 0.000000 
#    y 0.000000 1.671000 0.000000 
#    z 0.000000 0.000000 1.709980 
# 
# From -- ./inp_files/25752.got.cif
#   From: 2010.05.17/outbox.ucp.g08.bks.cvg/sg51_13_cif.got.tgz:25752.got - 2010.06.11 16:27:58.
