data_PCOD9407711
_publ_section_title
;
Structure prediction by ZEFSAII (Michael W. Deem and Ramdas Pophale) SiO2 
 PCOD9407711
Probable space group: P M M A
;
_chemical_formula_sum "Si O2"
_cell_formula_units_Z 48
_cell_length_a 9.000000
_cell_length_b 15.000000
_cell_length_c 18.000000
_cell_angle_alpha 90.000000
_cell_angle_beta 90.000000
_cell_angle_gamma 90.000000
_cell_volume 2430.000000
_symmetry_space_group_name_H-M "P M M A"
_symmetry_group_IT_number 51
_symmetry_cell_setting 'orthorhombic'
loop_
_space_group_symop_operation_xyz
x,y,z
1/2-x,-y,z
1/2+x,-y,-z
-x,y,-z
-x,-y,-z
1/2+x,y,-z
1/2-x,y,z
x,-y,z
loop_
_atom_site_type_symbol
_atom_site_label
_atom_site_fract_x
_atom_site_fract_y
_atom_site_fract_z
Si Si1 0.572126 0.000000 0.919886
Si Si2 0.575382 0.898061 0.353203
Si Si3 0.429947 0.500000 0.921020
Si Si4 0.921212 0.262282 0.571095
Si Si5 0.927041 0.849891 0.802797
Si Si6 0.915430 0.601964 0.339375
Si Si7 0.080535 0.335887 0.826407
O O1 0.530870 0.914325 0.870559
O O2 0.750000 0.000000 0.927957
O O3 0.500000 0.000000 0.000000
O O4 0.750000 0.878436 0.348699
O O5 0.498897 0.829908 0.408541
O O6 0.504470 0.882991 0.272428
O O7 0.554478 0.000000 0.375894
O O8 0.250000 0.500000 0.919092
O O9 0.478744 0.590983 0.882319
O O10 0.500000 0.500000 0.000000
O O11 0.750000 0.248366 0.559081
O O12 0.000000 0.302732 0.500000
O O13 0.957512 0.331778 0.635167
O O14 0.750000 0.854227 0.792376
O O15 0.981066 0.750709 0.818804
O O16 0.750000 0.629771 0.367171
O O17 0.940351 0.500000 0.361001
O O18 0.910195 0.612355 0.251381
O O19 0.250000 0.308512 0.845750
#
# Coordination Sequence:
#
# PCOD9407711 Si02
#       7
#     4   8   4   8   8   8   8
#     4  10  24  42  60  86 125 162 203 252 308 364
#     4  11  23  40  65  94 123 161 206 250 304 371
#     4  10  22  40  60  88 125 166 205 254 313 363
#     4  12  26  43  64  92 128 165 203 255 310 364
#     4  11  22  38  61  92 124 158 202 256 307 361
#     4  10  20  38  65  93 122 160 207 257 305 363
#     4  10  20  37  62  89 119 160 207 250 302 368
#
# _framework density 19.753086
#
# number of rings (size 3 to 8) (size 9 to 14) (size 15 to 20)
#    0.000    1.333    3.333    2.500    0.000    4.667 
#    0.000    3.333    0.000    0.000    0.000    0.000 
#    0.000    0.000    0.000    0.000    0.000    0.000 
#
# Total GULP energy -267946.886564 kJ/mol
# GULP energy per Si atom -5582.226803 kJ/mol
# Density = 1.970813 g / cm^3
# Si number density = 19.753086 Si / 1000 Ang^3
#
#
#
# Elastic Constant Matrix: (Units=GPa)
#
#
# Indices 1 2 3 4 5 6 
#
# 1 34.5694 49.8800 -2.5342 0.0000 0.0000 0.0000
# 2 49.8800 77.1613 8.5702 0.0000 0.0000 0.0000
# 3 -2.5342 8.5702 47.6917 0.0000 0.0000 0.0000
# 4 0.0000 0.0000 0.0000 36.4737 0.0000 0.0000
# 5 0.0000 0.0000 0.0000 0.0000 29.9515 0.0000
# 6 0.0000 0.0000 0.0000 0.0000 0.0000 -976.6197
#
#
#
# Elastic Compliance Matrix: (Units=1/GPa)
#
#
# Indices 1 2 3 4 5 6 
#
# 1 1.075014 -0.715557 0.185710 0.000000 0.000000 0.000000
# 2 -0.715557 0.489516 -0.125989 0.000000 0.000000 0.000000
# 3 0.185710 -0.125989 0.053476 0.000000 0.000000 0.000000
# 4 0.000000 0.000000 0.000000 0.027417 0.000000 0.000000
# 5 0.000000 0.000000 0.000000 0.000000 0.033387 0.000000
# 6 0.000000 0.000000 0.000000 0.000000 0.000000 -0.001024
#
#
# Mechanical properties :
#
#
# Convention : Reuss Voigt Hill
#
# Bulk Modulus (GPa) = 3.26441 30.13939 16.70190
# Shear Modulus (GPa) = 1.61730 -175.13846 -86.76058
#
# Velocity S-wave (km/s) = 0.90583 -9.42636 -6.63460
# Velocity P-wave (km/s) = 1.65839 10.15795 7.08638
#
# Compressibility (1/GPa) = 0.30633418
#
# Stress axis : x y z
#
# Youngs Moduli (GPa) = 0.93022 2.04283 18.69981
#
# Poissons Ratio (x) = 1.46176 -3.47273
# Poissons Ratio (y) = 0.66563 2.35598
# Poissons Ratio (z) = -0.17275 0.25738
#
# Static dielectric constant tensor:
#      x y z
#    x 1.687120 0.000000 0.000000 
#    y 0.000000 1.678810 0.000000 
#    z 0.000000 0.000000 1.618200 
# 
# From -- ./inp_files/27605.got.cif
#   From: 2010.05.17/outbox.ucp.g08.bks.cvg/sg51_14_cif.got.tgz:27605.got - 2010.06.11 16:27:58.
