data_PCOD9407777
_publ_section_title
;
Structure prediction by ZEFSAII (Michael W. Deem and Ramdas Pophale) SiO2 
 PCOD9407777
Probable space group: P M M A
;
_chemical_formula_sum "Si O2"
_cell_formula_units_Z 48
_cell_length_a 9.000000
_cell_length_b 30.000000
_cell_length_c 9.000000
_cell_angle_alpha 90.000000
_cell_angle_beta 90.000000
_cell_angle_gamma 90.000000
_cell_volume 2430.000000
_symmetry_space_group_name_H-M "P M M A"
_symmetry_group_IT_number 51
_symmetry_cell_setting 'orthorhombic'
loop_
_space_group_symop_operation_xyz
x,y,z
1/2-x,-y,z
1/2+x,-y,-z
-x,y,-z
-x,-y,-z
1/2+x,y,-z
1/2-x,y,z
x,-y,z
loop_
_atom_site_type_symbol
_atom_site_label
_atom_site_fract_x
_atom_site_fract_y
_atom_site_fract_z
Si Si1 0.425613 0.727085 0.661335
Si Si2 0.417391 0.946603 0.849729
Si Si3 0.926595 0.548925 0.838704
Si Si4 0.914524 0.113926 0.639476
Si Si5 0.926189 0.628063 0.339049
Si Si6 0.583404 0.198087 0.850515
O O1 0.500000 0.729275 0.500000
O O2 0.250000 0.733409 0.644745
O O3 0.451700 0.677526 0.725492
O O4 0.495579 0.764635 0.761744
O O5 0.250000 0.929513 0.853526
O O6 0.500978 0.927494 0.709037
O O7 0.415578 0.000000 0.846166
O O8 0.500000 0.932882 0.000000
O O9 0.750000 0.554686 0.851107
O O10 0.954503 0.500000 0.769402
O O11 0.999064 0.588912 0.750943
O O12 0.000000 0.548517 0.000000
O O13 0.750000 0.100463 0.595634
O O14 0.909819 0.152832 0.758536
O O15 0.000000 0.132600 0.500000
O O16 0.750000 0.621265 0.350867
O O17 0.000000 0.628311 0.500000
O O18 0.750000 0.214130 0.878955
O O19 0.500000 0.188233 0.000000
#
# Coordination Sequence:
#
# PCOD9407777 Si02
#       6
#     8   8   8   8   8   8
#     4  10  21  38  60  85 114 148 186 229 279 334
#     4  10  21  38  61  88 118 153 192 235 284 337
#     4  10  21  37  57  81 110 146 187 231 280 333
#     4  11  24  40  60  86 116 152 192 235 284 337
#     4  10  21  37  58  84 113 147 186 229 278 332
#     4  11  24  40  60  86 115 149 189 233 281 334
#
# _framework density 19.753086
#
# number of rings (size 3 to 8) (size 9 to 14) (size 15 to 20)
#    0.000    1.667    0.000    4.000    0.000   10.667 
#    0.000    0.000    0.000    0.000    0.000    0.000 
#    0.000    0.000    0.000    0.000    0.000    0.000 
#
# Total GULP energy -267929.890635 kJ/mol
# GULP energy per Si atom -5581.872722 kJ/mol
# Density = 1.970813 g / cm^3
# Si number density = 19.753086 Si / 1000 Ang^3
#
#
#
# Elastic Constant Matrix: (Units=GPa)
#
#
# Indices 1 2 3 4 5 6 
#
# 1 117.4207 45.3855 38.5836 0.0000 0.0000 0.0000
# 2 45.3855 36.5198 24.3136 0.0000 0.0000 0.0000
# 3 38.5836 24.3136 58.0731 0.0000 0.0000 0.0000
# 4 0.0000 0.0000 0.0000 38.3542 0.0000 0.0000
# 5 0.0000 0.0000 0.0000 0.0000 25.4189 0.0000
# 6 0.0000 0.0000 0.0000 0.0000 0.0000 30.4841
#
#
#
# Elastic Compliance Matrix: (Units=1/GPa)
#
#
# Indices 1 2 3 4 5 6 
#
# 1 0.016850 -0.018700 -0.003366 0.000000 0.000000 0.000000
# 2 -0.018700 0.058717 -0.012159 0.000000 0.000000 0.000000
# 3 -0.003366 -0.012159 0.024547 0.000000 0.000000 0.000000
# 4 0.000000 0.000000 0.000000 0.026073 0.000000 0.000000
# 5 0.000000 0.000000 0.000000 0.000000 0.039341 0.000000
# 6 0.000000 0.000000 0.000000 0.000000 0.000000 0.032804
#
#
# Mechanical properties :
#
#
# Convention : Reuss Voigt Hill
#
# Bulk Modulus (GPa) = 31.58171 47.61988 39.60080
# Shear Modulus (GPa) = 18.02861 25.76684 21.89773
#
# Velocity S-wave (km/s) = 3.02437 3.61563 3.33314
# Velocity P-wave (km/s) = 5.31213 6.44905 5.90800
#
# Compressibility (1/GPa) = 0.03166389
#
# Stress axis : x y z
#
# Youngs Moduli (GPa) = 59.34576 17.03082 40.73845
#
# Poissons Ratio (x) = 0.31848 0.13713
# Poissons Ratio (y) = 1.10976 0.49534
# Poissons Ratio (z) = 0.19977 0.20708
#
# Static dielectric constant tensor:
#      x y z
#    x 1.658280 0.000000 0.000000 
#    y 0.000000 1.686350 0.000000 
#    z 0.000000 0.000000 1.606070 
# 
# From -- ./inp_files/5952.got.cif
#   From: 2010.05.17/outbox.ucp.g08.bks.cvg/sg51_3_cif.got.tgz:5952.got - 2010.06.11 16:27:58.
