data_PCOD9407025
_publ_section_title
;
Structure prediction by ZEFSAII (Michael W. Deem and Ramdas Pophale) SiO2 
 PCOD9407025
Probable space group: P M M A
;
_chemical_formula_sum "Si O2"
_cell_formula_units_Z 56
_cell_length_a 20.655030
_cell_length_b 14.550988
_cell_length_c 9.646756
_cell_angle_alpha 90.000000
_cell_angle_beta 90.000000
_cell_angle_gamma 90.000000
_cell_volume 2899.343066
_symmetry_space_group_name_H-M "P M M A"
_symmetry_group_IT_number 51
_symmetry_cell_setting 'orthorhombic'
loop_
_space_group_symop_operation_xyz
x,y,z
1/2-x,-y,z
1/2+x,-y,-z
-x,y,-z
-x,-y,-z
1/2+x,y,-z
1/2-x,y,z
x,-y,z
loop_
_atom_site_type_symbol
_atom_site_label
_atom_site_fract_x
_atom_site_fract_y
_atom_site_fract_z
Si Si1 0.350876 0.605791 0.740056
Si Si2 0.447394 0.207774 0.123728
Si Si3 0.499252 0.598877 0.832246
Si Si4 0.326136 0.246324 0.499395
Si Si5 0.434656 0.109328 0.415110
Si Si6 0.177560 0.693034 0.030188
Si Si7 0.672897 0.596686 0.699482
O O1 0.330054 0.500000 0.711173
O O2 0.427611 0.602862 0.769758
O O3 0.334368 0.681185 0.624617
O O4 0.322654 0.646558 0.881391
O O5 0.468750 0.303798 0.196181
O O6 0.441150 0.137921 0.252238
O O7 0.378598 0.231648 0.050555
O O8 0.500000 0.186719 0.000000
O O9 0.527084 0.500000 0.787274
O O10 0.500000 0.596714 0.000000
O O11 0.250000 0.220751 0.490014
O O12 0.374628 0.161090 0.489525
O O13 0.347812 0.310151 0.371331
O O14 0.500000 0.133893 0.500000
O O15 0.425964 0.000000 0.423063
O O16 0.250000 0.728333 0.062606
O O17 0.162604 0.610935 0.138075
O O18 0.750000 0.594660 0.676244
O O19 0.647669 0.500000 0.644102
#
# Coordination Sequence:
#
# PCOD9407025 Si02
#       7
#     8   8   8   8   8   8   8
#     4  11  21  35  58  92 135 176 212 252 295 355
#     4  11  21  40  66  93 124 165 204 259 315 376
#     4   9  17  31  53  83 122 168 210 242 285 352
#     4  11  23  41  64  92 126 166 211 259 315 374
#     4  11  26  47  70  93 118 153 207 269 330 391
#     4  11  21  34  56  90 127 168 211 250 297 359
#     4   9  18  33  54  84 125 168 206 244 292 359
#
# _framework density 19.314720000000001
#
# number of rings (size 3 to 8) (size 9 to 14) (size 15 to 20)
#    0.000    1.571    4.286    2.143    0.000    3.429 
#    0.000    0.000    0.000    3.000    0.000    0.000 
#    0.000    0.000    0.000    0.000    0.000    0.000 
#
# Total GULP energy -312117.799474 kJ/mol
# GULP energy per Si atom -5573.532133 kJ/mol
# Density = 1.927076 g / cm^3
# Si number density = 19.314720 Si / 1000 Ang^3
#
#
#
# Elastic Constant Matrix: (Units=GPa)
#
#
# Indices 1 2 3 4 5 6 
#
# 1 134.3790 54.7484 33.9586 0.0000 0.0000 0.0000
# 2 54.7484 99.4915 40.9953 0.0000 0.0000 0.0000
# 3 33.9586 40.9953 86.1906 0.0000 0.0000 0.0000
# 4 0.0000 0.0000 0.0000 31.4794 0.0000 0.0000
# 5 0.0000 0.0000 0.0000 0.0000 23.1136 0.0000
# 6 0.0000 0.0000 0.0000 0.0000 0.0000 11.4423
#
#
#
# Elastic Compliance Matrix: (Units=1/GPa)
#
#
# Indices 1 2 3 4 5 6 
#
# 1 0.009768 -0.004713 -0.001607 0.000000 0.000000 0.000000
# 2 -0.004713 0.014775 -0.005171 0.000000 0.000000 0.000000
# 3 -0.001607 -0.005171 0.014695 0.000000 0.000000 0.000000
# 4 0.000000 0.000000 0.000000 0.031767 0.000000 0.000000
# 5 0.000000 0.000000 0.000000 0.000000 0.043265 0.000000
# 6 0.000000 0.000000 0.000000 0.000000 0.000000 0.087395
#
#
# Mechanical properties :
#
#
# Convention : Reuss Voigt Hill
#
# Bulk Modulus (GPa) = 61.51331 64.38508 62.94920
# Shear Modulus (GPa) = 21.73309 25.89765 23.81537
#
# Velocity S-wave (km/s) = 3.35805 3.66570 3.51524
# Velocity P-wave (km/s) = 6.85218 7.16405 7.00985
#
# Compressibility (1/GPa) = 0.01625664
#
# Stress axis : x y z
#
# Youngs Moduli (GPa) = 102.37672 67.68120 68.05210
#
# Poissons Ratio (x) = 0.31898 0.10935
# Poissons Ratio (y) = 0.48250 0.35188
# Poissons Ratio (z) = 0.16450 0.34996
#
# Static dielectric constant tensor:
#      x y z
#    x 1.726540 0.000000 0.000000 
#    y 0.000000 1.663930 0.000000 
#    z 0.000000 0.000000 1.739460 
# 
# From -- ./inp_files/11032.got.cif
#   From: 2010.05.17/outbox.cif.g08.bks.cpg/sg51_6_cif.got.tgz:11032.got - 2010.06.03 11:52:47.
