data_PCOD9407534
_publ_section_title
;
Structure prediction by ZEFSAII (Michael W. Deem and Ramdas Pophale) SiO2 
 PCOD9407534
Probable space group: P M M A
;
_chemical_formula_sum "Si O2"
_cell_formula_units_Z 40
_cell_length_a 21.000000
_cell_length_b 9.000000
_cell_length_c 12.000000
_cell_angle_alpha 90.000000
_cell_angle_beta 90.000000
_cell_angle_gamma 90.000000
_cell_volume 2268.000000
_symmetry_space_group_name_H-M "P M M A"
_symmetry_group_IT_number 51
_symmetry_cell_setting 'orthorhombic'
loop_
_space_group_symop_operation_xyz
x,y,z
1/2-x,-y,z
1/2+x,-y,-z
-x,y,-z
-x,-y,-z
1/2+x,y,-z
1/2-x,y,z
x,-y,z
loop_
_atom_site_type_symbol
_atom_site_label
_atom_site_fract_x
_atom_site_fract_y
_atom_site_fract_z
Si Si1 0.571967 0.327281 0.547364
Si Si2 0.529167 0.828288 0.759898
Si Si3 0.392725 0.324785 0.797887
Si Si4 0.176646 0.823186 0.608553
Si Si5 0.573252 0.336434 0.958448
O O1 0.500000 0.317408 0.500000
O O2 0.584384 0.500000 0.571169
O O3 0.569374 0.227788 0.656453
O O4 0.625126 0.262861 0.465816
O O5 0.463033 0.736221 0.765979
O O6 0.570913 0.790902 0.868085
O O7 0.512696 0.000000 0.752368
O O8 0.390356 0.500000 0.769990
O O9 0.340303 0.233151 0.732050
O O10 0.386809 0.309546 0.930775
O O11 0.250000 0.789596 0.580326
O O12 0.167067 0.000000 0.599648
O O13 0.588570 0.500000 0.910745
O O14 0.500000 0.345111 0.000000
#
# Coordination Sequence:
#
# PCOD9407534 Si02
#       5
#     8   8   8   8   8
#     4  11  22  36  57  81 108 146 189 230 274 329
#     4  11  20  30  51  81 112 142 176 226 280 323
#     4  10  19  33  53  77 107 144 182 221 267 323
#     4  11  24  39  56  81 112 145 182 228 282 336
#     4   8  16  30  48  73 107 140 174 216 261 316
#
# _framework density 17.636683999999999
#
# number of rings (size 3 to 8) (size 9 to 14) (size 15 to 20)
#    0.000    1.800    2.000    4.800    0.000    6.800 
#    0.000    0.000    0.000    1.200    0.000    5.600 
#    0.000    0.000    0.000    0.000    0.000    0.000 
#
# Total GULP energy -222983.309589 kJ/mol
# GULP energy per Si atom -5574.582740 kJ/mol
# Density = 1.759654 g / cm^3
# Si number density = 17.636684 Si / 1000 Ang^3
#
#
#
# Elastic Constant Matrix: (Units=GPa)
#
#
# Indices 1 2 3 4 5 6 
#
# 1 40.7485 2.7641 -0.9997 0.0000 0.0000 0.0000
# 2 2.7641 44.3792 9.2328 0.0000 0.0000 0.0000
# 3 -0.9997 9.2328 36.5942 0.0000 0.0000 0.0000
# 4 0.0000 0.0000 0.0000 34.1450 0.0000 0.0000
# 5 0.0000 0.0000 0.0000 0.0000 14.2247 0.0000
# 6 0.0000 0.0000 0.0000 0.0000 0.0000 14.1354
#
#
#
# Elastic Compliance Matrix: (Units=1/GPa)
#
#
# Indices 1 2 3 4 5 6 
#
# 1 0.024688 -0.001771 0.001121 0.000000 0.000000 0.000000
# 2 -0.001771 0.023908 -0.006081 0.000000 0.000000 0.000000
# 3 0.001121 -0.006081 0.028892 0.000000 0.000000 0.000000
# 4 0.000000 0.000000 0.000000 0.029287 0.000000 0.000000
# 5 0.000000 0.000000 0.000000 0.000000 0.070300 0.000000
# 6 0.000000 0.000000 0.000000 0.000000 0.000000 0.070745
#
#
# Mechanical properties :
#
#
# Convention : Reuss Voigt Hill
#
# Bulk Modulus (GPa) = 15.61819 15.96847 15.79333
# Shear Modulus (GPa) = 17.69141 19.88266 18.78703
#
# Velocity S-wave (km/s) = 3.17062 3.36124 3.26732
# Velocity P-wave (km/s) = 4.72001 4.91301 4.81748
#
# Compressibility (1/GPa) = 0.06402791
#
# Stress axis : x y z
#
# Youngs Moduli (GPa) = 40.50483 41.82633 34.61221
#
# Poissons Ratio (x) = 0.07407 -0.03881
# Poissons Ratio (y) = 0.07173 0.21046
# Poissons Ratio (z) = -0.04542 0.25433
#
# Static dielectric constant tensor:
#      x y z
#    x 1.581470 0.000000 0.000000 
#    y 0.000000 1.591690 0.000000 
#    z 0.000000 0.000000 1.721570 
# 
# From -- ./inp_files/17089.got.cif
#   From: 2010.05.17/outbox.ucp.g08.bks.cvg/sg51_9_cif.got.tgz:17089.got - 2010.06.11 16:27:58.
