data_PCOD9407989
_publ_section_title
;
Structure prediction by ZEFSAII (Michael W. Deem and Ramdas Pophale) SiO2 
 PCOD9407989
Probable space group: P N N A
;
_chemical_formula_sum "Si O2"
_cell_formula_units_Z 56
_cell_length_a 35.817074
_cell_length_b 8.913947
_cell_length_c 7.670216
_cell_angle_alpha 90.000000
_cell_angle_beta 90.000000
_cell_angle_gamma 90.000000
_cell_volume 2448.881363
_symmetry_space_group_name_H-M "P N N A"
_symmetry_group_IT_number 52
_symmetry_cell_setting 'orthorhombic'
loop_
_space_group_symop_operation_xyz
x,y,z
1/2-x,-y,z
x,1/2-y,1/2-z
1/2-x,1/2+y,1/2-z
-x,-y,-z
1/2+x,y,-z
-x,1/2+y,1/2+z
1/2+x,1/2-y,1/2+z
loop_
_atom_site_type_symbol
_atom_site_label
_atom_site_fract_x
_atom_site_fract_y
_atom_site_fract_z
Si Si1 0.557976 0.457253 0.594928
Si Si2 0.134080 0.589566 0.515996
Si Si3 0.069765 0.152412 0.573551
Si Si4 0.288858 0.574578 0.527883
Si Si5 0.015473 0.570317 0.747707
Si Si6 0.287797 0.580482 0.953792
Si Si7 0.365245 0.063944 0.559740
O O1 0.600389 0.512595 0.588473
O O2 0.558000 0.280548 0.558000
O O3 0.527256 0.486503 0.741575
O O4 0.537807 0.532138 0.429139
O O5 0.174595 0.519398 0.472773
O O6 0.129858 0.767653 0.493292
O O7 0.130793 0.565467 0.727199
O O8 0.078951 0.250000 0.750000
O O9 0.104894 0.059745 0.505761
O O10 0.038298 0.031267 0.618152
O O11 0.250000 0.500000 0.469924
O O12 0.287705 0.578104 0.740849
O O13 0.290631 0.749544 0.480098
O O14 0.017454 0.750000 0.750000
O O15 0.250000 0.500000 0.011950
O O16 0.324555 0.488524 0.998077
#
# Coordination Sequence:
#
# PCOD9407989 Si02
#       7
#     8   8   8   8   8   8   8
#     4  10  20  32  49  69  89 121 155 190 234 280
#     4  10  17  27  42  60  85 117 156 188 226 268
#     4  10  18  30  48  66  87 116 153 188 228 273
#     4   9  16  24  36  53  82 117 152 189 223 260
#     4  10  20  34  49  67  92 117 150 194 235 278
#     4   9  16  23  33  54  82 114 158 190 217 259
#     4  10  17  25  43  59  84 120 153 194 221 260
#
# _framework density 22.867584000000001
#
# number of rings (size 3 to 8) (size 9 to 14) (size 15 to 20)
#    0.000    2.286    2.857    2.571    2.000    4.000 
#    0.000    2.857    0.000    0.000    0.000    0.000 
#    0.000    0.000    0.000   14.143    0.857    1.429 
#
# Total GULP energy -312966.648552 kJ/mol
# GULP energy per Si atom -5588.690153 kJ/mol
# Density = 2.281554 g / cm^3
# Si number density = 22.867584 Si / 1000 Ang^3
#
#
#
# Elastic Constant Matrix: (Units=GPa)
#
#
# Indices 1 2 3 4 5 6 
#
# 1 207.3525 88.0979 24.1831 0.0000 0.0000 0.0000
# 2 88.0979 166.8922 26.0219 0.0000 0.0000 0.0000
# 3 24.1831 26.0219 61.8031 0.0000 0.0000 0.0000
# 4 0.0000 0.0000 0.0000 -0.2335 0.0000 0.0000
# 5 0.0000 0.0000 0.0000 0.0000 -9.5495 0.0000
# 6 0.0000 0.0000 0.0000 0.0000 0.0000 31.9789
#
#
#
# Elastic Compliance Matrix: (Units=1/GPa)
#
#
# Indices 1 2 3 4 5 6 
#
# 1 0.006291 -0.003143 -0.001138 0.000000 0.000000 0.000000
# 2 -0.003143 0.007984 -0.002131 0.000000 0.000000 0.000000
# 3 -0.001138 -0.002131 0.017523 0.000000 0.000000 0.000000
# 4 0.000000 0.000000 0.000000 -4.283440 0.000000 0.000000
# 5 0.000000 0.000000 0.000000 0.000000 -0.104718 0.000000
# 6 0.000000 0.000000 0.000000 0.000000 0.000000 0.031271
#
#
# Mechanical properties :
#
#
# Convention : Reuss Voigt Hill
#
# Bulk Modulus (GPa) = 52.70972 79.18372 65.94672
# Shear Modulus (GPa) = -1.16119 24.28885 11.56383
#
# Velocity S-wave (km/s) = -0.71337 3.26260 2.25119
# Velocity P-wave (km/s) = 4.73513 6.99250 5.97145
#
# Compressibility (1/GPa) = 0.01897183
#
# Stress axis : x y z
#
# Youngs Moduli (GPa) = 158.95806 125.25783 57.06722
#
# Poissons Ratio (x) = 0.39373 0.06495
# Poissons Ratio (y) = 0.49967 0.12164
# Poissons Ratio (z) = 0.18091 0.26698
#
# Static dielectric constant tensor:
#      x y z
#    x 1.815520 0.000000 0.000000 
#    y 0.000000 1.824000 0.000000 
#    z 0.000000 0.000000 1.947420 
# 
# From -- ./inp_files/29746.got.cif
#   From: 2010.05.17/outbox.cif.g08.bks.cpg/sg52_15_cif.got.tgz:29746.got - 2010.06.03 12:15:38.
