data_PCOD9407737
_publ_section_title
;
Structure prediction by ZEFSAII (Michael W. Deem and Ramdas Pophale) SiO2 
 PCOD9407737
Probable space group: P M M A
;
_chemical_formula_sum "Si O2"
_cell_formula_units_Z 64
_cell_length_a 30.000000
_cell_length_b 9.000000
_cell_length_c 12.000000
_cell_angle_alpha 90.000000
_cell_angle_beta 90.000000
_cell_angle_gamma 90.000000
_cell_volume 3240.000000
_symmetry_space_group_name_H-M "P M M A"
_symmetry_group_IT_number 51
_symmetry_cell_setting 'orthorhombic'
loop_
_space_group_symop_operation_xyz
x,y,z
1/2-x,-y,z
1/2+x,-y,-z
-x,y,-z
-x,-y,-z
1/2+x,y,-z
1/2-x,y,z
x,-y,z
loop_
_atom_site_type_symbol
_atom_site_label
_atom_site_fract_x
_atom_site_fract_y
_atom_site_fract_z
Si Si1 0.700187 0.178960 0.906239
Si Si2 0.954145 0.674062 0.312080
Si Si3 0.303530 0.666698 0.858378
Si Si4 0.300820 0.178711 0.630386
Si Si5 0.952925 0.179384 0.667210
Si Si6 0.047382 0.324849 0.952109
Si Si7 0.112577 0.821774 0.527587
Si Si8 0.895203 0.821362 0.873571
O O1 0.750000 0.231910 0.872680
O O2 0.655241 0.224394 0.841688
O O3 0.701837 0.000000 0.906103
O O4 0.690737 0.236950 0.030944
O O5 0.953621 0.500000 0.337995
O O6 0.952600 0.693513 0.179629
O O7 0.912850 0.754456 0.367913
O O8 0.999828 0.747147 0.354384
O O9 0.250000 0.653266 0.848390
O O10 0.322585 0.500000 0.868504
O O11 0.317192 0.748081 0.745456
O O12 0.250000 0.224208 0.607680
O O13 0.335688 0.219505 0.534530
O O14 0.300976 0.000000 0.644320
O O15 0.915747 0.224987 0.578470
O O16 0.932420 0.226298 0.785259
O O17 0.957869 0.000000 0.665046
O O18 0.050656 0.500000 0.978612
O O19 0.088206 0.242191 0.009780
O O20 0.000000 0.269493 0.000000
O O21 0.110269 0.000000 0.531945
O O22 0.895564 0.000000 0.876663
#
# Coordination Sequence:
#
# PCOD9407737 Si02
#       8
#     8   8   8   8   8   8   8   8
#     4   9  18  33  51  75 109 145 180 219 264 317
#     4  11  23  38  58  83 111 142 181 226 274 329
#     4   9  17  29  47  72 102 136 173 216 265 313
#     4   9  18  34  54  76 105 141 179 219 266 320
#     4  10  21  39  58  79 109 144 183 228 274 320
#     4  10  21  38  56  79 111 142 173 217 274 327
#     4  10  22  38  57  81 110 144 183 226 273 322
#     4  10  21  35  56  82 108 144 186 222 264 322
#
# _framework density 19.753086
#
# number of rings (size 3 to 8) (size 9 to 14) (size 15 to 20)
#    0.000    2.250    1.250    1.125    1.750    5.750 
#    0.000    0.625    0.000    3.750    0.000    0.000 
#    0.000    7.000    0.000    0.000    0.000    0.000 
#
# Total GULP energy -356801.051091 kJ/mol
# GULP energy per Si atom -5575.016423 kJ/mol
# Density = 1.970813 g / cm^3
# Si number density = 19.753086 Si / 1000 Ang^3
#
#
#
# Elastic Constant Matrix: (Units=GPa)
#
#
# Indices 1 2 3 4 5 6 
#
# 1 91.0617 2.3044 23.8422 0.0000 0.0000 0.0000
# 2 2.3044 -25.8148 -4.1114 0.0000 0.0000 0.0000
# 3 23.8422 -4.1114 -6.0909 0.0000 0.0000 0.0000
# 4 0.0000 0.0000 0.0000 8.9301 0.0000 0.0000
# 5 0.0000 0.0000 0.0000 0.0000 17.9434 0.0000
# 6 0.0000 0.0000 0.0000 0.0000 0.0000 -4.9260
#
#
#
# Elastic Compliance Matrix: (Units=1/GPa)
#
#
# Indices 1 2 3 4 5 6 
#
# 1 0.005191 -0.003107 0.022417 0.000000 0.000000 0.000000
# 2 -0.003107 -0.041544 0.015881 0.000000 0.000000 0.000000
# 3 0.022417 0.015881 -0.087152 0.000000 0.000000 0.000000
# 4 0.000000 0.000000 0.000000 0.111981 0.000000 0.000000
# 5 0.000000 0.000000 0.000000 0.000000 0.055731 0.000000
# 6 0.000000 0.000000 0.000000 0.000000 0.000000 -0.203006
#
#
# Mechanical properties :
#
#
# Convention : Reuss Voigt Hill
#
# Bulk Modulus (GPa) = -18.82440 11.46958 -3.67741
# Shear Modulus (GPa) = -20.25210 6.86421 -6.69394
#
# Velocity S-wave (km/s) = -3.20545 1.86616 -1.84287
# Velocity P-wave (km/s) = 4.82187 3.23458 2.52863
#
# Compressibility (1/GPa) = -0.05312253
#
# Stress axis : x y z
#
# Youngs Moduli (GPa) = 192.64191 -24.07080 -11.47427
#
# Poissons Ratio (x) = -0.07478 0.25721
# Poissons Ratio (y) = 0.59850 0.18223
# Poissons Ratio (z) = -4.31836 0.38228
#
# Static dielectric constant tensor:
#      x y z
#    x 1.790550 0.000000 0.000000 
#    y 0.000000 1.672050 0.000000 
#    z 0.000000 0.000000 1.714320 
# 
# From -- ./inp_files/19632.got.cif
#   From: 2010.05.17/outbox.ucp.g08.bks.cvg/sg51_10_cif.got.tgz:19632.got - 2010.06.11 16:27:58.
