data_PCOD9407065
_publ_section_title
;
Structure prediction by ZEFSAII (Michael W. Deem and Ramdas Pophale) SiO2 
 PCOD9407065
Probable space group: P M M A
;
_chemical_formula_sum "Si O2"
_cell_formula_units_Z 64
_cell_length_a 15.010059
_cell_length_b 9.290101
_cell_length_c 25.002372
_cell_angle_alpha 90.000000
_cell_angle_beta 90.000000
_cell_angle_gamma 90.000000
_cell_volume 3486.454867
_symmetry_space_group_name_H-M "P M M A"
_symmetry_group_IT_number 51
_symmetry_cell_setting 'orthorhombic'
loop_
_space_group_symop_operation_xyz
x,y,z
1/2-x,-y,z
1/2+x,-y,-z
-x,y,-z
-x,-y,-z
1/2+x,y,-z
1/2-x,y,z
x,-y,z
loop_
_atom_site_type_symbol
_atom_site_label
_atom_site_fract_x
_atom_site_fract_y
_atom_site_fract_z
Si Si1 0.144426 0.172785 0.763228
Si Si2 0.852555 0.324512 0.488740
Si Si3 0.604107 0.340906 0.010310
Si Si4 0.142720 0.837286 0.884482
Si Si5 0.013244 0.673658 0.293748
Si Si6 0.644214 0.174040 0.788950
Si Si7 0.017023 0.674536 0.416859
Si Si8 0.145047 0.840030 0.093623
O O1 0.250000 0.200634 0.756299
O O2 0.117987 0.209267 0.824617
O O3 0.081883 0.263164 0.724584
O O4 0.131169 0.000000 0.757069
O O5 0.750000 0.275240 0.484259
O O6 0.850107 0.500000 0.488234
O O7 0.902865 0.280565 0.543595
O O8 0.921753 0.279818 0.442051
O O9 0.644005 0.500000 0.012567
O O10 0.637284 0.253793 0.959069
O O11 0.500000 0.352667 0.000000
O O12 0.616446 0.261174 0.066328
O O13 0.250000 0.843329 0.884236
O O14 0.109539 0.000000 0.893116
O O15 0.014834 0.500000 0.289460
O O16 0.086589 0.745073 0.255210
O O17 0.028985 0.716041 0.355508
O O18 0.750000 0.205574 0.782810
O O19 0.611235 0.216007 0.849058
O O20 0.633605 0.000000 0.785427
O O21 0.016350 0.500000 0.418379
O O22 0.250000 0.855053 0.103682
O O23 0.107857 0.000000 0.083420
#
# Coordination Sequence:
#
# PCOD9407065 Si02
#       8
#     8   8   8   8   8   8   8   8
#     4   9  20  39  59  78 103 141 189 231 267 317
#     4   8  13  25  46  67  97 144 186 218 254 302
#     4  11  24  35  46  74 110 133 156 199 262 332
#     4   9  19  37  58  75  92 123 172 221 259 305
#     4  11  22  33  52  83 119 148 173 220 280 331
#     4   9  20  39  59  78 103 141 189 231 267 317
#     4   8  16  28  41  70 109 141 177 216 261 316
#     4   9  19  37  58  75  92 123 172 221 259 305
#
# _framework density 18.356756000000001
#
# number of rings (size 3 to 8) (size 9 to 14) (size 15 to 20)
#    0.000    2.750    0.000    3.375    1.750    5.500 
#    0.000    5.000    0.000    0.000    0.000    7.000 
#    0.000   12.000    0.000    0.000    0.000    0.000 
#
# Total GULP energy -356666.686720 kJ/mol
# GULP energy per Si atom -5572.916980 kJ/mol
# Density = 1.831497 g / cm^3
# Si number density = 18.356756 Si / 1000 Ang^3
#
#
#
# Elastic Constant Matrix: (Units=GPa)
#
#
# Indices 1 2 3 4 5 6 
#
# 1 43.4437 -1.8782 -25.2545 0.0000 0.0000 0.0000
# 2 -1.8782 28.9505 18.5000 0.0000 0.0000 0.0000
# 3 -25.2545 18.5000 50.7109 0.0000 0.0000 0.0000
# 4 0.0000 0.0000 0.0000 43.0020 0.0000 0.0000
# 5 0.0000 0.0000 0.0000 0.0000 22.2874 0.0000
# 6 0.0000 0.0000 0.0000 0.0000 0.0000 74.0759
#
#
#
# Elastic Compliance Matrix: (Units=1/GPa)
#
#
# Indices 1 2 3 4 5 6 
#
# 1 0.035158 -0.011615 0.021746 0.000000 0.000000 0.000000
# 2 -0.011615 0.048880 -0.023617 0.000000 0.000000 0.000000
# 3 0.021746 -0.023617 0.039165 0.000000 0.000000 0.000000
# 4 0.000000 0.000000 0.000000 0.023255 0.000000 0.000000
# 5 0.000000 0.000000 0.000000 0.000000 0.044868 0.000000
# 6 0.000000 0.000000 0.000000 0.000000 0.000000 0.013500
#
#
# Mechanical properties :
#
#
# Convention : Reuss Voigt Hill
#
# Bulk Modulus (GPa) = 10.39166 11.75995 11.07580
# Shear Modulus (GPa) = 18.94848 36.65558 27.80203
#
# Velocity S-wave (km/s) = 3.21633 4.47345 3.89593
# Velocity P-wave (km/s) = 4.41206 5.75349 5.12683
#
# Compressibility (1/GPa) = 0.09623103
#
# Stress axis : x y z
#
# Youngs Moduli (GPa) = 28.44334 20.45842 25.53294
#
# Poissons Ratio (x) = 0.23763 -0.55525
# Poissons Ratio (y) = 0.33038 0.60300
# Poissons Ratio (z) = -0.61854 0.48316
#
# Static dielectric constant tensor:
#      x y z
#    x 1.655480 0.000000 0.000000 
#    y 0.000000 1.645450 0.000000 
#    z 0.000000 0.000000 1.667030 
# 
# From -- ./inp_files/35645.got.cif
#   From: 2010.05.17/outbox.cif.g08.bks.cpg/sg51_18_cif.got.tgz:35645.got - 2010.06.03 11:52:47.
