data_PCOD9407390
_publ_section_title
;
Structure prediction by ZEFSAII (Michael W. Deem and Ramdas Pophale) SiO2 
 PCOD9407390
Probable space group: P M M A
;
_chemical_formula_sum "Si O2"
_cell_formula_units_Z 40
_cell_length_a 7.675760
_cell_length_b 9.444759
_cell_length_c 27.087886
_cell_angle_alpha 90.000000
_cell_angle_beta 90.000000
_cell_angle_gamma 90.000000
_cell_volume 1963.755348
_symmetry_space_group_name_H-M "P M M A"
_symmetry_group_IT_number 51
_symmetry_cell_setting 'orthorhombic'
loop_
_space_group_symop_operation_xyz
x,y,z
1/2-x,-y,z
1/2+x,-y,-z
-x,y,-z
-x,-y,-z
1/2+x,y,-z
1/2-x,y,z
x,-y,z
loop_
_atom_site_type_symbol
_atom_site_label
_atom_site_fract_x
_atom_site_fract_y
_atom_site_fract_z
Si Si1 0.043654 0.661315 0.052835
Si Si2 0.540837 0.161803 0.444808
Si Si3 0.542810 0.661719 0.159943
Si Si4 0.536543 0.837284 0.253954
Si Si5 0.963275 0.662582 0.350516
O O1 0.250000 0.651661 0.055067
O O2 0.968063 0.500000 0.051651
O O3 0.985449 0.723295 0.105090
O O4 0.000000 0.729084 0.000000
O O5 0.500000 0.213101 0.500000
O O6 0.750000 0.155614 0.440549
O O7 0.477607 0.260475 0.400583
O O8 0.474462 0.000000 0.440241
O O9 0.750000 0.651096 0.166906
O O10 0.472091 0.500000 0.161276
O O11 0.476082 0.757455 0.204505
O O12 0.750000 0.838065 0.253599
O O13 0.482964 0.751075 0.302501
O O14 0.480193 0.000000 0.255634
O O15 0.750000 0.662131 0.350778
O O16 0.019716 0.500000 0.347896
#
# Coordination Sequence:
#
# PCOD9407390 Si02
#       5
#     8   8   8   8   8
#     4   9  16  26  42  65  92 120 149 182 220 261
#     4   9  17  29  45  65  90 120 152 185 222 265
#     4   9  16  26  42  65  91 116 143 178 219 261
#     4   9  16  26  42  64  89 116 146 181 221 265
#     4   9  16  26  42  65  91 117 147 185 226 265
#
# _framework density 20.369136000000001
#
# number of rings (size 3 to 8) (size 9 to 14) (size 15 to 20)
#    0.000    3.000    0.000    1.800    0.000    7.600 
#    0.000    0.000    0.000    2.400    0.000    0.000 
#    0.000    0.000    0.000    0.000    0.000    0.000 
#
# Total GULP energy -223050.881467 kJ/mol
# GULP energy per Si atom -5576.272037 kJ/mol
# Density = 2.032278 g / cm^3
# Si number density = 20.369136 Si / 1000 Ang^3
#
#
#
# Elastic Constant Matrix: (Units=GPa)
#
#
# Indices 1 2 3 4 5 6 
#
# 1 35.9793 6.1187 1.7411 0.0000 0.0000 0.0000
# 2 6.1187 118.7513 119.5637 0.0000 0.0000 0.0000
# 3 1.7411 119.5637 247.7221 0.0000 0.0000 0.0000
# 4 0.0000 0.0000 0.0000 7.2503 0.0000 0.0000
# 5 0.0000 0.0000 0.0000 0.0000 19.0149 0.0000
# 6 0.0000 0.0000 0.0000 0.0000 0.0000 -0.2504
#
#
#
# Elastic Compliance Matrix: (Units=1/GPa)
#
#
# Indices 1 2 3 4 5 6 
#
# 1 0.028161 -0.002435 0.000977 0.000000 0.000000 0.000000
# 2 -0.002435 0.016592 -0.007991 0.000000 0.000000 0.000000
# 3 0.000977 -0.007991 0.007887 0.000000 0.000000 0.000000
# 4 0.000000 0.000000 0.000000 0.137925 0.000000 0.000000
# 5 0.000000 0.000000 0.000000 0.000000 0.052590 0.000000
# 6 0.000000 0.000000 0.000000 0.000000 0.000000 -3.994091
#
#
# Mechanical properties :
#
#
# Convention : Reuss Voigt Hill
#
# Bulk Modulus (GPa) = 29.63662 73.03330 51.33496
# Shear Modulus (GPa) = -1.34380 23.53823 11.09722
#
# Velocity S-wave (km/s) = -0.81312 3.40308 2.33664
# Velocity P-wave (km/s) = 3.70133 7.16756 5.70411
#
# Compressibility (1/GPa) = 0.03374204
#
# Stress axis : x y z
#
# Youngs Moduli (GPa) = 35.51060 60.26899 126.79286
#
# Poissons Ratio (x) = 0.14676 -0.12392
# Poissons Ratio (y) = 0.08647 1.01323
# Poissons Ratio (z) = -0.03471 0.48162
#
# Static dielectric constant tensor:
#      x y z
#    x 1.757530 0.000000 0.000000 
#    y 0.000000 1.702420 0.000000 
#    z 0.000000 0.000000 1.729870 
# 
# From -- ./inp_files/34336.got.cif
#   From: 2010.05.17/outbox.cif.g08.bks.cpg/sg51_18_cif.got.tgz:34336.got - 2010.06.03 11:52:47.
