data_PCOD9407127
_publ_section_title
;
Structure prediction by ZEFSAII (Michael W. Deem and Ramdas Pophale) SiO2 
 PCOD9407127
Probable space group: P M M A
;
_chemical_formula_sum "Si O2"
_cell_formula_units_Z 24
_cell_length_a 9.973419
_cell_length_b 10.007604
_cell_length_c 12.925427
_cell_angle_alpha 90.000000
_cell_angle_beta 90.000000
_cell_angle_gamma 90.000000
_cell_volume 1290.087229
_symmetry_space_group_name_H-M "P M M A"
_symmetry_group_IT_number 51
_symmetry_cell_setting 'orthorhombic'
loop_
_space_group_symop_operation_xyz
x,y,z
1/2-x,-y,z
1/2+x,-y,-z
-x,y,-z
-x,-y,-z
1/2+x,y,-z
1/2-x,y,z
x,-y,z
loop_
_atom_site_type_symbol
_atom_site_label
_atom_site_fract_x
_atom_site_fract_y
_atom_site_fract_z
Si Si1 0.915742 0.500000 0.891763
Si Si2 0.996486 0.753968 0.245010
Si Si3 0.250000 0.834296 0.620963
Si Si4 0.410992 0.000000 0.898089
Si Si5 0.250000 0.158693 0.375812
O O1 0.750000 0.500000 0.905047
O O2 0.964891 0.626851 0.824355
O O3 0.000000 0.500000 0.000000
O O4 0.874670 0.760572 0.325946
O O5 0.954895 0.871091 0.166516
O O6 0.122845 0.786648 0.315781
O O7 0.250000 0.814475 0.498035
O O8 0.250000 0.000000 0.639631
O O9 0.250000 0.000000 0.915920
O O10 0.500000 0.000000 0.000000
O O11 0.250000 0.000000 0.364624
#
# Coordination Sequence:
#
# PCOD9407127 Si02
#       5
#     4   8   4   4   4
#     4  12  30  48  69  97 134 182 231 279 345 404
#     4  12  23  45  67  99 138 175 225 280 331 401
#     4  11  22  43  70 109 139 175 223 273 338 407
#     4  12  26  42  67 101 132 170 231 285 339 404
#     4  11  22  39  74 105 137 179 219 277 344 395
#
# _framework density 18.603393000000001
#
# number of rings (size 3 to 8) (size 9 to 14) (size 15 to 20)
#    0.000    0.333    6.667    2.000    4.667    5.333 
#    0.000    5.000    0.000    0.000    0.000    0.000 
#    0.000    0.000    0.000    0.000    0.000    0.000 
#
# Total GULP energy -133923.444461 kJ/mol
# GULP energy per Si atom -5580.143519 kJ/mol
# Density = 1.856105 g / cm^3
# Si number density = 18.603393 Si / 1000 Ang^3
#
#
#
# Elastic Constant Matrix: (Units=GPa)
#
#
# Indices 1 2 3 4 5 6 
#
# 1 239.3250 79.3018 120.1484 0.0000 0.0000 0.0000
# 2 79.3018 134.3192 93.1465 0.0000 0.0000 0.0000
# 3 120.1484 93.1465 197.9753 0.0000 0.0000 0.0000
# 4 0.0000 0.0000 0.0000 83.8574 0.0000 0.0000
# 5 0.0000 0.0000 0.0000 0.0000 52.1649 0.0000
# 6 0.0000 0.0000 0.0000 0.0000 0.0000 -160.9106
#
#
#
# Elastic Compliance Matrix: (Units=1/GPa)
#
#
# Indices 1 2 3 4 5 6 
#
# 1 0.006224 -0.001566 -0.003040 0.000000 0.000000 0.000000
# 2 -0.001566 0.011445 -0.004434 0.000000 0.000000 0.000000
# 3 -0.003040 -0.004434 0.008982 0.000000 0.000000 0.000000
# 4 0.000000 0.000000 0.000000 0.011925 0.000000 0.000000
# 5 0.000000 0.000000 0.000000 0.000000 0.019170 0.000000
# 6 0.000000 0.000000 0.000000 0.000000 0.000000 -0.006215
#
#
# Mechanical properties :
#
#
# Convention : Reuss Voigt Hill
#
# Bulk Modulus (GPa) = 116.69040 128.53477 122.61258
# Shear Modulus (GPa) = 68.99559 13.62386 41.30973
#
# Velocity S-wave (km/s) = 6.09657 2.70910 4.71738
# Velocity P-wave (km/s) = 10.60278 8.88975 9.78383
#
# Compressibility (1/GPa) = 0.00856969
#
# Stress axis : x y z
#
# Youngs Moduli (GPa) = 160.67803 87.37785 111.32876
#
# Poissons Ratio (x) = 0.13685 0.33846
# Poissons Ratio (y) = 0.25165 0.49365
# Poissons Ratio (z) = 0.48849 0.38744
#
# Static dielectric constant tensor:
#      x y z
#    x 1.670980 0.000000 0.000000 
#    y 0.000000 1.639670 0.000000 
#    z 0.000000 0.000000 1.660390 
# 
# From -- ./inp_files/13571.got.cif
#   From: 2010.05.17/outbox.cif.g08.bks.cpg/sg51_7_cif.got.tgz:13571.got - 2010.06.03 11:52:47.
