data_PCOD9407926
_publ_section_title
;
Structure prediction by ZEFSAII (Michael W. Deem and Ramdas Pophale) SiO2 
 PCOD9407926
Probable space group: P N N A
;
_chemical_formula_sum "Si O2"
_cell_formula_units_Z 40
_cell_length_a 10.818763
_cell_length_b 19.685751
_cell_length_c 7.688944
_cell_angle_alpha 90.000000
_cell_angle_beta 90.000000
_cell_angle_gamma 90.000000
_cell_volume 1637.556497
_symmetry_space_group_name_H-M "P N N A"
_symmetry_group_IT_number 52
_symmetry_cell_setting 'orthorhombic'
loop_
_space_group_symop_operation_xyz
x,y,z
1/2-x,-y,z
x,1/2-y,1/2-z
1/2-x,1/2+y,1/2-z
-x,-y,-z
1/2+x,y,-z
-x,1/2+y,1/2+z
1/2+x,1/2-y,1/2+z
loop_
_atom_site_type_symbol
_atom_site_label
_atom_site_fract_x
_atom_site_fract_y
_atom_site_fract_z
Si Si1 0.486163 0.583250 0.809910
Si Si2 0.244249 0.864876 0.261302
Si Si3 0.488643 0.932477 0.279199
Si Si4 0.823874 0.701664 0.117624
Si Si5 0.040812 0.299777 0.407366
O O1 0.606261 0.615356 0.723264
O O2 0.464273 0.507537 0.741248
O O3 0.371177 0.632973 0.791140
O O4 0.518770 0.581094 0.017376
O O5 0.338170 0.928793 0.279649
O O6 0.257878 0.823681 0.442525
O O7 0.313793 0.821430 0.115637
O O8 0.523251 0.871209 0.148142
O O9 0.753085 0.750000 0.250000
O O10 0.945847 0.747140 0.065257
O O11 0.011909 0.250000 0.250000
#
# Coordination Sequence:
#
# PCOD9407926 Si02
#       5
#     8   8   8   8   8
#     4  10  16  30  54  81  92 135 173 212 251 314
#     4   8  17  31  52  70  97 132 172 206 257 303
#     4   8  17  29  53  78 102 118 176 219 251 295
#     4  10  20  33  46  75 109 133 170 216 253 301
#     4   8  15  33  48  66 103 134 158 212 255 292
#
# _framework density 24.426638000000001
#
# number of rings (size 3 to 8) (size 9 to 14) (size 15 to 20)
#    1.200    2.000    2.000    0.600    0.000    2.400 
#    3.600    1.000    0.000    0.000   15.600    0.000 
#    0.000    0.000    0.000    0.000    0.000    0.000 
#
# Total GULP energy -222682.129047 kJ/mol
# GULP energy per Si atom -5567.053226 kJ/mol
# Density = 2.437104 g / cm^3
# Si number density = 24.426638 Si / 1000 Ang^3
#
#
#
# Elastic Constant Matrix: (Units=GPa)
#
#
# Indices 1 2 3 4 5 6 
#
# 1 20.1041 18.5277 12.8298 0.0000 0.0000 0.0000
# 2 18.5277 181.1542 34.1702 0.0000 0.0000 0.0000
# 3 12.8298 34.1702 87.4902 0.0000 0.0000 0.0000
# 4 0.0000 0.0000 0.0000 28.9142 0.0000 0.0000
# 5 0.0000 0.0000 0.0000 0.0000 -4.9000 0.0000
# 6 0.0000 0.0000 0.0000 0.0000 0.0000 8.5903
#
#
#
# Elastic Compliance Matrix: (Units=1/GPa)
#
#
# Indices 1 2 3 4 5 6 
#
# 1 0.058364 -0.004701 -0.006723 0.000000 0.000000 0.000000
# 2 -0.004701 0.006338 -0.001786 0.000000 0.000000 0.000000
# 3 -0.006723 -0.001786 0.013113 0.000000 0.000000 0.000000
# 4 0.000000 0.000000 0.000000 0.034585 0.000000 0.000000
# 5 0.000000 0.000000 0.000000 0.000000 -0.204081 0.000000
# 6 0.000000 0.000000 0.000000 0.000000 0.000000 0.116411
#
#
# Mechanical properties :
#
#
# Convention : Reuss Voigt Hill
#
# Bulk Modulus (GPa) = 19.45694 46.64486 33.05090
# Shear Modulus (GPa) = 73.22727 21.40228 47.31477
#
# Velocity S-wave (km/s) = 5.48120 2.96326 4.40593
# Velocity P-wave (km/s) = 6.93115 5.55385 6.28037
#
# Compressibility (1/GPa) = 0.05139554
#
# Stress axis : x y z
#
# Youngs Moduli (GPa) = 17.13394 157.78244 76.25926
#
# Poissons Ratio (x) = 0.74176 0.51265
# Poissons Ratio (y) = 0.08055 0.13619
# Poissons Ratio (z) = 0.11518 0.28179
#
# Static dielectric constant tensor:
#      x y z
#    x 1.905930 0.000000 0.000000 
#    y 0.000000 1.953570 0.000000 
#    z 0.000000 0.000000 2.050030 
# 
# From -- ./inp_files/10591.got.cif
#   From: 2010.05.17/outbox.cif.g08.bks.cpg/sg52_6_cif.got.tgz:10591.got - 2010.06.03 12:15:38.
