data_PCOD9407232
_publ_section_title
;
Structure prediction by ZEFSAII (Michael W. Deem and Ramdas Pophale) SiO2 
 PCOD9407232
Probable space group: P M M A
;
_chemical_formula_sum "Si O2"
_cell_formula_units_Z 48
_cell_length_a 34.367325
_cell_length_b 7.393828
_cell_length_c 7.281748
_cell_angle_alpha 90.000000
_cell_angle_beta 90.000000
_cell_angle_gamma 90.000000
_cell_volume 1850.336512
_symmetry_space_group_name_H-M "P M M A"
_symmetry_group_IT_number 51
_symmetry_cell_setting 'orthorhombic'
loop_
_space_group_symop_operation_xyz
x,y,z
1/2-x,-y,z
1/2+x,-y,-z
-x,y,-z
-x,-y,-z
1/2+x,y,-z
1/2-x,y,z
x,-y,z
loop_
_atom_site_type_symbol
_atom_site_label
_atom_site_fract_x
_atom_site_fract_y
_atom_site_fract_z
Si Si1 0.791588 0.284769 0.585009
Si Si2 0.374697 0.222772 0.023379
Si Si3 0.542500 0.792803 0.530402
Si Si4 0.375287 0.784650 0.448889
Si Si5 0.791933 0.791556 0.017490
Si Si6 0.957964 0.207503 0.969214
O O1 0.750000 0.225637 0.503075
O O2 0.790808 0.500000 0.604000
O O3 0.831495 0.241662 0.480741
O O4 0.792673 0.207988 0.792967
O O5 0.372949 0.279364 0.237366
O O6 0.334376 0.285794 0.933934
O O7 0.417216 0.281770 0.955702
O O8 0.374663 0.000000 0.017840
O O9 0.500000 0.708137 0.500000
O O10 0.584155 0.714136 0.467263
O O11 0.546721 0.800137 0.750170
O O12 0.539571 0.000000 0.458697
O O13 0.380932 0.000000 0.445517
O O14 0.750000 0.708610 0.068659
O O15 0.791574 0.000000 0.078062
O O16 0.960674 0.000000 0.037896
O O17 0.000000 0.294013 0.000000
#
# Coordination Sequence:
#
# PCOD9407232 Si02
#       6
#     8   8   8   8   8   8
#     4   9  15  20  27  42  64  87 109 135 167 202
#     4   7  10  16  25  38  56  77 102 129 154 184
#     4   8  13  21  33  48  65  86 115 147 171 196
#     4   8  13  21  32  44  60  85 113 138 166 201
#     4   8  12  18  28  40  56  81 109 133 159 195
#     4   8  12  17  26  42  65  88 106 131 169 203
#
# _framework density 25.941227999999999
#
# number of rings (size 3 to 8) (size 9 to 14) (size 15 to 20)
#    0.000    4.000    0.000    3.500    0.000    1.000 
#    0.000    0.000    0.000    0.500    0.000    0.000 
#    0.000   55.333    0.000   14.000    0.000   68.000 
#
# Total GULP energy -267316.857327 kJ/mol
# GULP energy per Si atom -5569.101194 kJ/mol
# Density = 2.588218 g / cm^3
# Si number density = 25.941228 Si / 1000 Ang^3
#
#
#
# Elastic Constant Matrix: (Units=GPa)
#
#
# Indices 1 2 3 4 5 6 
#
# 1 388.4189 13.9870 8.1484 0.0000 0.0000 0.0000
# 2 13.9870 95.5968 -7.0724 0.0000 0.0000 0.0000
# 3 8.1484 -7.0724 98.1710 0.0000 0.0000 0.0000
# 4 0.0000 0.0000 0.0000 -49.6177 0.0000 0.0000
# 5 0.0000 0.0000 0.0000 0.0000 2.4190 0.0000
# 6 0.0000 0.0000 0.0000 0.0000 0.0000 -12.5886
#
#
#
# Elastic Compliance Matrix: (Units=1/GPa)
#
#
# Indices 1 2 3 4 5 6 
#
# 1 0.002594 -0.000398 -0.000244 0.000000 0.000000 0.000000
# 2 -0.000398 0.010578 0.000795 0.000000 0.000000 0.000000
# 3 -0.000244 0.000795 0.010264 0.000000 0.000000 0.000000
# 4 0.000000 0.000000 0.000000 -0.020154 0.000000 0.000000
# 5 0.000000 0.000000 0.000000 0.000000 0.413392 0.000000
# 6 0.000000 0.000000 0.000000 0.000000 0.000000 -0.079437
#
#
# Mechanical properties :
#
#
# Convention : Reuss Voigt Hill
#
# Bulk Modulus (GPa) = 42.11876 68.03475 55.07675
# Shear Modulus (GPa) = 14.49933 25.85079 20.17506
#
# Velocity S-wave (km/s) = 2.36674 3.16019 2.79179
# Velocity P-wave (km/s) = 4.87238 6.29278 5.62757
#
# Compressibility (1/GPa) = 0.02374239
#
# Stress axis : x y z
#
# Youngs Moduli (GPa) = 385.50884 94.53952 97.42947
#
# Poissons Ratio (x) = 0.03759 0.02377
# Poissons Ratio (y) = 0.15327 -0.07746
# Poissons Ratio (z) = 0.09404 -0.07516
#
# Static dielectric constant tensor:
#      x y z
#    x 2.202070 0.000000 0.000000 
#    y 0.000000 1.967860 0.000000 
#    z 0.000000 0.000000 2.543680 
# 
# From -- ./inp_files/19276.got.cif
#   From: 2010.05.17/outbox.cif.g08.bks.cpg/sg51_10_cif.got.tgz:19276.got - 2010.06.03 11:52:47.
