data_PCOD9407945
_publ_section_title
;
Structure prediction by ZEFSAII (Michael W. Deem and Ramdas Pophale) SiO2 
 PCOD9407945
Probable space group: P N N A
;
_chemical_formula_sum "Si O2"
_cell_formula_units_Z 60
_cell_length_a 12.084963
_cell_length_b 18.191457
_cell_length_c 15.987613
_cell_angle_alpha 90.000000
_cell_angle_beta 90.000000
_cell_angle_gamma 90.000000
_cell_volume 3514.766160
_symmetry_space_group_name_H-M "P N N A"
_symmetry_group_IT_number 52
_symmetry_cell_setting 'orthorhombic'
loop_
_space_group_symop_operation_xyz
x,y,z
1/2-x,-y,z
x,1/2-y,1/2-z
1/2-x,1/2+y,1/2-z
-x,-y,-z
1/2+x,y,-z
-x,1/2+y,1/2+z
1/2+x,1/2-y,1/2+z
loop_
_atom_site_type_symbol
_atom_site_label
_atom_site_fract_x
_atom_site_fract_y
_atom_site_fract_z
Si Si1 0.671908 0.857479 0.882011
Si Si2 0.577325 0.195712 0.380816
Si Si3 0.690152 0.073812 0.267314
Si Si4 0.781279 0.206481 0.165092
Si Si5 0.400038 0.595265 0.452380
Si Si6 0.032547 0.468991 0.621834
Si Si7 0.047320 0.734050 0.519048
Si Si8 0.604459 0.750000 0.750000
O O1 0.783355 0.897057 0.908185
O O2 0.573438 0.915910 0.879384
O O3 0.675559 0.811580 0.796662
O O4 0.633886 0.799355 0.952168
O O5 0.643485 0.125842 0.342045
O O6 0.665029 0.263366 0.373242
O O7 0.516760 0.198751 0.471762
O O8 0.478884 0.212427 0.315785
O O9 0.762158 0.123712 0.201022
O O10 0.592163 0.044201 0.208538
O O11 0.750000 0.000000 0.298358
O O12 0.799458 0.250000 0.250000
O O13 0.878892 0.231492 0.102824
O O14 0.393187 0.554618 0.542045
O O15 0.487335 0.549614 0.397335
O O16 0.451101 0.674877 0.466834
#
# Coordination Sequence:
#
# PCOD9407945 Si02
#       8
#     8   8   8   8   8   8   8   4
#     4  10  18  30  49  70 105 144 186 217 267 330
#     4  10  18  34  55  76 106 140 194 222 271 333
#     4  11  19  31  54  80 107 143 188 237 276 327
#     4  10  19  34  55  78 107 139 183 234 281 326
#     4  10  20  30  45  77 110 147 175 216 285 348
#     4  10  19  31  47  71 113 145 179 220 275 348
#     4  10  19  31  51  76 106 140 179 234 271 324
#     4  10  16  32  52  72  98 144 188 230 250 322
#
# _framework density 17.070837000000001
#
# number of rings (size 3 to 8) (size 9 to 14) (size 15 to 20)
#    0.000    1.867    3.333    4.400    0.000    2.133 
#    1.200    0.000    0.000    3.200    0.000    0.000 
#    0.000    0.000    0.000    0.000    0.000    0.000 
#
# Total GULP energy -334056.546240 kJ/mol
# GULP energy per Si atom -5567.609104 kJ/mol
# Density = 1.703198 g / cm^3
# Si number density = 17.070837 Si / 1000 Ang^3
#
#
#
# Elastic Constant Matrix: (Units=GPa)
#
#
# Indices 1 2 3 4 5 6 
#
# 1 67.2345 34.3658 40.1248 0.0000 0.0000 0.0000
# 2 34.3658 76.0384 30.1217 0.0000 0.0000 0.0000
# 3 40.1248 30.1217 72.0076 0.0000 0.0000 0.0000
# 4 0.0000 0.0000 0.0000 19.3052 0.0000 0.0000
# 5 0.0000 0.0000 0.0000 0.0000 23.2775 0.0000
# 6 0.0000 0.0000 0.0000 0.0000 0.0000 37.6767
#
#
#
# Elastic Compliance Matrix: (Units=1/GPa)
#
#
# Indices 1 2 3 4 5 6 
#
# 1 0.024998 -0.006928 -0.011032 0.000000 0.000000 0.000000
# 2 -0.006928 0.017683 -0.003537 0.000000 0.000000 0.000000
# 3 -0.011032 -0.003537 0.021514 0.000000 0.000000 0.000000
# 4 0.000000 0.000000 0.000000 0.051799 0.000000 0.000000
# 5 0.000000 0.000000 0.000000 0.000000 0.042960 0.000000
# 6 0.000000 0.000000 0.000000 0.000000 0.000000 0.026542
#
#
# Mechanical properties :
#
#
# Convention : Reuss Voigt Hill
#
# Bulk Modulus (GPa) = 47.16338 47.16725 47.16531
# Shear Modulus (GPa) = 21.22635 23.42977 22.32806
#
# Velocity S-wave (km/s) = 3.53005 3.70875 3.62050
# Velocity P-wave (km/s) = 6.65605 6.78455 6.72061
#
# Compressibility (1/GPa) = 0.02120289
#
# Stress axis : x y z
#
# Youngs Moduli (GPa) = 40.00336 56.55030 46.48137
#
# Poissons Ratio (x) = 0.39177 0.51276
# Poissons Ratio (y) = 0.27714 0.16439
# Poissons Ratio (z) = 0.44130 0.20000
#
# Static dielectric constant tensor:
#      x y z
#    x 1.598420 0.000000 0.000000 
#    y 0.000000 1.608030 0.000000 
#    z 0.000000 0.000000 1.602710 
# 
# From -- ./inp_files/26317.got.cif
#   From: 2010.05.17/outbox.cif.g08.bks.cpg/sg52_14_cif.got.tgz:26317.got - 2010.06.03 12:15:38.
