data_PCOD9407387
_publ_section_title
;
Structure prediction by ZEFSAII (Michael W. Deem and Ramdas Pophale) SiO2 
 PCOD9407387
Probable space group: P M M A
;
_chemical_formula_sum "Si O2"
_cell_formula_units_Z 56
_cell_length_a 9.309140
_cell_length_b 14.045071
_cell_length_c 29.740550
_cell_angle_alpha 90.000000
_cell_angle_beta 90.000000
_cell_angle_gamma 90.000000
_cell_volume 3888.503520
_symmetry_space_group_name_H-M "P M M A"
_symmetry_group_IT_number 51
_symmetry_cell_setting 'orthorhombic'
loop_
_space_group_symop_operation_xyz
x,y,z
1/2-x,-y,z
1/2+x,-y,-z
-x,y,-z
-x,-y,-z
1/2+x,y,-z
1/2-x,y,z
x,-y,z
loop_
_atom_site_type_symbol
_atom_site_label
_atom_site_fract_x
_atom_site_fract_y
_atom_site_fract_z
Si Si1 0.922077 0.719968 0.726424
Si Si2 0.915453 0.615877 0.455532
Si Si3 0.422312 0.220100 0.863599
Si Si4 0.922218 0.111712 0.046083
Si Si5 0.922270 0.609769 0.817950
Si Si6 0.921820 0.612481 0.635318
Si Si7 0.922332 0.109788 0.227956
O O1 0.750000 0.734212 0.726305
O O2 0.954880 0.647987 0.767638
O O3 0.962861 0.672710 0.679151
O O4 0.000712 0.818164 0.738066
O O5 0.750000 0.646654 0.456160
O O6 0.916281 0.500000 0.456414
O O7 0.000000 0.647935 0.500000
O O8 0.995344 0.642979 0.409578
O O9 0.250000 0.233439 0.863969
O O10 0.465376 0.173869 0.910891
O O11 0.499840 0.318561 0.851827
O O12 0.455157 0.148162 0.822346
O O13 0.750000 0.119547 0.040748
O O14 0.954587 0.000000 0.054665
O O15 0.000000 0.139683 0.000000
O O16 0.750000 0.615952 0.823690
O O17 0.965328 0.500000 0.822920
O O18 0.750000 0.621423 0.628406
O O19 0.950621 0.500000 0.643327
O O20 0.750000 0.115658 0.233537
O O21 0.965722 0.000000 0.232935
#
# Coordination Sequence:
#
# PCOD9407387 Si02
#       7
#     8   8   8   8   8   8   8
#     4   9  17  28  42  61  84 110 140 172 206 244
#     4   9  16  25  37  54  77 106 140 175 209 245
#     4   9  17  29  45  64  85 110 139 169 202 243
#     4   9  17  29  45  65  88 111 134 164 205 251
#     4   9  17  29  44  62  85 112 141 173 207 242
#     4   9  16  26  40  57  80 111 142 171 205 244
#     4   9  17  29  44  61  83 111 139 167 202 244
#
# _framework density 14.401427
#
# number of rings (size 3 to 8) (size 9 to 14) (size 15 to 20)
#    0.000    3.000    0.000    1.286    0.000    6.857 
#    0.000    0.000    0.000    5.571    0.000    0.000 
#    0.000    0.571    0.000    1.857    0.000    2.714 
#
# Total GULP energy -311933.583140 kJ/mol
# GULP energy per Si atom -5570.242556 kJ/mol
# Density = 1.436865 g / cm^3
# Si number density = 14.401427 Si / 1000 Ang^3
#
#
#
# Elastic Constant Matrix: (Units=GPa)
#
#
# Indices 1 2 3 4 5 6 
#
# 1 35.6196 42.8258 56.5596 0.0000 0.0000 0.0000
# 2 42.8258 105.9623 72.7582 0.0000 0.0000 0.0000
# 3 56.5596 72.7582 145.0235 0.0000 0.0000 0.0000
# 4 0.0000 0.0000 0.0000 20.5870 0.0000 0.0000
# 5 0.0000 0.0000 0.0000 0.0000 26.0843 0.0000
# 6 0.0000 0.0000 0.0000 0.0000 0.0000 22.3356
#
#
#
# Elastic Compliance Matrix: (Units=1/GPa)
#
#
# Indices 1 2 3 4 5 6 
#
# 1 0.094741 -0.019709 -0.027061 0.000000 0.000000 0.000000
# 2 -0.019709 0.018497 -0.001593 0.000000 0.000000 0.000000
# 3 -0.027061 -0.001593 0.018249 0.000000 0.000000 0.000000
# 4 0.000000 0.000000 0.000000 0.048574 0.000000 0.000000
# 5 0.000000 0.000000 0.000000 0.000000 0.038337 0.000000
# 6 0.000000 0.000000 0.000000 0.000000 0.000000 0.044772
#
#
# Mechanical properties :
#
#
# Convention : Reuss Voigt Hill
#
# Bulk Modulus (GPa) = 28.76922 70.09919 49.43421
# Shear Modulus (GPa) = 13.45953 21.43216 17.44585
#
# Velocity S-wave (km/s) = 3.06043 3.86190 3.48429
# Velocity P-wave (km/s) = 5.70161 8.28653 7.11249
#
# Compressibility (1/GPa) = 0.03475937
#
# Stress axis : x y z
#
# Youngs Moduli (GPa) = 10.55509 54.06275 54.79834
#
# Poissons Ratio (x) = 1.06554 1.48291
# Poissons Ratio (y) = 0.20803 0.08731
# Poissons Ratio (z) = 0.28563 0.08614
#
# Static dielectric constant tensor:
#      x y z
#    x 1.480230 0.000000 0.000000 
#    y 0.000000 1.450610 0.000000 
#    z 0.000000 0.000000 1.462300 
# 
# From -- ./inp_files/37502.got.cif
#   From: 2010.05.17/outbox.cif.g08.bks.cpg/sg51_19_cif.got.tgz:37502.got - 2010.06.03 11:52:47.
