data_PCOD9407045
_publ_section_title
;
Structure prediction by ZEFSAII (Michael W. Deem and Ramdas Pophale) SiO2 
 PCOD9407045
Probable space group: P M M A
;
_chemical_formula_sum "Si O2"
_cell_formula_units_Z 40
_cell_length_a 15.515183
_cell_length_b 13.247347
_cell_length_c 10.241904
_cell_angle_alpha 90.000000
_cell_angle_beta 90.000000
_cell_angle_gamma 90.000000
_cell_volume 2105.069871
_symmetry_space_group_name_H-M "P M M A"
_symmetry_group_IT_number 51
_symmetry_cell_setting 'orthorhombic'
loop_
_space_group_symop_operation_xyz
x,y,z
1/2-x,-y,z
1/2+x,-y,-z
-x,y,-z
-x,-y,-z
1/2+x,y,-z
1/2-x,y,z
x,-y,z
loop_
_atom_site_type_symbol
_atom_site_label
_atom_site_fract_x
_atom_site_fract_y
_atom_site_fract_z
Si Si1 0.395917 0.385396 0.502606
Si Si2 0.652298 0.244755 0.259990
Si Si3 0.603559 0.382675 0.013732
Si Si4 0.846876 0.271318 0.749267
Si Si5 0.993771 0.118449 0.657405
O O1 0.500000 0.376233 0.500000
O O2 0.374434 0.500000 0.537066
O O3 0.357592 0.310013 0.608324
O O4 0.361505 0.356010 0.361087
O O5 0.750000 0.207985 0.246046
O O6 0.629530 0.319993 0.141611
O O7 0.581596 0.157344 0.275691
O O8 0.631920 0.500000 0.019814
O O9 0.500000 0.382986 0.000000
O O10 0.639312 0.324113 0.888155
O O11 0.750000 0.231055 0.739651
O O12 0.917013 0.185828 0.716371
O O13 0.000000 0.134605 0.500000
O O14 0.980109 0.000000 0.679172
#
# Coordination Sequence:
#
# PCOD9407045 Si02
#       5
#     8   8   8   8   8
#     4  11  21  37  61  89 127 168 207 252 306 372
#     4  12  23  40  64  94 127 163 211 257 312 374
#     4  11  23  41  65  93 133 176 207 246 308 378
#     4  12  23  40  64  94 127 163 211 257 312 374
#     4  11  24  45  68  93 125 161 211 271 326 369
#
# _framework density 19.001743999999999
#
# number of rings (size 3 to 8) (size 9 to 14) (size 15 to 20)
#    0.000    0.600    6.000    2.400    0.000    8.800 
#    0.000    4.000    0.000    2.400    0.000    0.000 
#    0.000    0.000    0.000    0.000    0.000    0.000 
#
# Total GULP energy -223698.461736 kJ/mol
# GULP energy per Si atom -5592.461543 kJ/mol
# Density = 1.895850 g / cm^3
# Si number density = 19.001744 Si / 1000 Ang^3
#
#
#
# Elastic Constant Matrix: (Units=GPa)
#
#
# Indices 1 2 3 4 5 6 
#
# 1 140.7370 25.6390 8.8310 0.0000 0.0000 0.0000
# 2 25.6390 78.8367 4.1843 0.0000 0.0000 0.0000
# 3 8.8310 4.1843 81.5564 0.0000 0.0000 0.0000
# 4 0.0000 0.0000 0.0000 27.3393 0.0000 0.0000
# 5 0.0000 0.0000 0.0000 0.0000 10.6456 0.0000
# 6 0.0000 0.0000 0.0000 0.0000 0.0000 -2.4525
#
#
#
# Elastic Compliance Matrix: (Units=1/GPa)
#
#
# Indices 1 2 3 4 5 6 
#
# 1 0.007592 -0.002432 -0.000697 0.000000 0.000000 0.000000
# 2 -0.002432 0.013498 -0.000429 0.000000 0.000000 0.000000
# 3 -0.000697 -0.000429 0.012359 0.000000 0.000000 0.000000
# 4 0.000000 0.000000 0.000000 0.036577 0.000000 0.000000
# 5 0.000000 0.000000 0.000000 0.000000 0.093936 0.000000
# 6 0.000000 0.000000 0.000000 0.000000 0.000000 -0.407751
#
#
# Mechanical properties :
#
#
# Convention : Reuss Voigt Hill
#
# Bulk Modulus (GPa) = 37.97629 42.04874 40.01252
# Shear Modulus (GPa) = -21.94005 24.60487 1.33241
#
# Velocity S-wave (km/s) = -3.40168 3.60234 0.83829
# Velocity P-wave (km/s) = 2.14489 6.28326 4.69467
#
# Compressibility (1/GPa) = 0.02633222
#
# Stress axis : x y z
#
# Youngs Moduli (GPa) = 131.71272 74.08398 80.91286
#
# Poissons Ratio (x) = 0.18018 0.05642
# Poissons Ratio (y) = 0.32034 0.03473
# Poissons Ratio (z) = 0.09185 0.03180
#
# Static dielectric constant tensor:
#      x y z
#    x 1.683260 0.000000 0.000000 
#    y 0.000000 1.622560 0.000000 
#    z 0.000000 0.000000 1.631290 
# 
# From -- ./inp_files/7909.got.cif
#   From: 2010.05.17/outbox.cif.g08.bks.cpg/sg51_4_cif.got.tgz:7909.got - 2010.06.03 11:52:47.
