data_PCOD9407096
_publ_section_title
;
Structure prediction by ZEFSAII (Michael W. Deem and Ramdas Pophale) SiO2 
 PCOD9407096
Probable space group: P M M A
;
_chemical_formula_sum "Si O2"
_cell_formula_units_Z 56
_cell_length_a 21.321358
_cell_length_b 8.579287
_cell_length_c 15.478513
_cell_angle_alpha 90.000000
_cell_angle_beta 90.000000
_cell_angle_gamma 90.000000
_cell_volume 2831.361321
_symmetry_space_group_name_H-M "P M M A"
_symmetry_group_IT_number 51
_symmetry_cell_setting 'orthorhombic'
loop_
_space_group_symop_operation_xyz
x,y,z
1/2-x,-y,z
1/2+x,-y,-z
-x,y,-z
-x,-y,-z
1/2+x,y,-z
1/2-x,y,z
x,-y,z
loop_
_atom_site_type_symbol
_atom_site_label
_atom_site_fract_x
_atom_site_fract_y
_atom_site_fract_z
Si Si1 0.819727 0.683166 0.024392
Si Si2 0.368162 0.823321 0.812187
Si Si3 0.998954 0.685265 0.222042
Si Si4 0.960449 0.309974 0.585699
Si Si5 0.442578 0.185234 0.063118
Si Si6 0.676696 0.327048 0.351459
Si Si7 0.820264 0.312446 0.555130
O O1 0.750000 0.733831 0.997756
O O2 0.826333 0.500000 0.006535
O O3 0.827744 0.712565 0.126751
O O4 0.876745 0.774130 0.981075
O O5 0.440157 0.775356 0.818134
O O6 0.352117 0.795937 0.712596
O O7 0.357577 0.000000 0.838845
O O8 0.988554 0.500000 0.219213
O O9 0.008886 0.730648 0.322091
O O10 0.053778 0.730566 0.155888
O O11 0.958800 0.500000 0.580969
O O12 0.887548 0.255374 0.589762
O O13 0.000000 0.259552 0.500000
O O14 0.448667 0.000000 0.074607
O O15 0.500000 0.237344 0.000000
O O16 0.750000 0.336368 0.331138
O O17 0.647913 0.500000 0.337935
O O18 0.672796 0.289875 0.452112
O O19 0.750000 0.253598 0.580734
O O20 0.818437 0.500000 0.569699
#
# Coordination Sequence:
#
# PCOD9407096 Si02
#       7
#     8   8   8   8   8   8   8
#     4  11  24  41  63  90 118 151 194 245 297 350
#     4  12  23  34  51  79 115 153 190 233 293 359
#     4  11  22  36  59  86 113 152 198 246 296 348
#     4   9  17  30  51  82 116 149 191 242 296 346
#     4  11  23  41  64  89 118 157 198 239 291 354
#     4   9  17  30  50  76 106 144 189 234 285 346
#     4   8  14  27  49  76 106 141 184 238 293 342
#
# _framework density 19.778471
#
# number of rings (size 3 to 8) (size 9 to 14) (size 15 to 20)
#    0.000    1.857    1.429    4.714    0.000    6.000 
#    0.000    0.714    0.000   10.286    0.000    0.000 
#    0.000    0.000    0.000    0.000    0.000    0.000 
#
# Total GULP energy -312338.411465 kJ/mol
# GULP energy per Si atom -5577.471633 kJ/mol
# Density = 1.973345 g / cm^3
# Si number density = 19.778471 Si / 1000 Ang^3
#
#
#
# Elastic Constant Matrix: (Units=GPa)
#
#
# Indices 1 2 3 4 5 6 
#
# 1 91.2993 -1.0536 22.4807 0.0000 0.0000 0.0000
# 2 -1.0536 14.4200 10.4545 0.0000 0.0000 0.0000
# 3 22.4807 10.4545 66.3802 0.0000 0.0000 0.0000
# 4 0.0000 0.0000 0.0000 1.4594 0.0000 0.0000
# 5 0.0000 0.0000 0.0000 0.0000 24.4147 0.0000
# 6 0.0000 0.0000 0.0000 0.0000 0.0000 -353.6021
#
#
#
# Elastic Compliance Matrix: (Units=1/GPa)
#
#
# Indices 1 2 3 4 5 6 
#
# 1 0.012190 0.004384 -0.004819 0.000000 0.000000 0.000000
# 2 0.004384 0.079864 -0.014063 0.000000 0.000000 0.000000
# 3 -0.004819 -0.014063 0.018912 0.000000 0.000000 0.000000
# 4 0.000000 0.000000 0.000000 0.685195 0.000000 0.000000
# 5 0.000000 0.000000 0.000000 0.000000 0.040959 0.000000
# 6 0.000000 0.000000 0.000000 0.000000 0.000000 -0.002828
#
#
# Mechanical properties :
#
#
# Convention : Reuss Voigt Hill
#
# Bulk Modulus (GPa) = 12.19945 26.20697 19.20321
# Shear Modulus (GPa) = 5.61412 -56.19774 -25.29181
#
# Velocity S-wave (km/s) = 1.68661 -5.33622 -3.57985
# Velocity P-wave (km/s) = 3.15821 4.96870 2.71235
#
# Compressibility (1/GPa) = 0.08197094
#
# Stress axis : x y z
#
# Youngs Moduli (GPa) = 82.03345 12.52125 52.87771
#
# Poissons Ratio (x) = -0.05490 0.25481
# Poissons Ratio (y) = -0.35967 0.74362
# Poissons Ratio (z) = 0.39531 0.17609
#
# Static dielectric constant tensor:
#      x y z
#    x 1.768480 0.000000 0.000000 
#    y 0.000000 1.699570 0.000000 
#    z 0.000000 0.000000 1.708950 
# 
# From -- ./inp_files/25684.got.cif
#   From: 2010.05.17/outbox.cif.g08.bks.cpg/sg51_13_cif.got.tgz:25684.got - 2010.06.03 11:52:47.
