data_PCOD9407901
_publ_section_title
;
Structure prediction by ZEFSAII (Michael W. Deem and Ramdas Pophale) SiO2 
 PCOD9407901
Probable space group: P N N A
;
_chemical_formula_sum "Si O2"
_cell_formula_units_Z 52
_cell_length_a 14.226521
_cell_length_b 10.984166
_cell_length_c 19.476788
_cell_angle_alpha 90.000000
_cell_angle_beta 90.000000
_cell_angle_gamma 90.000000
_cell_volume 3043.568874
_symmetry_space_group_name_H-M "P N N A"
_symmetry_group_IT_number 52
_symmetry_cell_setting 'orthorhombic'
loop_
_space_group_symop_operation_xyz
x,y,z
1/2-x,-y,z
x,1/2-y,1/2-z
1/2-x,1/2+y,1/2-z
-x,-y,-z
1/2+x,y,-z
-x,1/2+y,1/2+z
1/2+x,1/2-y,1/2+z
loop_
_atom_site_type_symbol
_atom_site_label
_atom_site_fract_x
_atom_site_fract_y
_atom_site_fract_z
Si Si1 0.979024 0.170423 0.685619
Si Si2 0.534897 0.697566 0.039377
Si Si3 0.632792 0.213832 0.866661
Si Si4 0.645467 0.445758 0.765404
Si Si5 0.908334 0.936717 0.426602
Si Si6 0.667693 0.763592 0.573876
Si Si7 0.750000 0.000000 0.518464
O O1 0.004178 0.250000 0.750000
O O2 0.905281 0.243469 0.636775
O O3 0.070364 0.129642 0.643629
O O4 0.925087 0.050272 0.711044
O O5 0.457284 0.769340 0.083527
O O6 0.577246 0.582431 0.081115
O O7 0.482527 0.625113 0.978165
O O8 0.615517 0.770876 0.997665
O O9 0.641563 0.337111 0.821127
O O10 0.622972 0.108305 0.809966
O O11 0.732070 0.204060 0.907606
O O12 0.750000 0.500000 0.763809
O O13 0.812542 0.919763 0.467683
O O14 0.689339 0.908569 0.563644
#
# Coordination Sequence:
#
# PCOD9407901 Si02
#       7
#     8   8   8   8   8   8   4
#     4  11  20  32  48  72 106 137 168 202 243 314
#     4   9  17  29  47  75 102 127 157 211 254 291
#     4  11  19  32  50  76 111 127 158 213 256 306
#     4  11  21  30  48  75 107 139 160 192 259 312
#     4   9  17  28  48  73 101 125 167 209 252 293
#     4  10  18  28  49  76 102 127 162 206 257 296
#     4  10  16  28  52  76 100 124 158 232 258 276
#
# _framework density 17.085205999999999
#
# number of rings (size 3 to 8) (size 9 to 14) (size 15 to 20)
#    0.000    1.846    4.615    2.769    0.000    0.000 
#    0.000    0.000    0.000   12.000    0.000    0.000 
#    0.000    0.000    0.000    0.000    0.000    0.000 
#
# Total GULP energy -289686.777477 kJ/mol
# GULP energy per Si atom -5570.899567 kJ/mol
# Density = 1.704632 g / cm^3
# Si number density = 17.085206 Si / 1000 Ang^3
#
#
#
# Elastic Constant Matrix: (Units=GPa)
#
#
# Indices 1 2 3 4 5 6 
#
# 1 37.9651 -8.6773 26.6431 0.0000 0.0000 0.0000
# 2 -8.6773 8.5927 9.2900 0.0000 0.0000 0.0000
# 3 26.6431 9.2900 90.3468 0.0000 0.0000 0.0000
# 4 0.0000 0.0000 0.0000 20.7102 0.0000 0.0000
# 5 0.0000 0.0000 0.0000 0.0000 24.6035 0.0000
# 6 0.0000 0.0000 0.0000 0.0000 0.0000 8.1016
#
#
#
# Elastic Compliance Matrix: (Units=1/GPa)
#
#
# Indices 1 2 3 4 5 6 
#
# 1 0.076679 0.114624 -0.034399 0.000000 0.000000 0.000000
# 2 0.114624 0.302282 -0.064885 0.000000 0.000000 0.000000
# 3 -0.034399 -0.064885 0.027884 0.000000 0.000000 0.000000
# 4 0.000000 0.000000 0.000000 0.048285 0.000000 0.000000
# 5 0.000000 0.000000 0.000000 0.000000 0.040645 0.000000
# 6 0.000000 0.000000 0.000000 0.000000 0.000000 0.123432
#
#
# Mechanical properties :
#
#
# Convention : Reuss Voigt Hill
#
# Bulk Modulus (GPa) = 2.28558 21.26847 11.77702
# Shear Modulus (GPa) = 6.80857 17.99299 12.40078
#
# Velocity S-wave (km/s) = 1.99843 3.24872 2.69703
# Velocity P-wave (km/s) = 2.58179 5.15245 4.07513
#
# Compressibility (1/GPa) = 0.43752656
#
# Stress axis : x y z
#
# Youngs Moduli (GPa) = 13.04142 3.30817 35.86226
#
# Poissons Ratio (x) = -0.37920 1.23362
# Poissons Ratio (y) = -1.49486 2.32692
# Poissons Ratio (z) = 0.44861 0.21465
#
# Static dielectric constant tensor:
#      x y z
#    x 1.616290 0.000000 0.000000 
#    y 0.000000 1.589740 0.000000 
#    z 0.000000 0.000000 1.604920 
# 
# From -- ./inp_files/33207.got.cif
#   From: 2010.05.17/outbox.cif.g08.bks.cpg/sg52_17_cif.got.tgz:33207.got - 2010.06.03 12:15:38.
