data_PCOD9407409
_publ_section_title
;
Structure prediction by ZEFSAII (Michael W. Deem and Ramdas Pophale) SiO2 
 PCOD9407409
Probable space group: P M M A
;
_chemical_formula_sum "Si O2"
_cell_formula_units_Z 56
_cell_length_a 21.000000
_cell_length_b 9.000000
_cell_length_c 15.000000
_cell_angle_alpha 90.000000
_cell_angle_beta 90.000000
_cell_angle_gamma 90.000000
_cell_volume 2835.000000
_symmetry_space_group_name_H-M "P M M A"
_symmetry_group_IT_number 51
_symmetry_cell_setting 'orthorhombic'
loop_
_space_group_symop_operation_xyz
x,y,z
1/2-x,-y,z
1/2+x,-y,-z
-x,y,-z
-x,-y,-z
1/2+x,y,-z
1/2-x,y,z
x,-y,z
loop_
_atom_site_type_symbol
_atom_site_label
_atom_site_fract_x
_atom_site_fract_y
_atom_site_fract_z
Si Si1 0.091517 0.323064 0.782977
Si Si2 0.469311 0.820598 0.304981
Si Si3 0.250000 0.340451 0.224132
Si Si4 0.250000 0.172800 0.391314
Si Si5 0.383404 0.819259 0.466848
Si Si6 0.388150 0.331159 0.150630
Si Si7 0.074077 0.169452 0.973464
Si Si8 0.324014 0.177520 0.649126
O O1 0.088386 0.500000 0.786460
O O2 0.083167 0.252700 0.880433
O O3 0.155959 0.266321 0.736379
O O4 0.034684 0.256162 0.722732
O O5 0.440952 0.774642 0.401784
O O6 0.420463 0.767109 0.228136
O O7 0.475923 0.000000 0.303179
O O8 0.250000 0.500000 0.275910
O O9 0.250000 0.198770 0.287023
O O10 0.313699 0.338627 0.168843
O O11 0.183050 0.235264 0.424207
O O12 0.250000 0.000000 0.417448
O O13 0.372847 0.779379 0.569669
O O14 0.384780 0.000000 0.464491
O O15 0.414781 0.500000 0.154110
O O16 0.396592 0.259194 0.054849
O O17 0.097865 0.000000 0.966924
O O18 0.000000 0.162632 0.000000
O O19 0.250000 0.203352 0.623070
O O20 0.330552 0.000000 0.663493
#
# Coordination Sequence:
#
# PCOD9407409 Si02
#       8
#     8   8   4   4   8   8   8   8
#     4  12  26  43  63  89 124 162 200 249 309 369
#     4  11  21  36  61  94 127 160 203 254 302 356
#     4  10  22  36  52  85 130 167 196 239 304 372
#     4  10  16  30  56  87 118 157 208 249 290 346
#     4   9  18  33  61  94 122 156 203 254 299 347
#     4  11  22  37  58  88 127 166 201 245 308 372
#     4  11  23  41  67  92 115 151 204 257 306 366
#     4  10  21  42  69  92 119 160 210 258 301 352
#
# _framework density 19.753086
#
# number of rings (size 3 to 8) (size 9 to 14) (size 15 to 20)
#    0.000    1.429    3.571    2.571    0.000    2.000 
#    1.286    5.000    0.000    0.000    0.000    0.000 
#    0.000    0.000    0.000    0.000    0.000    0.000 
#
# Total GULP energy -312414.648993 kJ/mol
# GULP energy per Si atom -5578.833018 kJ/mol
# Density = 1.970813 g / cm^3
# Si number density = 19.753086 Si / 1000 Ang^3
#
#
#
# Elastic Constant Matrix: (Units=GPa)
#
#
# Indices 1 2 3 4 5 6 
#
# 1 37.3205 10.6533 26.4168 0.0000 0.0000 0.0000
# 2 10.6533 77.0808 37.9688 0.0000 0.0000 0.0000
# 3 26.4168 37.9688 126.0404 0.0000 0.0000 0.0000
# 4 0.0000 0.0000 0.0000 31.1888 0.0000 0.0000
# 5 0.0000 0.0000 0.0000 0.0000 12.3818 0.0000
# 6 0.0000 0.0000 0.0000 0.0000 0.0000 -1.8009
#
#
#
# Elastic Compliance Matrix: (Units=1/GPa)
#
#
# Indices 1 2 3 4 5 6 
#
# 1 0.031573 -0.001296 -0.006227 0.000000 0.000000 0.000000
# 2 -0.001296 0.015287 -0.004333 0.000000 0.000000 0.000000
# 3 -0.006227 -0.004333 0.010544 0.000000 0.000000 0.000000
# 4 0.000000 0.000000 0.000000 0.032063 0.000000 0.000000
# 5 0.000000 0.000000 0.000000 0.000000 0.080763 0.000000
# 6 0.000000 0.000000 0.000000 0.000000 0.000000 -0.555280
#
#
# Mechanical properties :
#
#
# Convention : Reuss Voigt Hill
#
# Bulk Modulus (GPa) = 29.68158 43.39106 36.53632
# Shear Modulus (GPa) = -14.28140 19.38079 2.54970
#
# Velocity S-wave (km/s) = -2.69178 3.13573 1.13736
# Velocity P-wave (km/s) = 2.32337 5.92662 4.50127
#
# Compressibility (1/GPa) = 0.03369093
#
# Stress axis : x y z
#
# Youngs Moduli (GPa) = 31.67309 65.41437 94.83666
#
# Poissons Ratio (x) = 0.08480 0.59052
# Poissons Ratio (y) = 0.04106 0.41097
# Poissons Ratio (z) = 0.19722 0.28347
#
# Static dielectric constant tensor:
#      x y z
#    x 1.685030 0.000000 0.000000 
#    y 0.000000 1.697450 0.000000 
#    z 0.000000 0.000000 1.667570 
# 
# From -- ./inp_files/25919.got.cif
#   From: 2010.05.17/outbox.ucp.g08.bks.cvg/sg51_13_cif.got.tgz:25919.got - 2010.06.11 16:27:58.
