data_PCOD9407583
_publ_section_title
;
Structure prediction by ZEFSAII (Michael W. Deem and Ramdas Pophale) SiO2 
 PCOD9407583
Probable space group: P M M A
;
_chemical_formula_sum "Si O2"
_cell_formula_units_Z 56
_cell_length_a 9.000000
_cell_length_b 15.000000
_cell_length_c 21.000000
_cell_angle_alpha 90.000000
_cell_angle_beta 90.000000
_cell_angle_gamma 90.000000
_cell_volume 2835.000000
_symmetry_space_group_name_H-M "P M M A"
_symmetry_group_IT_number 51
_symmetry_cell_setting 'orthorhombic'
loop_
_space_group_symop_operation_xyz
x,y,z
1/2-x,-y,z
1/2+x,-y,-z
-x,y,-z
-x,-y,-z
1/2+x,y,-z
1/2-x,y,z
x,-y,z
loop_
_atom_site_type_symbol
_atom_site_label
_atom_site_fract_x
_atom_site_fract_y
_atom_site_fract_z
Si Si1 0.420672 0.341429 0.260790
Si Si2 0.073688 0.768945 0.934876
Si Si3 0.076005 0.598041 0.401940
Si Si4 0.076712 0.601408 0.117294
Si Si5 0.426239 0.165036 0.700416
Si Si6 0.931048 0.904544 0.170611
Si Si7 0.428124 0.216421 0.564544
O O1 0.250000 0.306098 0.259497
O O2 0.430432 0.399397 0.324785
O O3 0.446464 0.388413 0.193569
O O4 0.536839 0.262580 0.271896
O O5 0.250000 0.777404 0.939309
O O6 0.017308 0.825991 0.874723
O O7 0.026730 0.668505 0.920154
O O8 0.000000 0.799737 0.000000
O O9 0.250000 0.611199 0.419361
O O10 0.027603 0.500000 0.423537
O O11 0.981137 0.681096 0.426355
O O12 0.250000 0.623877 0.105170
O O13 0.050937 0.500000 0.099028
O O14 0.250000 0.151510 0.695655
O O15 0.484330 0.102955 0.756661
O O16 0.482532 0.165023 0.628135
O O17 0.750000 0.899429 0.172830
O O18 0.972015 0.000000 0.143192
O O19 0.500000 0.181676 0.500000
O O20 0.250000 0.213574 0.561291
#
# Coordination Sequence:
#
# PCOD9407583 Si02
#       7
#     8   8   8   8   8   8   8
#     4   9  16  28  49  75 104 137 174 219 271 320
#     4  11  23  39  59  82 113 149 184 225 273 323
#     4   9  17  29  45  67  97 133 174 220 269 319
#     4  10  20  34  54  80 111 148 189 229 271 321
#     4   9  17  32  54  79 105 135 175 220 264 316
#     4   9  18  35  61  89 113 139 175 220 273 332
#     4  10  20  32  48  70  99 136 177 218 264 318
#
# _framework density 19.753086
#
# number of rings (size 3 to 8) (size 9 to 14) (size 15 to 20)
#    0.000    2.429    1.429    1.286    0.000    3.714 
#    0.000    0.000    0.000    6.429    0.000    0.000 
#    0.000    0.000    0.000    0.000    0.000    0.429 
#
# Total GULP energy -312070.267508 kJ/mol
# GULP energy per Si atom -5572.683348 kJ/mol
# Density = 1.970813 g / cm^3
# Si number density = 19.753086 Si / 1000 Ang^3
#
#
#
# Elastic Constant Matrix: (Units=GPa)
#
#
# Indices 1 2 3 4 5 6 
#
# 1 15.1802 11.1190 31.0956 0.0000 0.0000 0.0000
# 2 11.1190 30.8171 29.8520 0.0000 0.0000 0.0000
# 3 31.0956 29.8520 117.7302 0.0000 0.0000 0.0000
# 4 0.0000 0.0000 0.0000 -10.2475 0.0000 0.0000
# 5 0.0000 0.0000 0.0000 0.0000 24.7190 0.0000
# 6 0.0000 0.0000 0.0000 0.0000 0.0000 -148.9341
#
#
#
# Elastic Compliance Matrix: (Units=1/GPa)
#
#
# Indices 1 2 3 4 5 6 
#
# 1 0.153444 -0.021347 -0.035116 0.000000 0.000000 0.000000
# 2 -0.021347 0.045985 -0.006022 0.000000 0.000000 0.000000
# 3 -0.035116 -0.006022 0.019296 0.000000 0.000000 0.000000
# 4 0.000000 0.000000 0.000000 -0.097584 0.000000 0.000000
# 5 0.000000 0.000000 0.000000 0.000000 0.040455 0.000000
# 6 0.000000 0.000000 0.000000 0.000000 0.000000 -0.006714
#
#
# Mechanical properties :
#
#
# Convention : Reuss Voigt Hill
#
# Bulk Modulus (GPa) = 10.66609 34.20673 22.43641
# Shear Modulus (GPa) = 16.07196 -20.78180 -2.35492
#
# Velocity S-wave (km/s) = 2.85554 -3.24709 -1.09305
# Velocity P-wave (km/s) = 4.03529 1.81565 3.12891
#
# Compressibility (1/GPa) = 0.09375504
#
# Stress axis : x y z
#
# Youngs Moduli (GPa) = 6.51705 21.74637 51.82486
#
# Poissons Ratio (x) = 0.46423 1.81986
# Poissons Ratio (y) = 0.13912 0.31207
# Poissons Ratio (z) = 0.22885 0.13095
#
# Static dielectric constant tensor:
#      x y z
#    x 1.670720 0.000000 0.000000 
#    y 0.000000 1.695850 0.000000 
#    z 0.000000 0.000000 1.730810 
# 
# From -- ./inp_files/31926.got.cif
#   From: 2010.05.17/outbox.ucp.g08.bks.cvg/sg51_16_cif.got.tgz:31926.got - 2010.06.11 16:27:58.
