data_PCOD9407502
_publ_section_title
;
Structure prediction by ZEFSAII (Michael W. Deem and Ramdas Pophale) SiO2 
 PCOD9407502
Probable space group: P M M A
;
_chemical_formula_sum "Si O2"
_cell_formula_units_Z 64
_cell_length_a 24.000000
_cell_length_b 15.000000
_cell_length_c 9.000000
_cell_angle_alpha 90.000000
_cell_angle_beta 90.000000
_cell_angle_gamma 90.000000
_cell_volume 3240.000000
_symmetry_space_group_name_H-M "P M M A"
_symmetry_group_IT_number 51
_symmetry_cell_setting 'orthorhombic'
loop_
_space_group_symop_operation_xyz
x,y,z
1/2-x,-y,z
1/2+x,-y,-z
-x,y,-z
-x,-y,-z
1/2+x,y,-z
1/2-x,y,z
x,-y,z
loop_
_atom_site_type_symbol
_atom_site_label
_atom_site_fract_x
_atom_site_fract_y
_atom_site_fract_z
Si Si1 0.421930 0.707719 0.866323
Si Si2 0.816389 0.399489 0.613352
Si Si3 0.136587 0.097315 0.567338
Si Si4 0.036418 0.899671 0.794681
Si Si5 0.185377 0.278221 0.669672
Si Si6 0.596245 0.098486 0.768917
Si Si7 0.609021 0.701773 0.818085
Si Si8 0.511907 0.396768 0.674025
O O1 0.447411 0.808475 0.878862
O O2 0.360080 0.711822 0.798201
O O3 0.461145 0.648199 0.763010
O O4 0.415944 0.667129 0.028547
O O5 0.750000 0.404785 0.615352
O O6 0.839758 0.500000 0.610200
O O7 0.830573 0.344848 0.464470
O O8 0.836513 0.346015 0.757340
O O9 0.077562 0.105350 0.653654
O O10 0.176192 0.177968 0.610524
O O11 0.122025 0.099895 0.394911
O O12 0.160080 0.000000 0.605829
O O13 0.970993 0.896150 0.759771
O O14 0.045856 0.000000 0.861297
O O15 0.250000 0.292974 0.710512
O O16 0.616205 0.192046 0.836777
O O17 0.610085 0.000000 0.834192
O O18 0.563265 0.670772 0.698570
O O19 0.500000 0.398693 0.500000
O O20 0.522119 0.500000 0.721495
#
# Coordination Sequence:
#
# PCOD9407502 Si02
#       8
#     8   8   8   8   8   8   8   8
#     4  11  24  37  58  88 123 158 193 242 296 353
#     4  10  22  42  66  87 110 148 198 249 299 352
#     4   9  17  31  54  86 116 150 196 246 291 333
#     4   9  18  32  52  81 120 162 198 232 279 342
#     4  10  21  39  62  86 113 151 198 247 293 350
#     4  10  19  31  54  86 122 158 194 235 285 344
#     4  12  23  38  60  90 124 157 193 239 297 355
#     4  11  25  42  62  86 116 157 199 242 295 353
#
# _framework density 19.753086
#
# number of rings (size 3 to 8) (size 9 to 14) (size 15 to 20)
#    0.000    1.750    2.500    1.875    1.750    5.750 
#    0.000    1.250    0.000    1.875    0.000    1.750 
#    0.000    0.000    0.000    0.000    0.000    0.000 
#
# Total GULP energy -356974.511271 kJ/mol
# GULP energy per Si atom -5577.726739 kJ/mol
# Density = 1.970813 g / cm^3
# Si number density = 19.753086 Si / 1000 Ang^3
#
#
#
# Elastic Constant Matrix: (Units=GPa)
#
#
# Indices 1 2 3 4 5 6 
#
# 1 47.2497 13.9879 0.7810 0.0000 0.0000 0.0000
# 2 13.9879 123.7292 14.7305 0.0000 0.0000 0.0000
# 3 0.7810 14.7305 42.0207 0.0000 0.0000 0.0000
# 4 0.0000 0.0000 0.0000 -20.7915 0.0000 0.0000
# 5 0.0000 0.0000 0.0000 0.0000 23.4628 0.0000
# 6 0.0000 0.0000 0.0000 0.0000 0.0000 25.8211
#
#
#
# Elastic Compliance Matrix: (Units=1/GPa)
#
#
# Indices 1 2 3 4 5 6 
#
# 1 0.021906 -0.002534 0.000481 0.000000 0.000000 0.000000
# 2 -0.002534 0.008727 -0.003012 0.000000 0.000000 0.000000
# 3 0.000481 -0.003012 0.024845 0.000000 0.000000 0.000000
# 4 0.000000 0.000000 0.000000 -0.048097 0.000000 0.000000
# 5 0.000000 0.000000 0.000000 0.000000 0.042621 0.000000
# 6 0.000000 0.000000 0.000000 0.000000 0.000000 0.038728
#
#
# Mechanical properties :
#
#
# Convention : Reuss Voigt Hill
#
# Bulk Modulus (GPa) = 22.05153 30.22204 26.13679
# Shear Modulus (GPa) = 43.86866 17.93183 30.90025
#
# Velocity S-wave (km/s) = 4.71770 3.01624 3.95945
# Velocity P-wave (km/s) = 6.39245 5.24055 5.84495
#
# Compressibility (1/GPa) = 0.04534832
#
# Stress axis : x y z
#
# Youngs Moduli (GPa) = 45.64888 114.58368 40.24988
#
# Poissons Ratio (x) = 0.29034 -0.01936
# Poissons Ratio (y) = 0.11567 0.12124
# Poissons Ratio (z) = -0.02196 0.34516
#
# Static dielectric constant tensor:
#      x y z
#    x 1.680560 0.000000 0.000000 
#    y 0.000000 1.829930 0.000000 
#    z 0.000000 0.000000 1.697850 
# 
# From -- ./inp_files/11915.got.cif
#   From: 2010.05.17/outbox.ucp.g08.bks.cvg/sg51_6_cif.got.tgz:11915.got - 2010.06.11 16:27:58.
