data_PCOD9407753
_publ_section_title
;
Structure prediction by ZEFSAII (Michael W. Deem and Ramdas Pophale) SiO2 
 PCOD9407753
Probable space group: P M M A
;
_chemical_formula_sum "Si O2"
_cell_formula_units_Z 64
_cell_length_a 30.000000
_cell_length_b 9.000000
_cell_length_c 12.000000
_cell_angle_alpha 90.000000
_cell_angle_beta 90.000000
_cell_angle_gamma 90.000000
_cell_volume 3240.000000
_symmetry_space_group_name_H-M "P M M A"
_symmetry_group_IT_number 51
_symmetry_cell_setting 'orthorhombic'
loop_
_space_group_symop_operation_xyz
x,y,z
1/2-x,-y,z
1/2+x,-y,-z
-x,y,-z
-x,-y,-z
1/2+x,y,-z
1/2-x,y,z
x,-y,z
loop_
_atom_site_type_symbol
_atom_site_label
_atom_site_fract_x
_atom_site_fract_y
_atom_site_fract_z
Si Si1 0.803680 0.667652 0.805647
Si Si2 0.384835 0.172861 0.853626
Si Si3 0.385518 0.672657 0.471086
Si Si4 0.047636 0.826557 0.055579
Si Si5 0.549705 0.322104 0.712372
Si Si6 0.698533 0.679437 0.053348
Si Si7 0.550750 0.327140 0.320542
Si Si8 0.699316 0.176666 0.572898
O O1 0.750000 0.655021 0.812253
O O2 0.821895 0.500000 0.790739
O O3 0.811915 0.766180 0.697776
O O4 0.815891 0.726934 0.927714
O O5 0.338183 0.258251 0.863282
O O6 0.418330 0.236104 0.762180
O O7 0.376158 0.000000 0.834266
O O8 0.412939 0.189211 0.967393
O O9 0.373007 0.500000 0.455233
O O10 0.409933 0.736485 0.362131
O O11 0.424193 0.677749 0.562511
O O12 0.340443 0.758138 0.500957
O O13 0.055548 0.724911 0.161274
O O14 0.044763 0.000000 0.089682
O O15 0.000000 0.788499 0.000000
O O16 0.550680 0.500000 0.699152
O O17 0.500151 0.272604 0.675513
O O18 0.750000 0.725633 0.073730
O O19 0.697915 0.500000 0.053352
O O20 0.549373 0.500000 0.283478
O O21 0.750000 0.227797 0.546560
O O22 0.699009 0.000000 0.569730
#
# Coordination Sequence:
#
# PCOD9407753 Si02
#       8
#     8   8   8   8   8   8   8   8
#     4   8  15  30  52  76 105 142 181 225 277 330
#     4  11  23  37  57  84 118 157 194 235 282 338
#     4  10  22  39  60  87 114 145 189 239 290 342
#     4  10  21  38  56  81 120 157 186 224 277 340
#     4  10  21  37  61  89 115 145 187 239 288 339
#     4   9  19  36  57  82 113 150 194 241 287 339
#     4  10  21  40  62  83 112 150 192 239 289 339
#     4  10  21  36  54  80 114 149 187 232 280 334
#
# _framework density 19.753086
#
# number of rings (size 3 to 8) (size 9 to 14) (size 15 to 20)
#    0.000    2.250    1.250    1.875    1.750    5.250 
#    0.000    1.875    0.000    3.000    0.000    0.000 
#    0.000    0.000    0.000    0.000    0.000    0.000 
#
# Total GULP energy -356997.786759 kJ/mol
# GULP energy per Si atom -5578.090418 kJ/mol
# Density = 1.970813 g / cm^3
# Si number density = 19.753086 Si / 1000 Ang^3
#
#
#
# Elastic Constant Matrix: (Units=GPa)
#
#
# Indices 1 2 3 4 5 6 
#
# 1 14.1565 12.6401 -1.8591 0.0000 0.0000 0.0000
# 2 12.6401 13.7611 6.5240 0.0000 0.0000 0.0000
# 3 -1.8591 6.5240 12.3149 0.0000 0.0000 0.0000
# 4 0.0000 0.0000 0.0000 61.4687 0.0000 0.0000
# 5 0.0000 0.0000 0.0000 0.0000 -33.3061 0.0000
# 6 0.0000 0.0000 0.0000 0.0000 0.0000 -97.4537
#
#
#
# Elastic Compliance Matrix: (Units=1/GPa)
#
#
# Indices 1 2 3 4 5 6 
#
# 1 -0.241613 0.319456 -0.205711 0.000000 0.000000 0.000000
# 2 0.319456 -0.325338 0.220578 0.000000 0.000000 0.000000
# 3 -0.205711 0.220578 -0.066706 0.000000 0.000000 0.000000
# 4 0.000000 0.000000 0.000000 0.016268 0.000000 0.000000
# 5 0.000000 0.000000 0.000000 0.000000 -0.030024 0.000000
# 6 0.000000 0.000000 0.000000 0.000000 0.000000 -0.010261
#
#
# Mechanical properties :
#
#
# Convention : Reuss Voigt Hill
#
# Bulk Modulus (GPa) = 28.57981 8.31583 18.44782
# Shear Modulus (GPa) = -3.80327 -12.32974 -8.06651
#
# Velocity S-wave (km/s) = -1.38910 -2.50110 -2.02300
# Velocity P-wave (km/s) = 3.45357 2.03018 1.97554
#
# Compressibility (1/GPa) = 0.03498974
#
# Stress axis : x y z
#
# Youngs Moduli (GPa) = -4.13885 -3.07373 -14.99109
#
# Poissons Ratio (x) = 0.98192 -3.08383
# Poissons Ratio (y) = 1.32218 3.30671
# Poissons Ratio (z) = -0.85141 0.67800
#
# Static dielectric constant tensor:
#      x y z
#    x 1.697920 0.000000 0.000000 
#    y 0.000000 1.692510 0.000000 
#    z 0.000000 0.000000 1.727990 
# 
# From -- ./inp_files/19454.got.cif
#   From: 2010.05.17/outbox.ucp.g08.bks.cvg/sg51_10_cif.got.tgz:19454.got - 2010.06.11 16:27:58.
