data_PCOD9407157
_publ_section_title
;
Structure prediction by ZEFSAII (Michael W. Deem and Ramdas Pophale) SiO2 
 PCOD9407157
Probable space group: P M M A
;
_chemical_formula_sum "Si O2"
_cell_formula_units_Z 32
_cell_length_a 27.104096
_cell_length_b 10.994866
_cell_length_c 5.104020
_cell_angle_alpha 90.000000
_cell_angle_beta 90.000000
_cell_angle_gamma 90.000000
_cell_volume 1521.028092
_symmetry_space_group_name_H-M "P M M A"
_symmetry_group_IT_number 51
_symmetry_cell_setting 'orthorhombic'
loop_
_space_group_symop_operation_xyz
x,y,z
1/2-x,-y,z
1/2+x,-y,-z
-x,y,-z
-x,-y,-z
1/2+x,y,-z
1/2-x,y,z
x,-y,z
loop_
_atom_site_type_symbol
_atom_site_label
_atom_site_fract_x
_atom_site_fract_y
_atom_site_fract_z
Si Si1 0.808133 0.144758 0.821469
Si Si2 0.367622 0.774767 0.691721
Si Si3 0.557111 0.364733 0.595414
Si Si4 0.057517 0.871295 0.056607
O O1 0.750000 0.167131 0.790492
O O2 0.837043 0.178930 0.557175
O O3 0.814240 0.000000 0.877811
O O4 0.830641 0.221953 0.061495
O O5 0.399810 0.655232 0.620112
O O6 0.411275 0.862997 0.791564
O O7 0.500000 0.352850 0.500000
O O8 0.561190 0.500000 0.710236
O O9 0.566714 0.251932 0.786445
O O10 0.069873 0.000000 0.190170
O O11 0.000000 0.871625 0.000000
#
# Coordination Sequence:
#
# PCOD9407157 Si02
#       4
#     8   8   8   8
#     4  11  24  42  67 100 137 176 225 287 351 411
#     4  12  23  41  67 100 134 178 227 276 341 401
#     4  11  25  44  66  98 141 190 236 275 329 414
#     4  11  23  38  63 102 143 181 224 281 344 409
#
# _framework density 21.038404
#
# number of rings (size 3 to 8) (size 9 to 14) (size 15 to 20)
#    0.000    0.750    5.000    3.000    0.000    6.000 
#    0.000    0.000    0.000    4.500    0.000    0.000 
#    0.000    0.000    0.000    0.000    0.000    0.000 
#
# Total GULP energy -178563.465514 kJ/mol
# GULP energy per Si atom -5580.108297 kJ/mol
# Density = 2.099052 g / cm^3
# Si number density = 21.038404 Si / 1000 Ang^3
#
#
#
# Elastic Constant Matrix: (Units=GPa)
#
#
# Indices 1 2 3 4 5 6 
#
# 1 192.2872 33.9988 57.4501 0.0000 0.0000 0.0000
# 2 33.9988 155.3631 53.9952 0.0000 0.0000 0.0000
# 3 57.4501 53.9952 122.6239 0.0000 0.0000 0.0000
# 4 0.0000 0.0000 0.0000 40.3190 0.0000 0.0000
# 5 0.0000 0.0000 0.0000 0.0000 32.7627 0.0000
# 6 0.0000 0.0000 0.0000 0.0000 0.0000 15.3350
#
#
#
# Elastic Compliance Matrix: (Units=1/GPa)
#
#
# Indices 1 2 3 4 5 6 
#
# 1 0.006068 -0.000401 -0.002666 0.000000 0.000000 0.000000
# 2 -0.000401 0.007626 -0.003170 0.000000 0.000000 0.000000
# 3 -0.002666 -0.003170 0.010800 0.000000 0.000000 0.000000
# 4 0.000000 0.000000 0.000000 0.024802 0.000000 0.000000
# 5 0.000000 0.000000 0.000000 0.000000 0.030523 0.000000
# 6 0.000000 0.000000 0.000000 0.000000 0.000000 0.065210
#
#
# Mechanical properties :
#
#
# Convention : Reuss Voigt Hill
#
# Bulk Modulus (GPa) = 83.20063 84.57359 83.88711
# Shear Modulus (GPa) = 30.95770 39.33868 35.14819
#
# Velocity S-wave (km/s) = 3.84016 4.32887 4.09181
# Velocity P-wave (km/s) = 7.70034 8.07913 7.89201
#
# Compressibility (1/GPa) = 0.01201914
#
# Stress axis : x y z
#
# Youngs Moduli (GPa) = 164.79594 131.12944 92.59237
#
# Poissons Ratio (x) = 0.05262 0.24688
# Poissons Ratio (y) = 0.06613 0.29352
# Poissons Ratio (z) = 0.43939 0.41568
#
# Static dielectric constant tensor:
#      x y z
#    x 1.766810 0.000000 0.000000 
#    y 0.000000 1.761810 0.000000 
#    z 0.000000 0.000000 1.849470 
# 
# From -- ./inp_files/3361.got.cif
#   From: 2010.05.17/outbox.cif.g08.bks.cpg/sg51_2_cif.got.tgz:3361.got - 2010.06.03 11:52:47.
