data_PCOD9407112
_publ_section_title
;
Structure prediction by ZEFSAII (Michael W. Deem and Ramdas Pophale) SiO2 
 PCOD9407112
Probable space group: P M M A
;
_chemical_formula_sum "Si O2"
_cell_formula_units_Z 64
_cell_length_a 15.056585
_cell_length_b 15.198078
_cell_length_c 12.517246
_cell_angle_alpha 90.000000
_cell_angle_beta 90.000000
_cell_angle_gamma 90.000000
_cell_volume 2864.335838
_symmetry_space_group_name_H-M "P M M A"
_symmetry_group_IT_number 51
_symmetry_cell_setting 'orthorhombic'
loop_
_space_group_symop_operation_xyz
x,y,z
1/2-x,-y,z
1/2+x,-y,-z
-x,y,-z
-x,-y,-z
1/2+x,y,-z
1/2-x,y,z
x,-y,z
loop_
_atom_site_type_symbol
_atom_site_label
_atom_site_fract_x
_atom_site_fract_y
_atom_site_fract_z
Si Si1 0.641096 0.402350 0.846908
Si Si2 0.093835 0.100452 0.867042
Si Si3 0.349961 0.772688 0.052756
Si Si4 0.146006 0.210302 0.665097
Si Si5 0.646235 0.158435 0.560069
Si Si6 0.641005 0.595012 0.371714
Si Si7 0.895154 0.905742 0.780144
Si Si8 0.146397 0.634982 0.390722
O O1 0.750000 0.394474 0.844315
O O2 0.619414 0.500000 0.885525
O O3 0.609045 0.322003 0.920313
O O4 0.609052 0.391992 0.724096
O O5 0.138962 0.150986 0.768781
O O6 0.992146 0.095275 0.831322
O O7 0.125859 0.000000 0.884963
O O8 0.104647 0.162119 0.969469
O O9 0.250000 0.759249 0.011568
O O10 0.346560 0.824364 0.165204
O O11 0.250000 0.221479 0.638405
O O12 0.108581 0.161223 0.560097
O O13 0.110954 0.310764 0.676913
O O14 0.750000 0.129754 0.559536
O O15 0.599458 0.105191 0.653326
O O16 0.642893 0.260131 0.596625
O O17 0.750000 0.594994 0.368199
O O18 0.612498 0.500000 0.326229
O O19 0.612326 0.598842 0.496405
O O20 0.853484 0.000000 0.806008
O O21 0.250000 0.608256 0.388105
#
# Coordination Sequence:
#
# PCOD9407112 Si02
#       8
#     8   8   8   8   8   8   8   8
#     4   9  16  27  49  83 116 141 170 215 272 328
#     4  11  25  42  57  75 105 152 198 227 268 338
#     4  11  22  38  61  86 111 139 181 234 280 322
#     4   9  19  35  56  82 112 146 188 231 270 319
#     4   9  17  32  55  87 118 140 173 226 279 322
#     4   8  13  23  45  79 113 142 175 219 271 322
#     4  11  23  38  58  83 110 142 181 230 289 341
#     4   8  12  22  43  76 114 144 169 206 262 323
#
# _framework density 22.343748999999999
#
# number of rings (size 3 to 8) (size 9 to 14) (size 15 to 20)
#    0.000    2.500    1.250    3.375    0.000    6.000 
#    0.000    3.125    0.000    5.250    0.000    1.750 
#    0.000    0.000    0.000    0.000    0.000    0.000 
#
# Total GULP energy -357044.357951 kJ/mol
# GULP energy per Si atom -5578.818093 kJ/mol
# Density = 2.229289 g / cm^3
# Si number density = 22.343749 Si / 1000 Ang^3
#
#
#
# Elastic Constant Matrix: (Units=GPa)
#
#
# Indices 1 2 3 4 5 6 
#
# 1 24.5835 2.0269 -7.7995 0.0000 0.0000 0.0000
# 2 2.0269 146.5156 49.6592 0.0000 0.0000 0.0000
# 3 -7.7995 49.6592 82.1137 0.0000 0.0000 0.0000
# 4 0.0000 0.0000 0.0000 33.2357 0.0000 0.0000
# 5 0.0000 0.0000 0.0000 0.0000 30.9779 0.0000
# 6 0.0000 0.0000 0.0000 0.0000 0.0000 8.8998
#
#
#
# Elastic Compliance Matrix: (Units=1/GPa)
#
#
# Indices 1 2 3 4 5 6 
#
# 1 0.042640 -0.002469 0.005543 0.000000 0.000000 0.000000
# 2 -0.002469 0.008728 -0.005513 0.000000 0.000000 0.000000
# 3 0.005543 -0.005513 0.016039 0.000000 0.000000 0.000000
# 4 0.000000 0.000000 0.000000 0.030088 0.000000 0.000000
# 5 0.000000 0.000000 0.000000 0.000000 0.032281 0.000000
# 6 0.000000 0.000000 0.000000 0.000000 0.000000 0.112362
#
#
# Mechanical properties :
#
#
# Convention : Reuss Voigt Hill
#
# Bulk Modulus (GPa) = 15.99241 37.88734 26.93987
# Shear Modulus (GPa) = 18.66662 28.57774 23.62218
#
# Velocity S-wave (km/s) = 2.89351 3.58020 3.25501
# Velocity P-wave (km/s) = 4.28208 5.83813 5.11957
#
# Compressibility (1/GPa) = 0.06252965
#
# Stress axis : x y z
#
# Youngs Moduli (GPa) = 23.45226 114.57614 62.34945
#
# Poissons Ratio (x) = 0.28284 -0.34560
# Poissons Ratio (y) = 0.05789 0.34372
# Poissons Ratio (z) = -0.13000 0.63163
#
# Static dielectric constant tensor:
#      x y z
#    x 1.886530 0.000000 0.000000 
#    y 0.000000 1.848440 0.000000 
#    z 0.000000 0.000000 1.831520 
# 
# From -- ./inp_files/17549.got.cif
#   From: 2010.05.17/outbox.cif.g08.bks.cpg/sg51_9_cif.got.tgz:17549.got - 2010.06.03 11:52:47.
