data_PCOD9407994
_publ_section_title
;
Structure prediction by ZEFSAII (Michael W. Deem and Ramdas Pophale) SiO2 
 PCOD9407994
Probable space group: P N N A
;
_chemical_formula_sum "Si O2"
_cell_formula_units_Z 64
_cell_length_a 14.908782
_cell_length_b 21.614868
_cell_length_c 9.152270
_cell_angle_alpha 90.000000
_cell_angle_beta 90.000000
_cell_angle_gamma 90.000000
_cell_volume 2949.331409
_symmetry_space_group_name_H-M "P N N A"
_symmetry_group_IT_number 52
_symmetry_cell_setting 'orthorhombic'
loop_
_space_group_symop_operation_xyz
x,y,z
1/2-x,-y,z
x,1/2-y,1/2-z
1/2-x,1/2+y,1/2-z
-x,-y,-z
1/2+x,y,-z
-x,1/2+y,1/2+z
1/2+x,1/2-y,1/2+z
loop_
_atom_site_type_symbol
_atom_site_label
_atom_site_fract_x
_atom_site_fract_y
_atom_site_fract_z
Si Si1 0.156754 0.251573 0.924046
Si Si2 0.365586 0.115126 0.411838
Si Si3 0.140676 0.497514 0.902898
Si Si4 0.350901 0.629126 0.413769
Si Si5 0.645816 0.376677 0.917010
Si Si6 0.649497 0.750083 0.573273
Si Si7 0.359806 0.118802 0.085481
Si Si8 0.903519 0.996216 0.070915
O O1 0.146977 0.250000 0.750000
O O2 0.118314 0.189140 0.996741
O O3 0.121181 0.314944 0.994793
O O4 0.262124 0.251890 0.971920
O O5 0.255814 0.119330 0.413928
O O6 0.398402 0.184104 0.449515
O O7 0.393678 0.099410 0.245800
O O8 0.389841 0.060822 0.521121
O O9 0.250000 0.500000 0.889204
O O10 0.100664 0.490251 0.743296
O O11 0.116928 0.438977 0.002579
O O12 0.387919 0.626105 0.249452
O O13 0.244185 0.635870 0.395527
O O14 0.362542 0.565000 0.498475
O O15 0.671162 0.750000 0.750000
O O16 0.599237 0.685385 0.542776
O O17 0.362014 0.062117 0.975208
O O18 0.000000 0.000000 0.000000
#
# Coordination Sequence:
#
# PCOD9407994 Si02
#       8
#     8   8   8   8   8   8   8   8
#     4  10  17  26  48  84 116 135 161 210 262 307
#     4   8  15  29  53  84 109 129 168 218 258 305
#     4  10  19  33  55  82 109 135 172 220 263 309
#     4  10  19  35  57  76 102 141 179 214 259 317
#     4   9  17  31  54  84 109 133 171 217 260 307
#     4   8  15  28  49  79 110 136 167 211 260 311
#     4   9  17  33  56  77 100 139 177 208 258 319
#     4  12  25  37  49  72 107 140 175 222 270 315
#
# _framework density 21.699833999999999
#
# number of rings (size 3 to 8) (size 9 to 14) (size 15 to 20)
#    0.000    2.500    0.000    5.250    0.000    7.000 
#    0.000    2.500    0.000    9.750    0.000    0.000 
#    0.000    0.000    0.000    0.000    0.000    0.000 
#
# Total GULP energy -357168.787085 kJ/mol
# GULP energy per Si atom -5580.762298 kJ/mol
# Density = 2.165044 g / cm^3
# Si number density = 21.699834 Si / 1000 Ang^3
#
#
#
# Elastic Constant Matrix: (Units=GPa)
#
#
# Indices 1 2 3 4 5 6 
#
# 1 39.9482 6.7141 9.2331 0.0000 0.0000 0.0000
# 2 6.7141 217.8443 120.1365 0.0000 0.0000 0.0000
# 3 9.2331 120.1365 188.8782 0.0000 0.0000 0.0000
# 4 0.0000 0.0000 0.0000 -10.8314 0.0000 0.0000
# 5 0.0000 0.0000 0.0000 0.0000 -3.9362 0.0000
# 6 0.0000 0.0000 0.0000 0.0000 0.0000 -32.4221
#
#
#
# Elastic Compliance Matrix: (Units=1/GPa)
#
#
# Indices 1 2 3 4 5 6 
#
# 1 0.025322 -0.000151 -0.001142 0.000000 0.000000 0.000000
# 2 -0.000151 0.007071 -0.004490 0.000000 0.000000 0.000000
# 3 -0.001142 -0.004490 0.008206 0.000000 0.000000 0.000000
# 4 0.000000 0.000000 0.000000 -0.092324 0.000000 0.000000
# 5 0.000000 0.000000 0.000000 0.000000 -0.254049 0.000000
# 6 0.000000 0.000000 0.000000 0.000000 0.000000 -0.030843
#
#
# Mechanical properties :
#
#
# Convention : Reuss Voigt Hill
#
# Bulk Modulus (GPa) = 34.44315 79.87092 57.15703
# Shear Modulus (GPa) = -15.85426 11.26783 -2.29322
#
# Velocity S-wave (km/s) = -2.70592 2.28120 -1.02912
# Velocity P-wave (km/s) = 2.47877 6.62009 4.99849
#
# Compressibility (1/GPa) = 0.02903335
#
# Stress axis : x y z
#
# Youngs Moduli (GPa) = 39.49183 141.41313 121.85579
#
# Poissons Ratio (x) = 0.02130 0.13916
# Poissons Ratio (y) = 0.00595 0.54719
# Poissons Ratio (z) = 0.04510 0.63501
#
# Static dielectric constant tensor:
#      x y z
#    x 1.634130 0.000000 0.000000 
#    y 0.000000 2.088550 0.000000 
#    z 0.000000 0.000000 1.737790 
# 
# From -- ./inp_files/12600.got.cif
#   From: 2010.05.17/outbox.cif.g08.bks.cpg/sg52_7_cif.got.tgz:12600.got - 2010.06.03 12:15:38.
