data_PCOD9407318
_publ_section_title
;
Structure prediction by ZEFSAII (Michael W. Deem and Ramdas Pophale) SiO2 
 PCOD9407318
Probable space group: P M M A
;
_chemical_formula_sum "Si O2"
_cell_formula_units_Z 64
_cell_length_a 9.457365
_cell_length_b 14.776775
_cell_length_c 21.672341
_cell_angle_alpha 90.000000
_cell_angle_beta 90.000000
_cell_angle_gamma 90.000000
_cell_volume 3028.695670
_symmetry_space_group_name_H-M "P M M A"
_symmetry_group_IT_number 51
_symmetry_cell_setting 'orthorhombic'
loop_
_space_group_symop_operation_xyz
x,y,z
1/2-x,-y,z
1/2+x,-y,-z
-x,y,-z
-x,-y,-z
1/2+x,y,-z
1/2-x,y,z
x,-y,z
loop_
_atom_site_type_symbol
_atom_site_label
_atom_site_fract_x
_atom_site_fract_y
_atom_site_fract_z
Si Si1 0.412999 0.610715 0.561208
Si Si2 0.585624 0.110598 0.558409
Si Si3 0.912000 0.141227 0.059793
Si Si4 0.089204 0.639755 0.178698
Si Si5 0.587257 0.362494 0.060740
Si Si6 0.413427 0.108358 0.309092
Si Si7 0.588350 0.608455 0.680667
Si Si8 0.088613 0.854493 0.175837
O O1 0.500000 0.636934 0.500000
O O2 0.250000 0.640675 0.558561
O O3 0.411426 0.500000 0.561834
O O4 0.491289 0.640346 0.624203
O O5 0.500000 0.144080 0.500000
O O6 0.750000 0.136254 0.554635
O O7 0.526566 0.139020 0.625309
O O8 0.582111 0.000000 0.556912
O O9 0.750000 0.111885 0.057167
O O10 0.911273 0.251878 0.060660
O O11 0.992364 0.109986 0.121101
O O12 0.000000 0.113486 0.000000
O O13 0.250000 0.603294 0.175100
O O14 0.038629 0.626965 0.249261
O O15 0.099741 0.747001 0.168009
O O16 0.989240 0.606565 0.123717
O O17 0.750000 0.391516 0.057794
O O18 0.500000 0.389861 0.000000
O O19 0.250000 0.140563 0.306777
O O20 0.477442 0.132455 0.243541
O O21 0.409348 0.000000 0.311337
O O22 0.750000 0.643323 0.675083
O O23 0.594953 0.500000 0.675062
O O24 0.250000 0.891195 0.174350
#
# Coordination Sequence:
#
# PCOD9407318 Si02
#       8
#     8   8   8   8   8   8   8   8
#     4   9  16  26  42  64  87 110 140 179 218 254
#     4   8  13  22  37  57  79 102 131 166 199 232
#     4   9  16  26  41  62  86 110 138 173 210 246
#     4   9  17  28  43  64  87 111 140 173 210 251
#     4   9  16  26  42  63  86 111 139 174 212 248
#     4   8  14  25  42  63  85 110 139 169 204 248
#     4   9  17  29  44  62  86 115 144 175 212 253
#     4   9  16  27  44  64  85 110 139 171 207 248
#
# _framework density 21.131208999999998
#
# number of rings (size 3 to 8) (size 9 to 14) (size 15 to 20)
#    0.000    3.250    0.000    1.875    0.000    5.000 
#    0.000    0.625    0.000    2.625    0.000    1.750 
#    0.000    0.000    0.000    0.000    0.000    0.000 
#
# Total GULP energy -356929.005155 kJ/mol
# GULP energy per Si atom -5577.015706 kJ/mol
# Density = 2.108311 g / cm^3
# Si number density = 21.131209 Si / 1000 Ang^3
#
#
#
# Elastic Constant Matrix: (Units=GPa)
#
#
# Indices 1 2 3 4 5 6 
#
# 1 133.3732 6.8508 131.9806 0.0000 0.0000 0.0000
# 2 6.8508 61.8484 1.7700 0.0000 0.0000 0.0000
# 3 131.9806 1.7700 262.9702 0.0000 0.0000 0.0000
# 4 0.0000 0.0000 0.0000 17.5982 0.0000 0.0000
# 5 0.0000 0.0000 0.0000 0.0000 37.9522 0.0000
# 6 0.0000 0.0000 0.0000 0.0000 0.0000 -27.9846
#
#
#
# Elastic Compliance Matrix: (Units=1/GPa)
#
#
# Indices 1 2 3 4 5 6 
#
# 1 0.015024 -0.001449 -0.007531 0.000000 0.000000 0.000000
# 2 -0.001449 0.016311 0.000617 0.000000 0.000000 0.000000
# 3 -0.007531 0.000617 0.007578 0.000000 0.000000 0.000000
# 4 0.000000 0.000000 0.000000 0.056824 0.000000 0.000000
# 5 0.000000 0.000000 0.000000 0.000000 0.026349 0.000000
# 6 0.000000 0.000000 0.000000 0.000000 0.000000 -0.035734
#
#
# Mechanical properties :
#
#
# Convention : Reuss Voigt Hill
#
# Bulk Modulus (GPa) = 45.06631 82.15499 63.61065
# Shear Modulus (GPa) = 45.25974 26.68583 35.97279
#
# Velocity S-wave (km/s) = 4.63303 3.55753 4.13043
# Velocity P-wave (km/s) = 7.07058 7.47246 7.27430
#
# Compressibility (1/GPa) = 0.02218952
#
# Stress axis : x y z
#
# Youngs Moduli (GPa) = 66.55925 61.30692 131.95957
#
# Poissons Ratio (x) = 0.08881 0.99374
# Poissons Ratio (y) = 0.09642 -0.08146
# Poissons Ratio (z) = 0.50124 -0.03784
#
# Static dielectric constant tensor:
#      x y z
#    x 1.725760 0.000000 0.000000 
#    y 0.000000 1.825790 0.000000 
#    z 0.000000 0.000000 1.763680 
# 
# From -- ./inp_files/32566.got.cif
#   From: 2010.05.17/outbox.cif.g08.bks.cpg/sg51_17_cif.got.tgz:32566.got - 2010.06.03 11:52:47.
