data_PCOD9407560
_publ_section_title
;
Structure prediction by ZEFSAII (Michael W. Deem and Ramdas Pophale) SiO2 
 PCOD9407560
Probable space group: P M M A
;
_chemical_formula_sum "Si O2"
_cell_formula_units_Z 48
_cell_length_a 15.000000
_cell_length_b 9.000000
_cell_length_c 18.000000
_cell_angle_alpha 90.000000
_cell_angle_beta 90.000000
_cell_angle_gamma 90.000000
_cell_volume 2430.000000
_symmetry_space_group_name_H-M "P M M A"
_symmetry_group_IT_number 51
_symmetry_cell_setting 'orthorhombic'
loop_
_space_group_symop_operation_xyz
x,y,z
1/2-x,-y,z
1/2+x,-y,-z
-x,y,-z
-x,-y,-z
1/2+x,y,-z
1/2-x,y,z
x,-y,z
loop_
_atom_site_type_symbol
_atom_site_label
_atom_site_fract_x
_atom_site_fract_y
_atom_site_fract_z
Si Si1 0.539714 0.321816 0.606456
Si Si2 0.147626 0.319348 0.539549
Si Si3 0.847331 0.178953 0.178738
Si Si4 0.098599 0.674035 0.973304
Si Si5 0.528115 0.825143 0.754520
Si Si6 0.349184 0.669546 0.136787
O O1 0.537887 0.500000 0.607101
O O2 0.609054 0.278608 0.541906
O O3 0.437105 0.271317 0.590145
O O4 0.568375 0.258274 0.684718
O O5 0.250000 0.267558 0.552968
O O6 0.150426 0.500000 0.543358
O O7 0.750000 0.230788 0.203274
O O8 0.928024 0.230571 0.229964
O O9 0.848661 0.000000 0.178793
O O10 0.865964 0.234060 0.095511
O O11 0.095811 0.500000 0.951413
O O12 0.154057 0.687637 0.048429
O O13 0.000000 0.718144 0.000000
O O14 0.584474 0.784521 0.826769
O O15 0.526994 0.000000 0.741510
O O16 0.250000 0.685161 0.167641
O O17 0.381030 0.500000 0.150552
#
# Coordination Sequence:
#
# PCOD9407560 Si02
#       6
#     8   8   8   8   8   8
#     4   9  18  33  55  81 107 136 173 214 257 310
#     4   8  15  31  56  83 107 133 169 213 259 309
#     4  10  22  38  54  74 104 145 187 223 266 321
#     4  10  19  34  58  82 104 131 173 231 282 323
#     4  11  23  37  53  76 111 147 180 220 264 313
#     4  10  21  37  56  78 105 139 179 223 273 325
#
# _framework density 19.753086
#
# number of rings (size 3 to 8) (size 9 to 14) (size 15 to 20)
#    0.000    2.333    1.667    2.000    0.000    4.333 
#    0.000    3.333    0.000    1.000    0.000    0.000 
#    0.000    0.000    0.000    0.000    0.000    0.000 
#
# Total GULP energy -267492.822404 kJ/mol
# GULP energy per Si atom -5572.767133 kJ/mol
# Density = 1.970813 g / cm^3
# Si number density = 19.753086 Si / 1000 Ang^3
#
#
#
# Elastic Constant Matrix: (Units=GPa)
#
#
# Indices 1 2 3 4 5 6 
#
# 1 69.8285 4.2534 -13.3316 0.0000 0.0000 0.0000
# 2 4.2534 -3.5976 4.2853 0.0000 0.0000 0.0000
# 3 -13.3316 4.2853 37.2410 0.0000 0.0000 0.0000
# 4 0.0000 0.0000 0.0000 31.3475 0.0000 0.0000
# 5 0.0000 0.0000 0.0000 0.0000 20.9221 0.0000
# 6 0.0000 0.0000 0.0000 0.0000 0.0000 15.4344
#
#
#
# Elastic Compliance Matrix: (Units=1/GPa)
#
#
# Indices 1 2 3 4 5 6 
#
# 1 0.013653 0.019316 0.002665 0.000000 0.000000 0.000000
# 2 0.019316 -0.217126 0.031899 0.000000 0.000000 0.000000
# 3 0.002665 0.031899 0.024135 0.000000 0.000000 0.000000
# 4 0.000000 0.000000 0.000000 0.031900 0.000000 0.000000
# 5 0.000000 0.000000 0.000000 0.000000 0.047796 0.000000
# 6 0.000000 0.000000 0.000000 0.000000 0.000000 0.064790
#
#
# Mechanical properties :
#
#
# Convention : Reuss Voigt Hill
#
# Bulk Modulus (GPa) = -13.97083 10.43179 -1.76952
# Shear Modulus (GPa) = -30.03539 20.75847 -4.63846
#
# Velocity S-wave (km/s) = -3.90364 3.24527 -1.53405
# Velocity P-wave (km/s) = 5.23507 4.39715 2.00886
#
# Compressibility (1/GPa) = -0.07157769
#
# Stress axis : x y z
#
# Youngs Moduli (GPa) = 73.24393 -4.60562 41.43294
#
# Poissons Ratio (x) = 0.08896 -0.11041
# Poissons Ratio (y) = -1.41476 -1.32169
# Poissons Ratio (z) = -0.19518 0.14692
#
# Static dielectric constant tensor:
#      x y z
#    x 1.726330 0.000000 0.000000 
#    y 0.000000 1.662440 0.000000 
#    z 0.000000 0.000000 1.677180 
# 
# From -- ./inp_files/29407.got.cif
#   From: 2010.05.17/outbox.ucp.g08.bks.cvg/sg51_15_cif.got.tgz:29407.got - 2010.06.11 16:27:58.
