data_PCOD9407420
_publ_section_title
;
Structure prediction by ZEFSAII (Michael W. Deem and Ramdas Pophale) SiO2 
 PCOD9407420
Probable space group: P M M A
;
_chemical_formula_sum "Si O2"
_cell_formula_units_Z 64
_cell_length_a 9.000000
_cell_length_b 30.000000
_cell_length_c 15.000000
_cell_angle_alpha 90.000000
_cell_angle_beta 90.000000
_cell_angle_gamma 90.000000
_cell_volume 4050.000000
_symmetry_space_group_name_H-M "P M M A"
_symmetry_group_IT_number 51
_symmetry_cell_setting 'orthorhombic'
loop_
_space_group_symop_operation_xyz
x,y,z
1/2-x,-y,z
1/2+x,-y,-z
-x,y,-z
-x,-y,-z
1/2+x,y,-z
1/2-x,y,z
x,-y,z
loop_
_atom_site_type_symbol
_atom_site_label
_atom_site_fract_x
_atom_site_fract_y
_atom_site_fract_z
Si Si1 0.572134 0.625353 0.096782
Si Si2 0.069748 0.147547 0.599056
Si Si3 0.571161 0.048243 0.401794
Si Si4 0.929044 0.687929 0.405031
Si Si5 0.427708 0.550360 0.219496
Si Si6 0.072766 0.592220 0.406558
Si Si7 0.071006 0.271343 0.903611
Si Si8 0.070038 0.229694 0.722471
O O1 0.750000 0.621523 0.091769
O O2 0.508350 0.588867 0.164176
O O3 0.537052 0.676922 0.121701
O O4 0.500000 0.617789 0.000000
O O5 0.250000 0.150243 0.590289
O O6 0.031289 0.097491 0.634077
O O7 0.020154 0.186075 0.667687
O O8 0.000000 0.153333 0.500000
O O9 0.500000 0.047767 0.500000
O O10 0.750000 0.048176 0.409005
O O11 0.528930 0.000000 0.359311
O O12 0.750000 0.684171 0.411628
O O13 0.965830 0.726160 0.334415
O O14 0.000000 0.700699 0.500000
O O15 0.999037 0.639931 0.382810
O O16 0.250000 0.554028 0.204548
O O17 0.474071 0.500000 0.195449
O O18 0.453291 0.559304 0.324359
O O19 0.250000 0.597941 0.418297
O O20 0.000000 0.577921 0.500000
O O21 0.250000 0.268330 0.911299
O O22 0.019888 0.238886 0.823782
O O23 0.000000 0.262423 0.000000
O O24 0.250000 0.227008 0.725905
#
# Coordination Sequence:
#
# PCOD9407420 Si02
#       8
#     8   8   8   8   8   8   8   8
#     4  10  20  35  56  77  95 116 141 172 211 258
#     4   9  16  26  39  57  85 119 150 180 215 253
#     4   8  13  21  34  52  75 107 147 185 216 247
#     4  10  18  29  45  65  89 116 146 176 207 249
#     4  10  22  38  53  71  95 119 144 177 215 254
#     4  10  20  34  51  69  90 117 149 183 216 250
#     4   9  18  33  50  68  88 110 140 175 211 253
#     4   9  17  28  43  62  87 117 143 172 214 259
#
# _framework density 15.802469
#
# number of rings (size 3 to 8) (size 9 to 14) (size 15 to 20)
#    0.000    2.625    0.000    3.000    0.000    3.250 
#    0.000    2.500    0.000    0.000    0.000    0.000 
#    0.000    0.500    0.000    0.375    0.000    1.000 
#
# Total GULP energy -356542.226199 kJ/mol
# GULP energy per Si atom -5570.972284 kJ/mol
# Density = 1.576650 g / cm^3
# Si number density = 15.802469 Si / 1000 Ang^3
#
#
#
# Elastic Constant Matrix: (Units=GPa)
#
#
# Indices 1 2 3 4 5 6 
#
# 1 32.2750 24.0174 21.9784 0.0000 0.0000 0.0000
# 2 24.0174 88.7300 67.1735 0.0000 0.0000 0.0000
# 3 21.9784 67.1735 80.2649 0.0000 0.0000 0.0000
# 4 0.0000 0.0000 0.0000 18.4567 0.0000 0.0000
# 5 0.0000 0.0000 0.0000 0.0000 21.9217 0.0000
# 6 0.0000 0.0000 0.0000 0.0000 0.0000 15.6196
#
#
#
# Elastic Compliance Matrix: (Units=1/GPa)
#
#
# Indices 1 2 3 4 5 6 
#
# 1 0.039551 -0.006841 -0.005105 0.000000 0.000000 0.000000
# 2 -0.006841 0.031941 -0.024858 0.000000 0.000000 0.000000
# 3 -0.005105 -0.024858 0.034660 0.000000 0.000000 0.000000
# 4 0.000000 0.000000 0.000000 0.054181 0.000000 0.000000
# 5 0.000000 0.000000 0.000000 0.000000 0.045617 0.000000
# 6 0.000000 0.000000 0.000000 0.000000 0.000000 0.064022
#
#
# Mechanical properties :
#
#
# Convention : Reuss Voigt Hill
#
# Bulk Modulus (GPa) = 30.72741 47.51208 39.11975
# Shear Modulus (GPa) = 14.10731 17.07296 15.59013
#
# Velocity S-wave (km/s) = 2.99110 3.29051 3.14437
# Velocity P-wave (km/s) = 5.60498 6.67593 6.16376
#
# Compressibility (1/GPa) = 0.03254423
#
# Stress axis : x y z
#
# Youngs Moduli (GPa) = 25.28405 31.30817 28.85180
#
# Poissons Ratio (x) = 0.21418 0.14728
# Poissons Ratio (y) = 0.17297 0.71719
# Poissons Ratio (z) = 0.12907 0.77825
#
# Static dielectric constant tensor:
#      x y z
#    x 1.526390 0.000000 0.000000 
#    y 0.000000 1.557400 0.000000 
#    z 0.000000 0.000000 1.517320 
# 
# From -- ./inp_files/22587.got.cif
#   From: 2010.05.17/outbox.ucp.g08.bks.cvg/sg51_12_cif.got.tgz:22587.got - 2010.06.11 16:27:58.
