data_PCOD9407931
_publ_section_title
;
Structure prediction by ZEFSAII (Michael W. Deem and Ramdas Pophale) SiO2 
 PCOD9407931
Probable space group: P N N A
;
_chemical_formula_sum "Si O2"
_cell_formula_units_Z 48
_cell_length_a 13.136231
_cell_length_b 11.161870
_cell_length_c 19.678684
_cell_angle_alpha 90.000000
_cell_angle_beta 90.000000
_cell_angle_gamma 90.000000
_cell_volume 2885.385127
_symmetry_space_group_name_H-M "P N N A"
_symmetry_group_IT_number 52
_symmetry_cell_setting 'orthorhombic'
loop_
_space_group_symop_operation_xyz
x,y,z
1/2-x,-y,z
x,1/2-y,1/2-z
1/2-x,1/2+y,1/2-z
-x,-y,-z
1/2+x,y,-z
-x,1/2+y,1/2+z
1/2+x,1/2-y,1/2+z
loop_
_atom_site_type_symbol
_atom_site_label
_atom_site_fract_x
_atom_site_fract_y
_atom_site_fract_z
Si Si1 0.817982 0.761242 0.542543
Si Si2 0.849838 0.329734 0.643299
Si Si3 0.648591 0.931080 0.712622
Si Si4 0.499925 0.136081 0.024392
Si Si5 0.377992 0.138843 0.513879
Si Si6 0.964907 0.962380 0.601510
O O1 0.747811 0.679374 0.592493
O O2 0.739951 0.845252 0.501173
O O3 0.893120 0.848535 0.584233
O O4 0.887977 0.687069 0.490845
O O5 0.851538 0.199821 0.678978
O O6 0.847735 0.420193 0.706375
O O7 0.950600 0.354069 0.599037
O O8 0.750000 0.000000 0.689511
O O9 0.554396 0.999270 0.678390
O O10 0.425384 0.227480 0.983982
O O11 0.500000 0.000000 0.000000
O O12 0.421201 0.069396 0.578671
O O13 0.426740 0.068739 0.449038
#
# Coordination Sequence:
#
# PCOD9407931 Si02
#       6
#     8   8   8   8   8   8
#     4  10  18  33  52  77 106 136 182 227 270 320
#     4  10  22  33  48  82 107 142 181 212 280 336
#     4  11  19  33  53  74 114 141 168 224 280 335
#     4  10  21  33  48  73 109 145 176 221 259 321
#     4   9  18  29  51  76 106 134 176 225 263 314
#     4  10  16  31  51  79 109 130 172 230 279 304
#
# _framework density 16.635560999999999
#
# number of rings (size 3 to 8) (size 9 to 14) (size 15 to 20)
#    0.000    2.000    5.000    0.500    2.333    2.000 
#    0.000    0.000    0.000    0.000    0.000   18.667 
#    0.000    0.000    0.000    0.000    0.000    0.000 
#
# Total GULP energy -267205.401533 kJ/mol
# GULP energy per Si atom -5566.779199 kJ/mol
# Density = 1.659770 g / cm^3
# Si number density = 16.635561 Si / 1000 Ang^3
#
#
#
# Elastic Constant Matrix: (Units=GPa)
#
#
# Indices 1 2 3 4 5 6 
#
# 1 62.3338 13.2031 42.4433 0.0000 0.0000 0.0000
# 2 13.2031 67.8908 28.7126 0.0000 0.0000 0.0000
# 3 42.4433 28.7126 89.0274 0.0000 0.0000 0.0000
# 4 0.0000 0.0000 0.0000 32.0258 0.0000 0.0000
# 5 0.0000 0.0000 0.0000 0.0000 20.3972 0.0000
# 6 0.0000 0.0000 0.0000 0.0000 0.0000 23.4241
#
#
#
# Elastic Compliance Matrix: (Units=1/GPa)
#
#
# Indices 1 2 3 4 5 6 
#
# 1 0.023756 0.000197 -0.011389 0.000000 0.000000 0.000000
# 2 0.000197 0.017058 -0.005595 0.000000 0.000000 0.000000
# 3 -0.011389 -0.005595 0.018467 0.000000 0.000000 0.000000
# 4 0.000000 0.000000 0.000000 0.031225 0.000000 0.000000
# 5 0.000000 0.000000 0.000000 0.000000 0.049026 0.000000
# 6 0.000000 0.000000 0.000000 0.000000 0.000000 0.042691
#
#
# Mechanical properties :
#
#
# Convention : Reuss Voigt Hill
#
# Bulk Modulus (GPa) = 38.90234 43.10777 41.00505
# Shear Modulus (GPa) = 22.28511 24.16228 23.22370
#
# Velocity S-wave (km/s) = 3.66403 3.81523 3.74040
# Velocity P-wave (km/s) = 6.42931 6.73627 6.58458
#
# Compressibility (1/GPa) = 0.02570540
#
# Stress axis : x y z
#
# Youngs Moduli (GPa) = 42.09513 58.62500 54.15192
#
# Poissons Ratio (x) = -0.01153 0.61673
# Poissons Ratio (y) = -0.00828 0.30298
# Poissons Ratio (z) = 0.47942 0.32801
#
# Static dielectric constant tensor:
#      x y z
#    x 1.571340 0.000000 0.000000 
#    y 0.000000 1.606140 0.000000 
#    z 0.000000 0.000000 1.576350 
# 
# From -- ./inp_files/33161.got.cif
#   From: 2010.05.17/outbox.cif.g08.bks.cpg/sg52_17_cif.got.tgz:33161.got - 2010.06.03 12:15:38.
