data_PCOD9407440
_publ_section_title
;
Structure prediction by ZEFSAII (Michael W. Deem and Ramdas Pophale) SiO2 
 PCOD9407440
Probable space group: P M M A
;
_chemical_formula_sum "Si O2"
_cell_formula_units_Z 56
_cell_length_a 9.000000
_cell_length_b 15.000000
_cell_length_c 30.000000
_cell_angle_alpha 90.000000
_cell_angle_beta 90.000000
_cell_angle_gamma 90.000000
_cell_volume 4050.000000
_symmetry_space_group_name_H-M "P M M A"
_symmetry_group_IT_number 51
_symmetry_cell_setting 'orthorhombic'
loop_
_space_group_symop_operation_xyz
x,y,z
1/2-x,-y,z
1/2+x,-y,-z
-x,y,-z
-x,-y,-z
1/2+x,y,-z
1/2-x,y,z
x,-y,z
loop_
_atom_site_type_symbol
_atom_site_label
_atom_site_fract_x
_atom_site_fract_y
_atom_site_fract_z
Si Si1 0.920308 0.392216 0.186932
Si Si2 0.920778 0.608699 0.545179
Si Si3 0.429561 0.500000 0.951233
Si Si4 0.928323 0.177182 0.049261
Si Si5 0.571424 0.000000 0.950452
Si Si6 0.926666 0.336279 0.899244
Si Si7 0.418387 0.391617 0.275845
Si Si8 0.420161 0.391285 0.635278
O O1 0.750000 0.366925 0.177215
O O2 0.928710 0.500000 0.183183
O O3 0.034552 0.350973 0.152155
O O4 0.970154 0.366913 0.236428
O O5 0.750000 0.636791 0.546978
O O6 0.921399 0.500000 0.545115
O O7 0.000000 0.637781 0.500000
O O8 0.010490 0.637494 0.588611
O O9 0.250000 0.500000 0.952092
O O10 0.496462 0.583077 0.925257
O O11 0.500000 0.500000 0.000000
O O12 0.750000 0.172051 0.045206
O O13 0.986169 0.253259 0.081139
O O14 0.001267 0.088219 0.069224
O O15 0.000000 0.191788 0.000000
O O16 0.750000 0.000000 0.952178
O O17 0.500000 0.000000 0.000000
O O18 0.750000 0.332342 0.907094
O O19 0.250000 0.361732 0.267639
O O20 0.415480 0.500000 0.276582
O O21 0.480170 0.361911 0.323344
O O22 0.250000 0.363274 0.640274
O O23 0.420811 0.500000 0.635392
#
# Coordination Sequence:
#
# PCOD9407440 Si02
#       8
#     8   8   4   8   4   8   8   8
#     4  10  19  31  45  59  77 100 128 159 193 230
#     4   9  15  21  28  38  53  73  96 124 162 209
#     4  12  24  38  50  64  84 110 138 166 195 230
#     4  11  21  35  52  71  92 113 136 162 194 231
#     4  10  18  32  52  74  94 112 134 160 192 228
#     4  12  23  35  49  66  86 110 137 166 197 233
#     4   9  16  25  37  51  66  85 112 145 181 218
#     4   9  15  22  31  43  58  76 101 133 170 211
#
# _framework density 13.827159999999999
#
# number of rings (size 3 to 8) (size 9 to 14) (size 15 to 20)
#    0.000    1.857    0.714    6.857    0.000    5.714 
#    0.000    0.000    0.000    0.000    0.000    0.000 
#    0.000    0.000    0.000    0.000    0.000    0.000 
#
# Total GULP energy -312003.084516 kJ/mol
# GULP energy per Si atom -5571.483652 kJ/mol
# Density = 1.379569 g / cm^3
# Si number density = 13.827160 Si / 1000 Ang^3
#
#
#
# Elastic Constant Matrix: (Units=GPa)
#
#
# Indices 1 2 3 4 5 6 
#
# 1 118.0150 20.3657 18.5754 0.0000 0.0000 0.0000
# 2 20.3657 51.9159 15.1829 0.0000 0.0000 0.0000
# 3 18.5754 15.1829 66.9860 0.0000 0.0000 0.0000
# 4 0.0000 0.0000 0.0000 -1.4609 0.0000 0.0000
# 5 0.0000 0.0000 0.0000 0.0000 25.0293 0.0000
# 6 0.0000 0.0000 0.0000 0.0000 0.0000 11.2904
#
#
#
# Elastic Compliance Matrix: (Units=1/GPa)
#
#
# Indices 1 2 3 4 5 6 
#
# 1 0.009304 -0.003101 -0.001877 0.000000 0.000000 0.000000
# 2 -0.003101 0.021663 -0.004050 0.000000 0.000000 0.000000
# 3 -0.001877 -0.004050 0.016367 0.000000 0.000000 0.000000
# 4 0.000000 0.000000 0.000000 -0.684499 0.000000 0.000000
# 5 0.000000 0.000000 0.000000 0.000000 0.039953 0.000000
# 6 0.000000 0.000000 0.000000 0.000000 0.000000 0.088570
#
#
# Mechanical properties :
#
#
# Convention : Reuss Voigt Hill
#
# Bulk Modulus (GPa) = 34.15595 38.35166 36.25381
# Shear Modulus (GPa) = -10.39878 19.15794 4.37958
#
# Velocity S-wave (km/s) = -2.74534 3.72631 1.78164
# Velocity P-wave (km/s) = 3.83491 6.80518 5.52345
#
# Compressibility (1/GPa) = 0.02927748
#
# Stress axis : x y z
#
# Youngs Moduli (GPa) = 107.47974 46.16206 61.09831
#
# Poissons Ratio (x) = 0.14314 0.11469
# Poissons Ratio (y) = 0.33328 0.24746
# Poissons Ratio (z) = 0.20176 0.18697
#
# Static dielectric constant tensor:
#      x y z
#    x 1.458030 0.000000 0.000000 
#    y 0.000000 1.402020 0.000000 
#    z 0.000000 0.000000 1.479180 
# 
# From -- ./inp_files/37505.got.cif
#   From: 2010.05.17/outbox.ucp.g08.bks.cvg/sg51_19_cif.got.tgz:37505.got - 2010.06.11 16:27:58.
