data_PCOD9407066
_publ_section_title
;
Structure prediction by ZEFSAII (Michael W. Deem and Ramdas Pophale) SiO2 
 PCOD9407066
Probable space group: P M M A
;
_chemical_formula_sum "Si O2"
_cell_formula_units_Z 64
_cell_length_a 9.126199
_cell_length_b 14.327784
_cell_length_c 26.790639
_cell_angle_alpha 90.000000
_cell_angle_beta 90.000000
_cell_angle_gamma 90.000000
_cell_volume 3503.095947
_symmetry_space_group_name_H-M "P M M A"
_symmetry_group_IT_number 51
_symmetry_cell_setting 'orthorhombic'
loop_
_space_group_symop_operation_xyz
x,y,z
1/2-x,-y,z
1/2+x,-y,-z
-x,y,-z
-x,-y,-z
1/2+x,y,-z
1/2-x,y,z
x,-y,z
loop_
_atom_site_type_symbol
_atom_site_label
_atom_site_fract_x
_atom_site_fract_y
_atom_site_fract_z
Si Si1 0.925562 0.282293 0.151500
Si Si2 0.925804 0.609026 0.051328
Si Si3 0.925662 0.894343 0.404575
Si Si4 0.578710 0.612485 0.644331
Si Si5 0.926685 0.108806 0.808805
Si Si6 0.076435 0.612277 0.242796
Si Si7 0.074871 0.296110 0.550229
Si Si8 0.415979 0.886831 0.303122
O O1 0.750000 0.278978 0.154193
O O2 0.968634 0.333259 0.100175
O O3 0.993945 0.179405 0.154661
O O4 0.987971 0.339360 0.198730
O O5 0.750000 0.614302 0.046167
O O6 0.965177 0.500000 0.058795
O O7 0.000000 0.641033 0.000000
O O8 0.750000 0.897243 0.402497
O O9 0.967536 0.813008 0.442467
O O10 0.985539 0.864488 0.350350
O O11 0.978674 0.000000 0.415692
O O12 0.750000 0.637613 0.636953
O O13 0.570272 0.500000 0.643493
O O14 0.535132 0.642174 0.700655
O O15 0.482975 0.653178 0.599793
O O16 0.750000 0.116254 0.811878
O O17 0.967702 0.139094 0.752111
O O18 0.964719 0.000000 0.815809
O O19 0.250000 0.632504 0.236902
O O20 0.058617 0.500000 0.239960
O O21 0.250000 0.303568 0.546758
O O22 0.000000 0.332834 0.500000
O O23 0.250000 0.852295 0.310630
O O24 0.409019 0.000000 0.301517
#
# Coordination Sequence:
#
# PCOD9407066 Si02
#       8
#     8   8   8   8   8   8   8   8
#     4  11  22  33  52  84 119 151 184 227 280 331
#     4   9  19  36  56  80 112 149 188 231 277 326
#     4   9  19  35  53  75 105 136 168 211 261 315
#     4   9  20  40  62  81 104 136 174 219 268 317
#     4   9  19  35  52  74 108 149 193 234 270 317
#     4   9  19  36  57  82 112 146 182 218 264 327
#     4  11  24  39  56  79 104 134 175 219 268 323
#     4   8  15  29  49  72  97 130 173 215 256 305
#
# _framework density 18.269553999999999
#
# number of rings (size 3 to 8) (size 9 to 14) (size 15 to 20)
#    0.000    2.625    0.000    2.625    1.750    4.750 
#    0.000    3.750    0.000    0.375    0.000    0.000 
#    0.000    0.000    0.000    0.000    0.000    0.000 
#
# Total GULP energy -357126.680207 kJ/mol
# GULP energy per Si atom -5580.104378 kJ/mol
# Density = 1.822797 g / cm^3
# Si number density = 18.269554 Si / 1000 Ang^3
#
#
#
# Elastic Constant Matrix: (Units=GPa)
#
#
# Indices 1 2 3 4 5 6 
#
# 1 30.0567 32.8516 51.3774 0.0000 0.0000 0.0000
# 2 32.8516 69.8344 60.6914 0.0000 0.0000 0.0000
# 3 51.3774 60.6914 146.6072 0.0000 0.0000 0.0000
# 4 0.0000 0.0000 0.0000 29.8302 0.0000 0.0000
# 5 0.0000 0.0000 0.0000 0.0000 30.5347 0.0000
# 6 0.0000 0.0000 0.0000 0.0000 0.0000 25.3560
#
#
#
# Elastic Compliance Matrix: (Units=1/GPa)
#
#
# Indices 1 2 3 4 5 6 
#
# 1 0.110483 -0.028622 -0.026869 0.000000 0.000000 0.000000
# 2 -0.028622 0.029782 -0.002298 0.000000 0.000000 0.000000
# 3 -0.026869 -0.002298 0.017188 0.000000 0.000000 0.000000
# 4 0.000000 0.000000 0.000000 0.033523 0.000000 0.000000
# 5 0.000000 0.000000 0.000000 0.000000 0.032750 0.000000
# 6 0.000000 0.000000 0.000000 0.000000 0.000000 0.039438
#
#
# Mechanical properties :
#
#
# Convention : Reuss Voigt Hill
#
# Bulk Modulus (GPa) = 23.88136 59.59324 41.73730
# Shear Modulus (GPa) = 12.73231 23.91602 18.32417
#
# Velocity S-wave (km/s) = 2.64278 3.62202 3.17044
# Velocity P-wave (km/s) = 4.73417 7.08391 6.02471
#
# Compressibility (1/GPa) = 0.04187367
#
# Stress axis : x y z
#
# Youngs Moduli (GPa) = 9.05115 33.57786 58.17862
#
# Poissons Ratio (x) = 0.96108 1.56321
# Poissons Ratio (y) = 0.25907 0.13371
# Poissons Ratio (z) = 0.24320 0.07717
#
# Static dielectric constant tensor:
#      x y z
#    x 1.604600 0.000000 0.000000 
#    y 0.000000 1.671630 0.000000 
#    z 0.000000 0.000000 1.608080 
# 
# From -- ./inp_files/34875.got.cif
#   From: 2010.05.17/outbox.cif.g08.bks.cpg/sg51_18_cif.got.tgz:34875.got - 2010.06.03 11:52:47.
