data_PCOD9407646
_publ_section_title
;
Structure prediction by ZEFSAII (Michael W. Deem and Ramdas Pophale) SiO2 
 PCOD9407646
Probable space group: P M M A
;
_chemical_formula_sum "Si O2"
_cell_formula_units_Z 48
_cell_length_a 15.000000
_cell_length_b 9.000000
_cell_length_c 18.000000
_cell_angle_alpha 90.000000
_cell_angle_beta 90.000000
_cell_angle_gamma 90.000000
_cell_volume 2430.000000
_symmetry_space_group_name_H-M "P M M A"
_symmetry_group_IT_number 51
_symmetry_cell_setting 'orthorhombic'
loop_
_space_group_symop_operation_xyz
x,y,z
1/2-x,-y,z
1/2+x,-y,-z
-x,y,-z
-x,-y,-z
1/2+x,y,-z
1/2-x,y,z
x,-y,z
loop_
_atom_site_type_symbol
_atom_site_label
_atom_site_fract_x
_atom_site_fract_y
_atom_site_fract_z
Si Si1 0.850586 0.321195 0.183571
Si Si2 0.750000 0.658080 0.583306
Si Si3 0.077860 0.337088 0.316531
Si Si4 0.750000 0.833766 0.448993
Si Si5 0.886992 0.327545 0.352869
Si Si6 0.152250 0.176051 0.185669
Si Si7 0.502966 0.820317 0.915657
O O1 0.750000 0.282050 0.161118
O O2 0.859612 0.500000 0.181071
O O3 0.864638 0.275607 0.269502
O O4 0.924119 0.247321 0.132525
O O5 0.750000 0.500000 0.539735
O O6 0.664159 0.658380 0.633991
O O7 0.750000 0.804065 0.535213
O O8 0.065659 0.500000 0.279764
O O9 0.091228 0.215211 0.254909
O O10 0.991375 0.311727 0.364530
O O11 0.665116 0.756594 0.414720
O O12 0.750000 0.000000 0.425947
O O13 0.862129 0.500000 0.355452
O O14 0.250000 0.243065 0.195065
O O15 0.098359 0.229841 0.115324
O O16 0.160669 0.000000 0.180588
O O17 0.497620 0.000000 0.910811
O O18 0.500000 0.774819 0.000000
#
# Coordination Sequence:
#
# PCOD9407646 Si02
#       7
#     8   4   8   4   8   8   8
#     4  10  20  36  60  87 114 148 191 241 294 342
#     4  10  22  40  60  86 119 150 187 236 287 344
#     4  10  20  36  63  90 111 146 194 237 283 342
#     4  12  26  40  58  86 119 156 193 234 285 344
#     4  10  20  38  62  87 116 151 190 240 291 340
#     4  10  20  34  55  83 116 153 191 237 290 340
#     4  10  22  38  56  83 119 158 196 236 285 342
#
# _framework density 19.753086
#
# number of rings (size 3 to 8) (size 9 to 14) (size 15 to 20)
#    0.000    1.833    3.333    0.750    0.000    4.000 
#    0.000    5.000    0.000    0.000    0.000    0.000 
#    0.000    0.000    0.000    0.000    0.000    0.000 
#
# Total GULP energy -267361.611121 kJ/mol
# GULP energy per Si atom -5570.033565 kJ/mol
# Density = 1.970813 g / cm^3
# Si number density = 19.753086 Si / 1000 Ang^3
#
#
#
# Elastic Constant Matrix: (Units=GPa)
#
#
# Indices 1 2 3 4 5 6 
#
# 1 94.5005 35.8515 15.8267 0.0000 0.0000 0.0000
# 2 35.8515 2.2722 18.6614 0.0000 0.0000 0.0000
# 3 15.8267 18.6614 35.4104 0.0000 0.0000 0.0000
# 4 0.0000 0.0000 0.0000 -153.7604 0.0000 0.0000
# 5 0.0000 0.0000 0.0000 0.0000 15.6549 0.0000
# 6 0.0000 0.0000 0.0000 0.0000 0.0000 22.5197
#
#
#
# Elastic Compliance Matrix: (Units=1/GPa)
#
#
# Indices 1 2 3 4 5 6 
#
# 1 0.005333 0.019401 -0.012608 0.000000 0.000000 0.000000
# 2 0.019401 -0.061655 0.023821 0.000000 0.000000 0.000000
# 3 -0.012608 0.023821 0.021322 0.000000 0.000000 0.000000
# 4 0.000000 0.000000 0.000000 -0.006504 0.000000 0.000000
# 5 0.000000 0.000000 0.000000 0.000000 0.063878 0.000000
# 6 0.000000 0.000000 0.000000 0.000000 0.000000 0.044406
#
#
# Mechanical properties :
#
#
# Convention : Reuss Voigt Hill
#
# Bulk Modulus (GPa) = 38.12712 30.31805 34.22258
# Shear Modulus (GPa) = 349.77625 -18.99429 165.39098
#
# Velocity S-wave (km/s) = 13.32136 -3.10431 9.16029
# Velocity P-wave (km/s) = 15.99860 1.59150 11.36856
#
# Compressibility (1/GPa) = 0.02622805
#
# Stress axis : x y z
#
# Youngs Moduli (GPa) = 187.50579 -16.21937 46.90064
#
# Poissons Ratio (x) = 0.31467 0.59133
# Poissons Ratio (y) = -3.63781 -1.11722
# Poissons Ratio (z) = 2.36409 0.38636
#
# Static dielectric constant tensor:
#      x y z
#    x 1.711600 0.000000 0.000000 
#    y 0.000000 1.722560 0.000000 
#    z 0.000000 0.000000 1.666840 
# 
# From -- ./inp_files/29559.got.cif
#   From: 2010.05.17/outbox.ucp.g08.bks.cvg/sg51_15_cif.got.tgz:29559.got - 2010.06.11 16:27:58.
