data_PCOD9407450
_publ_section_title
;
Structure prediction by ZEFSAII (Michael W. Deem and Ramdas Pophale) SiO2 
 PCOD9407450
Probable space group: P M M A
;
_chemical_formula_sum "Si O2"
_cell_formula_units_Z 64
_cell_length_a 15.000000
_cell_length_b 9.000000
_cell_length_c 24.000000
_cell_angle_alpha 90.000000
_cell_angle_beta 90.000000
_cell_angle_gamma 90.000000
_cell_volume 3240.000000
_symmetry_space_group_name_H-M "P M M A"
_symmetry_group_IT_number 51
_symmetry_cell_setting 'orthorhombic'
loop_
_space_group_symop_operation_xyz
x,y,z
1/2-x,-y,z
1/2+x,-y,-z
-x,y,-z
-x,-y,-z
1/2+x,y,-z
1/2-x,y,z
x,-y,z
loop_
_atom_site_type_symbol
_atom_site_label
_atom_site_fract_x
_atom_site_fract_y
_atom_site_fract_z
Si Si1 0.013816 0.178980 0.187294
Si Si2 0.358461 0.669331 0.527124
Si Si3 0.531876 0.178421 0.691084
Si Si4 0.845232 0.180679 0.901319
Si Si5 0.146417 0.320755 0.405483
Si Si6 0.849939 0.822003 0.358302
Si Si7 0.397575 0.172134 0.980165
Si Si8 0.147828 0.323351 0.864185
O O1 0.057660 0.217171 0.246082
O O2 0.917315 0.247372 0.179584
O O3 0.074166 0.233180 0.136266
O O4 0.006900 0.000000 0.184374
O O5 0.250000 0.663837 0.523022
O O6 0.389804 0.500000 0.536111
O O7 0.388923 0.724879 0.466714
O O8 0.378315 0.767691 0.580384
O O9 0.590151 0.255020 0.644314
O O10 0.428554 0.222628 0.682812
O O11 0.538223 0.000000 0.684657
O O12 0.750000 0.218110 0.875827
O O13 0.848754 0.230914 0.964949
O O14 0.852090 0.000000 0.903934
O O15 0.250000 0.275611 0.400178
O O16 0.143625 0.500000 0.405030
O O17 0.750000 0.764228 0.346491
O O18 0.845523 0.000000 0.358165
O O19 0.372304 0.000000 0.969022
O O20 0.500000 0.171628 0.000000
O O21 0.379371 0.264349 0.925264
O O22 0.250000 0.282657 0.854107
O O23 0.138660 0.500000 0.862347
#
# Coordination Sequence:
#
# PCOD9407450 Si02
#       8
#     8   8   8   8   8   8   8   8
#     4  10  21  39  58  78 106 143 188 231 269 315
#     4   8  15  30  52  77 103 135 177 219 262 319
#     4  10  22  36  54  80 107 139 182 229 274 321
#     4   9  17  31  54  82 108 135 173 222 268 312
#     4   9  19  36  56  78 108 144 179 217 264 322
#     4   9  18  33  51  74 106 139 172 218 277 333
#     4  10  18  33  59  86 111 142 180 219 266 327
#     4  11  24  39  56  82 115 148 182 224 275 326
#
# _framework density 19.753086
#
# number of rings (size 3 to 8) (size 9 to 14) (size 15 to 20)
#    0.000    2.500    1.250    1.500    0.000    5.000 
#    0.000    6.250    0.000    1.875    0.000    0.000 
#    0.000    0.000    0.000    0.000    0.000    0.000 
#
# Total GULP energy -356860.444309 kJ/mol
# GULP energy per Si atom -5575.944442 kJ/mol
# Density = 1.970813 g / cm^3
# Si number density = 19.753086 Si / 1000 Ang^3
#
#
#
# Elastic Constant Matrix: (Units=GPa)
#
#
# Indices 1 2 3 4 5 6 
#
# 1 60.3305 9.8733 18.5226 0.0000 0.0000 0.0000
# 2 9.8733 -7.5829 5.3263 0.0000 0.0000 0.0000
# 3 18.5226 5.3263 60.2753 0.0000 0.0000 0.0000
# 4 0.0000 0.0000 0.0000 79.8583 0.0000 0.0000
# 5 0.0000 0.0000 0.0000 0.0000 -28.2884 0.0000
# 6 0.0000 0.0000 0.0000 0.0000 0.0000 15.5905
#
#
#
# Elastic Compliance Matrix: (Units=1/GPa)
#
#
# Indices 1 2 3 4 5 6 
#
# 1 0.015857 0.016218 -0.006306 0.000000 0.000000 0.000000
# 2 0.016218 -0.107583 0.004523 0.000000 0.000000 0.000000
# 3 -0.006306 0.004523 0.018129 0.000000 0.000000 0.000000
# 4 0.000000 0.000000 0.000000 0.012522 0.000000 0.000000
# 5 0.000000 0.000000 0.000000 0.000000 -0.035350 0.000000
# 6 0.000000 0.000000 0.000000 0.000000 0.000000 0.064142
#
#
# Mechanical properties :
#
#
# Convention : Reuss Voigt Hill
#
# Bulk Modulus (GPa) = -22.35762 20.05193 -1.15284
# Shear Modulus (GPa) = -65.73660 18.71879 -23.50891
#
# Velocity S-wave (km/s) = -5.77507 3.08171 -3.45358
# Velocity P-wave (km/s) = 7.47072 4.77870 4.06052
#
# Compressibility (1/GPa) = -0.04472748
#
# Stress axis : x y z
#
# Youngs Moduli (GPa) = 63.06216 -9.29518 55.16111
#
# Poissons Ratio (x) = 0.15075 0.34785
# Poissons Ratio (y) = -1.02272 -0.24949
# Poissons Ratio (z) = 0.39767 0.04204
#
# Static dielectric constant tensor:
#      x y z
#    x 1.753660 0.000000 0.000000 
#    y 0.000000 1.662610 0.000000 
#    z 0.000000 0.000000 1.683300 
# 
# From -- ./inp_files/35800.got.cif
#   From: 2010.05.17/outbox.ucp.g08.bks.cvg/sg51_18_cif.got.tgz:35800.got - 2010.06.11 16:27:58.
