data_PCOD9407885
_publ_section_title
;
Structure prediction by ZEFSAII (Michael W. Deem and Ramdas Pophale) SiO2 
 PCOD9407885
Probable space group: P N N A
;
_chemical_formula_sum "Si O2"
_cell_formula_units_Z 36
_cell_length_a 35.556957
_cell_length_b 5.122692
_cell_length_c 12.293210
_cell_angle_alpha 90.000000
_cell_angle_beta 90.000000
_cell_angle_gamma 90.000000
_cell_volume 2239.175491
_symmetry_space_group_name_H-M "P N N A"
_symmetry_group_IT_number 52
_symmetry_cell_setting 'orthorhombic'
loop_
_space_group_symop_operation_xyz
x,y,z
1/2-x,-y,z
x,1/2-y,1/2-z
1/2-x,1/2+y,1/2-z
-x,-y,-z
1/2+x,y,-z
-x,1/2+y,1/2+z
1/2+x,1/2-y,1/2+z
loop_
_atom_site_type_symbol
_atom_site_label
_atom_site_fract_x
_atom_site_fract_y
_atom_site_fract_z
Si Si1 0.370057 0.242882 0.381973
Si Si2 0.050006 0.768327 0.010636
Si Si3 0.028568 0.261205 0.877748
Si Si4 0.750000 0.000000 0.826296
Si Si5 0.325370 0.738832 0.381520
O O1 0.372263 0.250000 0.250000
O O2 0.411128 0.201166 0.430731
O O3 0.354554 0.521672 0.419258
O O4 0.340027 0.021113 0.416437
O O5 0.039243 0.540636 0.926748
O O6 0.050571 0.039176 0.944896
O O7 0.015638 0.785731 0.096294
O O8 0.035587 0.250000 0.750000
O O9 0.762887 0.250000 0.750000
O O10 0.716537 0.125515 0.897128
O O11 0.326879 0.750000 0.250000
#
# Coordination Sequence:
#
# PCOD9407885 Si02
#       5
#     8   8   8   4   8
#     4  10  18  29  43  64  91 120 154 189 223 261
#     4  10  20  32  49  68  89 119 153 191 232 270
#     4  10  20  34  49  67  89 118 154 191 232 275
#     4  10  16  26  40  58  86 122 162 188 210 262
#     4   9  17  26  40  60  86 121 155 184 216 257
#
# _framework density 16.077345000000001
#
# number of rings (size 3 to 8) (size 9 to 14) (size 15 to 20)
#    0.000    2.222    0.000    6.000    0.000    0.000 
#    0.000    6.667    0.000    0.000    0.000    0.000 
#    0.000    0.000    0.000   56.000    0.000   11.444 
#
# Total GULP energy -200531.858220 kJ/mol
# GULP energy per Si atom -5570.329395 kJ/mol
# Density = 1.604075 g / cm^3
# Si number density = 16.077345 Si / 1000 Ang^3
#
#
#
# Elastic Constant Matrix: (Units=GPa)
#
#
# Indices 1 2 3 4 5 6 
#
# 1 88.9031 6.4777 12.6753 0.0000 0.0000 0.0000
# 2 6.4777 68.5646 1.2801 0.0000 0.0000 0.0000
# 3 12.6753 1.2801 29.1405 0.0000 0.0000 0.0000
# 4 0.0000 0.0000 0.0000 7.7541 0.0000 0.0000
# 5 0.0000 0.0000 0.0000 0.0000 13.9389 0.0000
# 6 0.0000 0.0000 0.0000 0.0000 0.0000 25.1714
#
#
#
# Elastic Compliance Matrix: (Units=1/GPa)
#
#
# Indices 1 2 3 4 5 6 
#
# 1 0.012066 -0.001043 -0.005203 0.000000 0.000000 0.000000
# 2 -0.001043 0.014687 -0.000192 0.000000 0.000000 0.000000
# 3 -0.005203 -0.000192 0.036588 0.000000 0.000000 0.000000
# 4 0.000000 0.000000 0.000000 0.128963 0.000000 0.000000
# 5 0.000000 0.000000 0.000000 0.000000 0.071742 0.000000
# 6 0.000000 0.000000 0.000000 0.000000 0.000000 0.039728
#
#
# Mechanical properties :
#
#
# Convention : Reuss Voigt Hill
#
# Bulk Modulus (GPa) = 19.81500 25.27493 22.54497
# Shear Modulus (GPa) = 14.99387 20.45122 17.72254
#
# Velocity S-wave (km/s) = 3.05718 3.57045 3.32374
# Velocity P-wave (km/s) = 4.98130 5.72298 5.36497
#
# Compressibility (1/GPa) = 0.05046682
#
# Stress axis : x y z
#
# Youngs Moduli (GPa) = 82.87795 68.08792 27.33146
#
# Poissons Ratio (x) = 0.07100 0.14219
# Poissons Ratio (y) = 0.08643 0.00524
# Poissons Ratio (z) = 0.43118 0.01305
#
# Static dielectric constant tensor:
#      x y z
#    x 1.576460 0.000000 0.000000 
#    y 0.000000 1.565790 0.000000 
#    z 0.000000 0.000000 1.493250 
# 
# From -- ./inp_files/23016.got.cif
#   From: 2010.05.17/outbox.cif.g08.bks.cpg/sg52_12_cif.got.tgz:23016.got - 2010.06.03 12:15:38.
