data_PCOD9407439
_publ_section_title
;
Structure prediction by ZEFSAII (Michael W. Deem and Ramdas Pophale) SiO2 
 PCOD9407439
Probable space group: P M M A
;
_chemical_formula_sum "Si O2"
_cell_formula_units_Z 64
_cell_length_a 30.000000
_cell_length_b 9.000000
_cell_length_c 12.000000
_cell_angle_alpha 90.000000
_cell_angle_beta 90.000000
_cell_angle_gamma 90.000000
_cell_volume 3240.000000
_symmetry_space_group_name_H-M "P M M A"
_symmetry_group_IT_number 51
_symmetry_cell_setting 'orthorhombic'
loop_
_space_group_symop_operation_xyz
x,y,z
1/2-x,-y,z
1/2+x,-y,-z
-x,y,-z
-x,-y,-z
1/2+x,y,-z
1/2-x,y,z
x,-y,z
loop_
_atom_site_type_symbol
_atom_site_label
_atom_site_fract_x
_atom_site_fract_y
_atom_site_fract_z
Si Si1 0.345677 0.827816 0.763981
Si Si2 0.128621 0.319653 0.138679
Si Si3 0.932426 0.675228 0.515644
Si Si4 0.964263 0.321430 0.766692
Si Si5 0.660107 0.169999 0.494361
Si Si6 0.052633 0.822325 0.718666
Si Si7 0.798125 0.325164 0.680483
Si Si8 0.699834 0.678459 0.039620
O O1 0.330642 0.822538 0.636025
O O2 0.397988 0.780932 0.763104
O O3 0.314311 0.726625 0.837761
O O4 0.343475 0.000000 0.801212
O O5 0.126216 0.500000 0.133023
O O6 0.077999 0.269411 0.159474
O O7 0.160239 0.283699 0.243132
O O8 0.158510 0.265987 0.035829
O O9 0.938674 0.500000 0.496154
O O10 0.951831 0.710076 0.637238
O O11 0.880766 0.719887 0.518714
O O12 0.950734 0.762346 0.408450
O O13 0.968417 0.500000 0.777636
O O14 0.011708 0.245655 0.787255
O O15 0.699385 0.225334 0.571746
O O16 0.646874 0.000000 0.519708
O O17 0.050449 0.000000 0.716557
O O18 0.750000 0.307370 0.737950
O O19 0.802218 0.500000 0.653210
O O20 0.750000 0.732027 0.012768
O O21 0.700705 0.500000 0.028027
#
# Coordination Sequence:
#
# PCOD9407439 Si02
#       8
#     8   8   8   8   8   8   8   8
#     4   9  21  40  57  76 109 150 186 226 279 332
#     4   9  18  36  57  82 114 144 179 228 283 335
#     4  10  18  31  52  79 111 148 189 225 264 324
#     4  10  19  32  53  80 112 150 187 222 271 333
#     4  10  20  34  52  77 112 149 183 224 277 331
#     4  10  21  35  52  79 114 151 189 229 276 326
#     4  10  19  33  55  80 109 146 182 222 279 343
#     4  10  21  38  63  89 107 134 184 240 285 331
#
# _framework density 19.753086
#
# number of rings (size 3 to 8) (size 9 to 14) (size 15 to 20)
#    0.000    2.250    1.250    2.625    0.000    8.000 
#    0.000    4.375    0.000    5.250    0.000    0.000 
#    0.000    0.000    0.000    0.000    0.000    0.000 
#
# Total GULP energy -356799.934294 kJ/mol
# GULP energy per Si atom -5574.998973 kJ/mol
# Density = 1.970813 g / cm^3
# Si number density = 19.753086 Si / 1000 Ang^3
#
#
#
# Elastic Constant Matrix: (Units=GPa)
#
#
# Indices 1 2 3 4 5 6 
#
# 1 22.0474 9.4988 16.1557 0.0000 0.0000 0.0000
# 2 9.4988 7.1521 8.6727 0.0000 0.0000 0.0000
# 3 16.1557 8.6727 25.4371 0.0000 0.0000 0.0000
# 4 0.0000 0.0000 0.0000 56.2985 0.0000 0.0000
# 5 0.0000 0.0000 0.0000 0.0000 1.9181 0.0000
# 6 0.0000 0.0000 0.0000 0.0000 0.0000 52.9784
#
#
#
# Elastic Compliance Matrix: (Units=1/GPa)
#
#
# Indices 1 2 3 4 5 6 
#
# 1 0.125147 -0.119042 -0.038897 0.000000 0.000000 0.000000
# 2 -0.119042 0.351606 -0.044273 0.000000 0.000000 0.000000
# 3 -0.038897 -0.044273 0.079112 0.000000 0.000000 0.000000
# 4 0.000000 0.000000 0.000000 0.017762 0.000000 0.000000
# 5 0.000000 0.000000 0.000000 0.000000 0.521336 0.000000
# 6 0.000000 0.000000 0.000000 0.000000 0.000000 0.018876
#
#
# Mechanical properties :
#
#
# Convention : Reuss Voigt Hill
#
# Bulk Modulus (GPa) = 6.60323 13.69902 10.15112
# Shear Modulus (GPa) = 3.18727 23.59296 13.39011
#
# Velocity S-wave (km/s) = 1.27164 3.45975 2.60643
# Velocity P-wave (km/s) = 2.34653 4.78644 3.76936
#
# Compressibility (1/GPa) = 0.15144102
#
# Stress axis : x y z
#
# Youngs Moduli (GPa) = 7.99061 2.84409 12.64036
#
# Poissons Ratio (x) = 0.33857 0.49167
# Poissons Ratio (y) = 0.95122 0.55963
# Poissons Ratio (z) = 0.31081 0.12592
#
# Static dielectric constant tensor:
#      x y z
#    x 1.755710 0.000000 0.000000 
#    y 0.000000 1.657790 0.000000 
#    z 0.000000 0.000000 1.728070 
# 
# From -- ./inp_files/19600.got.cif
#   From: 2010.05.17/outbox.ucp.g08.bks.cvg/sg51_10_cif.got.tgz:19600.got - 2010.06.11 16:27:58.
