data_PCOD9407872
_publ_section_title
;
Structure prediction by ZEFSAII (Michael W. Deem and Ramdas Pophale) SiO2 
 PCOD9407872
Probable space group: P N N A
;
_chemical_formula_sum "Si O2"
_cell_formula_units_Z 36
_cell_length_a 6.912877
_cell_length_b 12.966880
_cell_length_c 19.042424
_cell_angle_alpha 90.000000
_cell_angle_beta 90.000000
_cell_angle_gamma 90.000000
_cell_volume 1706.933305
_symmetry_space_group_name_H-M "P N N A"
_symmetry_group_IT_number 52
_symmetry_cell_setting 'orthorhombic'
loop_
_space_group_symop_operation_xyz
x,y,z
1/2-x,-y,z
x,1/2-y,1/2-z
1/2-x,1/2+y,1/2-z
-x,-y,-z
1/2+x,y,-z
-x,1/2+y,1/2+z
1/2+x,1/2-y,1/2+z
loop_
_atom_site_type_symbol
_atom_site_label
_atom_site_fract_x
_atom_site_fract_y
_atom_site_fract_z
Si Si1 0.377047 0.101994 0.174600
Si Si2 0.750000 0.000000 0.199395
Si Si3 0.023413 0.518112 0.917393
Si Si4 0.436022 0.325015 0.166716
Si Si5 0.892675 0.164463 0.303976
O O1 0.598069 0.068495 0.157914
O O2 0.345424 0.216094 0.142397
O O3 0.369154 0.132862 0.257264
O O4 0.250000 0.000000 0.159401
O O5 0.878704 0.067145 0.252144
O O6 0.250000 0.500000 0.902829
O O7 0.997178 0.625158 0.873740
O O8 0.913746 0.421458 0.884095
O O9 0.000000 0.500000 0.000000
O O10 0.669938 0.306191 0.176563
O O11 0.971429 0.250000 0.250000
#
# Coordination Sequence:
#
# PCOD9407872 Si02
#       5
#     8   4   8   8   8
#     4  10  18  31  52  82 116 147 186 243 299 342
#     4  10  16  32  52  80 114 138 190 236 290 354
#     4  10  20  35  56  82 117 158 191 243 308 368
#     4   9  17  34  51  76 122 146 186 253 293 346
#     4  10  15  31  57  80 110 155 196 242 308 356
#
# _framework density 21.090457000000001
#
# number of rings (size 3 to 8) (size 9 to 14) (size 15 to 20)
#    0.000    2.222   10.000    0.000    0.000    0.889 
#    4.000    0.000    0.000    0.000    2.889    4.667 
#    0.000    0.000    0.000    0.000    0.000    0.000 
#
# Total GULP energy -200487.874094 kJ/mol
# GULP energy per Si atom -5569.107614 kJ/mol
# Density = 2.104245 g / cm^3
# Si number density = 21.090457 Si / 1000 Ang^3
#
#
#
# Elastic Constant Matrix: (Units=GPa)
#
#
# Indices 1 2 3 4 5 6 
#
# 1 85.4017 34.8495 10.0864 0.0000 0.0000 0.0000
# 2 34.8495 187.9863 54.8391 0.0000 0.0000 0.0000
# 3 10.0864 54.8391 87.5075 0.0000 0.0000 0.0000
# 4 0.0000 0.0000 0.0000 19.0800 0.0000 0.0000
# 5 0.0000 0.0000 0.0000 0.0000 14.7746 0.0000
# 6 0.0000 0.0000 0.0000 0.0000 0.0000 36.8667
#
#
#
# Elastic Compliance Matrix: (Units=1/GPa)
#
#
# Indices 1 2 3 4 5 6 
#
# 1 0.012668 -0.002353 0.000014 0.000000 0.000000 0.000000
# 2 -0.002353 0.006946 -0.004082 0.000000 0.000000 0.000000
# 3 0.000014 -0.004082 0.013984 0.000000 0.000000 0.000000
# 4 0.000000 0.000000 0.000000 0.052411 0.000000 0.000000
# 5 0.000000 0.000000 0.000000 0.000000 0.067684 0.000000
# 6 0.000000 0.000000 0.000000 0.000000 0.000000 0.027125
#
#
# Mechanical properties :
#
#
# Convention : Reuss Voigt Hill
#
# Bulk Modulus (GPa) = 48.17553 62.27174 55.22363
# Shear Modulus (GPa) = 24.92801 31.55229 28.24015
#
# Velocity S-wave (km/s) = 3.44169 3.87207 3.66321
# Velocity P-wave (km/s) = 6.21977 7.04136 6.64328
#
# Compressibility (1/GPa) = 0.02075742
#
# Stress axis : x y z
#
# Youngs Moduli (GPa) = 78.94107 143.95827 71.50987
#
# Poissons Ratio (x) = 0.33866 -0.00101
# Poissons Ratio (y) = 0.18571 0.29191
# Poissons Ratio (z) = -0.00112 0.58764
#
# Static dielectric constant tensor:
#      x y z
#    x 1.945110 0.000000 0.000000 
#    y 0.000000 1.927880 0.000000 
#    z 0.000000 0.000000 1.746270 
# 
# From -- ./inp_files/35707.got.cif
#   From: 2010.05.17/outbox.cif.g08.bks.cpg/sg52_18_cif.got.tgz:35707.got - 2010.06.03 12:15:38.
