data_PCOD9407175
_publ_section_title
;
Structure prediction by ZEFSAII (Michael W. Deem and Ramdas Pophale) SiO2 
 PCOD9407175
Probable space group: P M M A
;
_chemical_formula_sum "Si O2"
_cell_formula_units_Z 56
_cell_length_a 16.018643
_cell_length_b 19.391782
_cell_length_c 8.309016
_cell_angle_alpha 90.000000
_cell_angle_beta 90.000000
_cell_angle_gamma 90.000000
_cell_volume 2581.029914
_symmetry_space_group_name_H-M "P M M A"
_symmetry_group_IT_number 51
_symmetry_cell_setting 'orthorhombic'
loop_
_space_group_symop_operation_xyz
x,y,z
1/2-x,-y,z
1/2+x,-y,-z
-x,y,-z
-x,-y,-z
1/2+x,y,-z
1/2-x,y,z
x,-y,z
loop_
_atom_site_type_symbol
_atom_site_label
_atom_site_fract_x
_atom_site_fract_y
_atom_site_fract_z
Si Si1 0.153096 0.575436 0.570455
Si Si2 0.070465 0.289060 0.604571
Si Si3 0.343883 0.834448 0.786259
Si Si4 0.655477 0.173079 0.826179
Si Si5 0.443039 0.301852 0.134365
Si Si6 0.847282 0.423632 0.039260
Si Si7 0.994503 0.079393 0.693057
O O1 0.250000 0.575924 0.522663
O O2 0.117748 0.500000 0.522845
O O3 0.112364 0.646703 0.514720
O O4 0.150964 0.579185 0.766139
O O5 0.132710 0.236464 0.692085
O O6 0.000000 0.249855 0.500000
O O7 0.011869 0.323795 0.738820
O O8 0.250000 0.855989 0.736347
O O9 0.419434 0.886110 0.751082
O O10 0.342038 0.826718 0.979181
O O11 0.750000 0.160094 0.767627
O O12 0.622685 0.249720 0.788206
O O13 0.586009 0.121126 0.757742
O O14 0.500000 0.262655 0.000000
O O15 0.398791 0.364569 0.046894
O O16 0.750000 0.416239 0.994360
O O17 0.876471 0.500000 0.991195
O O18 0.000000 0.080546 0.500000
O O19 0.988761 0.000000 0.746764
#
# Coordination Sequence:
#
# PCOD9407175 Si02
#       7
#     8   8   8   8   8   8   8
#     4   9  18  35  58  82 113 160 215 269 326 389
#     4  12  24  38  57  88 129 165 214 270 328 393
#     4  11  23  42  68  96 127 169 218 266 317 373
#     4  11  23  41  68  98 129 167 216 269 316 366
#     4  12  20  35  60  87 122 161 210 268 322 383
#     4   9  18  33  55  85 117 155 211 272 327 385
#     4  11  25  46  69  99 139 173 206 252 310 381
#
# _framework density 21.696764000000002
#
# number of rings (size 3 to 8) (size 9 to 14) (size 15 to 20)
#    0.000    1.286    4.286    2.571    0.000    5.714 
#    0.000    5.000    0.000    1.714    0.000    0.000 
#    0.000    0.000    0.000    0.000    0.000    0.000 
#
# Total GULP energy -312707.316175 kJ/mol
# GULP energy per Si atom -5584.059217 kJ/mol
# Density = 2.164738 g / cm^3
# Si number density = 21.696764 Si / 1000 Ang^3
#
#
#
# Elastic Constant Matrix: (Units=GPa)
#
#
# Indices 1 2 3 4 5 6 
#
# 1 170.1053 78.6518 24.3913 0.0000 0.0000 0.0000
# 2 78.6518 143.3225 11.1195 0.0000 0.0000 0.0000
# 3 24.3913 11.1195 25.8248 0.0000 0.0000 0.0000
# 4 0.0000 0.0000 0.0000 25.4270 0.0000 0.0000
# 5 0.0000 0.0000 0.0000 0.0000 25.8336 0.0000
# 6 0.0000 0.0000 0.0000 0.0000 0.0000 9.9069
#
#
#
# Elastic Compliance Matrix: (Units=1/GPa)
#
#
# Indices 1 2 3 4 5 6 
#
# 1 0.008807 -0.004333 -0.006453 0.000000 0.000000 0.000000
# 2 -0.004333 0.009350 0.000066 0.000000 0.000000 0.000000
# 3 -0.006453 0.000066 0.044789 0.000000 0.000000 0.000000
# 4 0.000000 0.000000 0.000000 0.039328 0.000000 0.000000
# 5 0.000000 0.000000 0.000000 0.000000 0.038709 0.000000
# 6 0.000000 0.000000 0.000000 0.000000 0.000000 0.100940
#
#
# Mechanical properties :
#
#
# Convention : Reuss Voigt Hill
#
# Bulk Modulus (GPa) = 24.09210 63.06418 43.57814
# Shear Modulus (GPa) = 18.03768 27.23949 22.63858
#
# Velocity S-wave (km/s) = 2.88645 3.54710 3.23369
# Velocity P-wave (km/s) = 4.71560 6.77533 5.83704
#
# Compressibility (1/GPa) = 0.04150739
#
# Stress axis : x y z
#
# Youngs Moduli (GPa) = 113.54311 106.95508 22.32707
#
# Poissons Ratio (x) = 0.46339 0.14407
# Poissons Ratio (y) = 0.49193 -0.00148
# Poissons Ratio (z) = 0.73268 -0.00709
#
# Static dielectric constant tensor:
#      x y z
#    x 1.789990 0.000000 0.000000 
#    y 0.000000 1.783100 0.000000 
#    z 0.000000 0.000000 1.886690 
# 
# From -- ./inp_files/8479.got.cif
#   From: 2010.05.17/outbox.cif.g08.bks.cpg/sg51_5_cif.got.tgz:8479.got - 2010.06.03 11:52:47.
