data_PCOD9407393
_publ_section_title
;
Structure prediction by ZEFSAII (Michael W. Deem and Ramdas Pophale) SiO2 
 PCOD9407393
Probable space group: P M M A
;
_chemical_formula_sum "Si O2"
_cell_formula_units_Z 40
_cell_length_a 9.056605
_cell_length_b 7.783208
_cell_length_c 30.698298
_cell_angle_alpha 90.000000
_cell_angle_beta 90.000000
_cell_angle_gamma 90.000000
_cell_volume 2163.905850
_symmetry_space_group_name_H-M "P M M A"
_symmetry_group_IT_number 51
_symmetry_cell_setting 'orthorhombic'
loop_
_space_group_symop_operation_xyz
x,y,z
1/2-x,-y,z
1/2+x,-y,-z
-x,y,-z
-x,-y,-z
1/2+x,y,-z
1/2-x,y,z
x,-y,z
loop_
_atom_site_type_symbol
_atom_site_label
_atom_site_fract_x
_atom_site_fract_y
_atom_site_fract_z
Si Si1 0.069283 0.500000 0.701198
Si Si2 0.429800 0.500000 0.800964
Si Si3 0.421799 0.292218 0.544103
Si Si4 0.427928 0.199874 0.865833
Si Si5 0.929980 0.809037 0.360391
Si Si6 0.419342 0.790394 0.043840
O O1 0.250000 0.500000 0.701818
O O2 0.019243 0.500000 0.751084
O O3 0.021478 0.665586 0.673598
O O4 0.250000 0.500000 0.799984
O O5 0.474001 0.330365 0.827864
O O6 0.500000 0.233932 0.500000
O O7 0.250000 0.244327 0.541275
O O8 0.430660 0.500000 0.546031
O O9 0.481444 0.224732 0.590147
O O10 0.250000 0.206299 0.869595
O O11 0.497253 0.256068 0.911801
O O12 0.468516 0.000000 0.857479
O O13 0.750000 0.798585 0.362137
O O14 0.970703 0.000000 0.346551
O O15 0.250000 0.733828 0.044669
O O16 0.420145 0.000000 0.042594
O O17 0.500000 0.730748 0.000000
#
# Coordination Sequence:
#
# PCOD9407393 Si02
#       6
#     4   4   8   8   8   8
#     4   9  16  28  43  63  91 118 148 191 238 281
#     4   9  18  30  46  67  92 122 155 193 238 283
#     4   9  16  27  43  64  92 124 155 188 227 272
#     4   9  17  30  47  68  96 126 155 190 231 275
#     4   9  16  26  42  64  91 122 153 187 231 280
#     4   9  16  27  46  72 100 130 162 194 230 274
#
# _framework density 18.485092999999999
#
# number of rings (size 3 to 8) (size 9 to 14) (size 15 to 20)
#    0.000    3.000    1.000    0.600    0.000    3.600 
#    0.000    5.000    0.000    0.000    0.000    2.800 
#    0.000    0.000    0.000    0.000    0.000    0.000 
#
# Total GULP energy -222977.758121 kJ/mol
# GULP energy per Si atom -5574.443953 kJ/mol
# Density = 1.844302 g / cm^3
# Si number density = 18.485093 Si / 1000 Ang^3
#
#
#
# Elastic Constant Matrix: (Units=GPa)
#
#
# Indices 1 2 3 4 5 6 
#
# 1 17.3337 23.1105 32.8551 0.0000 0.0000 0.0000
# 2 23.1105 102.6492 97.5004 0.0000 0.0000 0.0000
# 3 32.8551 97.5004 204.5389 0.0000 0.0000 0.0000
# 4 0.0000 0.0000 0.0000 0.1284 0.0000 0.0000
# 5 0.0000 0.0000 0.0000 0.0000 20.7114 0.0000
# 6 0.0000 0.0000 0.0000 0.0000 0.0000 3.9498
#
#
#
# Elastic Compliance Matrix: (Units=1/GPa)
#
#
# Indices 1 2 3 4 5 6 
#
# 1 0.090348 -0.011981 -0.008801 0.000000 0.000000 0.000000
# 2 -0.011981 0.019391 -0.007319 0.000000 0.000000 0.000000
# 3 -0.008801 -0.007319 0.009792 0.000000 0.000000 0.000000
# 4 0.000000 0.000000 0.000000 7.786471 0.000000 0.000000
# 5 0.000000 0.000000 0.000000 0.000000 0.048283 0.000000
# 6 0.000000 0.000000 0.000000 0.000000 0.000000 0.253177
#
#
# Mechanical properties :
#
#
# Convention : Reuss Voigt Hill
#
# Bulk Modulus (GPa) = 15.79084 70.16153 42.97619
# Shear Modulus (GPa) = 0.60352 16.36164 8.48258
#
# Velocity S-wave (km/s) = 0.57201 2.97833 2.14449
# Velocity P-wave (km/s) = 2.99955 7.06155 5.42507
#
# Compressibility (1/GPa) = 0.06332785
#
# Stress axis : x y z
#
# Youngs Moduli (GPa) = 11.06834 51.56991 102.12784
#
# Poissons Ratio (x) = 0.61786 0.89887
# Poissons Ratio (y) = 0.13261 0.74747
# Poissons Ratio (z) = 0.09742 0.37744
#
# Static dielectric constant tensor:
#      x y z
#    x 1.624440 0.000000 0.000000 
#    y 0.000000 1.662710 0.000000 
#    z 0.000000 0.000000 1.614960 
# 
# From -- ./inp_files/36065.got.cif
#   From: 2010.05.17/outbox.cif.g08.bks.cpg/sg51_19_cif.got.tgz:36065.got - 2010.06.03 11:52:47.
