data_PCOD9407762
_publ_section_title
;
Structure prediction by ZEFSAII (Michael W. Deem and Ramdas Pophale) SiO2 
 PCOD9407762
Probable space group: P M M A
;
_chemical_formula_sum "Si O2"
_cell_formula_units_Z 48
_cell_length_a 18.000000
_cell_length_b 15.000000
_cell_length_c 9.000000
_cell_angle_alpha 90.000000
_cell_angle_beta 90.000000
_cell_angle_gamma 90.000000
_cell_volume 2430.000000
_symmetry_space_group_name_H-M "P M M A"
_symmetry_group_IT_number 51
_symmetry_cell_setting 'orthorhombic'
loop_
_space_group_symop_operation_xyz
x,y,z
1/2-x,-y,z
1/2+x,-y,-z
-x,y,-z
-x,-y,-z
1/2+x,y,-z
1/2-x,y,z
x,-y,z
loop_
_atom_site_type_symbol
_atom_site_label
_atom_site_fract_x
_atom_site_fract_y
_atom_site_fract_z
Si Si1 0.163415 0.350835 0.329770
Si Si2 0.586938 0.649266 0.987612
Si Si3 0.664062 0.500000 0.170168
Si Si4 0.831005 0.148366 0.685391
Si Si5 0.915314 0.000000 0.533221
Si Si6 0.412171 0.500000 0.522240
Si Si7 0.164000 0.174640 0.961420
Si Si8 0.661157 0.000000 0.217832
O O1 0.250000 0.374567 0.299685
O O2 0.163043 0.247896 0.376667
O O3 0.126677 0.415075 0.447678
O O4 0.114268 0.355290 0.181673
O O5 0.641831 0.584038 0.072903
O O6 0.605805 0.745943 0.053684
O O7 0.500000 0.626916 0.000000
O O8 0.750000 0.500000 0.214672
O O9 0.609189 0.500000 0.307794
O O10 0.750000 0.111733 0.642364
O O11 0.893763 0.086040 0.626009
O O12 0.833193 0.153457 0.863278
O O13 0.870364 0.000000 0.381065
O O14 0.000000 0.000000 0.500000
O O15 0.500000 0.500000 0.500000
O O16 0.250000 0.199477 0.920786
O O17 0.139785 0.088726 0.870553
O O18 0.750000 0.000000 0.221509
#
# Coordination Sequence:
#
# PCOD9407762 Si02
#       8
#     8   8   4   8   4   4   8   4
#     4  10  21  40  63  84 110 155 203 235 273 343
#     4  11  22  38  61  90 120 150 187 240 294 338
#     4  12  24  38  58  86 118 154 194 238 286 342
#     4   9  19  38  62  81 105 147 197 236 272 331
#     4  12  25  36  52  82 120 154 187 230 286 344
#     4  12  25  40  59  88 122 152 186 238 297 346
#     4   9  19  38  63  88 110 144 193 240 284 339
#     4  10  21  36  57  84 115 148 187 236 288 336
#
# _framework density 19.753086
#
# number of rings (size 3 to 8) (size 9 to 14) (size 15 to 20)
#    0.000    1.667    0.000    6.250    0.000    6.000 
#    0.000    2.917    0.000    0.000    0.000    0.000 
#    0.000    0.000    0.000    0.000    0.000    0.000 
#
# Total GULP energy -267909.801520 kJ/mol
# GULP energy per Si atom -5581.454198 kJ/mol
# Density = 1.970813 g / cm^3
# Si number density = 19.753086 Si / 1000 Ang^3
#
#
#
# Elastic Constant Matrix: (Units=GPa)
#
#
# Indices 1 2 3 4 5 6 
#
# 1 71.8732 2.6033 -19.6123 0.0000 0.0000 0.0000
# 2 2.6033 56.3155 23.1613 0.0000 0.0000 0.0000
# 3 -19.6123 23.1613 -12.8525 0.0000 0.0000 0.0000
# 4 0.0000 0.0000 0.0000 29.3840 0.0000 0.0000
# 5 0.0000 0.0000 0.0000 0.0000 24.2108 0.0000
# 6 0.0000 0.0000 0.0000 0.0000 0.0000 -11.5769
#
#
#
# Elastic Compliance Matrix: (Units=1/GPa)
#
#
# Indices 1 2 3 4 5 6 
#
# 1 0.011005 0.003674 -0.010171 0.000000 0.000000 0.000000
# 2 0.003674 0.011425 0.014982 0.000000 0.000000 0.000000
# 3 -0.010171 0.014982 -0.035286 0.000000 0.000000 0.000000
# 4 0.000000 0.000000 0.000000 0.034032 0.000000 0.000000
# 5 0.000000 0.000000 0.000000 0.000000 0.041304 0.000000
# 6 0.000000 0.000000 0.000000 0.000000 0.000000 -0.086379
#
#
# Mechanical properties :
#
#
# Convention : Reuss Voigt Hill
#
# Bulk Modulus (GPa) = 242.96709 14.18229 128.57469
# Shear Modulus (GPa) = -126.59058 15.68250 -55.45404
#
# Velocity S-wave (km/s) = -8.01409 2.82073 -5.30420
# Velocity P-wave (km/s) = 6.13474 4.21948 5.26493
#
# Compressibility (1/GPa) = 0.00411578
#
# Stress axis : x y z
#
# Youngs Moduli (GPa) = 90.86900 87.52463 -28.34013
#
# Poissons Ratio (x) = -0.32161 -0.28825
# Poissons Ratio (y) = -0.33389 0.42460
# Poissons Ratio (z) = 0.92425 -1.31132
#
# Static dielectric constant tensor:
#      x y z
#    x 1.695580 0.000000 0.000000 
#    y 0.000000 1.739030 0.000000 
#    z 0.000000 0.000000 1.676330 
# 
# From -- ./inp_files/9780.got.cif
#   From: 2010.05.17/outbox.ucp.g08.bks.cvg/sg51_5_cif.got.tgz:9780.got - 2010.06.11 16:27:58.
