data_PCOD9407505
_publ_section_title
;
Structure prediction by ZEFSAII (Michael W. Deem and Ramdas Pophale) SiO2 
 PCOD9407505
Probable space group: P M M A
;
_chemical_formula_sum "Si O2"
_cell_formula_units_Z 64
_cell_length_a 24.000000
_cell_length_b 9.000000
_cell_length_c 15.000000
_cell_angle_alpha 90.000000
_cell_angle_beta 90.000000
_cell_angle_gamma 90.000000
_cell_volume 3240.000000
_symmetry_space_group_name_H-M "P M M A"
_symmetry_group_IT_number 51
_symmetry_cell_setting 'orthorhombic'
loop_
_space_group_symop_operation_xyz
x,y,z
1/2-x,-y,z
1/2+x,-y,-z
-x,y,-z
-x,-y,-z
1/2+x,y,-z
1/2-x,y,z
x,-y,z
loop_
_atom_site_type_symbol
_atom_site_label
_atom_site_fract_x
_atom_site_fract_y
_atom_site_fract_z
Si Si1 0.184526 0.166408 0.122060
Si Si2 0.665369 0.331292 0.520240
Si Si3 0.309218 0.822922 0.658103
Si Si4 0.497923 0.173724 0.275549
Si Si5 0.874857 0.174765 0.690281
Si Si6 0.452894 0.340110 0.573294
Si Si7 0.685597 0.325193 0.054835
Si Si8 0.105510 0.819741 0.804963
O O1 0.250000 0.171685 0.142032
O O2 0.152280 0.185520 0.213267
O O3 0.172627 0.287457 0.047608
O O4 0.172128 0.000000 0.086141
O O5 0.685538 0.500000 0.525804
O O6 0.692945 0.240861 0.440725
O O7 0.661714 0.255992 0.616052
O O8 0.602776 0.332151 0.482597
O O9 0.250000 0.787656 0.703329
O O10 0.359527 0.765166 0.718340
O O11 0.314592 0.000000 0.652276
O O12 0.437429 0.238648 0.297455
O O13 0.534119 0.202202 0.363884
O O14 0.540992 0.229736 0.200515
O O15 0.488508 0.000000 0.258162
O O16 0.878502 0.000000 0.664442
O O17 0.500000 0.342788 0.500000
O O18 0.453915 0.500000 0.623255
O O19 0.750000 0.275720 0.070170
O O20 0.682676 0.500000 0.072403
O O21 0.641181 0.238965 0.113677
O O22 0.105751 0.000000 0.804038
#
# Coordination Sequence:
#
# PCOD9407505 Si02
#       8
#     8   8   8   8   8   8   8   8
#     4   9  19  38  62  83 105 137 177 221 270 324
#     4  11  22  34  51  76 108 146 185 225 270 321
#     4  10  21  36  53  75 106 144 186 230 272 320
#     4  10  20  33  53  80 109 141 182 228 269 314
#     4  10  21  36  56  83 111 142 184 230 273 319
#     4  10  19  32  49  72 104 142 183 223 264 312
#     4  10  21  37  59  86 110 135 174 223 272 323
#     4  10  20  35  56  81 109 143 180 220 272 327
#
# _framework density 19.753086
#
# number of rings (size 3 to 8) (size 9 to 14) (size 15 to 20)
#    0.000    2.000    2.500    1.125    0.000    4.250 
#    0.000    1.875    0.000    3.750    0.000    0.000 
#    0.000    0.000    0.000    0.000    0.000    0.000 
#
# Total GULP energy -356344.015597 kJ/mol
# GULP energy per Si atom -5567.875244 kJ/mol
# Density = 1.970813 g / cm^3
# Si number density = 19.753086 Si / 1000 Ang^3
#
#
#
# Elastic Constant Matrix: (Units=GPa)
#
#
# Indices 1 2 3 4 5 6 
#
# 1 48.2399 7.9355 20.5423 0.0000 0.0000 0.0000
# 2 7.9355 -6.2504 5.1485 0.0000 0.0000 0.0000
# 3 20.5423 5.1485 41.8439 0.0000 0.0000 0.0000
# 4 0.0000 0.0000 0.0000 -353.6370 0.0000 0.0000
# 5 0.0000 0.0000 0.0000 0.0000 23.0301 0.0000
# 6 0.0000 0.0000 0.0000 0.0000 0.0000 3.7186
#
#
#
# Elastic Compliance Matrix: (Units=1/GPa)
#
#
# Indices 1 2 3 4 5 6 
#
# 1 0.023583 0.018527 -0.013857 0.000000 0.000000 0.000000
# 2 0.018527 -0.130713 0.006988 0.000000 0.000000 0.000000
# 3 -0.013857 0.006988 0.029841 0.000000 0.000000 0.000000
# 4 0.000000 0.000000 0.000000 -0.002828 0.000000 0.000000
# 5 0.000000 0.000000 0.000000 0.000000 0.043421 0.000000
# 6 0.000000 0.000000 0.000000 0.000000 0.000000 0.268920
#
#
# Mechanical properties :
#
#
# Convention : Reuss Voigt Hill
#
# Bulk Modulus (GPa) = -18.52760 16.78734 -0.87013
# Shear Modulus (GPa) = 26.18916 -62.03053 -17.92068
#
# Velocity S-wave (km/s) = 3.64514 -5.60991 -3.01530
# Velocity P-wave (km/s) = 2.88377 5.78312 3.54460
#
# Compressibility (1/GPa) = -0.05397353
#
# Stress axis : x y z
#
# Youngs Moduli (GPa) = 42.40368 -7.65036 33.51056
#
# Poissons Ratio (x) = 0.14174 0.46436
# Poissons Ratio (y) = -0.78560 -0.23417
# Poissons Ratio (z) = 0.58759 0.05346
#
# Static dielectric constant tensor:
#      x y z
#    x 1.812550 0.000000 0.000000 
#    y 0.000000 1.726850 0.000000 
#    z 0.000000 0.000000 1.672630 
# 
# From -- ./inp_files/26320.got.cif
#   From: 2010.05.17/outbox.ucp.g08.bks.cvg/sg51_14_cif.got.tgz:26320.got - 2010.06.11 16:27:58.
