data_PCOD9407275
_publ_section_title
;
Structure prediction by ZEFSAII (Michael W. Deem and Ramdas Pophale) SiO2 
 PCOD9407275
Probable space group: P M M A
;
_chemical_formula_sum "Si O2"
_cell_formula_units_Z 48
_cell_length_a 10.389759
_cell_length_b 7.399654
_cell_length_c 31.335303
_cell_angle_alpha 90.000000
_cell_angle_beta 90.000000
_cell_angle_gamma 90.000000
_cell_volume 2409.077577
_symmetry_space_group_name_H-M "P M M A"
_symmetry_group_IT_number 51
_symmetry_cell_setting 'orthorhombic'
loop_
_space_group_symop_operation_xyz
x,y,z
1/2-x,-y,z
1/2+x,-y,-z
-x,y,-z
-x,-y,-z
1/2+x,y,-z
1/2-x,y,z
x,-y,z
loop_
_atom_site_type_symbol
_atom_site_label
_atom_site_fract_x
_atom_site_fract_y
_atom_site_fract_z
Si Si1 0.605990 0.284335 0.297651
Si Si2 0.602427 0.720429 0.201412
Si Si3 0.396877 0.279692 0.034645
Si Si4 0.603089 0.720299 0.868102
Si Si5 0.393994 0.784326 0.368887
Si Si6 0.397575 0.220418 0.465142
O O1 0.750000 0.216968 0.308614
O O2 0.615092 0.500000 0.294270
O O3 0.571898 0.220203 0.249855
O O4 0.500029 0.250041 0.333283
O O5 0.750000 0.772839 0.191997
O O6 0.599525 0.500000 0.200895
O O7 0.500045 0.782513 0.166524
O O8 0.250000 0.224984 0.024942
O O9 0.398225 0.500000 0.034229
O O10 0.427212 0.224804 0.083271
O O11 0.500000 0.217829 0.000000
O O12 0.750000 0.775015 0.858357
O O13 0.601837 0.500000 0.867734
O O14 0.250000 0.716982 0.357896
O O15 0.427958 0.720176 0.416692
O O16 0.384928 0.000000 0.372248
O O17 0.500000 0.282850 0.500000
O O18 0.250000 0.272848 0.474633
O O19 0.400395 0.000000 0.465607
#
# Coordination Sequence:
#
# PCOD9407275 Si02
#       6
#     8   8   8   8   8   8
#     4   9  18  31  45  63  87 113 144 181 216 253
#     4   8  14  24  36  50  69  93 123 161 201 238
#     4   8  13  19  25  35  53  77 107 145 187 230
#     4   8  13  20  29  42  60  82 113 154 194 233
#     4   9  18  31  46  67  93 116 141 175 212 252
#     4   8  14  25  41  62  87 111 136 169 206 244
#
# _framework density 19.924638999999999
#
# number of rings (size 3 to 8) (size 9 to 14) (size 15 to 20)
#    0.000    3.667    0.000    3.000    0.000    2.667 
#    0.000    6.667    0.000    0.500    0.000    0.000 
#    0.000    0.000    0.000    0.000    0.000    0.833 
#
# Total GULP energy -267568.499056 kJ/mol
# GULP energy per Si atom -5574.343730 kJ/mol
# Density = 1.987929 g / cm^3
# Si number density = 19.924639 Si / 1000 Ang^3
#
#
#
# Elastic Constant Matrix: (Units=GPa)
#
#
# Indices 1 2 3 4 5 6 
#
# 1 189.7130 5.1479 179.6661 0.0000 0.0000 0.0000
# 2 5.1479 64.3021 6.6926 0.0000 0.0000 0.0000
# 3 179.6661 6.6926 204.4395 0.0000 0.0000 0.0000
# 4 0.0000 0.0000 0.0000 8.6536 0.0000 0.0000
# 5 0.0000 0.0000 0.0000 0.0000 49.2243 0.0000
# 6 0.0000 0.0000 0.0000 0.0000 0.0000 2.7980
#
#
#
# Elastic Compliance Matrix: (Units=1/GPa)
#
#
# Indices 1 2 3 4 5 6 
#
# 1 0.031437 0.000360 -0.027639 0.000000 0.000000 0.000000
# 2 0.000360 0.015609 -0.000827 0.000000 0.000000 0.000000
# 3 -0.027639 -0.000827 0.029208 0.000000 0.000000 0.000000
# 4 0.000000 0.000000 0.000000 0.115559 0.000000 0.000000
# 5 0.000000 0.000000 0.000000 0.000000 0.020315 0.000000
# 6 0.000000 0.000000 0.000000 0.000000 0.000000 0.357402
#
#
# Mechanical properties :
#
#
# Convention : Reuss Voigt Hill
#
# Bulk Modulus (GPa) = 49.89752 93.49641 71.69696
# Shear Modulus (GPa) = 7.90608 29.93169 18.91889
#
# Velocity S-wave (km/s) = 1.99414 3.88009 3.08477
# Velocity P-wave (km/s) = 5.51359 8.19148 6.98212
#
# Compressibility (1/GPa) = 0.02004108
#
# Stress axis : x y z
#
# Youngs Moduli (GPa) = 31.80980 64.06605 34.23662
#
# Poissons Ratio (x) = -0.02306 0.94627
# Poissons Ratio (y) = -0.01145 0.02832
# Poissons Ratio (z) = 0.87920 0.05300
#
# Static dielectric constant tensor:
#      x y z
#    x 1.696790 0.000000 0.000000 
#    y 0.000000 1.855780 0.000000 
#    z 0.000000 0.000000 1.679500 
# 
# From -- ./inp_files/36915.got.cif
#   From: 2010.05.17/outbox.cif.g08.bks.cpg/sg51_19_cif.got.tgz:36915.got - 2010.06.03 11:52:47.
