data_PCOD9407021
_publ_section_title
;
Structure prediction by ZEFSAII (Michael W. Deem and Ramdas Pophale) SiO2 
 PCOD9407021
Probable space group: P M M A
;
_chemical_formula_sum "Si O2"
_cell_formula_units_Z 48
_cell_length_a 8.523655
_cell_length_b 32.215572
_cell_length_c 9.641609
_cell_angle_alpha 90.000000
_cell_angle_beta 90.000000
_cell_angle_gamma 90.000000
_cell_volume 2647.532044
_symmetry_space_group_name_H-M "P M M A"
_symmetry_group_IT_number 51
_symmetry_cell_setting 'orthorhombic'
loop_
_space_group_symop_operation_xyz
x,y,z
1/2-x,-y,z
1/2+x,-y,-z
-x,y,-z
-x,-y,-z
1/2+x,y,-z
1/2-x,y,z
x,-y,z
loop_
_atom_site_type_symbol
_atom_site_label
_atom_site_fract_x
_atom_site_fract_y
_atom_site_fract_z
Si Si1 0.936806 0.867438 0.841836
Si Si2 0.939605 0.378301 0.154949
Si Si3 0.938279 0.045201 0.158335
Si Si4 0.938511 0.207894 0.343443
Si Si5 0.439385 0.284749 0.844341
Si Si6 0.060466 0.546007 0.656186
O O1 0.250000 0.865852 0.152712
O O2 0.990313 0.912426 0.783856
O O3 0.002103 0.831030 0.745950
O O4 0.000000 0.863203 0.000000
O O5 0.750000 0.378936 0.154451
O O6 0.988866 0.331547 0.196449
O O7 0.995986 0.415407 0.252713
O O8 0.000000 0.385074 0.000000
O O9 0.750000 0.048584 0.156729
O O10 0.980315 0.000000 0.220727
O O11 0.000000 0.044140 0.000000
O O12 0.750000 0.207356 0.345563
O O13 0.991467 0.249635 0.263039
O O14 0.000000 0.206674 0.500000
O O15 0.250000 0.283984 0.849217
O O16 0.500000 0.276397 0.000000
O O17 0.250000 0.547005 0.654573
O O18 0.012868 0.500000 0.708227
O O19 0.000000 0.549994 0.500000
#
# Coordination Sequence:
#
# PCOD9407021 Si02
#       6
#     8   8   8   8   8   8
#     4  11  21  34  54  79 107 140 176 214 258 306
#     4   9  18  33  51  74 102 130 164 206 253 302
#     4   9  16  27  46  74 106 137 171 213 257 300
#     4  11  23  38  54  75 103 134 171 213 259 309
#     4   9  19  35  55  76 100 131 166 207 253 305
#     4   9  18  32  49  70  99 134 170 208 249 296
#
# _framework density 18.130091
#
# number of rings (size 3 to 8) (size 9 to 14) (size 15 to 20)
#    0.000    2.333    0.000    4.000    0.000    5.333 
#    0.000    0.000    0.000    0.500    0.000    0.000 
#    0.000    0.000    0.000    0.000    0.000    0.000 
#
# Total GULP energy -267682.184100 kJ/mol
# GULP energy per Si atom -5576.712169 kJ/mol
# Density = 1.808883 g / cm^3
# Si number density = 18.130091 Si / 1000 Ang^3
#
#
#
# Elastic Constant Matrix: (Units=GPa)
#
#
# Indices 1 2 3 4 5 6 
#
# 1 49.4920 43.9621 25.6287 0.0000 0.0000 0.0000
# 2 43.9621 210.5607 105.5884 0.0000 0.0000 0.0000
# 3 25.6287 105.5884 86.6896 0.0000 0.0000 0.0000
# 4 0.0000 0.0000 0.0000 -9.3190 0.0000 0.0000
# 5 0.0000 0.0000 0.0000 0.0000 27.6318 0.0000
# 6 0.0000 0.0000 0.0000 0.0000 0.0000 -143.7442
#
#
#
# Elastic Compliance Matrix: (Units=1/GPa)
#
#
# Indices 1 2 3 4 5 6 
#
# 1 0.025042 -0.003895 -0.002660 0.000000 0.000000 0.000000
# 2 -0.003895 0.012808 -0.014449 0.000000 0.000000 0.000000
# 3 -0.002660 -0.014449 0.029920 0.000000 0.000000 0.000000
# 4 0.000000 0.000000 0.000000 -0.107308 0.000000 0.000000
# 5 0.000000 0.000000 0.000000 0.000000 0.036190 0.000000
# 6 0.000000 0.000000 0.000000 0.000000 0.000000 -0.006957
#
#
# Mechanical properties :
#
#
# Convention : Reuss Voigt Hill
#
# Bulk Modulus (GPa) = 38.81345 77.45564 58.13455
# Shear Modulus (GPa) = 124.10339 -13.64873 55.22733
#
# Velocity S-wave (km/s) = 8.28252 -2.74674 5.52520
# Velocity P-wave (km/s) = 10.62646 5.72324 8.53455
#
# Compressibility (1/GPa) = 0.02576426
#
# Stress axis : x y z
#
# Youngs Moduli (GPa) = 39.93283 78.07730 33.42234
#
# Poissons Ratio (x) = 0.30409 0.08889
# Poissons Ratio (y) = 0.15553 0.48290
# Poissons Ratio (z) = 0.10620 1.12810
#
# Static dielectric constant tensor:
#      x y z
#    x 1.610070 0.000000 0.000000 
#    y 0.000000 1.669740 0.000000 
#    z 0.000000 0.000000 1.576930 
# 
# From -- ./inp_files/6039.got.cif
#   From: 2010.05.17/outbox.cif.g08.bks.cpg/sg51_4_cif.got.tgz:6039.got - 2010.06.03 11:52:47.
