data_PCOD9407185
_publ_section_title
;
Structure prediction by ZEFSAII (Michael W. Deem and Ramdas Pophale) SiO2 
 PCOD9407185
Probable space group: P M M A
;
_chemical_formula_sum "Si O2"
_cell_formula_units_Z 56
_cell_length_a 20.162909
_cell_length_b 7.521551
_cell_length_c 18.241314
_cell_angle_alpha 90.000000
_cell_angle_beta 90.000000
_cell_angle_gamma 90.000000
_cell_volume 2766.411070
_symmetry_space_group_name_H-M "P M M A"
_symmetry_group_IT_number 51
_symmetry_cell_setting 'orthorhombic'
loop_
_space_group_symop_operation_xyz
x,y,z
1/2-x,-y,z
1/2+x,-y,-z
-x,y,-z
-x,-y,-z
1/2+x,y,-z
1/2-x,y,z
x,-y,z
loop_
_atom_site_type_symbol
_atom_site_label
_atom_site_fract_x
_atom_site_fract_y
_atom_site_fract_z
Si Si1 0.070799 0.282568 0.533657
Si Si2 0.825030 0.207880 0.011905
Si Si3 0.945974 0.715370 0.303901
Si Si4 0.930536 0.710694 0.886419
Si Si5 0.098187 0.715627 0.272862
Si Si6 0.824511 0.282282 0.587219
Si Si7 0.079171 0.285085 0.858744
O O1 0.070567 0.500000 0.535038
O O2 0.080228 0.222500 0.617542
O O3 0.127005 0.224972 0.477432
O O4 0.000000 0.229240 0.500000
O O5 0.750000 0.284834 0.006685
O O6 0.859501 0.232999 0.090718
O O7 0.818682 0.000000 0.998705
O O8 0.880338 0.268668 0.953360
O O9 0.940657 0.500000 0.303511
O O10 0.916587 0.775897 0.225949
O O11 0.024167 0.757071 0.300451
O O12 0.938654 0.500000 0.876679
O O13 0.898291 0.780135 0.810751
O O14 0.007086 0.776802 0.890959
O O15 0.103742 0.500000 0.271145
O O16 0.149473 0.778441 0.333499
O O17 0.750000 0.225783 0.574234
O O18 0.826150 0.500000 0.587931
O O19 0.078136 0.500000 0.858682
#
# Coordination Sequence:
#
# PCOD9407185 Si02
#       7
#     8   8   8   8   8   8   8
#     4   9  13  19  34  53  80 121 158 182 217 269
#     4  11  24  38  50  68  96 129 164 200 242 295
#     4   8  13  23  40  62  86 116 155 191 225 274
#     4   9  18  32  53  77  98 121 157 201 245 294
#     4   8  13  23  38  59  86 115 146 184 229 279
#     4   9  15  20  28  49  83 119 153 187 223 267
#     4   9  18  33  53  76  99 123 159 205 246 288
#
# _framework density 20.242833999999998
#
# number of rings (size 3 to 8) (size 9 to 14) (size 15 to 20)
#    0.000    3.000    1.429    2.571    0.000    4.000 
#    0.000    2.143    0.000    2.571    0.000    0.000 
#    0.000    1.714    0.000    3.571    0.000    2.571 
#
# Total GULP energy -312142.342522 kJ/mol
# GULP energy per Si atom -5573.970402 kJ/mol
# Density = 2.019676 g / cm^3
# Si number density = 20.242834 Si / 1000 Ang^3
#
#
#
# Elastic Constant Matrix: (Units=GPa)
#
#
# Indices 1 2 3 4 5 6 
#
# 1 82.2004 -7.5111 40.5432 0.0000 0.0000 0.0000
# 2 -7.5111 44.7174 -13.3465 0.0000 0.0000 0.0000
# 3 40.5432 -13.3465 90.9135 0.0000 0.0000 0.0000
# 4 0.0000 0.0000 0.0000 -68.5246 0.0000 0.0000
# 5 0.0000 0.0000 0.0000 0.0000 22.6630 0.0000
# 6 0.0000 0.0000 0.0000 0.0000 0.0000 19.0255
#
#
#
# Elastic Compliance Matrix: (Units=1/GPa)
#
#
# Indices 1 2 3 4 5 6 
#
# 1 0.015610 0.000569 -0.006878 0.000000 0.000000 0.000000
# 2 0.000569 0.023408 0.003183 0.000000 0.000000 0.000000
# 3 -0.006878 0.003183 0.014534 0.000000 0.000000 0.000000
# 4 0.000000 0.000000 0.000000 -0.014593 0.000000 0.000000
# 5 0.000000 0.000000 0.000000 0.000000 0.044125 0.000000
# 6 0.000000 0.000000 0.000000 0.000000 0.000000 0.052561
#
#
# Mechanical properties :
#
#
# Convention : Reuss Voigt Hill
#
# Bulk Modulus (GPa) = 21.14168 28.57805 24.85987
# Shear Modulus (GPa) = 31.71335 7.84249 19.77792
#
# Velocity S-wave (km/s) = 3.96238 1.97044 3.12914
# Velocity P-wave (km/s) = 5.60363 4.39603 5.03616
#
# Compressibility (1/GPa) = 0.04729993
#
# Stress axis : x y z
#
# Youngs Moduli (GPa) = 64.06311 42.72014 68.80528
#
# Poissons Ratio (x) = -0.02432 0.47322
# Poissons Ratio (y) = -0.03647 -0.21898
# Poissons Ratio (z) = 0.44060 -0.13596
#
# Static dielectric constant tensor:
#      x y z
#    x 1.699290 0.000000 0.000000 
#    y 0.000000 1.777690 0.000000 
#    z 0.000000 0.000000 1.731590 
# 
# From -- ./inp_files/30350.got.cif
#   From: 2010.05.17/outbox.cif.g08.bks.cpg/sg51_16_cif.got.tgz:30350.got - 2010.06.03 11:52:47.
