data_PCOD9407008
_publ_section_title
;
Structure prediction by ZEFSAII (Michael W. Deem and Ramdas Pophale) SiO2 
 PCOD9407008
Probable space group: P M M A
;
_chemical_formula_sum "Si O2"
_cell_formula_units_Z 56
_cell_length_a 8.798866
_cell_length_b 14.922141
_cell_length_c 23.618262
_cell_angle_alpha 90.000000
_cell_angle_beta 90.000000
_cell_angle_gamma 90.000000
_cell_volume 3101.028653
_symmetry_space_group_name_H-M "P M M A"
_symmetry_group_IT_number 51
_symmetry_cell_setting 'orthorhombic'
loop_
_space_group_symop_operation_xyz
x,y,z
1/2-x,-y,z
1/2+x,-y,-z
-x,y,-z
-x,-y,-z
1/2+x,y,-z
1/2-x,y,z
x,-y,z
loop_
_atom_site_type_symbol
_atom_site_label
_atom_site_fract_x
_atom_site_fract_y
_atom_site_fract_z
Si Si1 0.066629 0.104252 0.439329
Si Si2 0.067120 0.790382 0.328720
Si Si3 0.568788 0.712259 0.940767
Si Si4 0.922621 0.648575 0.172234
Si Si5 0.421461 0.146945 0.782571
Si Si6 0.567008 0.596594 0.712554
Si Si7 0.065679 0.901878 0.905042
O O1 0.250000 0.108388 0.441989
O O2 0.014262 0.165710 0.387235
O O3 0.000000 0.131281 0.500000
O O4 0.024377 0.000000 0.429281
O O5 0.250000 0.789001 0.329460
O O6 0.013333 0.687763 0.318245
O O7 0.015865 0.849305 0.274822
O O8 0.750000 0.710820 0.941663
O O9 0.506066 0.655340 0.887763
O O10 0.511852 0.815229 0.932117
O O11 0.500000 0.680144 0.000000
O O12 0.750000 0.615739 0.166067
O O13 0.914983 0.750879 0.194844
O O14 0.010911 0.600337 0.222641
O O15 0.250000 0.116429 0.770220
O O16 0.479129 0.097374 0.838483
O O17 0.750000 0.599609 0.712304
O O18 0.518856 0.500000 0.688040
O O19 0.250000 0.889770 0.907059
O O20 0.029353 0.000000 0.929367
#
# Coordination Sequence:
#
# PCOD9407008 Si02
#       7
#     8   8   8   8   8   8   8
#     4   9  18  32  48  67  93 127 168 210 248 285
#     4   9  17  29  46  69  97 127 159 199 244 288
#     4  11  21  33  49  67  88 118 159 202 245 295
#     4   9  17  31  49  69  94 122 153 190 234 282
#     4   8  15  27  43  64  89 118 151 188 233 285
#     4   9  17  30  50  76 103 130 159 191 233 290
#     4   9  18  32  46  62  89 122 156 198 247 298
#
# _framework density 18.058523999999998
#
# number of rings (size 3 to 8) (size 9 to 14) (size 15 to 20)
#    0.000    2.857    0.000    2.571    0.000    5.429 
#    0.000    0.000    0.000    0.857    0.000    0.000 
#    0.000    0.000    0.000    0.000    0.000    0.000 
#
# Total GULP energy -311976.947613 kJ/mol
# GULP energy per Si atom -5571.016922 kJ/mol
# Density = 1.801742 g / cm^3
# Si number density = 18.058524 Si / 1000 Ang^3
#
#
#
# Elastic Constant Matrix: (Units=GPa)
#
#
# Indices 1 2 3 4 5 6 
#
# 1 31.7703 9.4683 30.5139 0.0000 0.0000 0.0000
# 2 9.4683 56.3637 38.2623 0.0000 0.0000 0.0000
# 3 30.5139 38.2623 138.0241 0.0000 0.0000 0.0000
# 4 0.0000 0.0000 0.0000 12.6499 0.0000 0.0000
# 5 0.0000 0.0000 0.0000 0.0000 28.2990 0.0000
# 6 0.0000 0.0000 0.0000 0.0000 0.0000 7.9790
#
#
#
# Elastic Compliance Matrix: (Units=1/GPa)
#
#
# Indices 1 2 3 4 5 6 
#
# 1 0.039997 -0.000882 -0.008598 0.000000 0.000000 0.000000
# 2 -0.000882 0.021874 -0.005869 0.000000 0.000000 0.000000
# 3 -0.008598 -0.005869 0.010773 0.000000 0.000000 0.000000
# 4 0.000000 0.000000 0.000000 0.079052 0.000000 0.000000
# 5 0.000000 0.000000 0.000000 0.000000 0.035337 0.000000
# 6 0.000000 0.000000 0.000000 0.000000 0.000000 0.125329
#
#
# Mechanical properties :
#
#
# Convention : Reuss Voigt Hill
#
# Bulk Modulus (GPa) = 23.84024 42.51634 33.17829
# Shear Modulus (GPa) = 14.00397 19.64647 16.82522
#
# Velocity S-wave (km/s) = 2.78776 3.30196 3.05570
# Velocity P-wave (km/s) = 4.85721 6.17511 5.55538
#
# Compressibility (1/GPa) = 0.04194589
#
# Stress axis : x y z
#
# Youngs Moduli (GPa) = 25.00211 45.71610 92.82654
#
# Poissons Ratio (x) = 0.04034 0.79810
# Poissons Ratio (y) = 0.02206 0.54478
# Poissons Ratio (z) = 0.21496 0.26830
#
# Static dielectric constant tensor:
#      x y z
#    x 1.614260 0.000000 0.000000 
#    y 0.000000 1.666090 0.000000 
#    z 0.000000 0.000000 1.606160 
# 
# From -- ./inp_files/32011.got.cif
#   From: 2010.05.17/outbox.cif.g08.bks.cpg/sg51_17_cif.got.tgz:32011.got - 2010.06.03 11:52:47.
