data_PCOD9407069
_publ_section_title
;
Structure prediction by ZEFSAII (Michael W. Deem and Ramdas Pophale) SiO2 
 PCOD9407069
Probable space group: P M M A
;
_chemical_formula_sum "Si O2"
_cell_formula_units_Z 64
_cell_length_a 8.680688
_cell_length_b 21.291180
_cell_length_c 17.977616
_cell_angle_alpha 90.000000
_cell_angle_beta 90.000000
_cell_angle_gamma 90.000000
_cell_volume 3322.660575
_symmetry_space_group_name_H-M "P M M A"
_symmetry_group_IT_number 51
_symmetry_cell_setting 'orthorhombic'
loop_
_space_group_symop_operation_xyz
x,y,z
1/2-x,-y,z
1/2+x,-y,-z
-x,y,-z
-x,-y,-z
1/2+x,y,-z
1/2-x,y,z
x,-y,z
loop_
_atom_site_type_symbol
_atom_site_label
_atom_site_fract_x
_atom_site_fract_y
_atom_site_fract_z
Si Si1 0.433236 0.931775 0.620207
Si Si2 0.066147 0.334969 0.422942
Si Si3 0.062795 0.430893 0.870901
Si Si4 0.066098 0.702945 0.922891
Si Si5 0.434990 0.199460 0.373466
Si Si6 0.565637 0.932251 0.786605
Si Si7 0.064990 0.428960 0.696453
Si Si8 0.065766 0.795623 0.197804
O O1 0.250000 0.929907 0.611959
O O2 0.501747 0.865687 0.593731
O O3 0.479200 0.932323 0.707647
O O4 0.489483 0.000000 0.590639
O O5 0.250000 0.334109 0.425694
O O6 0.010349 0.263201 0.412070
O O7 0.000000 0.360456 0.500000
O O8 0.012818 0.377128 0.354264
O O9 0.250000 0.431712 0.875255
O O10 0.007876 0.500000 0.896039
O O11 0.007411 0.368714 0.912162
O O12 0.024316 0.423361 0.783522
O O13 0.250000 0.701754 0.926356
O O14 0.015523 0.744522 0.852860
O O15 0.000000 0.728625 0.000000
O O16 0.250000 0.196230 0.377025
O O17 0.475281 0.206682 0.285516
O O18 0.750000 0.929116 0.770624
O O19 0.527359 0.867212 0.826887
O O20 0.535054 0.000000 0.823215
O O21 0.250000 0.422732 0.691163
O O22 0.023881 0.500000 0.672709
O O23 0.250000 0.786478 0.192286
#
# Coordination Sequence:
#
# PCOD9407069 Si02
#       8
#     8   8   8   8   8   8   8   8
#     4   9  16  25  42  72 104 130 161 205 252 297
#     4  11  23  37  53  75 104 137 173 211 252 299
#     4   8  16  33  56  79 101 127 162 203 246 293
#     4  11  22  34  50  72 100 134 168 203 245 293
#     4   9  19  34  52  74 100 133 170 209 255 304
#     4   8  14  26  45  69  98 131 163 199 248 300
#     4   9  18  35  59  83 105 131 165 205 250 301
#     4   9  17  31  51  74 100 128 162 205 248 294
#
# _framework density 19.261672000000001
#
# number of rings (size 3 to 8) (size 9 to 14) (size 15 to 20)
#    0.000    2.750    0.000    3.375    0.000    4.500 
#    0.000    0.625    0.000    3.375    0.000    0.000 
#    0.000    0.000    0.000    0.000    0.000    0.000 
#
# Total GULP energy -356749.531485 kJ/mol
# GULP energy per Si atom -5574.211429 kJ/mol
# Density = 1.921783 g / cm^3
# Si number density = 19.261672 Si / 1000 Ang^3
#
#
#
# Elastic Constant Matrix: (Units=GPa)
#
#
# Indices 1 2 3 4 5 6 
#
# 1 17.9744 19.6687 11.2943 0.0000 0.0000 0.0000
# 2 19.6687 104.2201 27.1414 0.0000 0.0000 0.0000
# 3 11.2943 27.1414 47.3237 0.0000 0.0000 0.0000
# 4 0.0000 0.0000 0.0000 -24.3176 0.0000 0.0000
# 5 0.0000 0.0000 0.0000 0.0000 8.0528 0.0000
# 6 0.0000 0.0000 0.0000 0.0000 0.0000 26.8903
#
#
#
# Elastic Compliance Matrix: (Units=1/GPa)
#
#
# Indices 1 2 3 4 5 6 
#
# 1 0.075097 -0.011174 -0.011514 0.000000 0.000000 0.000000
# 2 -0.011174 0.012942 -0.004756 0.000000 0.000000 0.000000
# 3 -0.011514 -0.004756 0.026607 0.000000 0.000000 0.000000
# 4 0.000000 0.000000 0.000000 -0.041122 0.000000 0.000000
# 5 0.000000 0.000000 0.000000 0.000000 0.124180 0.000000
# 6 0.000000 0.000000 0.000000 0.000000 0.000000 0.037188
#
#
# Mechanical properties :
#
#
# Convention : Reuss Voigt Hill
#
# Bulk Modulus (GPa) = 16.73425 31.74744 24.24085
# Shear Modulus (GPa) = 16.14474 9.55270 12.84872
#
# Velocity S-wave (km/s) = 2.89827 2.22939 2.58556
# Velocity P-wave (km/s) = 4.46169 4.81091 4.63959
#
# Compressibility (1/GPa) = 0.05975769
#
# Stress axis : x y z
#
# Youngs Moduli (GPa) = 13.31618 77.26519 37.58445
#
# Poissons Ratio (x) = 0.86335 0.43275
# Poissons Ratio (y) = 0.14879 0.17875
# Poissons Ratio (z) = 0.15332 0.36748
#
# Static dielectric constant tensor:
#      x y z
#    x 1.653480 0.000000 0.000000 
#    y 0.000000 1.726220 0.000000 
#    z 0.000000 0.000000 1.628110 
# 
# From -- ./inp_files/28421.got.cif
#   From: 2010.05.17/outbox.cif.g08.bks.cpg/sg51_15_cif.got.tgz:28421.got - 2010.06.03 11:52:47.
