data_PCOD9407038
_publ_section_title
;
Structure prediction by ZEFSAII (Michael W. Deem and Ramdas Pophale) SiO2 
 PCOD9407038
Probable space group: P M M A
;
_chemical_formula_sum "Si O2"
_cell_formula_units_Z 56
_cell_length_a 22.916675
_cell_length_b 8.628026
_cell_length_c 14.986938
_cell_angle_alpha 90.000000
_cell_angle_beta 90.000000
_cell_angle_gamma 90.000000
_cell_volume 2963.302323
_symmetry_space_group_name_H-M "P M M A"
_symmetry_group_IT_number 51
_symmetry_cell_setting 'orthorhombic'
loop_
_space_group_symop_operation_xyz
x,y,z
1/2-x,-y,z
1/2+x,-y,-z
-x,y,-z
-x,-y,-z
1/2+x,y,-z
1/2-x,y,z
x,-y,z
loop_
_atom_site_type_symbol
_atom_site_label
_atom_site_fract_x
_atom_site_fract_y
_atom_site_fract_z
Si Si1 0.996829 0.819712 0.392986
Si Si2 0.422376 0.312466 0.912111
Si Si3 0.106417 0.317107 0.296684
Si Si4 0.628533 0.682370 0.374641
Si Si5 0.684527 0.814548 0.202405
Si Si6 0.680528 0.820821 0.551479
Si Si7 0.946464 0.688424 0.884789
O O1 0.932855 0.769095 0.362628
O O2 0.000000 0.802695 0.500000
O O3 0.045943 0.714682 0.348400
O O4 0.007874 0.000000 0.371497
O O5 0.419603 0.500000 0.906756
O O6 0.367223 0.244405 0.861091
O O7 0.485761 0.263444 0.873328
O O8 0.424882 0.267749 0.016697
O O9 0.119073 0.500000 0.295455
O O10 0.155256 0.230392 0.353521
O O11 0.094324 0.260279 0.196177
O O12 0.619607 0.500000 0.363757
O O13 0.672586 0.744193 0.300004
O O14 0.652275 0.719992 0.473011
O O15 0.750000 0.770758 0.172238
O O16 0.681716 0.000000 0.208313
O O17 0.750000 0.806417 0.549033
O O18 0.664268 0.000000 0.534520
O O19 0.947332 0.500000 0.882905
#
# Coordination Sequence:
#
# PCOD9407038 Si02
#       7
#     8   8   8   8   8   8   8
#     4  11  22  36  56  83 119 155 186 226 284 341
#     4   9  17  36  63  87 114 147 186 231 284 344
#     4  11  21  35  58  87 117 148 190 238 282 333
#     4  12  24  38  60  86 112 146 193 240 284 338
#     4  11  24  40  57  82 119 157 192 235 288 346
#     4  11  24  41  57  75 107 151 194 236 284 337
#     4   8  17  34  59  90 117 143 179 233 294 341
#
# _framework density 18.897835000000001
#
# number of rings (size 3 to 8) (size 9 to 14) (size 15 to 20)
#    0.000    1.571    1.429    5.143    0.000    5.714 
#    0.000    4.286    0.000    4.286    0.000    0.000 
#    0.000    0.000    0.000    0.000    0.000    0.000 
#
# Total GULP energy -312928.950343 kJ/mol
# GULP energy per Si atom -5588.016970 kJ/mol
# Density = 1.885482 g / cm^3
# Si number density = 18.897835 Si / 1000 Ang^3
#
#
#
# Elastic Constant Matrix: (Units=GPa)
#
#
# Indices 1 2 3 4 5 6 
#
# 1 55.9023 8.3677 14.0147 0.0000 0.0000 0.0000
# 2 8.3677 24.1364 4.7759 0.0000 0.0000 0.0000
# 3 14.0147 4.7759 68.5045 0.0000 0.0000 0.0000
# 4 0.0000 0.0000 0.0000 -0.5090 0.0000 0.0000
# 5 0.0000 0.0000 0.0000 0.0000 27.1197 0.0000
# 6 0.0000 0.0000 0.0000 0.0000 0.0000 22.3065
#
#
#
# Elastic Compliance Matrix: (Units=1/GPa)
#
#
# Indices 1 2 3 4 5 6 
#
# 1 0.019708 -0.006119 -0.003605 0.000000 0.000000 0.000000
# 2 -0.006119 0.043911 -0.001809 0.000000 0.000000 0.000000
# 3 -0.003605 -0.001809 0.015461 0.000000 0.000000 0.000000
# 4 0.000000 0.000000 0.000000 -1.964492 0.000000 0.000000
# 5 0.000000 0.000000 0.000000 0.000000 0.036874 0.000000
# 6 0.000000 0.000000 0.000000 0.000000 0.000000 0.044830
#
#
# Mechanical properties :
#
#
# Convention : Reuss Voigt Hill
#
# Bulk Modulus (GPa) = 17.85319 22.53997 20.19658
# Shear Modulus (GPa) = -2.83773 17.87577 7.51902
#
# Velocity S-wave (km/s) = -1.22673 3.07891 1.99685
# Velocity P-wave (km/s) = 2.73152 4.95911 4.00337
#
# Compressibility (1/GPa) = 0.05601240
#
# Stress axis : x y z
#
# Youngs Moduli (GPa) = 50.74054 22.77351 64.67763
#
# Poissons Ratio (x) = 0.13935 0.23318
# Poissons Ratio (y) = 0.31049 0.11703
# Poissons Ratio (z) = 0.18293 0.04121
#
# Static dielectric constant tensor:
#      x y z
#    x 1.638190 0.000000 0.000000 
#    y 0.000000 1.641430 0.000000 
#    z 0.000000 0.000000 1.662190 
# 
# From -- ./inp_files/25667.got.cif
#   From: 2010.05.17/outbox.cif.g08.bks.cpg/sg51_13_cif.got.tgz:25667.got - 2010.06.03 11:52:47.
