data_PCOD9407891
_publ_section_title
;
Structure prediction by ZEFSAII (Michael W. Deem and Ramdas Pophale) SiO2 
 PCOD9407891
Probable space group: P N N A
;
_chemical_formula_sum "Si O2"
_cell_formula_units_Z 56
_cell_length_a 5.250982
_cell_length_b 25.183695
_cell_length_c 29.467763
_cell_angle_alpha 90.000000
_cell_angle_beta 90.000000
_cell_angle_gamma 90.000000
_cell_volume 3896.791317
_symmetry_space_group_name_H-M "P N N A"
_symmetry_group_IT_number 52
_symmetry_cell_setting 'orthorhombic'
loop_
_space_group_symop_operation_xyz
x,y,z
1/2-x,-y,z
x,1/2-y,1/2-z
1/2-x,1/2+y,1/2-z
-x,-y,-z
1/2+x,y,-z
-x,1/2+y,1/2+z
1/2+x,1/2-y,1/2+z
loop_
_atom_site_type_symbol
_atom_site_label
_atom_site_fract_x
_atom_site_fract_y
_atom_site_fract_z
Si Si1 0.739473 0.706768 0.974110
Si Si2 0.990360 0.966849 0.619414
Si Si3 0.732633 0.078226 0.525468
Si Si4 0.125313 0.854898 0.659190
Si Si5 0.623583 0.706907 0.872504
Si Si6 0.548660 0.709655 0.706891
Si Si7 0.447660 0.186423 0.759417
O O1 0.754732 0.642238 0.971939
O O2 0.648330 0.724254 0.924496
O O3 0.521028 0.722839 0.009923
O O4 0.076718 0.916250 0.648810
O O5 0.871951 0.944266 0.572486
O O6 0.250000 0.000000 0.611878
O O7 0.750000 0.000000 0.639415
O O8 0.519037 0.062335 0.488270
O O9 0.382952 0.832058 0.636410
O O10 0.124504 0.841553 0.712584
O O11 0.883920 0.823468 0.639186
O O12 0.597542 0.755160 0.837195
O O13 0.521027 0.750000 0.750000
O O14 0.280084 0.680548 0.705305
O O15 0.780994 0.671741 0.719926
O O16 0.476908 0.250000 0.750000
#
# Coordination Sequence:
#
# PCOD9407891 Si02
#       7
#     8   8   8   8   8   8   8
#     4  10  21  33  45  63  83 106 145 178 211 268
#     4  12  26  38  46  60  79 105 146 179 214 271
#     4  10  21  35  51  60  71  94 133 192 243 265
#     4  12  21  32  50  65  84 110 130 165 227 265
#     4  12  19  30  51  66  84 112 131 164 226 265
#     4  10  16  27  43  72  93 100 121 156 202 282
#     4  10  16  29  44  71  93 100 119 155 203 281
#
# _framework density 14.370798000000001
#
# number of rings (size 3 to 8) (size 9 to 14) (size 15 to 20)
#    0.000    1.143    7.143    2.571    4.000    1.714 
#    0.000    0.000    0.000    0.000    0.000    0.000 
#    0.000    0.000    0.000    0.000    0.000    0.000 
#
# Total GULP energy -312263.153502 kJ/mol
# GULP energy per Si atom -5576.127741 kJ/mol
# Density = 1.433809 g / cm^3
# Si number density = 14.370798 Si / 1000 Ang^3
#
#
#
# Elastic Constant Matrix: (Units=GPa)
#
#
# Indices 1 2 3 4 5 6 
#
# 1 86.2757 -3.8762 4.7905 0.0000 0.0000 0.0000
# 2 -3.8762 18.7546 24.8564 0.0000 0.0000 0.0000
# 3 4.7905 24.8564 61.5845 0.0000 0.0000 0.0000
# 4 0.0000 0.0000 0.0000 12.2635 0.0000 0.0000
# 5 0.0000 0.0000 0.0000 0.0000 13.8082 0.0000
# 6 0.0000 0.0000 0.0000 0.0000 0.0000 16.0025
#
#
#
# Elastic Compliance Matrix: (Units=1/GPa)
#
#
# Indices 1 2 3 4 5 6 
#
# 1 0.012190 0.008120 -0.004225 0.000000 0.000000 0.000000
# 2 0.008120 0.120059 -0.049089 0.000000 0.000000 0.000000
# 3 -0.004225 -0.049089 0.036380 0.000000 0.000000 0.000000
# 4 0.000000 0.000000 0.000000 0.081543 0.000000 0.000000
# 5 0.000000 0.000000 0.000000 0.000000 0.072421 0.000000
# 6 0.000000 0.000000 0.000000 0.000000 0.000000 0.062490
#
#
# Mechanical properties :
#
#
# Convention : Reuss Voigt Hill
#
# Bulk Modulus (GPa) = 12.78136 24.23959 18.51047
# Shear Modulus (GPa) = 9.96905 17.80444 13.88674
#
# Velocity S-wave (km/s) = 2.63668 3.52367 3.11194
# Velocity P-wave (km/s) = 4.26412 5.78436 5.08141
#
# Compressibility (1/GPa) = 0.07823892
#
# Stress axis : x y z
#
# Youngs Moduli (GPa) = 82.03323 8.32923 27.48787
#
# Poissons Ratio (x) = -0.06763 0.11615
# Poissons Ratio (y) = -0.66609 1.34936
# Poissons Ratio (z) = 0.34663 0.40888
#
# Static dielectric constant tensor:
#      x y z
#    x 1.556330 0.000000 0.000000 
#    y 0.000000 1.370270 0.000000 
#    z 0.000000 0.000000 1.483490 
# 
# From -- ./inp_files/41841.got.cif
#   From: 2010.05.17/outbox.cif.g08.bks.cpg/sg52_21_cif.got.tgz:41841.got - 2010.06.03 12:15:38.
