data_PCOD9407436
_publ_section_title
;
Structure prediction by ZEFSAII (Michael W. Deem and Ramdas Pophale) SiO2 
 PCOD9407436
Probable space group: P M M A
;
_chemical_formula_sum "Si O2"
_cell_formula_units_Z 64
_cell_length_a 9.000000
_cell_length_b 15.000000
_cell_length_c 30.000000
_cell_angle_alpha 90.000000
_cell_angle_beta 90.000000
_cell_angle_gamma 90.000000
_cell_volume 4050.000000
_symmetry_space_group_name_H-M "P M M A"
_symmetry_group_IT_number 51
_symmetry_cell_setting 'orthorhombic'
loop_
_space_group_symop_operation_xyz
x,y,z
1/2-x,-y,z
1/2+x,-y,-z
-x,y,-z
-x,-y,-z
1/2+x,y,-z
1/2-x,y,z
x,-y,z
loop_
_atom_site_type_symbol
_atom_site_label
_atom_site_fract_x
_atom_site_fract_y
_atom_site_fract_z
Si Si1 0.569651 0.101770 0.201288
Si Si2 0.427675 0.777334 0.715391
Si Si3 0.426343 0.096438 0.047999
Si Si4 0.073844 0.599611 0.839274
Si Si5 0.927958 0.218548 0.115938
Si Si6 0.426917 0.399987 0.257243
Si Si7 0.070057 0.103870 0.359167
Si Si8 0.417896 0.891725 0.457015
O O1 0.750000 0.098032 0.202595
O O2 0.522613 0.165511 0.241497
O O3 0.529217 0.152827 0.156352
O O4 0.515007 0.000000 0.204336
O O5 0.250000 0.773201 0.715634
O O6 0.494165 0.679026 0.716886
O O7 0.490226 0.832270 0.674536
O O8 0.250000 0.100952 0.044365
O O9 0.489583 0.179651 0.074010
O O10 0.465173 0.000000 0.069877
O O11 0.500000 0.095396 0.000000
O O12 0.250000 0.609700 0.828411
O O13 0.052189 0.500000 0.857685
O O14 0.033852 0.680575 0.871277
O O15 0.983357 0.606999 0.793650
O O16 0.750000 0.213128 0.110149
O O17 0.250000 0.389805 0.258807
O O18 0.465343 0.500000 0.272751
O O19 0.250000 0.111910 0.357644
O O20 0.016999 0.127410 0.408869
O O21 0.035935 0.000000 0.350031
O O22 0.500000 0.857314 0.500000
O O23 0.250000 0.859733 0.457830
O O24 0.413887 0.000000 0.459384
#
# Coordination Sequence:
#
# PCOD9407436 Si02
#       8
#     8   8   8   8   8   8   8   8
#     4   9  17  28  42  64  94 125 156 188 223 265
#     4  11  20  31  46  66  93 127 164 199 234 279
#     4  10  21  36  53  74  98 124 155 191 231 275
#     4   9  17  31  51  74  98 123 155 193 233 279
#     4  10  18  31  51  73  97 126 155 189 233 275
#     4  10  20  33  49  68  91 121 157 199 245 287
#     4   9  18  31  44  62  93 131 164 197 241 287
#     4   8  14  25  41  60  84 116 156 200 242 281
#
# _framework density 15.802469
#
# number of rings (size 3 to 8) (size 9 to 14) (size 15 to 20)
#    0.000    2.500    1.250    2.625    0.000    3.750 
#    0.000    1.250    0.000    2.625    0.000    0.000 
#    0.000    0.500    0.000    1.625    0.000    2.000 
#
# Total GULP energy -356418.896374 kJ/mol
# GULP energy per Si atom -5569.045256 kJ/mol
# Density = 1.576650 g / cm^3
# Si number density = 15.802469 Si / 1000 Ang^3
#
#
#
# Elastic Constant Matrix: (Units=GPa)
#
#
# Indices 1 2 3 4 5 6 
#
# 1 24.5522 50.5851 34.8853 0.0000 0.0000 0.0000
# 2 50.5851 113.3696 56.0087 0.0000 0.0000 0.0000
# 3 34.8853 56.0087 74.4000 0.0000 0.0000 0.0000
# 4 0.0000 0.0000 0.0000 -254.7651 0.0000 0.0000
# 5 0.0000 0.0000 0.0000 0.0000 20.2783 0.0000
# 6 0.0000 0.0000 0.0000 0.0000 0.0000 18.8682
#
#
#
# Elastic Compliance Matrix: (Units=1/GPa)
#
#
# Indices 1 2 3 4 5 6 
#
# 1 -8.792671 3.003494 1.861735 0.000000 0.000000 0.000000
# 2 3.003494 -1.011922 -0.646523 0.000000 0.000000 0.000000
# 3 1.861735 -0.646523 -0.372799 0.000000 0.000000 0.000000
# 4 0.000000 0.000000 0.000000 -0.003925 0.000000 0.000000
# 5 0.000000 0.000000 0.000000 0.000000 0.049314 0.000000
# 6 0.000000 0.000000 0.000000 0.000000 0.000000 0.052999
#
#
# Mechanical properties :
#
#
# Convention : Reuss Voigt Hill
#
# Bulk Modulus (GPa) = -0.57472 55.03109 27.22819
# Shear Modulus (GPa) = -0.26183 -38.40085 -19.33134
#
# Velocity S-wave (km/s) = -0.40749 -4.93491 -3.50138
# Velocity P-wave (km/s) = 0.76543 1.55849 0.95995
#
# Compressibility (1/GPa) = -1.73998082
#
# Stress axis : x y z
#
# Youngs Moduli (GPa) = -0.11373 -0.98822 -2.68241
#
# Poissons Ratio (x) = 2.96811 4.99394
# Poissons Ratio (y) = 0.34159 -1.73424
# Poissons Ratio (z) = 0.21174 -0.63891
#
# Static dielectric constant tensor:
#      x y z
#    x 1.525960 0.000000 0.000000 
#    y 0.000000 1.528950 0.000000 
#    z 0.000000 0.000000 1.529610 
# 
# From -- ./inp_files/37609.got.cif
#   From: 2010.05.17/outbox.ucp.g08.bks.cvg/sg51_19_cif.got.tgz:37609.got - 2010.06.11 16:27:58.
