data_PCOD9407973
_publ_section_title
;
Structure prediction by ZEFSAII (Michael W. Deem and Ramdas Pophale) SiO2 
 PCOD9407973
Probable space group: P N N A
;
_chemical_formula_sum "Si O2"
_cell_formula_units_Z 32
_cell_length_a 5.346885
_cell_length_b 21.588024
_cell_length_c 11.623514
_cell_angle_alpha 90.000000
_cell_angle_beta 90.000000
_cell_angle_gamma 90.000000
_cell_volume 1341.686898
_symmetry_space_group_name_H-M "P N N A"
_symmetry_group_IT_number 52
_symmetry_cell_setting 'orthorhombic'
loop_
_space_group_symop_operation_xyz
x,y,z
1/2-x,-y,z
x,1/2-y,1/2-z
1/2-x,1/2+y,1/2-z
-x,-y,-z
1/2+x,y,-z
-x,1/2+y,1/2+z
1/2+x,1/2-y,1/2+z
loop_
_atom_site_type_symbol
_atom_site_label
_atom_site_fract_x
_atom_site_fract_y
_atom_site_fract_z
Si Si1 0.489144 0.835439 0.431537
Si Si2 0.870633 0.250000 0.250000
Si Si3 0.717256 0.356279 0.421617
Si Si4 0.750000 0.500000 0.422736
Si Si5 0.995644 0.525256 0.867065
O O1 0.273152 0.831057 0.525004
O O2 0.452452 0.782252 0.341696
O O3 0.469354 0.902306 0.374955
O O4 0.726592 0.304909 0.319002
O O5 0.461915 0.347825 0.495655
O O6 0.739328 0.427647 0.376528
O O7 0.500000 0.500000 0.500000
O O8 0.250000 0.500000 0.816314
O O9 0.750000 0.500000 0.806492
O O10 0.000000 0.500000 0.000000
#
# Coordination Sequence:
#
# PCOD9407973 Si02
#       5
#     8   4   8   4   8
#     4  12  24  42  65  92 133 174 212 267 322 389
#     4  12  28  42  64 102 134 176 222 260 340 404
#     4  10  22  44  69  93 130 172 219 278 326 385
#     4   8  16  36  68  90 116 166 220 268 320 364
#     4  10  16  34  63  90 116 162 202 252 323 382
#
# _framework density 23.850574000000002
#
# number of rings (size 3 to 8) (size 9 to 14) (size 15 to 20)
#    0.000    1.500    5.000    1.500    0.000    4.000 
#    2.250    0.000   11.000    0.000    0.000    0.000 
#    0.000    0.000    0.000    0.000    0.000    0.000 
#
# Total GULP energy -178748.600510 kJ/mol
# GULP energy per Si atom -5585.893766 kJ/mol
# Density = 2.379629 g / cm^3
# Si number density = 23.850574 Si / 1000 Ang^3
#
#
#
# Elastic Constant Matrix: (Units=GPa)
#
#
# Indices 1 2 3 4 5 6 
#
# 1 124.3168 16.5499 15.7866 0.0000 0.0000 0.0000
# 2 16.5499 199.8137 63.8950 0.0000 0.0000 0.0000
# 3 15.7866 63.8950 56.6853 0.0000 0.0000 0.0000
# 4 0.0000 0.0000 0.0000 26.8777 0.0000 0.0000
# 5 0.0000 0.0000 0.0000 0.0000 -16.8981 0.0000
# 6 0.0000 0.0000 0.0000 0.0000 0.0000 51.9998
#
#
#
# Elastic Compliance Matrix: (Units=1/GPa)
#
#
# Indices 1 2 3 4 5 6 
#
# 1 0.008340 0.000081 -0.002414 0.000000 0.000000 0.000000
# 2 0.000081 0.007826 -0.008844 0.000000 0.000000 0.000000
# 3 -0.002414 -0.008844 0.028282 0.000000 0.000000 0.000000
# 4 0.000000 0.000000 0.000000 0.037206 0.000000 0.000000
# 5 0.000000 0.000000 0.000000 0.000000 -0.059178 0.000000
# 6 0.000000 0.000000 0.000000 0.000000 0.000000 0.019231
#
#
# Mechanical properties :
#
#
# Convention : Reuss Voigt Hill
#
# Bulk Modulus (GPa) = 45.26044 63.69765 54.47904
# Shear Modulus (GPa) = 70.00376 31.36817 50.68596
#
# Velocity S-wave (km/s) = 5.42353 3.63050 4.61493
# Velocity P-wave (km/s) = 7.63135 6.65875 7.16158
#
# Compressibility (1/GPa) = 0.02209435
#
# Stress axis : x y z
#
# Youngs Moduli (GPa) = 119.90821 127.77914 35.35766
#
# Poissons Ratio (x) = -0.01038 0.08536
# Poissons Ratio (y) = -0.00974 0.31270
# Poissons Ratio (z) = 0.28947 1.13008
#
# Static dielectric constant tensor:
#      x y z
#    x 1.871420 0.000000 0.000000 
#    y 0.000000 1.859070 0.000000 
#    z 0.000000 0.000000 2.098130 
# 
# From -- ./inp_files/15966.got.cif
#   From: 2010.05.17/outbox.cif.g08.bks.cpg/sg52_8_cif.got.tgz:15966.got - 2010.06.03 12:15:38.
