data_PCOD9407312
_publ_section_title
;
Structure prediction by ZEFSAII (Michael W. Deem and Ramdas Pophale) SiO2 
 PCOD9407312
Probable space group: P M M A
;
_chemical_formula_sum "Si O2"
_cell_formula_units_Z 40
_cell_length_a 13.751796
_cell_length_b 7.589066
_cell_length_c 15.664495
_cell_angle_alpha 90.000000
_cell_angle_beta 90.000000
_cell_angle_gamma 90.000000
_cell_volume 1634.798195
_symmetry_space_group_name_H-M "P M M A"
_symmetry_group_IT_number 51
_symmetry_cell_setting 'orthorhombic'
loop_
_space_group_symop_operation_xyz
x,y,z
1/2-x,-y,z
1/2+x,-y,-z
-x,y,-z
-x,-y,-z
1/2+x,y,-z
1/2-x,y,z
x,-y,z
loop_
_atom_site_type_symbol
_atom_site_label
_atom_site_fract_x
_atom_site_fract_y
_atom_site_fract_z
Si Si1 0.857062 0.214688 0.938289
Si Si2 0.927165 0.212768 0.306440
Si Si3 0.884554 0.300876 0.490330
Si Si4 0.353288 0.800767 0.327495
Si Si5 0.567529 0.785395 0.121957
O O1 0.750000 0.273550 0.910287
O O2 0.876513 0.269201 0.036661
O O3 0.856768 0.000000 0.936494
O O4 0.953984 0.268833 0.887526
O O5 0.040004 0.278219 0.311116
O O6 0.890642 0.268828 0.213430
O O7 0.867955 0.263929 0.390804
O O8 0.931372 0.000000 0.309401
O O9 0.856024 0.500000 0.508842
O O10 0.848000 0.189607 0.569431
O O11 0.000000 0.284486 0.500000
O O12 0.250000 0.720264 0.299044
O O13 0.355965 0.000000 0.291730
O O14 0.568328 0.000000 0.120824
#
# Coordination Sequence:
#
# PCOD9407312 Si02
#       5
#     8   8   8   8   8
#     4   8  13  22  36  55  82 112 139 170 209 255
#     4   9  16  27  43  62  86 112 139 177 219 256
#     4   9  17  29  44  60  80 110 144 173 207 254
#     4   9  17  28  42  61  84 110 141 177 218 260
#     4   8  14  23  36  57  83 111 140 170 212 259
#
# _framework density 24.467852000000001
#
# number of rings (size 3 to 8) (size 9 to 14) (size 15 to 20)
#    0.000    3.400    0.000    1.800    0.000    3.600 
#    0.000    5.000    0.000    3.600    0.000    2.800 
#    0.000    1.600    0.000    0.000    0.000    0.000 
#
# Total GULP energy -222963.804544 kJ/mol
# GULP energy per Si atom -5574.095114 kJ/mol
# Density = 2.441216 g / cm^3
# Si number density = 24.467852 Si / 1000 Ang^3
#
#
#
# Elastic Constant Matrix: (Units=GPa)
#
#
# Indices 1 2 3 4 5 6 
#
# 1 84.6868 -3.2443 -11.8761 0.0000 0.0000 0.0000
# 2 -3.2443 54.8209 -1.8342 0.0000 0.0000 0.0000
# 3 -11.8761 -1.8342 151.7065 0.0000 0.0000 0.0000
# 4 0.0000 0.0000 0.0000 -78.7927 0.0000 0.0000
# 5 0.0000 0.0000 0.0000 0.0000 -2.2622 0.0000
# 6 0.0000 0.0000 0.0000 0.0000 0.0000 -27.0676
#
#
#
# Elastic Compliance Matrix: (Units=1/GPa)
#
#
# Indices 1 2 3 4 5 6 
#
# 1 0.011969 0.000740 0.000946 0.000000 0.000000 0.000000
# 2 0.000740 0.018294 0.000279 0.000000 0.000000 0.000000
# 3 0.000946 0.000279 0.006669 0.000000 0.000000 0.000000
# 4 0.000000 0.000000 0.000000 -0.012692 0.000000 0.000000
# 5 0.000000 0.000000 0.000000 0.000000 -0.442042 0.000000
# 6 0.000000 0.000000 0.000000 0.000000 0.000000 -0.036945
#
#
# Mechanical properties :
#
#
# Convention : Reuss Voigt Hill
#
# Bulk Modulus (GPa) = 24.47216 28.58945 26.53080
# Shear Modulus (GPa) = -11.23458 -1.07992 -6.15725
#
# Velocity S-wave (km/s) = -2.14512 -0.66507 -1.58806
# Velocity P-wave (km/s) = 1.97182 3.33468 2.73936
#
# Compressibility (1/GPa) = 0.04086276
#
# Stress axis : x y z
#
# Youngs Moduli (GPa) = 83.54768 54.66164 149.94525
#
# Poissons Ratio (x) = -0.04045 -0.14184
# Poissons Ratio (y) = -0.06182 -0.04185
# Poissons Ratio (z) = -0.07903 -0.01526
#
# Static dielectric constant tensor:
#      x y z
#    x 1.685300 0.000000 0.000000 
#    y 0.000000 1.956180 0.000000 
#    z 0.000000 0.000000 1.956390 
# 
# From -- ./inp_files/24546.got.cif
#   From: 2010.05.17/outbox.cif.g08.bks.cpg/sg51_13_cif.got.tgz:24546.got - 2010.06.03 11:52:47.
