data_PCOD9407267
_publ_section_title
;
Structure prediction by ZEFSAII (Michael W. Deem and Ramdas Pophale) SiO2 
 PCOD9407267
Probable space group: P M M A
;
_chemical_formula_sum "Si O2"
_cell_formula_units_Z 56
_cell_length_a 18.887414
_cell_length_b 7.414679
_cell_length_c 19.872495
_cell_angle_alpha 90.000000
_cell_angle_beta 90.000000
_cell_angle_gamma 90.000000
_cell_volume 2783.025915
_symmetry_space_group_name_H-M "P M M A"
_symmetry_group_IT_number 51
_symmetry_cell_setting 'orthorhombic'
loop_
_space_group_symop_operation_xyz
x,y,z
1/2-x,-y,z
1/2+x,-y,-z
-x,y,-z
-x,-y,-z
1/2+x,y,-z
1/2-x,y,z
x,-y,z
loop_
_atom_site_type_symbol
_atom_site_label
_atom_site_fract_x
_atom_site_fract_y
_atom_site_fract_z
Si Si1 0.077654 0.780431 0.919949
Si Si2 0.330298 0.220679 0.200667
Si Si3 0.471827 0.714325 0.570673
Si Si4 0.542226 0.216333 0.708279
Si Si5 0.395455 0.782238 0.774717
Si Si6 0.087334 0.780569 0.068630
Si Si7 0.172764 0.287449 0.636088
O O1 0.115159 0.720653 0.851328
O O2 0.994380 0.730111 0.917125
O O3 0.079460 0.000000 0.920329
O O4 0.105699 0.721454 0.992811
O O5 0.250000 0.279924 0.210694
O O6 0.385593 0.280225 0.257774
O O7 0.361804 0.277904 0.128513
O O8 0.329994 0.000000 0.200757
O O9 0.500000 0.787547 0.500000
O O10 0.462185 0.500000 0.562196
O O11 0.527812 0.739095 0.630874
O O12 0.396355 0.787670 0.597728
O O13 0.473197 0.279721 0.749665
O O14 0.542159 0.000000 0.713944
O O15 0.342105 0.728793 0.715895
O O16 0.395999 0.000000 0.775539
O O17 0.088279 0.000000 0.068810
O O18 0.250000 0.211006 0.619481
O O19 0.174890 0.500000 0.620980
#
# Coordination Sequence:
#
# PCOD9407267 Si02
#       7
#     8   8   8   8   8   8   8
#     4   8  12  19  34  56  83 113 147 187 224 256
#     4   9  15  23  36  56  86 121 153 185 221 261
#     4   9  18  33  52  71  89 111 142 178 211 251
#     4   9  16  27  44  66  90 115 146 179 215 258
#     4   9  15  25  43  66  89 114 146 184 220 254
#     4   8  12  19  32  53  82 117 152 183 220 262
#     4   9  18  32  48  66  89 117 144 171 212 264
#
# _framework density 20.121981999999999
#
# number of rings (size 3 to 8) (size 9 to 14) (size 15 to 20)
#    0.000    3.286    1.429    0.857    0.000    0.571 
#    0.000    1.429    0.000    3.857    0.000    3.000 
#    0.000    0.000    0.000    0.000    0.000    0.000 
#
# Total GULP energy -312156.877627 kJ/mol
# GULP energy per Si atom -5574.229958 kJ/mol
# Density = 2.007618 g / cm^3
# Si number density = 20.121982 Si / 1000 Ang^3
#
#
#
# Elastic Constant Matrix: (Units=GPa)
#
#
# Indices 1 2 3 4 5 6 
#
# 1 131.4425 5.7539 80.6906 0.0000 0.0000 0.0000
# 2 5.7539 64.3455 0.5205 0.0000 0.0000 0.0000
# 3 80.6906 0.5205 168.5495 0.0000 0.0000 0.0000
# 4 0.0000 0.0000 0.0000 11.5590 0.0000 0.0000
# 5 0.0000 0.0000 0.0000 0.0000 16.0108 0.0000
# 6 0.0000 0.0000 0.0000 0.0000 0.0000 3.1682
#
#
#
# Elastic Compliance Matrix: (Units=1/GPa)
#
#
# Indices 1 2 3 4 5 6 
#
# 1 0.010829 -0.000926 -0.005181 0.000000 0.000000 0.000000
# 2 -0.000926 0.015621 0.000395 0.000000 0.000000 0.000000
# 3 -0.005181 0.000395 0.008412 0.000000 0.000000 0.000000
# 4 0.000000 0.000000 0.000000 0.086512 0.000000 0.000000
# 5 0.000000 0.000000 0.000000 0.000000 0.062458 0.000000
# 6 0.000000 0.000000 0.000000 0.000000 0.000000 0.315633
#
#
# Mechanical properties :
#
#
# Convention : Reuss Voigt Hill
#
# Bulk Modulus (GPa) = 42.66757 59.80751 51.23754
# Shear Modulus (GPa) = 9.63943 24.63911 17.13927
#
# Velocity S-wave (km/s) = 2.19109 3.50306 2.92167
# Velocity P-wave (km/s) = 5.25849 6.79330 6.07456
#
# Compressibility (1/GPa) = 0.02343701
#
# Stress axis : x y z
#
# Youngs Moduli (GPa) = 92.34219 64.01746 118.87332
#
# Poissons Ratio (x) = 0.05931 0.61594
# Poissons Ratio (y) = 0.08555 -0.04699
# Poissons Ratio (z) = 0.47847 -0.02531
#
# Static dielectric constant tensor:
#      x y z
#    x 1.694090 0.000000 0.000000 
#    y 0.000000 1.791780 0.000000 
#    z 0.000000 0.000000 1.712150 
# 
# From -- ./inp_files/33724.got.cif
#   From: 2010.05.17/outbox.cif.g08.bks.cpg/sg51_17_cif.got.tgz:33724.got - 2010.06.03 11:52:47.
