data_PCOD9407360
_publ_section_title
;
Structure prediction by ZEFSAII (Michael W. Deem and Ramdas Pophale) SiO2 
 PCOD9407360
Probable space group: P M M A
;
_chemical_formula_sum "Si O2"
_cell_formula_units_Z 40
_cell_length_a 20.296240
_cell_length_b 7.925634
_cell_length_c 13.405495
_cell_angle_alpha 90.000000
_cell_angle_beta 90.000000
_cell_angle_gamma 90.000000
_cell_volume 2156.415564
_symmetry_space_group_name_H-M "P M M A"
_symmetry_group_IT_number 51
_symmetry_cell_setting 'orthorhombic'
loop_
_space_group_symop_operation_xyz
x,y,z
1/2-x,-y,z
1/2+x,-y,-z
-x,y,-z
-x,-y,-z
1/2+x,y,-z
1/2-x,y,z
x,-y,z
loop_
_atom_site_type_symbol
_atom_site_label
_atom_site_fract_x
_atom_site_fract_y
_atom_site_fract_z
Si Si1 0.325145 0.296961 0.285009
Si Si2 0.575783 0.796863 0.889059
Si Si3 0.175334 0.799961 0.719127
Si Si4 0.670054 0.695500 0.498858
Si Si5 0.574606 0.206659 0.114814
O O1 0.250000 0.236107 0.268075
O O2 0.321767 0.500000 0.294662
O O3 0.372713 0.256396 0.194261
O O4 0.350477 0.233131 0.393290
O O5 0.500937 0.740238 0.866685
O O6 0.574695 0.000000 0.890746
O O7 0.592753 0.741553 0.001926
O O8 0.250000 0.729389 0.726480
O O9 0.150713 0.777017 0.605711
O O10 0.125265 0.731648 0.801677
O O11 0.180154 0.000000 0.736392
O O12 0.750000 0.702834 0.502569
O O13 0.650332 0.500000 0.492842
O O14 0.574843 0.000000 0.116658
#
# Coordination Sequence:
#
# PCOD9407360 Si02
#       5
#     8   8   8   8   8
#     4   9  18  32  48  67  93 120 146 185 232 267
#     4   9  17  31  50  67  88 122 157 184 216 268
#     4   9  16  27  46  69  90 114 147 186 224 264
#     4   8  15  29  46  63  88 120 147 177 224 272
#     4   8  16  31  47  66  94 122 147 183 230 266
#
# _framework density 18.549301
#
# number of rings (size 3 to 8) (size 9 to 14) (size 15 to 20)
#    0.000    3.400    0.000    2.400    0.000    2.000 
#    0.000    9.000    0.000    8.400    0.000    0.000 
#    0.000    0.000    0.000    0.000    0.000    0.000 
#
# Total GULP energy -222679.794717 kJ/mol
# GULP energy per Si atom -5566.994868 kJ/mol
# Density = 1.850708 g / cm^3
# Si number density = 18.549301 Si / 1000 Ang^3
#
#
#
# Elastic Constant Matrix: (Units=GPa)
#
#
# Indices 1 2 3 4 5 6 
#
# 1 88.6194 7.3202 111.4170 0.0000 0.0000 0.0000
# 2 7.3202 11.4263 7.9498 0.0000 0.0000 0.0000
# 3 111.4170 7.9498 197.6939 0.0000 0.0000 0.0000
# 4 0.0000 0.0000 0.0000 32.9273 0.0000 0.0000
# 5 0.0000 0.0000 0.0000 0.0000 -27.1665 0.0000
# 6 0.0000 0.0000 0.0000 0.0000 0.0000 10.8840
#
#
#
# Elastic Compliance Matrix: (Units=1/GPa)
#
#
# Indices 1 2 3 4 5 6 
#
# 1 0.039840 -0.010187 -0.022043 0.000000 0.000000 0.000000
# 2 -0.010187 0.092641 0.002016 0.000000 0.000000 0.000000
# 3 -0.022043 0.002016 0.017401 0.000000 0.000000 0.000000
# 4 0.000000 0.000000 0.000000 0.030370 0.000000 0.000000
# 5 0.000000 0.000000 0.000000 0.000000 -0.036810 0.000000
# 6 0.000000 0.000000 0.000000 0.000000 0.000000 0.091878
#
#
# Mechanical properties :
#
#
# Convention : Reuss Voigt Hill
#
# Bulk Modulus (GPa) = 11.17914 61.23485 36.20700
# Shear Modulus (GPa) = 15.35792 14.73248 15.04520
#
# Velocity S-wave (km/s) = 2.88054 2.82127 2.85106
# Velocity P-wave (km/s) = 4.13559 6.61032 5.51360
#
# Compressibility (1/GPa) = 0.08945233
#
# Stress axis : x y z
#
# Youngs Moduli (GPa) = 25.10049 10.79439 57.46934
#
# Poissons Ratio (x) = 0.10996 1.26682
# Poissons Ratio (y) = 0.25569 -0.11584
# Poissons Ratio (z) = 0.55330 -0.02176
#
# Static dielectric constant tensor:
#      x y z
#    x 1.628340 0.000000 0.000000 
#    y 0.000000 1.678450 0.000000 
#    z 0.000000 0.000000 1.658560 
# 
# From -- ./inp_files/10624.got.cif
#   From: 2010.05.17/outbox.cif.g08.bks.cpg/sg51_6_cif.got.tgz:10624.got - 2010.06.03 11:52:47.
