data_PCOD9407755
_publ_section_title
;
Structure prediction by ZEFSAII (Michael W. Deem and Ramdas Pophale) SiO2 
 PCOD9407755
Probable space group: P M M A
;
_chemical_formula_sum "Si O2"
_cell_formula_units_Z 64
_cell_length_a 9.000000
_cell_length_b 24.000000
_cell_length_c 15.000000
_cell_angle_alpha 90.000000
_cell_angle_beta 90.000000
_cell_angle_gamma 90.000000
_cell_volume 3240.000000
_symmetry_space_group_name_H-M "P M M A"
_symmetry_group_IT_number 51
_symmetry_cell_setting 'orthorhombic'
loop_
_space_group_symop_operation_xyz
x,y,z
1/2-x,-y,z
1/2+x,-y,-z
-x,y,-z
-x,-y,-z
1/2+x,y,-z
1/2-x,y,z
x,-y,z
loop_
_atom_site_type_symbol
_atom_site_label
_atom_site_fract_x
_atom_site_fract_y
_atom_site_fract_z
Si Si1 0.929978 0.059948 0.402282
Si Si2 0.921045 0.357278 0.767742
Si Si3 0.083580 0.834003 0.843504
Si Si4 0.572158 0.702138 0.590448
Si Si5 0.926273 0.063022 0.903363
Si Si6 0.080852 0.433603 0.906346
Si Si7 0.419028 0.185017 0.640959
Si Si8 0.082293 0.267195 0.079530
O O1 0.750000 0.060813 0.404183
O O2 0.974417 0.121470 0.369662
O O3 0.000000 0.057306 0.500000
O O4 0.971856 0.000000 0.357837
O O5 0.750000 0.375371 0.756993
O O6 0.979203 0.335615 0.673409
O O7 0.921000 0.303515 0.832059
O O8 0.008464 0.403445 0.822271
O O9 0.250000 0.844915 0.875326
O O10 0.089808 0.807061 0.746558
O O11 0.996422 0.891574 0.839688
O O12 0.999298 0.790558 0.904166
O O13 0.500000 0.681150 0.500000
O O14 0.750000 0.701059 0.587861
O O15 0.519189 0.765996 0.603139
O O16 0.750000 0.069481 0.910017
O O17 0.960202 0.000000 0.875570
O O18 0.000000 0.071766 0.000000
O O19 0.250000 0.414643 0.915418
O O20 0.077171 0.500000 0.892528
O O21 0.000000 0.423073 0.000000
O O22 0.250000 0.189120 0.604096
O O23 0.250000 0.256849 0.053167
O O24 0.000000 0.298120 0.000000
#
# Coordination Sequence:
#
# PCOD9407755 Si02
#       8
#     8   8   8   8   8   8   8   8
#     4   9  18  33  51  72  98 128 167 218 277 344
#     4  10  22  39  60  88 121 160 204 250 296 343
#     4  11  22  35  53  77 105 138 179 229 286 345
#     4  11  23  40  61  87 118 155 199 250 305 359
#     4  10  21  37  55  73  96 131 177 228 283 344
#     4  10  21  37  61  95 134 174 211 248 292 344
#     4  10  21  36  55  79 106 142 186 234 292 353
#     4  11  22  37  55  80 114 151 190 233 286 344
#
# _framework density 19.753086
#
# number of rings (size 3 to 8) (size 9 to 14) (size 15 to 20)
#    0.000    1.750    1.250    3.000    0.000    7.000 
#    0.000    1.250    0.000    1.875    0.000    0.000 
#    0.000    0.000    0.000    0.000    0.000    0.000 
#
# Total GULP energy -356969.006126 kJ/mol
# GULP energy per Si atom -5577.640721 kJ/mol
# Density = 1.970813 g / cm^3
# Si number density = 19.753086 Si / 1000 Ang^3
#
#
#
# Elastic Constant Matrix: (Units=GPa)
#
#
# Indices 1 2 3 4 5 6 
#
# 1 61.0296 45.2496 45.9226 0.0000 0.0000 0.0000
# 2 45.2496 70.7095 38.2727 0.0000 0.0000 0.0000
# 3 45.9226 38.2727 113.6902 0.0000 0.0000 0.0000
# 4 0.0000 0.0000 0.0000 26.5506 0.0000 0.0000
# 5 0.0000 0.0000 0.0000 0.0000 23.7796 0.0000
# 6 0.0000 0.0000 0.0000 0.0000 0.0000 27.7053
#
#
#
# Elastic Compliance Matrix: (Units=1/GPa)
#
#
# Indices 1 2 3 4 5 6 
#
# 1 0.036855 -0.018987 -0.008495 0.000000 0.000000 0.000000
# 2 -0.018987 0.027075 -0.001445 0.000000 0.000000 0.000000
# 3 -0.008495 -0.001445 0.012714 0.000000 0.000000 0.000000
# 4 0.000000 0.000000 0.000000 0.037664 0.000000 0.000000
# 5 0.000000 0.000000 0.000000 0.000000 0.042053 0.000000
# 6 0.000000 0.000000 0.000000 0.000000 0.000000 0.036094
#
#
# Mechanical properties :
#
#
# Convention : Reuss Voigt Hill
#
# Bulk Modulus (GPa) = 53.22090 56.03548 54.62819
# Shear Modulus (GPa) = 19.48762 23.33940 21.41351
#
# Velocity S-wave (km/s) = 3.14436 3.44111 3.29608
# Velocity P-wave (km/s) = 6.33911 6.64965 6.49623
#
# Compressibility (1/GPa) = 0.01878961
#
# Stress axis : x y z
#
# Youngs Moduli (GPa) = 27.13300 36.93431 78.65497
#
# Poissons Ratio (x) = 0.70127 0.66819
# Poissons Ratio (y) = 0.51518 0.11367
# Poissons Ratio (z) = 0.23050 0.05338
#
# Static dielectric constant tensor:
#      x y z
#    x 1.673400 0.000000 0.000000 
#    y 0.000000 1.697820 0.000000 
#    z 0.000000 0.000000 1.721780 
# 
# From -- ./inp_files/22226.got.cif
#   From: 2010.05.17/outbox.ucp.g08.bks.cvg/sg51_12_cif.got.tgz:22226.got - 2010.06.11 16:27:58.
