data_PCOD9407706
_publ_section_title
;
Structure prediction by ZEFSAII (Michael W. Deem and Ramdas Pophale) SiO2 
 PCOD9407706
Probable space group: P M M A
;
_chemical_formula_sum "Si O2"
_cell_formula_units_Z 48
_cell_length_a 9.000000
_cell_length_b 30.000000
_cell_length_c 9.000000
_cell_angle_alpha 90.000000
_cell_angle_beta 90.000000
_cell_angle_gamma 90.000000
_cell_volume 2430.000000
_symmetry_space_group_name_H-M "P M M A"
_symmetry_group_IT_number 51
_symmetry_cell_setting 'orthorhombic'
loop_
_space_group_symop_operation_xyz
x,y,z
1/2-x,-y,z
1/2+x,-y,-z
-x,y,-z
-x,-y,-z
1/2+x,y,-z
1/2-x,y,z
x,-y,z
loop_
_atom_site_type_symbol
_atom_site_label
_atom_site_fract_x
_atom_site_fract_y
_atom_site_fract_z
Si Si1 0.572119 0.546982 0.159479
Si Si2 0.422960 0.950843 0.841922
Si Si3 0.426964 0.809603 0.848809
Si Si4 0.571787 0.629660 0.346651
Si Si5 0.072855 0.293830 0.852027
Si Si6 0.424273 0.122003 0.348819
O O1 0.750000 0.549256 0.145663
O O2 0.536025 0.500000 0.238139
O O3 0.520374 0.591220 0.237586
O O4 0.500000 0.545680 0.000000
O O5 0.250000 0.936249 0.851066
O O6 0.526535 0.916458 0.760525
O O7 0.423592 0.000000 0.771267
O O8 0.500000 0.954800 0.000000
O O9 0.250000 0.814971 0.854054
O O10 0.465776 0.757685 0.839634
O O11 0.498456 0.833713 0.710700
O O12 0.500000 0.827863 0.000000
O O13 0.500000 0.619812 0.500000
O O14 0.750000 0.628870 0.355469
O O15 0.524325 0.677589 0.287004
O O16 0.250000 0.296952 0.866825
O O17 0.000000 0.312734 0.000000
O O18 0.500000 0.109199 0.500000
O O19 0.250000 0.127408 0.360267
#
# Coordination Sequence:
#
# PCOD9407706 Si02
#       6
#     8   8   8   8   8   8
#     4   9  18  33  53  76 102 133 172 218 264 313
#     4  10  21  39  63  89 116 148 187 229 272 320
#     4  10  20  37  59  83 110 141 181 225 271 322
#     4  10  21  35  50  74 107 140 175 215 263 317
#     4   9  19  35  56  80 105 136 176 222 266 314
#     4  12  25  40  58  82 114 150 186 226 275 327
#
# _framework density 19.753086
#
# number of rings (size 3 to 8) (size 9 to 14) (size 15 to 20)
#    0.000    2.000    0.000    3.500    0.000    4.333 
#    0.000    1.667    0.000    0.000    0.000    0.000 
#    0.000    0.000    0.000    0.000    0.000    0.000 
#
# Total GULP energy -267367.672831 kJ/mol
# GULP energy per Si atom -5570.159851 kJ/mol
# Density = 1.970813 g / cm^3
# Si number density = 19.753086 Si / 1000 Ang^3
#
#
#
# Elastic Constant Matrix: (Units=GPa)
#
#
# Indices 1 2 3 4 5 6 
#
# 1 -13.2975 25.0245 5.3816 0.0000 0.0000 0.0000
# 2 25.0245 68.3473 42.6873 0.0000 0.0000 0.0000
# 3 5.3816 42.6873 48.1730 0.0000 0.0000 0.0000
# 4 0.0000 0.0000 0.0000 43.6229 0.0000 0.0000
# 5 0.0000 0.0000 0.0000 0.0000 26.2297 0.0000
# 6 0.0000 0.0000 0.0000 0.0000 0.0000 38.0228
#
#
#
# Elastic Compliance Matrix: (Units=1/GPa)
#
#
# Indices 1 2 3 4 5 6 
#
# 1 -0.036574 0.024273 -0.017423 0.000000 0.000000 0.000000
# 2 0.024273 0.016655 -0.017470 0.000000 0.000000 0.000000
# 3 -0.017423 -0.017470 0.038186 0.000000 0.000000 0.000000
# 4 0.000000 0.000000 0.000000 0.022924 0.000000 0.000000
# 5 0.000000 0.000000 0.000000 0.000000 0.038125 0.000000
# 6 0.000000 0.000000 0.000000 0.000000 0.000000 0.026300
#
#
# Mechanical properties :
#
#
# Convention : Reuss Voigt Hill
#
# Bulk Modulus (GPa) = -336.25988 27.71216 -154.27386
# Shear Modulus (GPa) = 39.72514 23.58369 31.65441
#
# Velocity S-wave (km/s) = 4.48938 3.45907 4.00747
# Velocity P-wave (km/s) = 11.98868 5.47844 7.54040
#
# Compressibility (1/GPa) = -0.00297389
#
# Stress axis : x y z
#
# Youngs Moduli (GPa) = -27.34174 60.04125 26.18776
#
# Poissons Ratio (x) = -1.45738 0.45627
# Poissons Ratio (y) = 0.66367 0.45751
# Poissons Ratio (z) = -0.47638 1.04894
#
# Static dielectric constant tensor:
#      x y z
#    x 1.635940 0.000000 0.000000 
#    y 0.000000 1.732460 0.000000 
#    z 0.000000 0.000000 1.667450 
# 
# From -- ./inp_files/6079.got.cif
#   From: 2010.05.17/outbox.ucp.g08.bks.cvg/sg51_4_cif.got.tgz:6079.got - 2010.06.11 16:27:58.
