data_PCOD9407972
_publ_section_title
;
Structure prediction by ZEFSAII (Michael W. Deem and Ramdas Pophale) SiO2 
 PCOD9407972
Probable space group: P N N A
;
_chemical_formula_sum "Si O2"
_cell_formula_units_Z 48
_cell_length_a 19.515097
_cell_length_b 13.966316
_cell_length_c 7.030309
_cell_angle_alpha 90.000000
_cell_angle_beta 90.000000
_cell_angle_gamma 90.000000
_cell_volume 1916.138920
_symmetry_space_group_name_H-M "P N N A"
_symmetry_group_IT_number 52
_symmetry_cell_setting 'orthorhombic'
loop_
_space_group_symop_operation_xyz
x,y,z
1/2-x,-y,z
x,1/2-y,1/2-z
1/2-x,1/2+y,1/2-z
-x,-y,-z
1/2+x,y,-z
-x,1/2+y,1/2+z
1/2+x,1/2-y,1/2+z
loop_
_atom_site_type_symbol
_atom_site_label
_atom_site_fract_x
_atom_site_fract_y
_atom_site_fract_z
Si Si1 0.671212 0.470508 0.761824
Si Si2 0.595730 0.558488 0.454347
Si Si3 0.348168 0.721752 0.031717
Si Si4 0.104882 0.616407 0.962300
Si Si5 0.003186 0.227859 0.021242
Si Si6 0.295717 0.224584 0.022710
O O1 0.750000 0.500000 0.720664
O O2 0.622927 0.465212 0.570684
O O3 0.672028 0.388081 0.924835
O O4 0.630064 0.551899 0.869516
O O5 0.587133 0.555029 0.225297
O O6 0.528830 0.622258 0.514680
O O7 0.659100 0.631508 0.490453
O O8 0.357094 0.750000 0.250000
O O9 0.421475 0.747595 0.949411
O O10 0.282930 0.780484 0.959862
O O11 0.047654 0.688085 0.043874
O O12 0.167591 0.687659 0.918178
O O13 0.999825 0.250000 0.250000
O O14 0.295108 0.250000 0.250000
#
# Coordination Sequence:
#
# PCOD9407972 Si02
#       6
#     8   8   8   8   8   8
#     4  12  22  38  63  95 122 159 209 260 312 365
#     4  10  21  38  66  89 120 166 207 248 312 374
#     4  10  20  37  62  86 125 162 205 262 309 366
#     4  10  20  37  62  88 125 159 203 253 309 365
#     4   8  18  37  59  88 120 164 204 248 304 368
#     4  10  16  34  62  89 120 160 200 255 307 368
#
# _framework density 25.050374000000001
#
# number of rings (size 3 to 8) (size 9 to 14) (size 15 to 20)
#    0.000    2.000    3.333    2.500    0.000    1.333 
#    0.000    7.500    7.333    4.000    0.000    0.000 
#    0.000    0.000    0.000    0.000    0.000    0.000 
#
# Total GULP energy -267762.325217 kJ/mol
# GULP energy per Si atom -5578.381775 kJ/mol
# Density = 2.499336 g / cm^3
# Si number density = 25.050374 Si / 1000 Ang^3
#
#
#
# Elastic Constant Matrix: (Units=GPa)
#
#
# Indices 1 2 3 4 5 6 
#
# 1 188.7030 9.2209 -7.9516 0.0000 0.0000 0.0000
# 2 9.2209 31.2782 -13.7487 0.0000 0.0000 0.0000
# 3 -7.9516 -13.7487 96.7312 0.0000 0.0000 0.0000
# 4 0.0000 0.0000 0.0000 28.7459 0.0000 0.0000
# 5 0.0000 0.0000 0.0000 0.0000 42.0662 0.0000
# 6 0.0000 0.0000 0.0000 0.0000 0.0000 15.1557
#
#
#
# Elastic Compliance Matrix: (Units=1/GPa)
#
#
# Indices 1 2 3 4 5 6 
#
# 1 0.005382 -0.001485 0.000231 0.000000 0.000000 0.000000
# 2 -0.001485 0.034511 0.004783 0.000000 0.000000 0.000000
# 3 0.000231 0.004783 0.011037 0.000000 0.000000 0.000000
# 4 0.000000 0.000000 0.000000 0.034788 0.000000 0.000000
# 5 0.000000 0.000000 0.000000 0.000000 0.023772 0.000000
# 6 0.000000 0.000000 0.000000 0.000000 0.000000 0.065982
#
#
# Mechanical properties :
#
#
# Convention : Reuss Voigt Hill
#
# Bulk Modulus (GPa) = 17.24463 32.41707 24.83085
# Shear Modulus (GPa) = 26.63233 39.13967 32.88600
#
# Velocity S-wave (km/s) = 3.26414 3.95706 3.62718
# Velocity P-wave (km/s) = 4.59402 5.81778 5.24174
#
# Compressibility (1/GPa) = 0.05798908
#
# Stress axis : x y z
#
# Youngs Moduli (GPa) = 185.81700 28.97595 90.60610
#
# Poissons Ratio (x) = 0.04302 -0.02096
# Poissons Ratio (y) = 0.27591 -0.43338
# Poissons Ratio (z) = -0.04299 -0.13860
#
# Static dielectric constant tensor:
#      x y z
#    x 2.046810 0.000000 0.000000 
#    y 0.000000 2.315600 0.000000 
#    z 0.000000 0.000000 1.878320 
# 
# From -- ./inp_files/13283.got.cif
#   From: 2010.05.17/outbox.cif.g08.bks.cpg/sg52_7_cif.got.tgz:13283.got - 2010.06.03 12:15:38.
