data_PCOD9407700
_publ_section_title
;
Structure prediction by ZEFSAII (Michael W. Deem and Ramdas Pophale) SiO2 
 PCOD9407700
Probable space group: P M M A
;
_chemical_formula_sum "Si O2"
_cell_formula_units_Z 48
_cell_length_a 30.000000
_cell_length_b 9.000000
_cell_length_c 9.000000
_cell_angle_alpha 90.000000
_cell_angle_beta 90.000000
_cell_angle_gamma 90.000000
_cell_volume 2430.000000
_symmetry_space_group_name_H-M "P M M A"
_symmetry_group_IT_number 51
_symmetry_cell_setting 'orthorhombic'
loop_
_space_group_symop_operation_xyz
x,y,z
1/2-x,-y,z
1/2+x,-y,-z
-x,y,-z
-x,-y,-z
1/2+x,y,-z
1/2-x,y,z
x,-y,z
loop_
_atom_site_type_symbol
_atom_site_label
_atom_site_fract_x
_atom_site_fract_y
_atom_site_fract_z
Si Si1 0.171881 0.824464 0.314904
Si Si2 0.426926 0.170402 0.346227
Si Si3 0.170733 0.175169 0.657669
Si Si4 0.750000 0.662682 0.840367
Si Si5 0.994005 0.338658 0.826711
Si Si6 0.416531 0.666273 0.645999
Si Si7 0.250000 0.336243 0.809517
O O1 0.120812 0.795825 0.274861
O O2 0.177248 0.777169 0.486262
O O3 0.206434 0.745436 0.212531
O O4 0.179839 0.000000 0.309519
O O5 0.465324 0.204269 0.232743
O O6 0.432777 0.274858 0.487498
O O7 0.425708 0.000000 0.397262
O O8 0.121672 0.225216 0.701096
O O9 0.206905 0.250480 0.757543
O O10 0.175217 0.000000 0.662842
O O11 0.750000 0.500000 0.772071
O O12 0.750000 0.653897 0.015369
O O13 0.972900 0.500000 0.787393
O O14 0.041869 0.335119 0.752585
O O15 0.000000 0.332178 0.000000
O O16 0.398035 0.500000 0.631976
O O17 0.250000 0.500000 0.742411
#
# Coordination Sequence:
#
# PCOD9407700 Si02
#       7
#     8   8   8   4   8   8   4
#     4   9  20  38  58  81 109 140 178 225 274 323
#     4  10  21  37  58  84 111 142 184 231 276 326
#     4  10  21  38  60  85 110 141 184 231 276 323
#     4  11  24  37  54  82 112 145 184 223 266 322
#     4  10  22  38  55  79 113 150 185 225 276 331
#     4  10  20  36  59  84 110 144 184 226 275 328
#     4  11  24  39  54  80 116 149 182 221 270 328
#
# _framework density 19.753086
#
# number of rings (size 3 to 8) (size 9 to 14) (size 15 to 20)
#    0.000    2.000    0.000    4.000    0.000   12.333 
#    0.000    5.000    0.000    0.000    0.000    0.000 
#    0.000    0.000    0.000    0.000    0.000    0.000 
#
# Total GULP energy -267640.091573 kJ/mol
# GULP energy per Si atom -5575.835241 kJ/mol
# Density = 1.970813 g / cm^3
# Si number density = 19.753086 Si / 1000 Ang^3
#
#
#
# Elastic Constant Matrix: (Units=GPa)
#
#
# Indices 1 2 3 4 5 6 
#
# 1 44.3307 40.6908 87.3480 0.0000 0.0000 0.0000
# 2 40.6908 25.7761 49.1575 0.0000 0.0000 0.0000
# 3 87.3480 49.1575 -6.4221 0.0000 0.0000 0.0000
# 4 0.0000 0.0000 0.0000 -28.1107 0.0000 0.0000
# 5 0.0000 0.0000 0.0000 0.0000 64.7006 0.0000
# 6 0.0000 0.0000 0.0000 0.0000 0.0000 34.0998
#
#
#
# Elastic Compliance Matrix: (Units=1/GPa)
#
#
# Indices 1 2 3 4 5 6 
#
# 1 -0.052752 0.093065 -0.005133 0.000000 0.000000 0.000000
# 2 0.093065 -0.161696 0.028094 0.000000 0.000000 0.000000
# 3 -0.005133 0.028094 -0.010482 0.000000 0.000000 0.000000
# 4 0.000000 0.000000 0.000000 -0.035574 0.000000 0.000000
# 5 0.000000 0.000000 0.000000 0.000000 0.015456 0.000000
# 6 0.000000 0.000000 0.000000 0.000000 0.000000 0.029326
#
#
# Mechanical properties :
#
#
# Convention : Reuss Voigt Hill
#
# Bulk Modulus (GPa) = 140.44041 46.45304 93.44672
# Shear Modulus (GPa) = -11.22583 6.57050 -2.32766
#
# Velocity S-wave (km/s) = -2.38651 1.82580 -1.08671
# Velocity P-wave (km/s) = 7.97862 5.29270 6.77019
#
# Compressibility (1/GPa) = 0.00712046
#
# Stress axis : x y z
#
# Youngs Moduli (GPa) = -18.95654 -6.18443 -95.39774
#
# Poissons Ratio (x) = 0.57555 -0.48966
# Poissons Ratio (y) = 1.76419 2.68009
# Poissons Ratio (z) = -0.09730 0.17374
#
# Static dielectric constant tensor:
#      x y z
#    x 1.691640 0.000000 0.000000 
#    y 0.000000 1.691130 0.000000 
#    z 0.000000 0.000000 1.668140 
# 
# From -- ./inp_files/12887.got.cif
#   From: 2010.05.17/outbox.ucp.g08.bks.cvg/sg51_7_cif.got.tgz:12887.got - 2010.06.11 16:27:58.
