data_PCOD9407476
_publ_section_title
;
Structure prediction by ZEFSAII (Michael W. Deem and Ramdas Pophale) SiO2 
 PCOD9407476
Probable space group: P M M A
;
_chemical_formula_sum "Si O2"
_cell_formula_units_Z 64
_cell_length_a 9.000000
_cell_length_b 21.000000
_cell_length_c 18.000000
_cell_angle_alpha 90.000000
_cell_angle_beta 90.000000
_cell_angle_gamma 90.000000
_cell_volume 3402.000000
_symmetry_space_group_name_H-M "P M M A"
_symmetry_group_IT_number 51
_symmetry_cell_setting 'orthorhombic'
loop_
_space_group_symop_operation_xyz
x,y,z
1/2-x,-y,z
1/2+x,-y,-z
-x,y,-z
-x,-y,-z
1/2+x,y,-z
1/2-x,y,z
x,-y,z
loop_
_atom_site_type_symbol
_atom_site_label
_atom_site_fract_x
_atom_site_fract_y
_atom_site_fract_z
Si Si1 0.921161 0.697040 0.161553
Si Si2 0.423888 0.197611 0.072039
Si Si3 0.919194 0.906613 0.425770
Si Si4 0.073861 0.069738 0.878011
Si Si5 0.577072 0.901212 0.726612
Si Si6 0.928407 0.430105 0.080474
Si Si7 0.921069 0.247693 0.427524
Si Si8 0.082366 0.251969 0.281758
O O1 0.750000 0.709241 0.141352
O O2 0.969366 0.629504 0.130497
O O3 0.026499 0.753506 0.134039
O O4 0.952283 0.705038 0.247243
O O5 0.250000 0.193486 0.064809
O O6 0.489984 0.128066 0.084711
O O7 0.500000 0.226340 0.000000
O O8 0.750000 0.928844 0.419384
O O9 0.911698 0.829605 0.431036
O O10 0.000000 0.928930 0.500000
O O11 0.013995 0.921465 0.352633
O O12 0.250000 0.079666 0.883903
O O13 0.022528 0.071976 0.792669
O O14 0.036691 0.000000 0.908561
O O15 0.750000 0.918434 0.736224
O O16 0.567374 0.824177 0.732322
O O17 0.750000 0.429046 0.072820
O O18 0.971488 0.500000 0.109373
O O19 0.000000 0.422275 0.000000
O O20 0.750000 0.268870 0.415209
O O21 0.000000 0.273477 0.500000
O O22 0.046767 0.259465 0.367037
O O23 0.250000 0.270869 0.261397
#
# Coordination Sequence:
#
# PCOD9407476 Si02
#       8
#     8   8   8   8   8   8   8   8
#     4  11  21  34  55  81 111 144 178 220 264 311
#     4  12  25  41  60  82 107 136 170 214 263 318
#     4   9  16  26  43  68  98 131 168 211 256 309
#     4  11  24  41  60  80 102 131 170 216 266 321
#     4  10  19  32  51  74 101 134 170 212 260 314
#     4   9  19  35  54  78 108 144 183 220 261 310
#     4   9  16  26  41  64  97 136 174 214 260 311
#     4  10  19  30  47  73 104 138 175 217 262 312
#
# _framework density 18.812463000000001
#
# number of rings (size 3 to 8) (size 9 to 14) (size 15 to 20)
#    0.000    1.875    1.250    3.750    0.000    7.250 
#    0.000    0.000    0.000    0.375    0.000    0.000 
#    0.000    0.500    0.000    1.375    0.000    2.000 
#
# Total GULP energy -356619.683434 kJ/mol
# GULP energy per Si atom -5572.182554 kJ/mol
# Density = 1.876965 g / cm^3
# Si number density = 18.812463 Si / 1000 Ang^3
#
#
#
# Elastic Constant Matrix: (Units=GPa)
#
#
# Indices 1 2 3 4 5 6 
#
# 1 74.5638 35.9255 8.8027 0.0000 0.0000 0.0000
# 2 35.9255 65.5838 28.3683 0.0000 0.0000 0.0000
# 3 8.8027 28.3683 53.3724 0.0000 0.0000 0.0000
# 4 0.0000 0.0000 0.0000 -32.0458 0.0000 0.0000
# 5 0.0000 0.0000 0.0000 0.0000 24.2019 0.0000
# 6 0.0000 0.0000 0.0000 0.0000 0.0000 -10.7975
#
#
#
# Elastic Compliance Matrix: (Units=1/GPa)
#
#
# Indices 1 2 3 4 5 6 
#
# 1 0.018594 -0.011504 0.003048 0.000000 0.000000 0.000000
# 2 -0.011504 0.026917 -0.012409 0.000000 0.000000 0.000000
# 3 0.003048 -0.012409 0.024829 0.000000 0.000000 0.000000
# 4 0.000000 0.000000 0.000000 -0.031205 0.000000 0.000000
# 5 0.000000 0.000000 0.000000 0.000000 0.041319 0.000000
# 6 0.000000 0.000000 0.000000 0.000000 0.000000 -0.092614
#
#
# Mechanical properties :
#
#
# Convention : Reuss Voigt Hill
#
# Bulk Modulus (GPa) = 34.95349 37.74590 36.34970
# Shear Modulus (GPa) = 127.85243 4.29996 66.07620
#
# Velocity S-wave (km/s) = 8.25282 1.51349 5.93295
# Velocity P-wave (km/s) = 10.46100 4.81270 8.14231
#
# Compressibility (1/GPa) = 0.02860945
#
# Stress axis : x y z
#
# Youngs Moduli (GPa) = 53.78032 37.15130 40.27472
#
# Poissons Ratio (x) = 0.42738 -0.12275
# Poissons Ratio (y) = 0.61868 0.49979
# Poissons Ratio (z) = -0.16391 0.46103
#
# Static dielectric constant tensor:
#      x y z
#    x 1.629160 0.000000 0.000000 
#    y 0.000000 1.663430 0.000000 
#    z 0.000000 0.000000 1.789580 
# 
# From -- ./inp_files/28388.got.cif
#   From: 2010.05.17/outbox.ucp.g08.bks.cvg/sg51_15_cif.got.tgz:28388.got - 2010.06.11 16:27:58.
