data_PCOD9407722
_publ_section_title
;
Structure prediction by ZEFSAII (Michael W. Deem and Ramdas Pophale) SiO2 
 PCOD9407722
Probable space group: P M M A
;
_chemical_formula_sum "Si O2"
_cell_formula_units_Z 56
_cell_length_a 21.000000
_cell_length_b 9.000000
_cell_length_c 15.000000
_cell_angle_alpha 90.000000
_cell_angle_beta 90.000000
_cell_angle_gamma 90.000000
_cell_volume 2835.000000
_symmetry_space_group_name_H-M "P M M A"
_symmetry_group_IT_number 51
_symmetry_cell_setting 'orthorhombic'
loop_
_space_group_symop_operation_xyz
x,y,z
1/2-x,-y,z
1/2+x,-y,-z
-x,y,-z
-x,-y,-z
1/2+x,y,-z
1/2-x,y,z
x,-y,z
loop_
_atom_site_type_symbol
_atom_site_label
_atom_site_fract_x
_atom_site_fract_y
_atom_site_fract_z
Si Si1 0.821664 0.320263 0.162686
Si Si2 0.119680 0.822733 0.476878
Si Si3 0.972954 0.819689 0.684726
Si Si4 0.604536 0.677735 0.332986
Si Si5 0.882883 0.174796 0.841673
Si Si6 0.923821 0.329203 0.013961
Si Si7 0.250000 0.179270 0.225477
Si Si8 0.750000 0.674971 0.586220
O O1 0.750000 0.267200 0.137808
O O2 0.819213 0.500000 0.161566
O O3 0.840556 0.277880 0.263475
O O4 0.882867 0.281933 0.100904
O O5 0.062139 0.786663 0.408855
O O6 0.107069 0.763532 0.574615
O O7 0.185716 0.747726 0.449893
O O8 0.126656 0.000000 0.474253
O O9 0.924836 0.766874 0.761083
O O10 0.036651 0.730034 0.703428
O O11 0.983621 0.000000 0.687678
O O12 0.606821 0.500000 0.345566
O O13 0.811064 0.218511 0.829640
O O14 0.886721 0.000000 0.830984
O O15 0.903528 0.220784 0.937225
O O16 0.904304 0.500000 0.997180
O O17 0.000000 0.328502 0.000000
O O18 0.250000 0.278781 0.311717
O O19 0.250000 0.000000 0.247653
O O20 0.750000 0.500000 0.570058
#
# Coordination Sequence:
#
# PCOD9407722 Si02
#       8
#     8   8   8   8   8   8   4   4
#     4   9  20  39  59  81 118 162 199 244 309 370
#     4  11  23  41  62  85 121 166 203 242 301 369
#     4  10  21  39  61  85 119 163 198 235 301 375
#     4  11  23  38  61  89 117 153 204 262 304 349
#     4  10  21  37  61  88 118 157 197 239 294 359
#     4  10  21  38  61  89 119 154 197 248 308 365
#     4  10  20  40  60  83 122 163 194 233 300 364
#     4  12  24  38  60  91 122 155 202 255 298 346
#
# _framework density 19.753086
#
# number of rings (size 3 to 8) (size 9 to 14) (size 15 to 20)
#    0.000    1.714    1.429    2.786    2.000    5.429 
#    0.000    1.429    0.000    1.714    0.000    0.000 
#    0.000    0.000    0.000    0.000    0.000    0.000 
#
# Total GULP energy -311895.966691 kJ/mol
# GULP energy per Si atom -5569.570834 kJ/mol
# Density = 1.970813 g / cm^3
# Si number density = 19.753086 Si / 1000 Ang^3
#
#
#
# Elastic Constant Matrix: (Units=GPa)
#
#
# Indices 1 2 3 4 5 6 
#
# 1 95.0003 32.9183 31.8354 0.0000 0.0000 0.0000
# 2 32.9183 34.6338 31.5698 0.0000 0.0000 0.0000
# 3 31.8354 31.5698 99.2654 0.0000 0.0000 0.0000
# 4 0.0000 0.0000 0.0000 22.0366 0.0000 0.0000
# 5 0.0000 0.0000 0.0000 0.0000 18.0062 0.0000
# 6 0.0000 0.0000 0.0000 0.0000 0.0000 25.3418
#
#
#
# Elastic Compliance Matrix: (Units=1/GPa)
#
#
# Indices 1 2 3 4 5 6 
#
# 1 0.015707 -0.014558 -0.000408 0.000000 0.000000 0.000000
# 2 -0.014558 0.054153 -0.012554 0.000000 0.000000 0.000000
# 3 -0.000408 -0.012554 0.014197 0.000000 0.000000 0.000000
# 4 0.000000 0.000000 0.000000 0.045379 0.000000 0.000000
# 5 0.000000 0.000000 0.000000 0.000000 0.055536 0.000000
# 6 0.000000 0.000000 0.000000 0.000000 0.000000 0.039460
#
#
# Mechanical properties :
#
#
# Convention : Reuss Voigt Hill
#
# Bulk Modulus (GPa) = 34.45946 46.83848 40.64897
# Shear Modulus (GPa) = 17.29236 21.91532 19.60384
#
# Velocity S-wave (km/s) = 2.96197 3.33447 3.15373
# Velocity P-wave (km/s) = 5.40191 6.21196 5.82104
#
# Compressibility (1/GPa) = 0.02901961
#
# Stress axis : x y z
#
# Youngs Moduli (GPa) = 63.66510 18.46614 70.43609
#
# Poissons Ratio (x) = 0.26882 0.02871
# Poissons Ratio (y) = 0.92681 0.88424
# Poissons Ratio (z) = 0.02595 0.23182
#
# Static dielectric constant tensor:
#      x y z
#    x 1.603760 0.000000 0.000000 
#    y 0.000000 1.644320 0.000000 
#    z 0.000000 0.000000 1.707940 
# 
# From -- ./inp_files/25938.got.cif
#   From: 2010.05.17/outbox.ucp.g08.bks.cvg/sg51_13_cif.got.tgz:25938.got - 2010.06.11 16:27:58.
