data_PCOD9407854
_publ_section_title
;
Structure prediction by ZEFSAII (Michael W. Deem and Ramdas Pophale) SiO2 
 PCOD9407854
Probable space group: P N N A
;
_chemical_formula_sum "Si O2"
_cell_formula_units_Z 56
_cell_length_a 5.431344
_cell_length_b 28.495685
_cell_length_c 16.760889
_cell_angle_alpha 90.000000
_cell_angle_beta 90.000000
_cell_angle_gamma 90.000000
_cell_volume 2594.080574
_symmetry_space_group_name_H-M "P N N A"
_symmetry_group_IT_number 52
_symmetry_cell_setting 'orthorhombic'
loop_
_space_group_symop_operation_xyz
x,y,z
1/2-x,-y,z
x,1/2-y,1/2-z
1/2-x,1/2+y,1/2-z
-x,-y,-z
1/2+x,y,-z
-x,1/2+y,1/2+z
1/2+x,1/2-y,1/2+z
loop_
_atom_site_type_symbol
_atom_site_label
_atom_site_fract_x
_atom_site_fract_y
_atom_site_fract_z
Si Si1 0.897473 0.565389 0.045213
Si Si2 0.908811 0.676073 0.080676
Si Si3 0.204501 0.447812 0.774326
Si Si4 0.590917 0.286253 0.899819
Si Si5 0.602133 0.187658 0.948748
Si Si6 0.592177 0.078990 0.950274
Si Si7 0.295302 0.552777 0.278670
O O1 0.899358 0.621967 0.055574
O O2 0.873727 0.547098 0.134485
O O3 0.653465 0.552124 0.996179
O O4 0.663500 0.690716 0.127122
O O5 0.159232 0.688497 0.126184
O O6 0.911851 0.704681 0.996698
O O7 0.250000 0.500000 0.739254
O O8 0.473586 0.424684 0.767214
O O9 0.973517 0.424036 0.730499
O O10 0.598346 0.230575 0.887001
O O11 0.599144 0.133600 0.922336
O O12 0.354346 0.193247 0.001228
O O13 0.626044 0.049889 0.870233
O O14 0.330090 0.070921 0.993245
O O15 0.250000 0.500000 0.246167
#
# Coordination Sequence:
#
# PCOD9407854 Si02
#       7
#     8   8   8   8   8   8   8
#     4  12  21  33  53  83 113 131 178 241 273 297
#     4  10  16  25  42  69 102 130 170 210 265 301
#     4  10  23  40  58  77 103 150 187 207 266 337
#     4  10  14  25  41  64 104 135 166 198 267 308
#     4  10  16  25  42  70 108 133 161 208 257 302
#     4  10  21  33  54  89 114 129 175 226 277 303
#     4  10  21  41  60  76 107 147 183 212 257 342
#
# _framework density 21.587609
#
# number of rings (size 3 to 8) (size 9 to 14) (size 15 to 20)
#    0.000    1.714    5.714    1.714    0.000    1.143 
#    0.000    0.000    0.000    0.000    0.000    6.000 
#    0.000    0.000    0.000    0.000    0.000    0.000 
#
# Total GULP energy -312328.748714 kJ/mol
# GULP energy per Si atom -5577.299084 kJ/mol
# Density = 2.153847 g / cm^3
# Si number density = 21.587609 Si / 1000 Ang^3
#
#
#
# Elastic Constant Matrix: (Units=GPa)
#
#
# Indices 1 2 3 4 5 6 
#
# 1 208.0405 22.8429 18.2211 0.0000 0.0000 0.0000
# 2 22.8429 39.6163 11.1505 0.0000 0.0000 0.0000
# 3 18.2211 11.1505 45.5788 0.0000 0.0000 0.0000
# 4 0.0000 0.0000 0.0000 -8.1816 0.0000 0.0000
# 5 0.0000 0.0000 0.0000 0.0000 24.8364 0.0000
# 6 0.0000 0.0000 0.0000 0.0000 0.0000 21.6042
#
#
#
# Elastic Compliance Matrix: (Units=1/GPa)
#
#
# Indices 1 2 3 4 5 6 
#
# 1 0.005219 -0.002601 -0.001450 0.000000 0.000000 0.000000
# 2 -0.002601 0.028405 -0.005909 0.000000 0.000000 0.000000
# 3 -0.001450 -0.005909 0.023965 0.000000 0.000000 0.000000
# 4 0.000000 0.000000 0.000000 -0.122225 0.000000 0.000000
# 5 0.000000 0.000000 0.000000 0.000000 0.040263 0.000000
# 6 0.000000 0.000000 0.000000 0.000000 0.000000 0.046287
#
#
# Mechanical properties :
#
#
# Convention : Reuss Voigt Hill
#
# Bulk Modulus (GPa) = 26.54725 44.18494 35.36610
# Shear Modulus (GPa) = 91.92301 23.71987 57.82144
#
# Velocity S-wave (km/s) = 6.53252 3.31837 5.18099
# Velocity P-wave (km/s) = 8.32001 5.93248 7.22554
#
# Compressibility (1/GPa) = 0.03766868
#
# Stress axis : x y z
#
# Youngs Moduli (GPa) = 191.59300 35.20470 41.72680
#
# Poissons Ratio (x) = 0.09158 0.06051
# Poissons Ratio (y) = 0.49840 0.24657
# Poissons Ratio (z) = 0.27784 0.20803
#
# Static dielectric constant tensor:
#      x y z
#    x 1.929010 0.000000 0.000000 
#    y 0.000000 1.836630 0.000000 
#    z 0.000000 0.000000 1.734380 
# 
# From -- ./inp_files/23773.got.cif
#   From: 2010.05.17/outbox.cif.g08.bks.cpg/sg52_12_cif.got.tgz:23773.got - 2010.06.03 12:15:38.
