data_PCOD9407486
_publ_section_title
;
Structure prediction by ZEFSAII (Michael W. Deem and Ramdas Pophale) SiO2 
 PCOD9407486
Probable space group: P M M A
;
_chemical_formula_sum "Si O2"
_cell_formula_units_Z 64
_cell_length_a 9.000000
_cell_length_b 18.000000
_cell_length_c 21.000000
_cell_angle_alpha 90.000000
_cell_angle_beta 90.000000
_cell_angle_gamma 90.000000
_cell_volume 3402.000000
_symmetry_space_group_name_H-M "P M M A"
_symmetry_group_IT_number 51
_symmetry_cell_setting 'orthorhombic'
loop_
_space_group_symop_operation_xyz
x,y,z
1/2-x,-y,z
1/2+x,-y,-z
-x,y,-z
-x,-y,-z
1/2+x,y,-z
1/2-x,y,z
x,-y,z
loop_
_atom_site_type_symbol
_atom_site_label
_atom_site_fract_x
_atom_site_fract_y
_atom_site_fract_z
Si Si1 0.072013 0.419951 0.094030
Si Si2 0.420073 0.375742 0.781479
Si Si3 0.928690 0.877689 0.566385
Si Si4 0.570551 0.779897 0.793581
Si Si5 0.925295 0.704235 0.564663
Si Si6 0.930704 0.919228 0.707451
Si Si7 0.072363 0.254135 0.062762
Si Si8 0.920766 0.419204 0.360829
O O1 0.250000 0.419628 0.087578
O O2 0.015409 0.500000 0.069850
O O3 0.018069 0.340358 0.067956
O O4 0.024908 0.414346 0.167391
O O5 0.250000 0.372521 0.805589
O O6 0.484069 0.293164 0.771284
O O7 0.419331 0.417629 0.715147
O O8 0.750000 0.885401 0.561093
O O9 0.967138 0.790281 0.573756
O O10 0.976952 0.912504 0.633457
O O11 0.000000 0.904185 0.500000
O O12 0.750000 0.769225 0.786617
O O13 0.524262 0.850777 0.751952
O O14 0.540096 0.784542 0.869498
O O15 0.750000 0.702010 0.559247
O O16 0.000000 0.677656 0.500000
O O17 0.981196 0.649293 0.618001
O O18 0.750000 0.916894 0.706517
O O19 0.976780 0.000000 0.732229
O O20 0.250000 0.255264 0.055721
O O21 0.000000 0.220287 0.000000
O O22 0.750000 0.408501 0.382403
O O23 0.973007 0.500000 0.383792
#
# Coordination Sequence:
#
# PCOD9407486 Si02
#       8
#     8   8   8   8   8   8   8   8
#     4   9  18  32  48  68  98 133 167 206 250 294
#     4  10  19  31  49  72  97 127 164 204 247 296
#     4   9  18  32  51  76 104 132 163 198 236 284
#     4   9  18  34  54  75 100 130 167 210 250 294
#     4  10  20  34  51  68  88 119 159 201 244 291
#     4   9  17  31  54  81 105 131 165 203 241 286
#     4   9  18  31  48  71  98 130 169 212 255 299
#     4  10  21  34  46  64  92 122 155 201 251 295
#
# _framework density 18.812463000000001
#
# number of rings (size 3 to 8) (size 9 to 14) (size 15 to 20)
#    0.000    2.625    0.000    2.625    0.000    6.250 
#    0.000    0.625    0.000    1.500    0.000    0.000 
#    0.000    0.000    0.000    0.000    0.000    0.250 
#
# Total GULP energy -356561.813945 kJ/mol
# GULP energy per Si atom -5571.278343 kJ/mol
# Density = 1.876965 g / cm^3
# Si number density = 18.812463 Si / 1000 Ang^3
#
#
#
# Elastic Constant Matrix: (Units=GPa)
#
#
# Indices 1 2 3 4 5 6 
#
# 1 -8.2667 12.9992 10.3037 0.0000 0.0000 0.0000
# 2 12.9992 91.4101 47.6335 0.0000 0.0000 0.0000
# 3 10.3037 47.6335 86.9316 0.0000 0.0000 0.0000
# 4 0.0000 0.0000 0.0000 132.7272 0.0000 0.0000
# 5 0.0000 0.0000 0.0000 0.0000 26.6163 0.0000
# 6 0.0000 0.0000 0.0000 0.0000 0.0000 35.9129
#
#
#
# Elastic Compliance Matrix: (Units=1/GPa)
#
#
# Indices 1 2 3 4 5 6 
#
# 1 -0.096938 0.010914 0.005509 0.000000 0.000000 0.000000
# 2 0.010914 0.014083 -0.009010 0.000000 0.000000 0.000000
# 3 0.005509 -0.009010 0.015787 0.000000 0.000000 0.000000
# 4 0.000000 0.000000 0.000000 0.007534 0.000000 0.000000
# 5 0.000000 0.000000 0.000000 0.000000 0.037571 0.000000
# 6 0.000000 0.000000 0.000000 0.000000 0.000000 0.027845
#
#
# Mechanical properties :
#
#
# Convention : Reuss Voigt Hill
#
# Bulk Modulus (GPa) = -19.14220 34.66087 7.75933
# Shear Modulus (GPa) = -189.69843 45.66050 -72.01897
#
# Velocity S-wave (km/s) = -10.05264 4.93195 -6.19400
# Velocity P-wave (km/s) = 12.03902 7.13418 6.85717
#
# Compressibility (1/GPa) = -0.05224059
#
# Stress axis : x y z
#
# Youngs Moduli (GPa) = -10.31590 71.00875 63.34178
#
# Poissons Ratio (x) = -0.77502 -0.34897
# Poissons Ratio (y) = 0.11259 0.57072
# Poissons Ratio (z) = 0.05683 0.63980
#
# Static dielectric constant tensor:
#      x y z
#    x 1.634410 0.000000 0.000000 
#    y 0.000000 1.668500 0.000000 
#    z 0.000000 0.000000 1.665860 
# 
# From -- ./inp_files/32375.got.cif
#   From: 2010.05.17/outbox.ucp.g08.bks.cvg/sg51_17_cif.got.tgz:32375.got - 2010.06.11 16:27:58.
