data_PCOD9407220
_publ_section_title
;
Structure prediction by ZEFSAII (Michael W. Deem and Ramdas Pophale) SiO2 
 PCOD9407220
Probable space group: P M M A
;
_chemical_formula_sum "Si O2"
_cell_formula_units_Z 48
_cell_length_a 14.725262
_cell_length_b 8.680638
_cell_length_c 18.601151
_cell_angle_alpha 90.000000
_cell_angle_beta 90.000000
_cell_angle_gamma 90.000000
_cell_volume 2377.685967
_symmetry_space_group_name_H-M "P M M A"
_symmetry_group_IT_number 51
_symmetry_cell_setting 'orthorhombic'
loop_
_space_group_symop_operation_xyz
x,y,z
1/2-x,-y,z
1/2+x,-y,-z
-x,y,-z
-x,-y,-z
1/2+x,y,-z
1/2-x,y,z
x,-y,z
loop_
_atom_site_type_symbol
_atom_site_label
_atom_site_fract_x
_atom_site_fract_y
_atom_site_fract_z
Si Si1 0.466163 0.818954 0.822174
Si Si2 0.853668 0.314073 0.880773
Si Si3 0.547932 0.686448 0.325663
Si Si4 0.141721 0.680032 0.953123
Si Si5 0.847131 0.688597 0.629529
Si Si6 0.894337 0.324084 0.475866
O O1 0.568083 0.754831 0.832085
O O2 0.421740 0.742922 0.751809
O O3 0.411926 0.774000 0.893915
O O4 0.468369 0.000000 0.812993
O O5 0.750000 0.266454 0.864614
O O6 0.856416 0.500000 0.875789
O O7 0.874418 0.273211 0.964134
O O8 0.549577 0.500000 0.328026
O O9 0.442313 0.736432 0.335788
O O10 0.603723 0.743234 0.395670
O O11 0.250000 0.690673 0.941649
O O12 0.115248 0.500000 0.946434
O O13 0.750000 0.732078 0.663039
O O14 0.850071 0.500000 0.628190
O O15 0.848501 0.744455 0.546460
O O16 0.860553 0.500000 0.469372
O O17 0.000000 0.332322 0.500000
#
# Coordination Sequence:
#
# PCOD9407220 Si02
#       6
#     8   8   8   8   8   8
#     4  12  24  34  49  77 113 149 177 208 258 315
#     4   9  19  37  60  82 103 132 174 222 266 310
#     4   9  17  30  47  67  96 134 171 207 250 303
#     4   9  19  38  62  82  99 127 174 227 270 311
#     4   8  13  23  44  73  96 116 155 214 269 307
#     4   7  11  22  41  63  86 113 149 199 252 292
#
# _framework density 20.187695000000001
#
# number of rings (size 3 to 8) (size 9 to 14) (size 15 to 20)
#    0.000    3.000    0.000    5.000    0.000    4.000 
#    0.000    4.167    0.000    7.500    0.000    0.000 
#    0.000    0.000    0.000    0.000    0.000    0.000 
#
# Total GULP energy -267510.551861 kJ/mol
# GULP energy per Si atom -5573.136497 kJ/mol
# Density = 2.014175 g / cm^3
# Si number density = 20.187695 Si / 1000 Ang^3
#
#
#
# Elastic Constant Matrix: (Units=GPa)
#
#
# Indices 1 2 3 4 5 6 
#
# 1 17.1303 0.9228 3.5923 0.0000 0.0000 0.0000
# 2 0.9228 11.6502 20.3951 0.0000 0.0000 0.0000
# 3 3.5923 20.3951 81.8746 0.0000 0.0000 0.0000
# 4 0.0000 0.0000 0.0000 -24.2346 0.0000 0.0000
# 5 0.0000 0.0000 0.0000 0.0000 9.6212 0.0000
# 6 0.0000 0.0000 0.0000 0.0000 0.0000 -23.5398
#
#
#
# Elastic Compliance Matrix: (Units=1/GPa)
#
#
# Indices 1 2 3 4 5 6 
#
# 1 0.058919 -0.000251 -0.002523 0.000000 0.000000 0.000000
# 2 -0.000251 0.152214 -0.037906 0.000000 0.000000 0.000000
# 3 -0.002523 -0.037906 0.021767 0.000000 0.000000 0.000000
# 4 0.000000 0.000000 0.000000 -0.041263 0.000000 0.000000
# 5 0.000000 0.000000 0.000000 0.000000 0.103937 0.000000
# 6 0.000000 0.000000 0.000000 0.000000 0.000000 -0.042481
#
#
# Mechanical properties :
#
#
# Convention : Reuss Voigt Hill
#
# Bulk Modulus (GPa) = 6.59886 17.83060 12.21473
# Shear Modulus (GPa) = 12.98825 -1.91432 5.53696
#
# Velocity S-wave (km/s) = 2.53923 -0.97484 1.65792
# Velocity P-wave (km/s) = 3.44569 2.75400 3.11908
#
# Compressibility (1/GPa) = 0.15154127
#
# Stress axis : x y z
#
# Youngs Moduli (GPa) = 16.97255 6.56972 45.94145
#
# Poissons Ratio (x) = 0.00165 0.11589
# Poissons Ratio (y) = 0.00425 1.74144
# Poissons Ratio (z) = 0.04282 0.24903
#
# Static dielectric constant tensor:
#      x y z
#    x 1.747630 0.000000 0.000000 
#    y 0.000000 1.679300 0.000000 
#    z 0.000000 0.000000 1.738030 
# 
# From -- ./inp_files/29470.got.cif
#   From: 2010.05.17/outbox.cif.g08.bks.cpg/sg51_15_cif.got.tgz:29470.got - 2010.06.03 11:52:47.
