data_PCOD9407073
_publ_section_title
;
Structure prediction by ZEFSAII (Michael W. Deem and Ramdas Pophale) SiO2 
 PCOD9407073
Probable space group: P M M A
;
_chemical_formula_sum "Si O2"
_cell_formula_units_Z 56
_cell_length_a 14.512687
_cell_length_b 9.162040
_cell_length_c 22.095951
_cell_angle_alpha 90.000000
_cell_angle_beta 90.000000
_cell_angle_gamma 90.000000
_cell_volume 2938.006217
_symmetry_space_group_name_H-M "P M M A"
_symmetry_group_IT_number 51
_symmetry_cell_setting 'orthorhombic'
loop_
_space_group_symop_operation_xyz
x,y,z
1/2-x,-y,z
1/2+x,-y,-z
-x,y,-z
-x,-y,-z
1/2+x,y,-z
1/2-x,y,z
x,-y,z
loop_
_atom_site_type_symbol
_atom_site_label
_atom_site_fract_x
_atom_site_fract_y
_atom_site_fract_z
Si Si1 0.527160 0.674888 0.350507
Si Si2 0.642336 0.825034 0.593730
Si Si3 0.855331 0.324523 0.851417
Si Si4 0.137645 0.832904 0.024551
Si Si5 0.533956 0.676981 0.216279
Si Si6 0.639098 0.328461 0.096824
Si Si7 0.360626 0.830889 0.545679
O O1 0.525084 0.500000 0.351849
O O2 0.425979 0.738780 0.363275
O O3 0.559229 0.724881 0.283700
O O4 0.591295 0.734770 0.403804
O O5 0.750000 0.790465 0.603031
O O6 0.617677 0.789386 0.523694
O O7 0.631786 0.000000 0.600456
O O8 0.750000 0.278987 0.838692
O O9 0.856217 0.500000 0.857256
O O10 0.886017 0.256711 0.915327
O O11 0.928990 0.283270 0.800571
O O12 0.250000 0.831666 0.022519
O O13 0.107481 0.000000 0.029075
O O14 0.106576 0.758903 0.962191
O O15 0.539755 0.500000 0.216613
O O16 0.596155 0.725566 0.159859
O O17 0.750000 0.318314 0.100272
O O18 0.615630 0.500000 0.089147
O O19 0.250000 0.823978 0.551250
O O20 0.389015 0.000000 0.553784
#
# Coordination Sequence:
#
# PCOD9407073 Si02
#       7
#     8   8   8   8   8   8   8
#     4  11  22  34  52  81 114 142 171 216 271 316
#     4   9  19  37  59  80 104 139 181 219 257 308
#     4   9  17  32  53  71  91 126 169 205 239 291
#     4   9  17  30  49  74 101 123 150 201 263 304
#     4   9  20  35  49  71 101 134 171 204 241 297
#     4   9  17  32  53  71  91 126 169 205 239 291
#     4   9  19  37  59  80 104 139 181 219 257 308
#
# _framework density 19.060544
#
# number of rings (size 3 to 8) (size 9 to 14) (size 15 to 20)
#    0.000    2.714    0.000    2.143    0.000    6.286 
#    0.000   10.714    0.000    3.429    0.000    0.000 
#    0.000    0.000    0.000    0.000    0.000    0.000 
#
# Total GULP energy -312487.802257 kJ/mol
# GULP energy per Si atom -5580.139326 kJ/mol
# Density = 1.901716 g / cm^3
# Si number density = 19.060544 Si / 1000 Ang^3
#
#
#
# Elastic Constant Matrix: (Units=GPa)
#
#
# Indices 1 2 3 4 5 6 
#
# 1 16.6649 2.5144 -4.5940 0.0000 0.0000 0.0000
# 2 2.5144 25.2952 16.4916 0.0000 0.0000 0.0000
# 3 -4.5940 16.4916 61.2056 0.0000 0.0000 0.0000
# 4 0.0000 0.0000 0.0000 -55.5815 0.0000 0.0000
# 5 0.0000 0.0000 0.0000 0.0000 17.9942 0.0000
# 6 0.0000 0.0000 0.0000 0.0000 0.0000 14.9386
#
#
#
# Elastic Compliance Matrix: (Units=1/GPa)
#
#
# Indices 1 2 3 4 5 6 
#
# 1 0.063919 -0.011502 0.007897 0.000000 0.000000 0.000000
# 2 -0.011502 0.050028 -0.014343 0.000000 0.000000 0.000000
# 3 0.007897 -0.014343 0.020796 0.000000 0.000000 0.000000
# 4 0.000000 0.000000 0.000000 -0.017992 0.000000 0.000000
# 5 0.000000 0.000000 0.000000 0.000000 0.055574 0.000000
# 6 0.000000 0.000000 0.000000 0.000000 0.000000 0.066940
#
#
# Mechanical properties :
#
#
# Convention : Reuss Voigt Hill
#
# Bulk Modulus (GPa) = 10.11677 14.66550 12.39114
# Shear Modulus (GPa) = 16.22798 1.38719 8.80759
#
# Velocity S-wave (km/s) = 2.92103 0.85403 2.15195
# Velocity P-wave (km/s) = 4.08604 2.94675 3.56224
#
# Compressibility (1/GPa) = 0.09884575
#
# Stress axis : x y z
#
# Youngs Moduli (GPa) = 15.64484 19.98896 48.08663
#
# Poissons Ratio (x) = 0.22991 -0.37973
# Poissons Ratio (y) = 0.17995 0.68971
# Poissons Ratio (z) = -0.12355 0.28670
#
# Static dielectric constant tensor:
#      x y z
#    x 1.695950 0.000000 0.000000 
#    y 0.000000 1.639810 0.000000 
#    z 0.000000 0.000000 1.644980 
# 
# From -- ./inp_files/33395.got.cif
#   From: 2010.05.17/outbox.cif.g08.bks.cpg/sg51_17_cif.got.tgz:33395.got - 2010.06.03 11:52:47.
