data_PCOD9407250
_publ_section_title
;
Structure prediction by ZEFSAII (Michael W. Deem and Ramdas Pophale) SiO2 
 PCOD9407250
Probable space group: P M M A
;
_chemical_formula_sum "Si O2"
_cell_formula_units_Z 40
_cell_length_a 7.222289
_cell_length_b 28.811284
_cell_length_c 7.284171
_cell_angle_alpha 90.000000
_cell_angle_beta 90.000000
_cell_angle_gamma 90.000000
_cell_volume 1515.715210
_symmetry_space_group_name_H-M "P M M A"
_symmetry_group_IT_number 51
_symmetry_cell_setting 'orthorhombic'
loop_
_space_group_symop_operation_xyz
x,y,z
1/2-x,-y,z
1/2+x,-y,-z
-x,y,-z
-x,-y,-z
1/2+x,y,-z
1/2-x,y,z
x,-y,z
loop_
_atom_site_type_symbol
_atom_site_label
_atom_site_fract_x
_atom_site_fract_y
_atom_site_fract_z
Si Si1 0.468790 0.847731 0.285238
Si Si2 0.469304 0.049391 0.216172
Si Si3 0.529265 0.251109 0.721355
Si Si4 0.470416 0.649363 0.278884
Si Si5 0.470405 0.450213 0.278882
O O1 0.500000 0.841615 0.500000
O O2 0.250000 0.850039 0.239419
O O3 0.545820 0.899368 0.254884
O O4 0.542274 0.798721 0.206883
O O5 0.250000 0.050551 0.259579
O O6 0.541321 0.000000 0.293920
O O7 0.500000 0.045871 0.000000
O O8 0.500000 0.252318 0.500000
O O9 0.750000 0.250388 0.749985
O O10 0.456680 0.300876 0.789829
O O11 0.500000 0.649143 0.500000
O O12 0.250000 0.649550 0.248570
O O13 0.543510 0.599574 0.211002
O O14 0.500000 0.450249 0.500000
O O15 0.250000 0.450178 0.248510
O O16 0.543568 0.500000 0.211081
#
# Coordination Sequence:
#
# PCOD9407250 Si02
#       5
#     8   8   8   8   8
#     4   9  17  28  42  61  83 104 128 160 194 227
#     4   9  18  32  47  62  81 105 132 160 190 227
#     4   8  13  21  32  46  65  88 113 142 176 213
#     4   8  12  17  25  36  51  74 103 133 166 203
#     4   8  12  16  21  30  45  66  95 131 165 195
#
# _framework density 26.390183
#
# number of rings (size 3 to 8) (size 9 to 14) (size 15 to 20)
#    0.000    3.600    0.000    0.000    0.000    1.200 
#    0.000    0.000    0.000    0.000    0.000    0.000 
#    0.000    0.000    0.000    0.000    0.000    1.000 
#
# Total GULP energy -222828.378987 kJ/mol
# GULP energy per Si atom -5570.709475 kJ/mol
# Density = 2.633012 g / cm^3
# Si number density = 26.390183 Si / 1000 Ang^3
#
#
#
# Elastic Constant Matrix: (Units=GPa)
#
#
# Indices 1 2 3 4 5 6 
#
# 1 150.4097 30.3641 -19.2755 0.0000 0.0000 0.0000
# 2 30.3641 441.3362 16.2835 0.0000 0.0000 0.0000
# 3 -19.2755 16.2835 75.9368 0.0000 0.0000 0.0000
# 4 0.0000 0.0000 0.0000 76.0333 0.0000 0.0000
# 5 0.0000 0.0000 0.0000 0.0000 0.5794 0.0000
# 6 0.0000 0.0000 0.0000 0.0000 0.0000 0.8146
#
#
#
# Elastic Compliance Matrix: (Units=1/GPa)
#
#
# Indices 1 2 3 4 5 6 
#
# 1 0.007003 -0.000552 0.001896 0.000000 0.000000 0.000000
# 2 -0.000552 0.002327 -0.000639 0.000000 0.000000 0.000000
# 3 0.001896 -0.000639 0.013787 0.000000 0.000000 0.000000
# 4 0.000000 0.000000 0.000000 0.013152 0.000000 0.000000
# 5 0.000000 0.000000 0.000000 0.000000 1.725969 0.000000
# 6 0.000000 0.000000 0.000000 0.000000 0.000000 1.227602
#
#
# Mechanical properties :
#
#
# Convention : Reuss Voigt Hill
#
# Bulk Modulus (GPa) = 40.77068 80.26966 60.52017
# Shear Modulus (GPa) = 1.66855 58.17284 29.92070
#
# Velocity S-wave (km/s) = 0.79601 4.70013 3.37082
# Velocity P-wave (km/s) = 4.04074 7.74193 6.17515
#
# Compressibility (1/GPa) = 0.02452743
#
# Stress axis : x y z
#
# Youngs Moduli (GPa) = 142.79886 429.66621 72.53133
#
# Poissons Ratio (x) = 0.23707 -0.13751
# Poissons Ratio (y) = 0.07879 0.04636
# Poissons Ratio (z) = -0.27073 0.27461
#
# Static dielectric constant tensor:
#      x y z
#    x 1.953720 0.000000 0.000000 
#    y 0.000000 2.244370 0.000000 
#    z 0.000000 0.000000 2.055170 
# 
# From -- ./inp_files/884.got.cif
#   From: 2010.05.17/outbox.cif.g08.bks.cpg/sg51_1_cif.got.tgz:884.got - 2010.06.03 11:52:47.
