data_PCOD9407156
_publ_section_title
;
Structure prediction by ZEFSAII (Michael W. Deem and Ramdas Pophale) SiO2 
 PCOD9407156
Probable space group: P M M A
;
_chemical_formula_sum "Si O2"
_cell_formula_units_Z 32
_cell_length_a 13.545591
_cell_length_b 9.005782
_cell_length_c 13.186484
_cell_angle_alpha 90.000000
_cell_angle_beta 90.000000
_cell_angle_gamma 90.000000
_cell_volume 1608.601244
_symmetry_space_group_name_H-M "P M M A"
_symmetry_group_IT_number 51
_symmetry_cell_setting 'orthorhombic'
loop_
_space_group_symop_operation_xyz
x,y,z
1/2-x,-y,z
1/2+x,-y,-z
-x,y,-z
-x,-y,-z
1/2+x,y,-z
1/2-x,y,z
x,-y,z
loop_
_atom_site_type_symbol
_atom_site_label
_atom_site_fract_x
_atom_site_fract_y
_atom_site_fract_z
Si Si1 0.750000 0.670046 0.389917
Si Si2 0.136958 0.678361 0.246659
Si Si3 0.961442 0.172807 0.115078
Si Si4 0.889468 0.831402 0.536566
Si Si5 0.250000 0.327500 0.852052
O O1 0.750000 0.500000 0.423021
O O2 0.839129 0.754616 0.441122
O O3 0.750000 0.674879 0.269967
O O4 0.250000 0.715649 0.211050
O O5 0.127821 0.500000 0.244473
O O6 0.127841 0.737897 0.361681
O O7 0.046413 0.748996 0.183187
O O8 0.853201 0.249087 0.117922
O O9 0.952036 0.000000 0.146938
O O10 0.000000 0.177568 0.000000
O O11 0.000000 0.837603 0.500000
O O12 0.856022 0.000000 0.554742
O O13 0.250000 0.500000 0.886472
#
# Coordination Sequence:
#
# PCOD9407156 Si02
#       5
#     4   8   8   8   4
#     4  11  23  39  60  91 128 169 211 258 316 379
#     4  11  24  42  66  99 135 175 222 273 329 391
#     4  11  26  46  70  99 132 173 220 274 335 396
#     4  11  23  38  61  93 129 172 217 264 317 380
#     4  11  25  45  70  99 134 173 219 276 332 393
#
# _framework density 19.893059000000001
#
# number of rings (size 3 to 8) (size 9 to 14) (size 15 to 20)
#    0.000    1.000    1.250    4.500    1.750   11.500 
#    0.000    0.000    0.000    0.000    0.000    0.000 
#    0.000    0.000    0.000    0.000    0.000    0.000 
#
# Total GULP energy -178704.069666 kJ/mol
# GULP energy per Si atom -5584.502177 kJ/mol
# Density = 1.984778 g / cm^3
# Si number density = 19.893059 Si / 1000 Ang^3
#
#
#
# Elastic Constant Matrix: (Units=GPa)
#
#
# Indices 1 2 3 4 5 6 
#
# 1 209.4338 95.0254 35.3602 0.0000 0.0000 0.0000
# 2 95.0254 156.4987 33.2772 0.0000 0.0000 0.0000
# 3 35.3602 33.2772 42.8800 0.0000 0.0000 0.0000
# 4 0.0000 0.0000 0.0000 34.2583 0.0000 0.0000
# 5 0.0000 0.0000 0.0000 0.0000 38.3089 0.0000
# 6 0.0000 0.0000 0.0000 0.0000 0.0000 20.9693
#
#
#
# Elastic Compliance Matrix: (Units=1/GPa)
#
#
# Indices 1 2 3 4 5 6 
#
# 1 0.006881 -0.003559 -0.002913 0.000000 0.000000 0.000000
# 2 -0.003559 0.009493 -0.004432 0.000000 0.000000 0.000000
# 3 -0.002913 -0.004432 0.029163 0.000000 0.000000 0.000000
# 4 0.000000 0.000000 0.000000 0.029190 0.000000 0.000000
# 5 0.000000 0.000000 0.000000 0.000000 0.026104 0.000000
# 6 0.000000 0.000000 0.000000 0.000000 0.000000 0.047689
#
#
# Mechanical properties :
#
#
# Convention : Reuss Voigt Hill
#
# Bulk Modulus (GPa) = 42.14238 81.79312 61.96775
# Shear Modulus (GPa) = 28.05246 35.05062 31.55154
#
# Velocity S-wave (km/s) = 3.75929 4.20212 3.98685
# Velocity P-wave (km/s) = 6.33036 8.04670 7.23957
#
# Compressibility (1/GPa) = 0.02372908
#
# Stress axis : x y z
#
# Youngs Moduli (GPa) = 145.32047 105.33692 34.29054
#
# Poissons Ratio (x) = 0.37489 0.09987
# Poissons Ratio (y) = 0.51720 0.15199
# Poissons Ratio (z) = 0.42326 0.46690
#
# Static dielectric constant tensor:
#      x y z
#    x 1.698330 0.000000 0.000000 
#    y 0.000000 1.692350 0.000000 
#    z 0.000000 0.000000 1.657190 
# 
# From -- ./inp_files/15944.got.cif
#   From: 2010.05.17/outbox.cif.g08.bks.cpg/sg51_8_cif.got.tgz:15944.got - 2010.06.03 11:52:47.
