data_PCOD9407602
_publ_section_title
;
Structure prediction by ZEFSAII (Michael W. Deem and Ramdas Pophale) SiO2 
 PCOD9407602
Probable space group: P M M A
;
_chemical_formula_sum "Si O2"
_cell_formula_units_Z 56
_cell_length_a 21.000000
_cell_length_b 9.000000
_cell_length_c 15.000000
_cell_angle_alpha 90.000000
_cell_angle_beta 90.000000
_cell_angle_gamma 90.000000
_cell_volume 2835.000000
_symmetry_space_group_name_H-M "P M M A"
_symmetry_group_IT_number 51
_symmetry_cell_setting 'orthorhombic'
loop_
_space_group_symop_operation_xyz
x,y,z
1/2-x,-y,z
1/2+x,-y,-z
-x,y,-z
-x,-y,-z
1/2+x,y,-z
1/2-x,y,z
x,-y,z
loop_
_atom_site_type_symbol
_atom_site_label
_atom_site_fract_x
_atom_site_fract_y
_atom_site_fract_z
Si Si1 0.439946 0.329464 0.441663
Si Si2 0.675341 0.176348 0.937447
Si Si3 0.957879 0.322906 0.914179
Si Si4 0.325385 0.663710 0.881146
Si Si5 0.518825 0.669667 0.274543
Si Si6 0.182725 0.177943 0.509022
Si Si7 0.859237 0.173055 0.298132
O O1 0.500000 0.275851 0.500000
O O2 0.429208 0.500000 0.470360
O O3 0.458318 0.327409 0.338554
O O4 0.377516 0.238721 0.459343
O O5 0.750000 0.224327 0.916942
O O6 0.662415 0.221143 0.040213
O O7 0.673607 0.000000 0.924347
O O8 0.611786 0.250664 0.896082
O O9 0.947867 0.500000 0.924484
O O10 0.000872 0.299676 0.826808
O O11 0.000000 0.271584 0.000000
O O12 0.250000 0.647297 0.880186
O O13 0.354228 0.500000 0.898345
O O14 0.343849 0.728896 0.786928
O O15 0.544938 0.500000 0.281981
O O16 0.566920 0.791012 0.312505
O O17 0.250000 0.231407 0.472236
O O18 0.176931 0.219587 0.613011
O O19 0.181368 0.000000 0.506827
O O20 0.846813 0.000000 0.280799
#
# Coordination Sequence:
#
# PCOD9407602 Si02
#       7
#     8   8   8   8   8   8   8
#     4  10  20  37  60  84 112 149 192 238 286 340
#     4  10  21  37  57  81 111 149 193 242 294 347
#     4  10  21  37  58  85 116 151 192 241 292 345
#     4  10  20  33  51  76 108 148 190 230 281 346
#     4  10  21  37  57  83 114 147 190 239 288 345
#     4  10  22  38  56  82 117 154 192 238 291 346
#     4  11  21  33  53  81 114 148 185 232 289 349
#
# _framework density 19.753086
#
# number of rings (size 3 to 8) (size 9 to 14) (size 15 to 20)
#    0.000    1.857    1.429    2.571    0.000    6.000 
#    0.000    0.714    0.000    4.286    0.000    0.000 
#    0.000    0.000    0.000    0.000    0.000    0.000 
#
# Total GULP energy -312074.203817 kJ/mol
# GULP energy per Si atom -5572.753640 kJ/mol
# Density = 1.970813 g / cm^3
# Si number density = 19.753086 Si / 1000 Ang^3
#
#
#
# Elastic Constant Matrix: (Units=GPa)
#
#
# Indices 1 2 3 4 5 6 
#
# 1 77.2507 24.5422 19.7330 0.0000 0.0000 0.0000
# 2 24.5422 21.3092 9.2394 0.0000 0.0000 0.0000
# 3 19.7330 9.2394 55.2464 0.0000 0.0000 0.0000
# 4 0.0000 0.0000 0.0000 20.6192 0.0000 0.0000
# 5 0.0000 0.0000 0.0000 0.0000 12.5503 0.0000
# 6 0.0000 0.0000 0.0000 0.0000 0.0000 62.9488
#
#
#
# Elastic Compliance Matrix: (Units=1/GPa)
#
#
# Indices 1 2 3 4 5 6 
#
# 1 0.021110 -0.022688 -0.003746 0.000000 0.000000 0.000000
# 2 -0.022688 0.074982 -0.004436 0.000000 0.000000 0.000000
# 3 -0.003746 -0.004436 0.020180 0.000000 0.000000 0.000000
# 4 0.000000 0.000000 0.000000 0.048499 0.000000 0.000000
# 5 0.000000 0.000000 0.000000 0.000000 0.079680 0.000000
# 6 0.000000 0.000000 0.000000 0.000000 0.000000 0.015886
#
#
# Mechanical properties :
#
#
# Convention : Reuss Voigt Hill
#
# Bulk Modulus (GPa) = 18.33780 28.98174 23.65977
# Shear Modulus (GPa) = 14.69490 25.90976 20.30233
#
# Velocity S-wave (km/s) = 2.73047 3.62564 3.20942
# Velocity P-wave (km/s) = 4.38683 5.67723 5.07322
#
# Compressibility (1/GPa) = 0.05453218
#
# Stress axis : x y z
#
# Youngs Moduli (GPa) = 47.37175 13.33648 49.55282
#
# Poissons Ratio (x) = 0.30258 0.18560
# Poissons Ratio (y) = 1.07479 0.21983
# Poissons Ratio (z) = 0.17743 0.05916
#
# Static dielectric constant tensor:
#      x y z
#    x 1.780610 0.000000 0.000000 
#    y 0.000000 1.672560 0.000000 
#    z 0.000000 0.000000 1.728610 
# 
# From -- ./inp_files/25685.got.cif
#   From: 2010.05.17/outbox.ucp.g08.bks.cvg/sg51_13_cif.got.tgz:25685.got - 2010.06.11 16:27:58.
