data_PCOD9407494
_publ_section_title
;
Structure prediction by ZEFSAII (Michael W. Deem and Ramdas Pophale) SiO2 
 PCOD9407494
Probable space group: P M M A
;
_chemical_formula_sum "Si O2"
_cell_formula_units_Z 64
_cell_length_a 9.000000
_cell_length_b 18.000000
_cell_length_c 21.000000
_cell_angle_alpha 90.000000
_cell_angle_beta 90.000000
_cell_angle_gamma 90.000000
_cell_volume 3402.000000
_symmetry_space_group_name_H-M "P M M A"
_symmetry_group_IT_number 51
_symmetry_cell_setting 'orthorhombic'
loop_
_space_group_symop_operation_xyz
x,y,z
1/2-x,-y,z
1/2+x,-y,-z
-x,y,-z
-x,-y,-z
1/2+x,y,-z
1/2-x,y,z
x,-y,z
loop_
_atom_site_type_symbol
_atom_site_label
_atom_site_fract_x
_atom_site_fract_y
_atom_site_fract_z
Si Si1 0.073195 0.583627 0.199399
Si Si2 0.572247 0.759229 0.563999
Si Si3 0.923649 0.083731 0.410981
Si Si4 0.423909 0.215056 0.062641
Si Si5 0.071922 0.287515 0.296446
Si Si6 0.082471 0.136466 0.731118
Si Si7 0.917337 0.920828 0.843200
Si Si8 0.928024 0.374390 0.067811
O O1 0.250000 0.596513 0.187466
O O2 0.056712 0.500000 0.225246
O O3 0.021000 0.645470 0.250548
O O4 0.989881 0.587789 0.131699
O O5 0.500000 0.727387 0.500000
O O6 0.750000 0.756999 0.560438
O O7 0.519230 0.845444 0.567675
O O8 0.522810 0.717882 0.629278
O O9 0.750000 0.092797 0.430615
O O10 0.928537 0.092380 0.334719
O O11 0.972216 0.000000 0.428288
O O12 0.250000 0.234646 0.052957
O O13 0.433061 0.151916 0.114849
O O14 0.516100 0.289361 0.076460
O O15 0.500000 0.182975 0.000000
O O16 0.250000 0.291765 0.297619
O O17 0.022621 0.208351 0.268644
O O18 0.250000 0.164156 0.737313
O O19 0.036168 0.084448 0.788136
O O20 0.750000 0.918689 0.815574
O O21 0.930897 0.000000 0.878050
O O22 0.750000 0.379766 0.063910
O O23 0.000000 0.399394 0.000000
#
# Coordination Sequence:
#
# PCOD9407494 Si02
#       8
#     8   8   8   8   8   8   8   8
#     4  10  21  38  60  85 113 143 174 212 259 310
#     4  10  20  34  53  77 104 137 179 222 264 313
#     4   9  18  32  48  69 101 137 172 214 262 309
#     4  10  20  35  53  71  94 127 170 216 260 309
#     4   9  19  36  57  80 106 139 177 215 259 316
#     4  10  19  31  50  75 100 130 170 214 259 307
#     4  10  21  34  47  66  95 131 169 213 266 318
#     4  11  22  37  58  83 112 145 180 216 256 308
#
# _framework density 18.812463000000001
#
# number of rings (size 3 to 8) (size 9 to 14) (size 15 to 20)
#    0.000    2.125    0.000    4.125    0.000    7.500 
#    0.000    0.000    0.000    0.375    0.000    0.000 
#    0.000    0.000    0.000    0.000    0.000    0.375 
#
# Total GULP energy -356829.305962 kJ/mol
# GULP energy per Si atom -5575.457906 kJ/mol
# Density = 1.876965 g / cm^3
# Si number density = 18.812463 Si / 1000 Ang^3
#
#
#
# Elastic Constant Matrix: (Units=GPa)
#
#
# Indices 1 2 3 4 5 6 
#
# 1 51.0326 21.1720 40.5836 0.0000 0.0000 0.0000
# 2 21.1720 75.6539 52.4650 0.0000 0.0000 0.0000
# 3 40.5836 52.4650 96.5787 0.0000 0.0000 0.0000
# 4 0.0000 0.0000 0.0000 15.5375 0.0000 0.0000
# 5 0.0000 0.0000 0.0000 0.0000 28.7188 0.0000
# 6 0.0000 0.0000 0.0000 0.0000 0.0000 8.1628
#
#
#
# Elastic Compliance Matrix: (Units=1/GPa)
#
#
# Indices 1 2 3 4 5 6 
#
# 1 0.029444 0.000546 -0.012669 0.000000 0.000000 0.000000
# 2 0.000546 0.021218 -0.011756 0.000000 0.000000 0.000000
# 3 -0.012669 -0.011756 0.022064 0.000000 0.000000 0.000000
# 4 0.000000 0.000000 0.000000 0.064360 0.000000 0.000000
# 5 0.000000 0.000000 0.000000 0.000000 0.034820 0.000000
# 6 0.000000 0.000000 0.000000 0.000000 0.000000 0.122507
#
#
# Mechanical properties :
#
#
# Convention : Reuss Voigt Hill
#
# Bulk Modulus (GPa) = 40.05138 50.18959 45.12048
# Shear Modulus (GPa) = 14.26557 17.75346 16.00952
#
# Velocity S-wave (km/s) = 2.75672 3.07531 2.92037
# Velocity P-wave (km/s) = 5.60970 6.27271 5.95045
#
# Compressibility (1/GPa) = 0.02496793
#
# Stress axis : x y z
#
# Youngs Moduli (GPa) = 33.96262 47.13060 45.32233
#
# Poissons Ratio (x) = -0.02574 0.57421
# Poissons Ratio (y) = -0.01855 0.53279
# Poissons Ratio (z) = 0.43029 0.55405
#
# Static dielectric constant tensor:
#      x y z
#    x 1.653220 0.000000 0.000000 
#    y 0.000000 1.657090 0.000000 
#    z 0.000000 0.000000 1.695210 
# 
# From -- ./inp_files/32325.got.cif
#   From: 2010.05.17/outbox.ucp.g08.bks.cvg/sg51_17_cif.got.tgz:32325.got - 2010.06.11 16:27:58.
