data_PCOD9407032
_publ_section_title
;
Structure prediction by ZEFSAII (Michael W. Deem and Ramdas Pophale) SiO2 
 PCOD9407032
Probable space group: P M M A
;
_chemical_formula_sum "Si O2"
_cell_formula_units_Z 48
_cell_length_a 15.740014
_cell_length_b 11.672097
_cell_length_c 15.306004
_cell_angle_alpha 90.000000
_cell_angle_beta 90.000000
_cell_angle_gamma 90.000000
_cell_volume 2812.003293
_symmetry_space_group_name_H-M "P M M A"
_symmetry_group_IT_number 51
_symmetry_cell_setting 'orthorhombic'
loop_
_space_group_symop_operation_xyz
x,y,z
1/2-x,-y,z
1/2+x,-y,-z
-x,y,-z
-x,-y,-z
1/2+x,y,-z
1/2-x,y,z
x,-y,z
loop_
_atom_site_type_symbol
_atom_site_label
_atom_site_fract_x
_atom_site_fract_y
_atom_site_fract_z
Si Si1 0.653259 0.500000 0.146098
Si Si2 0.661125 0.627326 0.693567
Si Si3 0.919337 0.266610 0.223628
Si Si4 0.750000 0.862494 0.168222
Si Si5 0.407540 0.500000 0.042116
Si Si6 0.750000 0.136724 0.964144
Si Si7 0.485313 0.633082 0.598388
Si Si8 0.102086 0.258552 0.141710
O O1 0.750000 0.500000 0.179000
O O2 0.604650 0.611402 0.180649
O O3 0.653903 0.500000 0.041236
O O4 0.750000 0.641222 0.645499
O O5 0.661532 0.500000 0.735008
O O6 0.580596 0.628874 0.633809
O O7 0.650724 0.720828 0.767673
O O8 0.836943 0.187262 0.209677
O O9 0.937578 0.293772 0.326411
O O10 0.005480 0.225903 0.171952
O O11 0.750000 0.000000 0.173372
O O12 0.750000 0.826684 0.065797
O O13 0.400515 0.617005 0.095848
O O14 0.500000 0.500000 0.000000
O O15 0.836817 0.181260 0.918147
O O16 0.750000 0.000000 0.960947
O O17 0.500000 0.676709 0.500000
O O18 0.452588 0.500000 0.595474
#
# Coordination Sequence:
#
# PCOD9407032 Si02
#       8
#     4   8   8   4   4   4   8   8
#     4  12  22  32  49  83 121 150 183 229 283 352
#     4   9  16  29  48  77 111 142 178 215 269 336
#     4  11  21  38  59  83 115 152 187 232 293 347
#     4  11  26  43  57  78 109 155 206 241 276 324
#     4  12  22  30  50  86 113 143 191 227 283 350
#     4  11  26  41  55  80 113 157 210 245 276 324
#     4   9  18  33  54  83 119 148 172 214 277 354
#     4  11  21  35  55  81 114 149 187 237 283 334
#
# _framework density 17.069682
#
# number of rings (size 3 to 8) (size 9 to 14) (size 15 to 20)
#    0.000    1.500    5.000    1.000    1.167    0.667 
#    1.500    1.667    0.000    0.500    0.000    4.667 
#    0.000    0.000    0.000    0.000    0.000    0.000 
#
# Total GULP energy -267241.559580 kJ/mol
# GULP energy per Si atom -5567.532491 kJ/mol
# Density = 1.703083 g / cm^3
# Si number density = 17.069682 Si / 1000 Ang^3
#
#
#
# Elastic Constant Matrix: (Units=GPa)
#
#
# Indices 1 2 3 4 5 6 
#
# 1 131.4481 37.7527 45.5451 0.0000 0.0000 0.0000
# 2 37.7527 50.3631 27.7048 0.0000 0.0000 0.0000
# 3 45.5451 27.7048 112.3819 0.0000 0.0000 0.0000
# 4 0.0000 0.0000 0.0000 13.2487 0.0000 0.0000
# 5 0.0000 0.0000 0.0000 0.0000 -4.4697 0.0000
# 6 0.0000 0.0000 0.0000 0.0000 0.0000 15.0523
#
#
#
# Elastic Compliance Matrix: (Units=1/GPa)
#
#
# Indices 1 2 3 4 5 6 
#
# 1 0.010328 -0.006293 -0.002634 0.000000 0.000000 0.000000
# 2 -0.006293 0.026805 -0.004058 0.000000 0.000000 0.000000
# 3 -0.002634 -0.004058 0.010966 0.000000 0.000000 0.000000
# 4 0.000000 0.000000 0.000000 0.075479 0.000000 0.000000
# 5 0.000000 0.000000 0.000000 0.000000 -0.223731 0.000000
# 6 0.000000 0.000000 0.000000 0.000000 0.000000 0.066435
#
#
# Mechanical properties :
#
#
# Convention : Reuss Voigt Hill
#
# Bulk Modulus (GPa) = 45.18867 57.35537 51.27202
# Shear Modulus (GPa) = -13434.60697 16.97897 -6708.81400
#
# Velocity S-wave (km/s) = -88.81180 3.15729 -62.75973
# Velocity P-wave (km/s) = 102.42160 6.85310 72.26070
#
# Compressibility (1/GPa) = 0.02212944
#
# Stress axis : x y z
#
# Youngs Moduli (GPa) = 96.82846 37.30643 91.18967
#
# Poissons Ratio (x) = 0.23475 0.24021
# Poissons Ratio (y) = 0.60930 0.37004
# Poissons Ratio (z) = 0.25506 0.15139
#
# Static dielectric constant tensor:
#      x y z
#    x 1.607170 0.000000 0.000000 
#    y 0.000000 1.569340 0.000000 
#    z 0.000000 0.000000 1.615610 
# 
# From -- ./inp_files/24133.got.cif
#   From: 2010.05.17/outbox.cif.g08.bks.cpg/sg51_13_cif.got.tgz:24133.got - 2010.06.03 11:52:47.
