data_PCOD9407102
_publ_section_title
;
Structure prediction by ZEFSAII (Michael W. Deem and Ramdas Pophale) SiO2 
 PCOD9407102
Probable space group: P M M A
;
_chemical_formula_sum "Si O2"
_cell_formula_units_Z 44
_cell_length_a 8.773336
_cell_length_b 17.749578
_cell_length_c 15.602656
_cell_angle_alpha 90.000000
_cell_angle_beta 90.000000
_cell_angle_gamma 90.000000
_cell_volume 2429.692582
_symmetry_space_group_name_H-M "P M M A"
_symmetry_group_IT_number 51
_symmetry_cell_setting 'orthorhombic'
loop_
_space_group_symop_operation_xyz
x,y,z
1/2-x,-y,z
1/2+x,-y,-z
-x,y,-z
-x,-y,-z
1/2+x,y,-z
1/2-x,y,z
x,-y,z
loop_
_atom_site_type_symbol
_atom_site_label
_atom_site_fract_x
_atom_site_fract_y
_atom_site_fract_z
Si Si1 0.067432 0.379414 0.273202
Si Si2 0.426240 0.385915 0.910089
Si Si3 0.566794 0.500000 0.403564
Si Si4 0.063633 0.211892 0.727645
Si Si5 0.076086 0.797425 0.913448
Si Si6 0.433508 0.084224 0.594296
O O1 0.250000 0.383748 0.276876
O O2 0.011843 0.405667 0.178215
O O3 0.993366 0.429372 0.347874
O O4 0.009524 0.293741 0.284742
O O5 0.250000 0.409149 0.905059
O O6 0.428482 0.294242 0.913403
O O7 0.500000 0.411458 0.000000
O O8 0.750000 0.500000 0.407079
O O9 0.500000 0.500000 0.500000
O O10 0.250000 0.220315 0.729563
O O11 0.012060 0.181792 0.820850
O O12 0.020137 0.151660 0.656330
O O13 0.250000 0.821577 0.915839
O O14 0.000000 0.824420 0.000000
O O15 0.500000 0.094976 0.500000
O O16 0.250000 0.085635 0.589713
O O17 0.478578 0.000000 0.624149
#
# Coordination Sequence:
#
# PCOD9407102 Si02
#       6
#     8   8   4   8   8   8
#     4  11  22  37  57  83 111 142 181 222 266 318
#     4   9  16  29  50  78 110 144 178 217 265 315
#     4  12  26  46  65  80 103 138 178 224 276 324
#     4   9  18  33  52  76 106 140 177 217 262 313
#     4   8  14  24  41  66  97 132 169 208 250 298
#     4   9  18  33  53  76 103 135 171 214 266 320
#
# _framework density 18.109286999999998
#
# number of rings (size 3 to 8) (size 9 to 14) (size 15 to 20)
#    0.000    2.545    0.000    4.091    0.000    5.818 
#    0.000    2.273    0.000    0.545    0.000    0.000 
#    0.000    0.000    0.000    0.000    0.000    2.000 
#
# Total GULP energy -245330.839007 kJ/mol
# GULP energy per Si atom -5575.700887 kJ/mol
# Density = 1.806807 g / cm^3
# Si number density = 18.109287 Si / 1000 Ang^3
#
#
#
# Elastic Constant Matrix: (Units=GPa)
#
#
# Indices 1 2 3 4 5 6 
#
# 1 99.1415 37.6518 69.5765 0.0000 0.0000 0.0000
# 2 37.6518 87.3816 82.4503 0.0000 0.0000 0.0000
# 3 69.5765 82.4503 175.6395 0.0000 0.0000 0.0000
# 4 0.0000 0.0000 0.0000 -141.5106 0.0000 0.0000
# 5 0.0000 0.0000 0.0000 0.0000 34.5344 0.0000
# 6 0.0000 0.0000 0.0000 0.0000 0.0000 86.8546
#
#
#
# Elastic Compliance Matrix: (Units=1/GPa)
#
#
# Indices 1 2 3 4 5 6 
#
# 1 0.014071 -0.001443 -0.004897 0.000000 0.000000 0.000000
# 2 -0.001443 0.020691 -0.009142 0.000000 0.000000 0.000000
# 3 -0.004897 -0.009142 0.011925 0.000000 0.000000 0.000000
# 4 0.000000 0.000000 0.000000 -0.007067 0.000000 0.000000
# 5 0.000000 0.000000 0.000000 0.000000 0.028957 0.000000
# 6 0.000000 0.000000 0.000000 0.000000 0.000000 0.011513
#
#
# Mechanical properties :
#
#
# Convention : Reuss Voigt Hill
#
# Bulk Modulus (GPa) = 63.59342 82.39107 72.99224
# Shear Modulus (GPa) = 42.99432 7.47462 25.23447
#
# Velocity S-wave (km/s) = 4.87782 2.03383 3.73695
# Velocity P-wave (km/s) = 8.18027 7.14917 7.68204
#
# Compressibility (1/GPa) = 0.01572490
#
# Stress axis : x y z
#
# Youngs Moduli (GPa) = 71.06834 48.32906 83.86004
#
# Poissons Ratio (x) = 0.06972 0.41064
# Poissons Ratio (y) = 0.10252 0.76662
# Poissons Ratio (z) = 0.34800 0.44181
#
# Static dielectric constant tensor:
#      x y z
#    x 1.617200 0.000000 0.000000 
#    y 0.000000 1.625210 0.000000 
#    z 0.000000 0.000000 1.623680 
# 
# From -- ./inp_files/20941.got.cif
#   From: 2010.05.17/outbox.cif.g08.bks.cpg/sg51_11_cif.got.tgz:20941.got - 2010.06.03 11:52:47.
