data_PCOD9407873
_publ_section_title
;
Structure prediction by ZEFSAII (Michael W. Deem and Ramdas Pophale) SiO2 
 PCOD9407873
Probable space group: P N N A
;
_chemical_formula_sum "Si O2"
_cell_formula_units_Z 56
_cell_length_a 15.067975
_cell_length_b 7.586618
_cell_length_c 17.852551
_cell_angle_alpha 90.000000
_cell_angle_beta 90.000000
_cell_angle_gamma 90.000000
_cell_volume 2040.813838
_symmetry_space_group_name_H-M "P N N A"
_symmetry_group_IT_number 52
_symmetry_cell_setting 'orthorhombic'
loop_
_space_group_symop_operation_xyz
x,y,z
1/2-x,-y,z
x,1/2-y,1/2-z
1/2-x,1/2+y,1/2-z
-x,-y,-z
1/2+x,y,-z
-x,1/2+y,1/2+z
1/2+x,1/2-y,1/2+z
loop_
_atom_site_type_symbol
_atom_site_label
_atom_site_fract_x
_atom_site_fract_y
_atom_site_fract_z
Si Si1 0.887359 0.046440 0.273412
Si Si2 0.820519 0.636138 0.523173
Si Si3 0.115734 0.140589 0.367656
Si Si4 0.916088 0.326481 0.076428
Si Si5 0.094233 0.504383 0.274743
Si Si6 0.931610 0.167196 0.921014
Si Si7 0.875000 0.921588 0.125087
O O1 0.874986 0.250000 0.250000
O O2 0.868353 0.045715 0.362308
O O3 0.843555 0.922958 0.210449
O O4 0.991224 0.001165 0.253285
O O5 0.750000 0.500000 0.554158
O O6 0.818867 0.817542 0.565336
O O7 0.910493 0.524143 0.540143
O O8 0.806816 0.652357 0.435264
O O9 0.109891 0.323578 0.320292
O O10 0.142781 0.004024 0.304366
O O11 0.018768 0.124164 0.405674
O O12 0.897132 0.126437 0.105223
O O13 0.904890 0.305354 0.986193
O O14 0.111178 0.649462 0.338038
O O15 0.034266 0.180397 0.896439
#
# Coordination Sequence:
#
# PCOD9407873 Si02
#       7
#     8   8   8   8   8   8   8
#     4   8  10  14  24  39  49  63  97 136 174 212
#     4  10  16  18  23  35  54  82 114 142 181 216
#     4   9  11  18  24  35  52  70 105 143 175 208
#     4   9  10  15  27  39  50  68  96 142 181 210
#     4   8  11  15  26  37  47  68  99 142 173 210
#     4   9  13  19  28  38  53  76 109 142 183 213
#     4   9  12  19  26  34  52  78 107 139 179 209
#
# _framework density 27.440033
#
# number of rings (size 3 to 8) (size 9 to 14) (size 15 to 20)
#    0.000    3.143    8.571    0.857    0.000    0.000 
#    0.000    0.000    0.000    0.000    0.000    0.000 
#    0.000    0.000    0.000    0.000  217.143    0.000 
#
# Total GULP energy -312055.319037 kJ/mol
# GULP energy per Si atom -5572.416411 kJ/mol
# Density = 2.737758 g / cm^3
# Si number density = 27.440033 Si / 1000 Ang^3
#
#
#
# Elastic Constant Matrix: (Units=GPa)
#
#
# Indices 1 2 3 4 5 6 
#
# 1 56.4384 3.8176 23.7043 0.0000 0.0000 0.0000
# 2 3.8176 91.7836 83.0796 0.0000 0.0000 0.0000
# 3 23.7043 83.0796 289.1278 0.0000 0.0000 0.0000
# 4 0.0000 0.0000 0.0000 37.0454 0.0000 0.0000
# 5 0.0000 0.0000 0.0000 0.0000 -3.6421 0.0000
# 6 0.0000 0.0000 0.0000 0.0000 0.0000 3.2774
#
#
#
# Elastic Compliance Matrix: (Units=1/GPa)
#
#
# Indices 1 2 3 4 5 6 
#
# 1 0.018395 0.000811 -0.001741 0.000000 0.000000 0.000000
# 2 0.000811 0.014761 -0.004308 0.000000 0.000000 0.000000
# 3 -0.001741 -0.004308 0.004839 0.000000 0.000000 0.000000
# 4 0.000000 0.000000 0.000000 0.026994 0.000000 0.000000
# 5 0.000000 0.000000 0.000000 0.000000 -0.274566 0.000000
# 6 0.000000 0.000000 0.000000 0.000000 0.000000 0.305122
#
#
# Mechanical properties :
#
#
# Convention : Reuss Voigt Hill
#
# Bulk Modulus (GPa) = 36.33892 73.17253 54.75573
# Shear Modulus (GPa) = 43.40503 29.11936 36.26219
#
# Velocity S-wave (km/s) = 3.98152 3.26114 3.63920
# Velocity P-wave (km/s) = 5.86587 6.39565 6.13648
#
# Compressibility (1/GPa) = 0.02751870
#
# Stress axis : x y z
#
# Youngs Moduli (GPa) = 54.36302 67.74653 206.64141
#
# Poissons Ratio (x) = -0.05494 0.35979
# Poissons Ratio (y) = -0.04408 0.89020
# Poissons Ratio (z) = 0.09465 0.29185
#
# Static dielectric constant tensor:
#      x y z
#    x 2.175600 0.000000 0.000000 
#    y 0.000000 2.182370 0.000000 
#    z 0.000000 0.000000 2.291200 
# 
# From -- ./inp_files/33822.got.cif
#   From: 2010.05.17/outbox.cif.g08.bks.cpg/sg52_17_cif.got.tgz:33822.got - 2010.06.03 12:15:38.
