data_PCOD9407795
_publ_section_title
;
Structure prediction by ZEFSAII (Michael W. Deem and Ramdas Pophale) SiO2 
 PCOD9407795
Probable space group: P M M A
;
_chemical_formula_sum "Si O2"
_cell_formula_units_Z 48
_cell_length_a 9.000000
_cell_length_b 30.000000
_cell_length_c 9.000000
_cell_angle_alpha 90.000000
_cell_angle_beta 90.000000
_cell_angle_gamma 90.000000
_cell_volume 2430.000000
_symmetry_space_group_name_H-M "P M M A"
_symmetry_group_IT_number 51
_symmetry_cell_setting 'orthorhombic'
loop_
_space_group_symop_operation_xyz
x,y,z
1/2-x,-y,z
1/2+x,-y,-z
-x,y,-z
-x,-y,-z
1/2+x,y,-z
1/2-x,y,z
x,-y,z
loop_
_atom_site_type_symbol
_atom_site_label
_atom_site_fract_x
_atom_site_fract_y
_atom_site_fract_z
Si Si1 0.923971 0.449866 0.660312
Si Si2 0.919201 0.287929 0.844980
Si Si3 0.073935 0.869629 0.845766
Si Si4 0.071753 0.949041 0.652217
Si Si5 0.573749 0.372086 0.162219
Si Si6 0.081870 0.201156 0.353560
O O1 0.750000 0.438276 0.648596
O O2 0.934247 0.500000 0.721974
O O3 0.000000 0.450037 0.500000
O O4 0.011661 0.414936 0.757138
O O5 0.750000 0.303324 0.870401
O O6 0.914629 0.242701 0.755858
O O7 0.011258 0.326836 0.764777
O O8 0.000000 0.278792 0.000000
O O9 0.250000 0.865975 0.858379
O O10 0.032245 0.919076 0.792299
O O11 0.012835 0.837583 0.719749
O O12 0.000000 0.857645 0.000000
O O13 0.250000 0.947791 0.635755
O O14 0.000000 0.931728 0.500000
O O15 0.023644 0.000000 0.671338
O O16 0.750000 0.372094 0.155859
O O17 0.500000 0.371644 0.000000
O O18 0.250000 0.186021 0.382889
O O19 0.000000 0.216238 0.500000
#
# Coordination Sequence:
#
# PCOD9407795 Si02
#       6
#     8   8   8   8   8   8
#     4  10  21  38  59  83 113 149 189 233 281 334
#     4  10  21  38  59  83 112 146 185 229 279 334
#     4  11  23  38  58  83 114 150 189 234 282 335
#     4   9  19  36  57  82 112 147 187 231 280 333
#     4  11  22  37  59  85 115 150 188 232 280 332
#     4  11  24  40  60  85 114 148 187 232 280 333
#
# _framework density 19.753086
#
# number of rings (size 3 to 8) (size 9 to 14) (size 15 to 20)
#    0.000    1.667    0.000    5.500    0.000    9.000 
#    0.000    1.667    0.000    0.000    0.000    0.000 
#    0.000    0.000    0.000    0.000    0.000    0.000 
#
# Total GULP energy -267861.468458 kJ/mol
# GULP energy per Si atom -5580.447260 kJ/mol
# Density = 1.970813 g / cm^3
# Si number density = 19.753086 Si / 1000 Ang^3
#
#
#
# Elastic Constant Matrix: (Units=GPa)
#
#
# Indices 1 2 3 4 5 6 
#
# 1 123.4825 50.3823 29.4757 0.0000 0.0000 0.0000
# 2 50.3823 67.1113 25.2826 0.0000 0.0000 0.0000
# 3 29.4757 25.2826 36.4220 0.0000 0.0000 0.0000
# 4 0.0000 0.0000 0.0000 32.2561 0.0000 0.0000
# 5 0.0000 0.0000 0.0000 0.0000 24.6253 0.0000
# 6 0.0000 0.0000 0.0000 0.0000 0.0000 35.0744
#
#
#
# Elastic Compliance Matrix: (Units=1/GPa)
#
#
# Indices 1 2 3 4 5 6 
#
# 1 0.012260 -0.007402 -0.004784 0.000000 0.000000 0.000000
# 2 -0.007402 0.024646 -0.011118 0.000000 0.000000 0.000000
# 3 -0.004784 -0.011118 0.039045 0.000000 0.000000 0.000000
# 4 0.000000 0.000000 0.000000 0.031002 0.000000 0.000000
# 5 0.000000 0.000000 0.000000 0.000000 0.040609 0.000000
# 6 0.000000 0.000000 0.000000 0.000000 0.000000 0.028511
#
#
# Mechanical properties :
#
#
# Convention : Reuss Voigt Hill
#
# Bulk Modulus (GPa) = 34.07880 48.58855 41.33368
# Shear Modulus (GPa) = 21.50895 26.51618 24.01256
#
# Velocity S-wave (km/s) = 3.30341 3.66783 3.49038
# Velocity P-wave (km/s) = 5.64269 6.52600 6.10035
#
# Compressibility (1/GPa) = 0.02934375
#
# Stress axis : x y z
#
# Youngs Moduli (GPa) = 81.56377 40.57477 25.61142
#
# Poissons Ratio (x) = 0.30033 0.12252
# Poissons Ratio (y) = 0.60373 0.28474
# Poissons Ratio (z) = 0.39020 0.45110
#
# Static dielectric constant tensor:
#      x y z
#    x 1.657380 0.000000 0.000000 
#    y 0.000000 1.735450 0.000000 
#    z 0.000000 0.000000 1.839620 
# 
# From -- ./inp_files/6053.got.cif
#   From: 2010.05.17/outbox.ucp.g08.bks.cvg/sg51_4_cif.got.tgz:6053.got - 2010.06.11 16:27:58.
