data_PCOD9407935
_publ_section_title
;
Structure prediction by ZEFSAII (Michael W. Deem and Ramdas Pophale) SiO2 
 PCOD9407935
Probable space group: P N N A
;
_chemical_formula_sum "Si O2"
_cell_formula_units_Z 32
_cell_length_a 7.181565
_cell_length_b 12.523789
_cell_length_c 16.201891
_cell_angle_alpha 90.000000
_cell_angle_beta 90.000000
_cell_angle_gamma 90.000000
_cell_volume 1457.204634
_symmetry_space_group_name_H-M "P N N A"
_symmetry_group_IT_number 52
_symmetry_cell_setting 'orthorhombic'
loop_
_space_group_symop_operation_xyz
x,y,z
1/2-x,-y,z
x,1/2-y,1/2-z
1/2-x,1/2+y,1/2-z
-x,-y,-z
1/2+x,y,-z
-x,1/2+y,1/2+z
1/2+x,1/2-y,1/2+z
loop_
_atom_site_type_symbol
_atom_site_label
_atom_site_fract_x
_atom_site_fract_y
_atom_site_fract_z
Si Si1 0.073683 0.370173 0.768823
Si Si2 0.692561 0.378338 0.055226
Si Si3 0.566654 0.216798 0.615706
Si Si4 0.483639 0.907083 0.225074
O O1 0.016593 0.250000 0.750000
O O2 0.051716 0.389186 0.867627
O O3 0.292977 0.383629 0.741104
O O4 0.969073 0.465841 0.722334
O O5 0.750000 0.500000 0.036124
O O6 0.851688 0.308621 0.097480
O O7 0.652825 0.319296 0.970243
O O8 0.614094 0.141566 0.693506
O O9 0.582107 0.337604 0.647473
#
# Coordination Sequence:
#
# PCOD9407935 Si02
#       4
#     8   8   8   8
#     4  10  16  31  55  78 100 140 196 219 255 328
#     4  11  19  30  54  86 106 134 183 236 266 319
#     4  10  19  33  53  81 107 136 179 225 280 315
#     4   9  17  32  53  74 106 146 176 218 275 334
#
# _framework density 21.959854
#
# number of rings (size 3 to 8) (size 9 to 14) (size 15 to 20)
#    0.000    2.000   10.000    0.750    0.000    0.000 
#    0.000    1.250    5.500    0.000    0.000    0.000 
#    0.000    0.000    0.000    0.000    0.000    0.000 
#
# Total GULP energy -178563.326360 kJ/mol
# GULP energy per Si atom -5580.103949 kJ/mol
# Density = 2.190987 g / cm^3
# Si number density = 21.959854 Si / 1000 Ang^3
#
#
#
# Elastic Constant Matrix: (Units=GPa)
#
#
# Indices 1 2 3 4 5 6 
#
# 1 30.3964 20.6009 10.1970 0.0000 0.0000 0.0000
# 2 20.6009 239.2935 92.0845 0.0000 0.0000 0.0000
# 3 10.1970 92.0845 138.4432 0.0000 0.0000 0.0000
# 4 0.0000 0.0000 0.0000 42.0959 0.0000 0.0000
# 5 0.0000 0.0000 0.0000 0.0000 88.9276 0.0000
# 6 0.0000 0.0000 0.0000 0.0000 0.0000 15.4825
#
#
#
# Elastic Compliance Matrix: (Units=1/GPa)
#
#
# Indices 1 2 3 4 5 6 
#
# 1 0.034998 -0.002716 -0.000771 0.000000 0.000000 0.000000
# 2 -0.002716 0.005827 -0.003676 0.000000 0.000000 0.000000
# 3 -0.000771 -0.003676 0.009725 0.000000 0.000000 0.000000
# 4 0.000000 0.000000 0.000000 0.023755 0.000000 0.000000
# 5 0.000000 0.000000 0.000000 0.000000 0.011245 0.000000
# 6 0.000000 0.000000 0.000000 0.000000 0.000000 0.064589
#
#
# Mechanical properties :
#
#
# Convention : Reuss Voigt Hill
#
# Bulk Modulus (GPa) = 27.60604 72.65534 50.13069
# Shear Modulus (GPa) = 28.32198 48.31791 38.31995
#
# Velocity S-wave (km/s) = 3.59516 4.69581 4.18185
# Velocity P-wave (km/s) = 5.46187 7.90937 6.79670
#
# Compressibility (1/GPa) = 0.03622396
#
# Stress axis : x y z
#
# Youngs Moduli (GPa) = 28.57287 171.60299 102.82747
#
# Poissons Ratio (x) = 0.46613 0.07929
# Poissons Ratio (y) = 0.07761 0.37799
# Poissons Ratio (z) = 0.02203 0.63081
#
# Static dielectric constant tensor:
#      x y z
#    x 1.991550 0.000000 0.000000 
#    y 0.000000 1.771760 0.000000 
#    z 0.000000 0.000000 1.833600 
# 
# From -- ./inp_files/24094.got.cif
#   From: 2010.05.17/outbox.cif.g08.bks.cpg/sg52_13_cif.got.tgz:24094.got - 2010.06.03 12:15:38.
