data_PCOD9407083
_publ_section_title
;
Structure prediction by ZEFSAII (Michael W. Deem and Ramdas Pophale) SiO2 
 PCOD9407083
Probable space group: P M M A
;
_chemical_formula_sum "Si O2"
_cell_formula_units_Z 48
_cell_length_a 14.310519
_cell_length_b 8.751710
_cell_length_c 21.035719
_cell_angle_alpha 90.000000
_cell_angle_beta 90.000000
_cell_angle_gamma 90.000000
_cell_volume 2634.545259
_symmetry_space_group_name_H-M "P M M A"
_symmetry_group_IT_number 51
_symmetry_cell_setting 'orthorhombic'
loop_
_space_group_symop_operation_xyz
x,y,z
1/2-x,-y,z
1/2+x,-y,-z
-x,y,-z
-x,-y,-z
1/2+x,y,-z
1/2-x,y,z
x,-y,z
loop_
_atom_site_type_symbol
_atom_site_label
_atom_site_fract_x
_atom_site_fract_y
_atom_site_fract_z
Si Si1 0.449319 0.181367 0.651326
Si Si2 0.144464 0.185726 0.031533
Si Si3 0.858435 0.316949 0.222273
Si Si4 0.107085 0.327331 0.523059
Si Si5 0.851359 0.314761 0.615589
Si Si6 0.457754 0.184770 0.900738
O O1 0.399895 0.251377 0.712618
O O2 0.394363 0.232060 0.587401
O O3 0.555742 0.243972 0.645536
O O4 0.451604 0.000000 0.655326
O O5 0.250000 0.240423 0.043013
O O6 0.063489 0.232548 0.080806
O O7 0.146153 0.000000 0.033126
O O8 0.107229 0.226826 0.961207
O O9 0.750000 0.270189 0.214956
O O10 0.862447 0.500000 0.224173
O O11 0.917906 0.256297 0.162947
O O12 0.140140 0.500000 0.536399
O O13 0.152528 0.266198 0.458659
O O14 0.000000 0.337834 0.500000
O O15 0.750000 0.277610 0.644968
O O16 0.861628 0.500000 0.615408
O O17 0.456316 0.000000 0.895600
#
# Coordination Sequence:
#
# PCOD9407083 Si02
#       6
#     8   8   8   8   8   8
#     4  11  22  35  53  78 107 137 173 220 268 313
#     4   8  14  27  51  83 115 143 170 204 252 308
#     4  11  24  40  56  73  98 136 178 219 267 321
#     4   8  15  30  51  74 101 134 171 209 253 307
#     4   9  18  34  56  79 105 140 177 212 257 315
#     4   9  17  31  54  82 109 139 175 214 254 299
#
# _framework density 18.219463000000001
#
# number of rings (size 3 to 8) (size 9 to 14) (size 15 to 20)
#    0.000    2.667    0.000    4.500    0.000    6.000 
#    0.000    4.167    0.000    4.500    0.000    0.000 
#    0.000    0.000    0.000    0.000    0.000    0.000 
#
# Total GULP energy -267556.155605 kJ/mol
# GULP energy per Si atom -5574.086575 kJ/mol
# Density = 1.817800 g / cm^3
# Si number density = 18.219463 Si / 1000 Ang^3
#
#
#
# Elastic Constant Matrix: (Units=GPa)
#
#
# Indices 1 2 3 4 5 6 
#
# 1 144.3040 31.8911 64.1205 0.0000 0.0000 0.0000
# 2 31.8911 44.2161 38.7792 0.0000 0.0000 0.0000
# 3 64.1205 38.7792 123.3561 0.0000 0.0000 0.0000
# 4 0.0000 0.0000 0.0000 33.8525 0.0000 0.0000
# 5 0.0000 0.0000 0.0000 0.0000 17.0865 0.0000
# 6 0.0000 0.0000 0.0000 0.0000 0.0000 15.1657
#
#
#
# Elastic Compliance Matrix: (Units=1/GPa)
#
#
# Indices 1 2 3 4 5 6 
#
# 1 0.009374 -0.003435 -0.003793 0.000000 0.000000 0.000000
# 2 -0.003435 0.032484 -0.008427 0.000000 0.000000 0.000000
# 3 -0.003793 -0.008427 0.012727 0.000000 0.000000 0.000000
# 4 0.000000 0.000000 0.000000 0.029540 0.000000 0.000000
# 5 0.000000 0.000000 0.000000 0.000000 0.058526 0.000000
# 6 0.000000 0.000000 0.000000 0.000000 0.000000 0.065938
#
#
# Mechanical properties :
#
#
# Convention : Reuss Voigt Hill
#
# Bulk Modulus (GPa) = 42.96092 64.60642 53.78367
# Shear Modulus (GPa) = 20.18924 25.02663 22.60794
#
# Velocity S-wave (km/s) = 3.33245 3.71026 3.52642
# Velocity P-wave (km/s) = 6.19982 7.34110 6.79447
#
# Compressibility (1/GPa) = 0.02327697
#
# Stress axis : x y z
#
# Youngs Moduli (GPa) = 106.67513 30.78455 78.57150
#
# Poissons Ratio (x) = 0.10573 0.29802
# Poissons Ratio (y) = 0.36639 0.66209
# Poissons Ratio (z) = 0.40462 0.25941
#
# Static dielectric constant tensor:
#      x y z
#    x 1.691150 0.000000 0.000000 
#    y 0.000000 1.614410 0.000000 
#    z 0.000000 0.000000 1.598930 
# 
# From -- ./inp_files/29458.got.cif
#   From: 2010.05.17/outbox.cif.g08.bks.cpg/sg51_15_cif.got.tgz:29458.got - 2010.06.03 11:52:47.
