data_PCOD9407132
_publ_section_title
;
Structure prediction by ZEFSAII (Michael W. Deem and Ramdas Pophale) SiO2 
 PCOD9407132
Probable space group: P M M A
;
_chemical_formula_sum "Si O2"
_cell_formula_units_Z 40
_cell_length_a 18.938035
_cell_length_b 7.841735
_cell_length_c 14.214681
_cell_angle_alpha 90.000000
_cell_angle_beta 90.000000
_cell_angle_gamma 90.000000
_cell_volume 2110.980369
_symmetry_space_group_name_H-M "P M M A"
_symmetry_group_IT_number 51
_symmetry_cell_setting 'orthorhombic'
loop_
_space_group_symop_operation_xyz
x,y,z
1/2-x,-y,z
1/2+x,-y,-z
-x,y,-z
-x,-y,-z
1/2+x,y,-z
1/2-x,y,z
x,-y,z
loop_
_atom_site_type_symbol
_atom_site_label
_atom_site_fract_x
_atom_site_fract_y
_atom_site_fract_z
Si Si1 0.828424 0.207737 0.192625
Si Si2 0.896116 0.206108 0.390375
Si Si3 0.537339 0.796767 0.704743
Si Si4 0.972269 0.791128 0.100651
Si Si5 0.329231 0.299035 0.410642
O O1 0.750000 0.268043 0.169054
O O2 0.850027 0.255369 0.299119
O O3 0.892100 0.261377 0.124811
O O4 0.827761 0.000000 0.190979
O O5 0.862646 0.267420 0.486790
O O6 0.975903 0.265789 0.366702
O O7 0.896878 0.000000 0.395771
O O8 0.519183 0.734739 0.809797
O O9 0.614647 0.763814 0.665807
O O10 0.527729 0.000000 0.708122
O O11 0.973324 0.000000 0.099145
O O12 0.000000 0.731999 0.000000
O O13 0.250000 0.224830 0.404908
O O14 0.323881 0.500000 0.397693
#
# Coordination Sequence:
#
# PCOD9407132 Si02
#       5
#     8   8   8   8   8
#     4   8  13  22  39  64  90 115 145 183 228 272
#     4   9  17  30  49  70  91 118 153 191 231 278
#     4   9  18  32  50  71  93 120 154 189 230 281
#     4   8  14  26  44  66  93 120 147 186 230 269
#     4  11  23  34  44  64  95 128 159 191 227 266
#
# _framework density 18.948542
#
# number of rings (size 3 to 8) (size 9 to 14) (size 15 to 20)
#    0.000    3.000    0.000    4.200    0.000    5.600 
#    0.000    1.000    0.000    4.200    0.000    0.000 
#    0.000   12.800    0.000    0.000    0.000    0.000 
#
# Total GULP energy -222998.073393 kJ/mol
# GULP energy per Si atom -5574.951835 kJ/mol
# Density = 1.890541 g / cm^3
# Si number density = 18.948542 Si / 1000 Ang^3
#
#
#
# Elastic Constant Matrix: (Units=GPa)
#
#
# Indices 1 2 3 4 5 6 
#
# 1 179.5593 1.9890 106.2915 0.0000 0.0000 0.0000
# 2 1.9890 11.6522 -3.1909 0.0000 0.0000 0.0000
# 3 106.2915 -3.1909 119.7061 0.0000 0.0000 0.0000
# 4 0.0000 0.0000 0.0000 -85.8209 0.0000 0.0000
# 5 0.0000 0.0000 0.0000 0.0000 18.3577 0.0000
# 6 0.0000 0.0000 0.0000 0.0000 0.0000 -1.9421
#
#
#
# Elastic Compliance Matrix: (Units=1/GPa)
#
#
# Indices 1 2 3 4 5 6 
#
# 1 0.012024 -0.005013 -0.010810 0.000000 0.000000 0.000000
# 2 -0.005013 0.088542 0.006811 0.000000 0.000000 0.000000
# 3 -0.010810 0.006811 0.018134 0.000000 0.000000 0.000000
# 4 0.000000 0.000000 0.000000 -0.011652 0.000000 0.000000
# 5 0.000000 0.000000 0.000000 0.000000 0.054473 0.000000
# 6 0.000000 0.000000 0.000000 0.000000 0.000000 -0.514897
#
#
# Mechanical properties :
#
#
# Convention : Reuss Voigt Hill
#
# Bulk Modulus (GPa) = 9.93280 57.89962 33.91621
# Shear Modulus (GPa) = -16.56758 -0.15920 -8.36339
#
# Velocity S-wave (km/s) = -2.96014 -0.29017 -2.10317
# Velocity P-wave (km/s) = 2.53572 5.52361 3.46990
#
# Compressibility (1/GPa) = 0.10067653
#
# Stress axis : x y z
#
# Youngs Moduli (GPa) = 83.16867 11.29410 55.14526
#
# Poissons Ratio (x) = 0.05661 0.59612
# Poissons Ratio (y) = 0.41690 -0.37560
# Poissons Ratio (z) = 0.89905 -0.07693
#
# Static dielectric constant tensor:
#      x y z
#    x 1.697050 0.000000 0.000000 
#    y 0.000000 1.687840 0.000000 
#    z 0.000000 0.000000 1.629820 
# 
# From -- ./inp_files/23722.got.cif
#   From: 2010.05.17/outbox.cif.g08.bks.cpg/sg51_12_cif.got.tgz:23722.got - 2010.06.03 11:52:47.
