data_PCOD9407879
_publ_section_title
;
Structure prediction by ZEFSAII (Michael W. Deem and Ramdas Pophale) SiO2 
 PCOD9407879
Probable space group: P N N A
;
_chemical_formula_sum "Si O2"
_cell_formula_units_Z 64
_cell_length_a 8.685344
_cell_length_b 26.197159
_cell_length_c 19.767793
_cell_angle_alpha 90.000000
_cell_angle_beta 90.000000
_cell_angle_gamma 90.000000
_cell_volume 4497.792385
_symmetry_space_group_name_H-M "P N N A"
_symmetry_group_IT_number 52
_symmetry_cell_setting 'orthorhombic'
loop_
_space_group_symop_operation_xyz
x,y,z
1/2-x,-y,z
x,1/2-y,1/2-z
1/2-x,1/2+y,1/2-z
-x,-y,-z
1/2+x,y,-z
-x,1/2+y,1/2+z
1/2+x,1/2-y,1/2+z
loop_
_atom_site_type_symbol
_atom_site_label
_atom_site_fract_x
_atom_site_fract_y
_atom_site_fract_z
Si Si1 0.750117 0.439323 0.417184
Si Si2 0.330624 0.293723 0.090899
Si Si3 0.038386 0.276158 0.027029
Si Si4 0.959433 0.882644 0.971254
Si Si5 0.389660 0.639608 0.671491
Si Si6 0.938103 0.701405 0.201740
Si Si7 0.664686 0.670183 0.584812
Si Si8 0.245549 0.264494 0.593392
O O1 0.750000 0.500000 0.417042
O O2 0.641401 0.417547 0.477618
O O3 0.920655 0.416988 0.429822
O O4 0.678323 0.414436 0.349675
O O5 0.412557 0.313124 0.158032
O O6 0.336515 0.231229 0.095030
O O7 0.155569 0.306658 0.074393
O O8 0.432487 0.307492 0.025117
O O9 0.921152 0.244649 0.073489
O O10 0.147580 0.244077 0.975425
O O11 0.834955 0.852083 0.926443
O O12 0.066551 0.846486 0.018470
O O13 0.380205 0.657464 0.748573
O O14 0.565824 0.646064 0.645946
O O15 0.295256 0.681242 0.625992
O O16 0.973442 0.750000 0.250000
O O17 0.815048 0.722657 0.147230
#
# Coordination Sequence:
#
# PCOD9407879 Si02
#       8
#     8   8   8   8   8   8   8   8
#     4  10  20  32  44  61  81 111 145 192 233 258
#     4  10  16  24  41  55  84 102 132 171 196 255
#     4   9  17  23  38  62  78 104 134 165 203 238
#     4   9  20  27  43  61  83 102 140 187 226 259
#     4  10  19  29  43  54  78 117 142 177 211 256
#     4   9  16  31  38  53  78 110 141 167 207 243
#     4  10  16  25  39  60  74 106 133 170 211 251
#     4   9  17  26  41  58  83 105 138 170 205 251
#
# _framework density 14.229202000000001
#
# number of rings (size 3 to 8) (size 9 to 14) (size 15 to 20)
#    0.000    2.500    3.750    1.125   10.500    0.000 
#    0.000    3.125    0.000    0.000    0.000    0.000 
#    0.000    0.000    0.000   18.000    0.000    0.000 
#
# Total GULP energy -356465.085203 kJ/mol
# GULP energy per Si atom -5569.766956 kJ/mol
# Density = 1.419682 g / cm^3
# Si number density = 14.229202 Si / 1000 Ang^3
#
#
#
# Elastic Constant Matrix: (Units=GPa)
#
#
# Indices 1 2 3 4 5 6 
#
# 1 89.6766 10.4386 30.1726 0.0000 0.0000 0.0000
# 2 10.4386 37.4771 20.4832 0.0000 0.0000 0.0000
# 3 30.1726 20.4832 68.8352 0.0000 0.0000 0.0000
# 4 0.0000 0.0000 0.0000 13.6938 0.0000 0.0000
# 5 0.0000 0.0000 0.0000 0.0000 14.3013 0.0000
# 6 0.0000 0.0000 0.0000 0.0000 0.0000 11.6669
#
#
#
# Elastic Compliance Matrix: (Units=1/GPa)
#
#
# Indices 1 2 3 4 5 6 
#
# 1 0.013092 -0.000609 -0.005557 0.000000 0.000000 0.000000
# 2 -0.000609 0.031894 -0.009224 0.000000 0.000000 0.000000
# 3 -0.005557 -0.009224 0.019708 0.000000 0.000000 0.000000
# 4 0.000000 0.000000 0.000000 0.073026 0.000000 0.000000
# 5 0.000000 0.000000 0.000000 0.000000 0.069924 0.000000
# 6 0.000000 0.000000 0.000000 0.000000 0.000000 0.085712
#
#
# Mechanical properties :
#
#
# Convention : Reuss Voigt Hill
#
# Bulk Modulus (GPa) = 29.48668 35.35311 32.41989
# Shear Modulus (GPa) = 14.90578 16.92537 15.91558
#
# Velocity S-wave (km/s) = 3.24010 3.45263 3.34805
# Velocity P-wave (km/s) = 5.89621 6.38699 6.14650
#
# Compressibility (1/GPa) = 0.03391362
#
# Stress axis : x y z
#
# Youngs Moduli (GPa) = 76.38310 31.35400 50.74069
#
# Poissons Ratio (x) = 0.01910 0.28198
# Poissons Ratio (y) = 0.04653 0.46801
# Poissons Ratio (z) = 0.42449 0.28920
#
# Static dielectric constant tensor:
#      x y z
#    x 1.522780 0.000000 0.000000 
#    y 0.000000 1.462720 0.000000 
#    z 0.000000 0.000000 1.487770 
# 
# From -- ./inp_files/36273.got.cif
#   From: 2010.05.17/outbox.cif.g08.bks.cpg/sg52_19_cif.got.tgz:36273.got - 2010.06.03 12:15:38.
