data_PCOD9407620
_publ_section_title
;
Structure prediction by ZEFSAII (Michael W. Deem and Ramdas Pophale) SiO2 
 PCOD9407620
Probable space group: P M M A
;
_chemical_formula_sum "Si O2"
_cell_formula_units_Z 64
_cell_length_a 15.000000
_cell_length_b 9.000000
_cell_length_c 24.000000
_cell_angle_alpha 90.000000
_cell_angle_beta 90.000000
_cell_angle_gamma 90.000000
_cell_volume 3240.000000
_symmetry_space_group_name_H-M "P M M A"
_symmetry_group_IT_number 51
_symmetry_cell_setting 'orthorhombic'
loop_
_space_group_symop_operation_xyz
x,y,z
1/2-x,-y,z
1/2+x,-y,-z
-x,y,-z
-x,-y,-z
1/2+x,y,-z
1/2-x,y,z
x,-y,z
loop_
_atom_site_type_symbol
_atom_site_label
_atom_site_fract_x
_atom_site_fract_y
_atom_site_fract_z
Si Si1 0.393835 0.332609 0.504916
Si Si2 0.149529 0.823394 0.826739
Si Si3 0.852748 0.319586 0.972650
Si Si4 0.148523 0.821521 0.621220
Si Si5 0.854398 0.162895 0.606543
Si Si6 0.969003 0.823795 0.276208
Si Si7 0.469242 0.678732 0.918291
Si Si8 0.146923 0.675995 0.280561
O O1 0.500000 0.340731 0.500000
O O2 0.357995 0.500000 0.499589
O O3 0.365658 0.260195 0.562885
O O4 0.367232 0.229678 0.453786
O O5 0.250000 0.767313 0.835391
O O6 0.114175 0.800611 0.764723
O O7 0.077877 0.745953 0.865475
O O8 0.149583 0.000000 0.837658
O O9 0.750000 0.266063 0.968360
O O10 0.848293 0.500000 0.970592
O O11 0.928133 0.272337 0.927918
O O12 0.903366 0.280917 0.030215
O O13 0.250000 0.791708 0.641228
O O14 0.071180 0.775265 0.664212
O O15 0.141792 0.000000 0.613754
O O16 0.750000 0.142276 0.613387
O O17 0.874566 0.277566 0.655654
O O18 0.898295 0.000000 0.612725
O O19 0.059372 0.748430 0.253039
O O20 0.986848 0.000000 0.278357
O O21 0.470538 0.500000 0.916159
O O22 0.250000 0.725075 0.267242
O O23 0.145383 0.500000 0.273315
#
# Coordination Sequence:
#
# PCOD9407620 Si02
#       8
#     8   8   8   8   8   8   8   8
#     4  11  23  35  48  71 103 134 164 205 259 314
#     4  10  21  37  56  79 109 143 178 221 274 322
#     4   8  14  27  49  78 113 150 186 226 272 319
#     4  10  21  37  56  77 101 132 173 218 262 312
#     4  10  20  34  53  75  97 125 163 202 243 302
#     4  10  21  38  59  79 102 137 179 219 260 314
#     4   9  17  30  52  81 109 143 189 232 268 314
#     4  10  21  37  57  81 108 135 166 212 268 318
#
# _framework density 19.753086
#
# number of rings (size 3 to 8) (size 9 to 14) (size 15 to 20)
#    0.000    2.250    0.000    3.750    0.000    9.500 
#    0.000    1.875    0.000    5.625    0.000    0.000 
#    0.000    0.000    0.000    0.000    0.000    0.000 
#
# Total GULP energy -356513.553477 kJ/mol
# GULP energy per Si atom -5570.524273 kJ/mol
# Density = 1.970813 g / cm^3
# Si number density = 19.753086 Si / 1000 Ang^3
#
#
#
# Elastic Constant Matrix: (Units=GPa)
#
#
# Indices 1 2 3 4 5 6 
#
# 1 152.1190 18.0508 21.5836 0.0000 0.0000 0.0000
# 2 18.0508 4.7533 11.6913 0.0000 0.0000 0.0000
# 3 21.5836 11.6913 31.0093 0.0000 0.0000 0.0000
# 4 0.0000 0.0000 0.0000 13.9739 0.0000 0.0000
# 5 0.0000 0.0000 0.0000 0.0000 37.0232 0.0000
# 6 0.0000 0.0000 0.0000 0.0000 0.0000 25.7146
#
#
#
# Elastic Compliance Matrix: (Units=1/GPa)
#
#
# Indices 1 2 3 4 5 6 
#
# 1 -0.006784 0.194702 -0.068685 0.000000 0.000000 0.000000
# 2 0.194702 -2.692646 0.879677 0.000000 0.000000 0.000000
# 3 -0.068685 0.879677 -0.251605 0.000000 0.000000 0.000000
# 4 0.000000 0.000000 0.000000 0.071562 0.000000 0.000000
# 5 0.000000 0.000000 0.000000 0.000000 0.027010 0.000000
# 6 0.000000 0.000000 0.000000 0.000000 0.000000 0.038888
#
#
# Mechanical properties :
#
#
# Convention : Reuss Voigt Hill
#
# Bulk Modulus (GPa) = -1.06423 32.28144 15.60861
# Shear Modulus (GPa) = -0.97311 24.44607 11.73648
#
# Velocity S-wave (km/s) = -0.70264 3.52175 2.44018
# Velocity P-wave (km/s) = 1.09463 5.73715 3.98225
#
# Compressibility (1/GPa) = -0.93964868
#
# Stress axis : x y z
#
# Youngs Moduli (GPa) = -147.39581 -0.37138 -3.97449
#
# Poissons Ratio (x) = 0.07231 -0.27299
# Poissons Ratio (y) = 28.69820 3.49626
# Poissons Ratio (z) = -10.12392 0.32670
#
# Static dielectric constant tensor:
#      x y z
#    x 1.743620 0.000000 0.000000 
#    y 0.000000 1.689200 0.000000 
#    z 0.000000 0.000000 0.228690 
# 
# From -- ./inp_files/35817.got.cif
#   From: 2010.05.17/outbox.ucp.g08.bks.cvg/sg51_18_cif.got.tgz:35817.got - 2010.06.11 16:27:58.
