data_PCOD9407015
_publ_section_title
;
Structure prediction by ZEFSAII (Michael W. Deem and Ramdas Pophale) SiO2 
 PCOD9407015
Probable space group: P M M A
;
_chemical_formula_sum "Si O2"
_cell_formula_units_Z 64
_cell_length_a 9.123731
_cell_length_b 14.288082
_cell_length_c 31.824316
_cell_angle_alpha 90.000000
_cell_angle_beta 90.000000
_cell_angle_gamma 90.000000
_cell_volume 4148.637459
_symmetry_space_group_name_H-M "P M M A"
_symmetry_group_IT_number 51
_symmetry_cell_setting 'orthorhombic'
loop_
_space_group_symop_operation_xyz
x,y,z
1/2-x,-y,z
1/2+x,-y,-z
-x,y,-z
-x,-y,-z
1/2+x,y,-z
1/2-x,y,z
x,-y,z
loop_
_atom_site_type_symbol
_atom_site_label
_atom_site_fract_x
_atom_site_fract_y
_atom_site_fract_z
Si Si1 0.421511 0.391838 0.069886
Si Si2 0.921092 0.112087 0.878294
Si Si3 0.418953 0.885913 0.542529
Si Si4 0.077968 0.607539 0.171066
Si Si5 0.581181 0.113913 0.627305
Si Si6 0.425233 0.789531 0.799927
Si Si7 0.574738 0.109715 0.286827
Si Si8 0.424494 0.208584 0.957273
O O1 0.250000 0.372173 0.059853
O O2 0.451861 0.500000 0.058875
O O3 0.437587 0.382751 0.120478
O O4 0.526439 0.316514 0.048928
O O5 0.750000 0.140945 0.880579
O O6 0.993341 0.151625 0.836007
O O7 0.008246 0.154007 0.917686
O O8 0.928229 0.000000 0.878669
O O9 0.500000 0.855747 0.500000
O O10 0.250000 0.857272 0.542177
O O11 0.498281 0.854912 0.585209
O O12 0.421984 0.000000 0.542619
O O13 0.250000 0.623632 0.180430
O O14 0.042437 0.500000 0.181603
O O15 0.978981 0.683570 0.193823
O O16 0.750000 0.142826 0.626369
O O17 0.504040 0.142040 0.670659
O O18 0.577263 0.000000 0.626895
O O19 0.250000 0.796754 0.805471
O O20 0.463227 0.830987 0.754317
O O21 0.750000 0.114567 0.293047
O O22 0.537726 0.000000 0.279499
O O23 0.250000 0.199954 0.958952
O O24 0.500000 0.173980 0.000000
#
# Coordination Sequence:
#
# PCOD9407015 Si02
#       8
#     8   8   8   8   8   8   8   8
#     4   9  18  35  58  81 106 132 156 185 222 267
#     4  11  24  41  59  77  99 127 158 193 231 271
#     4   9  15  22  33  49  71 102 142 189 239 285
#     4   9  18  33  54  77 102 130 155 184 224 271
#     4   9  16  25  37  54  77 107 148 195 238 279
#     4  11  21  33  53  79 102 125 155 194 234 276
#     4   9  18  31  44  61  90 125 157 191 234 279
#     4  12  25  40  59  80 103 129 156 189 227 272
#
# _framework density 15.426750999999999
#
# number of rings (size 3 to 8) (size 9 to 14) (size 15 to 20)
#    0.000    2.125    1.250    3.750    0.000    6.500 
#    0.000    2.500    0.000    0.000    0.000    0.000 
#    0.000    0.000    0.000    0.000    0.000    0.625 
#
# Total GULP energy -357170.754729 kJ/mol
# GULP energy per Si atom -5580.793043 kJ/mol
# Density = 1.539164 g / cm^3
# Si number density = 15.426751 Si / 1000 Ang^3
#
#
#
# Elastic Constant Matrix: (Units=GPa)
#
#
# Indices 1 2 3 4 5 6 
#
# 1 113.7429 38.3959 84.2130 0.0000 0.0000 0.0000
# 2 38.3959 46.9420 36.0635 0.0000 0.0000 0.0000
# 3 84.2130 36.0635 139.4852 0.0000 0.0000 0.0000
# 4 0.0000 0.0000 0.0000 -4.5193 0.0000 0.0000
# 5 0.0000 0.0000 0.0000 0.0000 29.5979 0.0000
# 6 0.0000 0.0000 0.0000 0.0000 0.0000 13.2138
#
#
#
# Elastic Compliance Matrix: (Units=1/GPa)
#
#
# Indices 1 2 3 4 5 6 
#
# 1 0.018000 -0.007954 -0.008811 0.000000 0.000000 0.000000
# 2 -0.007954 0.030098 -0.002980 0.000000 0.000000 0.000000
# 3 -0.008811 -0.002980 0.013259 0.000000 0.000000 0.000000
# 4 0.000000 0.000000 0.000000 -0.221275 0.000000 0.000000
# 5 0.000000 0.000000 0.000000 0.000000 0.033786 0.000000
# 6 0.000000 0.000000 0.000000 0.000000 0.000000 0.075678
#
#
# Mechanical properties :
#
#
# Convention : Reuss Voigt Hill
#
# Bulk Modulus (GPa) = 45.72875 68.61280 57.17077
# Shear Modulus (GPa) = -1360.68308 17.09167 -671.79570
#
# Velocity S-wave (km/s) = -29.73118 3.33216 -20.89067
# Velocity P-wave (km/s) = 33.89519 7.70568 23.33995
#
# Compressibility (1/GPa) = 0.02186808
#
# Stress axis : x y z
#
# Youngs Moduli (GPa) = 55.55461 33.22493 75.41965
#
# Poissons Ratio (x) = 0.26427 0.66452
# Poissons Ratio (y) = 0.44189 0.22471
# Poissons Ratio (z) = 0.48949 0.09899
#
# Static dielectric constant tensor:
#      x y z
#    x 1.515110 0.000000 0.000000 
#    y 0.000000 1.501990 0.000000 
#    z 0.000000 0.000000 1.504150 
# 
# From -- ./inp_files/37664.got.cif
#   From: 2010.05.17/outbox.cif.g08.bks.cpg/sg51_19_cif.got.tgz:37664.got - 2010.06.03 11:52:47.
