data_PCOD9407876
_publ_section_title
;
Structure prediction by ZEFSAII (Michael W. Deem and Ramdas Pophale) SiO2 
 PCOD9407876
Probable space group: P N N A
;
_chemical_formula_sum "Si O2"
_cell_formula_units_Z 44
_cell_length_a 16.759997
_cell_length_b 12.835962
_cell_length_c 7.765285
_cell_angle_alpha 90.000000
_cell_angle_beta 90.000000
_cell_angle_gamma 90.000000
_cell_volume 1670.551078
_symmetry_space_group_name_H-M "P N N A"
_symmetry_group_IT_number 52
_symmetry_cell_setting 'orthorhombic'
loop_
_space_group_symop_operation_xyz
x,y,z
1/2-x,-y,z
x,1/2-y,1/2-z
1/2-x,1/2+y,1/2-z
-x,-y,-z
1/2+x,y,-z
-x,1/2+y,1/2+z
1/2+x,1/2-y,1/2+z
loop_
_atom_site_type_symbol
_atom_site_label
_atom_site_fract_x
_atom_site_fract_y
_atom_site_fract_z
Si Si1 0.817016 0.415041 0.352738
Si Si2 0.730362 0.709932 0.002093
Si Si3 0.586086 0.235846 0.496503
Si Si4 0.459474 0.922349 0.818323
Si Si5 0.250000 0.500000 0.115812
Si Si6 0.930677 0.962252 0.628135
O O1 0.750000 0.500000 0.412524
O O2 0.785970 0.365228 0.169742
O O3 0.824225 0.311815 0.471889
O O4 0.896219 0.483655 0.326881
O O5 0.819643 0.755270 0.010255
O O6 0.731170 0.626062 0.845322
O O7 0.566405 0.157222 0.335735
O O8 0.542748 0.343760 0.475566
O O9 0.562513 0.160163 0.650748
O O10 0.547309 0.967873 0.789962
O O11 0.158513 0.478232 0.062765
O O12 0.000000 0.000000 0.500000
#
# Coordination Sequence:
#
# PCOD9407876 Si02
#       6
#     8   8   8   8   4   8
#     4  11  15  22  39  68 101 120 155 188 257 326
#     4  10  16  23  40  65  98 133 150 203 260 320
#     4   9  15  25  41  63  99 129 157 205 268 313
#     4  10  16  26  41  68 100 126 163 206 257 320
#     4  10  18  32  44  68 108 124 170 204 262 318
#     4   9  18  28  45  71  99 133 161 216 270 308
#
# _framework density 26.338612000000001
#
# number of rings (size 3 to 8) (size 9 to 14) (size 15 to 20)
#    0.000    2.182    4.545    3.273    0.000    0.000 
#    0.000    0.000    0.000    0.000    0.000   57.273 
#    0.000    0.000    0.000    0.000    0.000    0.000 
#
# Total GULP energy -244957.817294 kJ/mol
# GULP energy per Si atom -5567.223120 kJ/mol
# Density = 2.627866 g / cm^3
# Si number density = 26.338612 Si / 1000 Ang^3
#
#
#
# Elastic Constant Matrix: (Units=GPa)
#
#
# Indices 1 2 3 4 5 6 
#
# 1 121.1862 62.2812 27.0671 0.0000 0.0000 0.0000
# 2 62.2812 228.7855 35.3771 0.0000 0.0000 0.0000
# 3 27.0671 35.3771 78.6821 0.0000 0.0000 0.0000
# 4 0.0000 0.0000 0.0000 22.3153 0.0000 0.0000
# 5 0.0000 0.0000 0.0000 0.0000 -4.5950 0.0000
# 6 0.0000 0.0000 0.0000 0.0000 0.0000 39.4277
#
#
#
# Elastic Compliance Matrix: (Units=1/GPa)
#
#
# Indices 1 2 3 4 5 6 
#
# 1 0.009992 -0.002352 -0.002380 0.000000 0.000000 0.000000
# 2 -0.002352 0.005251 -0.001552 0.000000 0.000000 0.000000
# 3 -0.002380 -0.001552 0.014226 0.000000 0.000000 0.000000
# 4 0.000000 0.000000 0.000000 0.044812 0.000000 0.000000
# 5 0.000000 0.000000 0.000000 0.000000 -0.217628 0.000000
# 6 0.000000 0.000000 0.000000 0.000000 0.000000 0.025363
#
#
# Mechanical properties :
#
#
# Convention : Reuss Voigt Hill
#
# Bulk Modulus (GPa) = 59.16639 75.34497 67.25568
# Shear Modulus (GPa) = -50.10889 31.69148 -9.20870
#
# Velocity S-wave (km/s) = -4.36648 3.47253 -1.87186
# Velocity P-wave (km/s) = 1.70560 6.68927 4.57369
#
# Compressibility (1/GPa) = 0.01690149
#
# Stress axis : x y z
#
# Youngs Moduli (GPa) = 100.07892 190.43324 70.29483
#
# Poissons Ratio (x) = 0.44792 0.16729
# Poissons Ratio (y) = 0.23540 0.10909
# Poissons Ratio (z) = 0.23817 0.29553
#
# Static dielectric constant tensor:
#      x y z
#    x 1.926900 0.000000 0.000000 
#    y 0.000000 2.098220 0.000000 
#    z 0.000000 0.000000 2.623360 
# 
# From -- ./inp_files/21558.got.cif
#   From: 2010.05.17/outbox.cif.g08.bks.cpg/sg52_11_cif.got.tgz:21558.got - 2010.06.03 12:15:38.
