data_PCOD9407966
_publ_section_title
;
Structure prediction by ZEFSAII (Michael W. Deem and Ramdas Pophale) SiO2 
 PCOD9407966
Probable space group: P N N A
;
_chemical_formula_sum "Si O2"
_cell_formula_units_Z 60
_cell_length_a 19.213914
_cell_length_b 13.305560
_cell_length_c 11.755616
_cell_angle_alpha 90.000000
_cell_angle_beta 90.000000
_cell_angle_gamma 90.000000
_cell_volume 3005.345396
_symmetry_space_group_name_H-M "P N N A"
_symmetry_group_IT_number 52
_symmetry_cell_setting 'orthorhombic'
loop_
_space_group_symop_operation_xyz
x,y,z
1/2-x,-y,z
x,1/2-y,1/2-z
1/2-x,1/2+y,1/2-z
-x,-y,-z
1/2+x,y,-z
-x,1/2+y,1/2+z
1/2+x,1/2-y,1/2+z
loop_
_atom_site_type_symbol
_atom_site_label
_atom_site_fract_x
_atom_site_fract_y
_atom_site_fract_z
Si Si1 0.940343 0.078165 0.537850
Si Si2 0.750000 0.000000 0.800856
Si Si3 0.870216 0.047488 0.951612
Si Si4 0.831863 0.525354 0.095765
Si Si5 0.137076 0.082233 0.354232
Si Si6 0.008058 0.797250 0.046116
Si Si7 0.534510 0.389403 0.682030
Si Si8 0.088462 0.452758 0.679238
O O1 0.879816 0.071621 0.441026
O O2 0.077530 0.144729 0.292074
O O3 0.976782 0.181407 0.568396
O O4 0.000000 0.000000 0.500000
O O5 0.700604 0.938396 0.884984
O O6 0.793950 0.927036 0.719343
O O7 0.919735 0.142843 0.942526
O O8 0.911089 0.958566 0.887129
O O9 0.866450 0.006943 0.080333
O O10 0.750000 0.500000 0.103071
O O11 0.864658 0.567827 0.211031
O O12 0.845665 0.598475 0.986643
O O13 0.101513 0.970701 0.357260
O O14 0.951936 0.856841 0.124281
O O15 0.989470 0.811429 0.913126
O O16 0.470371 0.463698 0.709895
#
# Coordination Sequence:
#
# PCOD9407966 Si02
#       8
#     8   4   8   8   8   8   8   8
#     4  10  21  38  64  88 120 165 217 262 317 377
#     4  10  16  34  56  84 116 164 204 236 298 384
#     4   8  17  30  58  87 124 155 195 256 315 373
#     4  10  21  36  59  85 128 176 204 248 324 394
#     4   9  18  33  57  83 114 166 203 242 302 376
#     4   9  18  37  62  94 121 149 212 273 311 372
#     4   8  15  32  57  86 118 148 198 261 310 353
#     4   9  17  33  58  93 120 155 199 261 324 371
#
# _framework density 19.964426
#
# number of rings (size 3 to 8) (size 9 to 14) (size 15 to 20)
#    0.800    2.133    0.667    2.400    0.933    0.000 
#    0.000   16.667    8.800    8.000    0.000    0.000 
#    0.000    0.000    0.000    0.000    0.000    0.000 
#
# Total GULP energy -334011.396079 kJ/mol
# GULP energy per Si atom -5566.856601 kJ/mol
# Density = 1.991899 g / cm^3
# Si number density = 19.964426 Si / 1000 Ang^3
#
#
#
# Elastic Constant Matrix: (Units=GPa)
#
#
# Indices 1 2 3 4 5 6 
#
# 1 123.6806 27.6670 78.8840 0.0000 0.0000 0.0000
# 2 27.6670 74.9173 26.2162 0.0000 0.0000 0.0000
# 3 78.8840 26.2162 144.4883 0.0000 0.0000 0.0000
# 4 0.0000 0.0000 0.0000 14.0894 0.0000 0.0000
# 5 0.0000 0.0000 0.0000 0.0000 40.3078 0.0000
# 6 0.0000 0.0000 0.0000 0.0000 0.0000 11.2283
#
#
#
# Elastic Compliance Matrix: (Units=1/GPa)
#
#
# Indices 1 2 3 4 5 6 
#
# 1 0.012809 -0.002438 -0.006551 0.000000 0.000000 0.000000
# 2 -0.002438 0.014717 -0.001339 0.000000 0.000000 0.000000
# 3 -0.006551 -0.001339 0.010740 0.000000 0.000000 0.000000
# 4 0.000000 0.000000 0.000000 0.070975 0.000000 0.000000
# 5 0.000000 0.000000 0.000000 0.000000 0.024809 0.000000
# 6 0.000000 0.000000 0.000000 0.000000 0.000000 0.089061
#
#
# Mechanical properties :
#
#
# Convention : Reuss Voigt Hill
#
# Bulk Modulus (GPa) = 56.78475 67.62452 62.20463
# Shear Modulus (GPa) = 20.02905 27.14636 23.58771
#
# Velocity S-wave (km/s) = 3.17083 3.69146 3.44101
# Velocity P-wave (km/s) = 6.47381 7.21909 6.85658
#
# Compressibility (1/GPa) = 0.01761036
#
# Stress axis : x y z
#
# Youngs Moduli (GPa) = 78.07172 67.94838 93.10707
#
# Poissons Ratio (x) = 0.16566 0.60991
# Poissons Ratio (y) = 0.19034 0.12469
# Poissons Ratio (z) = 0.51142 0.09100
#
# Static dielectric constant tensor:
#      x y z
#    x 1.736400 0.000000 0.000000 
#    y 0.000000 1.718280 0.000000 
#    z 0.000000 0.000000 1.793320 
# 
# From -- ./inp_files/20834.got.cif
#   From: 2010.05.17/outbox.cif.g08.bks.cpg/sg52_11_cif.got.tgz:20834.got - 2010.06.03 12:15:38.
