data_PCOD9407827
_publ_section_title
;
Structure prediction by ZEFSAII (Michael W. Deem and Ramdas Pophale) SiO2 
 PCOD9407827
Probable space group: P M M A
;
_chemical_formula_sum "Si O2"
_cell_formula_units_Z 48
_cell_length_a 15.000000
_cell_length_b 18.000000
_cell_length_c 9.000000
_cell_angle_alpha 90.000000
_cell_angle_beta 90.000000
_cell_angle_gamma 90.000000
_cell_volume 2430.000000
_symmetry_space_group_name_H-M "P M M A"
_symmetry_group_IT_number 51
_symmetry_cell_setting 'orthorhombic'
loop_
_space_group_symop_operation_xyz
x,y,z
1/2-x,-y,z
1/2+x,-y,-z
-x,y,-z
-x,-y,-z
1/2+x,y,-z
1/2-x,y,z
x,-y,z
loop_
_atom_site_type_symbol
_atom_site_label
_atom_site_fract_x
_atom_site_fract_y
_atom_site_fract_z
Si Si1 0.351365 0.344323 0.169515
Si Si2 0.144307 0.912072 0.368435
Si Si3 0.648048 0.500000 0.337373
Si Si4 0.972301 0.195704 0.838027
Si Si5 0.848929 0.197058 0.353639
Si Si6 0.106222 0.500000 0.005988
Si Si7 0.102545 0.348949 0.506060
O O1 0.250000 0.318966 0.138910
O O2 0.419986 0.275256 0.145920
O O3 0.362002 0.364898 0.342319
O O4 0.367142 0.421724 0.082379
O O5 0.250000 0.908874 0.332528
O O6 0.088712 0.863153 0.250771
O O7 0.134255 0.867768 0.524737
O O8 0.119264 0.000000 0.376229
O O9 0.750000 0.500000 0.388192
O O10 0.642968 0.500000 0.160490
O O11 0.606299 0.576132 0.397841
O O12 0.066200 0.202792 0.752605
O O13 0.000000 0.168571 0.000000
O O14 0.750000 0.183962 0.286717
O O15 0.846568 0.277742 0.431561
O O16 0.000000 0.500000 0.000000
O O17 0.000000 0.325028 0.500000
#
# Coordination Sequence:
#
# PCOD9407827 Si02
#       7
#     8   8   4   8   8   4   8
#     4  12  24  43  67  92 129 178 227 276 336 402
#     4  10  22  45  76 105 134 172 222 277 332 398
#     4  12  26  40  60  94 126 165 215 278 339 393
#     4  12  26  42  64 101 142 180 220 270 334 404
#     4  11  23  43  69  99 132 173 223 276 331 391
#     4  12  27  46  61  90 132 177 226 275 337 410
#     4  12  22  42  66  92 125 166 221 281 333 388
#
# _framework density 19.753086
#
# number of rings (size 3 to 8) (size 9 to 14) (size 15 to 20)
#    0.000    0.500    3.333    5.500    2.333    3.000 
#    0.000    0.000    0.000    2.000    0.000    0.000 
#    0.000    0.000    0.000    0.000    0.000    0.000 
#
# Total GULP energy -268247.223704 kJ/mol
# GULP energy per Si atom -5588.483827 kJ/mol
# Density = 1.970813 g / cm^3
# Si number density = 19.753086 Si / 1000 Ang^3
#
#
#
# Elastic Constant Matrix: (Units=GPa)
#
#
# Indices 1 2 3 4 5 6 
#
# 1 150.8296 36.7268 33.6638 0.0000 0.0000 0.0000
# 2 36.7268 132.0394 25.6883 0.0000 0.0000 0.0000
# 3 33.6638 25.6883 70.3113 0.0000 0.0000 0.0000
# 4 0.0000 0.0000 0.0000 -0.0133 0.0000 0.0000
# 5 0.0000 0.0000 0.0000 0.0000 10.8641 0.0000
# 6 0.0000 0.0000 0.0000 0.0000 0.0000 36.6024
#
#
#
# Elastic Compliance Matrix: (Units=1/GPa)
#
#
# Indices 1 2 3 4 5 6 
#
# 1 0.007701 -0.001534 -0.003127 0.000000 0.000000 0.000000
# 2 -0.001534 0.008458 -0.002356 0.000000 0.000000 0.000000
# 3 -0.003127 -0.002356 0.016580 0.000000 0.000000 0.000000
# 4 0.000000 0.000000 0.000000-75.079894 0.000000 0.000000
# 5 0.000000 0.000000 0.000000 0.000000 0.092047 0.000000
# 6 0.000000 0.000000 0.000000 0.000000 0.000000 0.027321
#
#
# Mechanical properties :
#
#
# Convention : Reuss Voigt Hill
#
# Bulk Modulus (GPa) = 53.45637 60.59314 57.02476
# Shear Modulus (GPa) = -0.06675 26.63073 13.28199
#
# Velocity S-wave (km/s) = -0.18402 3.67574 2.59588
# Velocity P-wave (km/s) = 5.20345 6.98260 6.15762
#
# Compressibility (1/GPa) = 0.01870684
#
# Stress axis : x y z
#
# Youngs Moduli (GPa) = 129.84701 118.22460 60.31245
#
# Poissons Ratio (x) = 0.18133 0.18859
# Poissons Ratio (y) = 0.19916 0.14209
# Poissons Ratio (z) = 0.40602 0.27853
#
# Static dielectric constant tensor:
#      x y z
#    x 1.682180 0.000000 0.000000 
#    y 0.000000 1.752600 0.000000 
#    z 0.000000 0.000000 1.700660 
# 
# From -- ./inp_files/8338.got.cif
#   From: 2010.05.17/outbox.ucp.g08.bks.cvg/sg51_5_cif.got.tgz:8338.got - 2010.06.11 16:27:58.
