data_PCOD9407541
_publ_section_title
;
Structure prediction by ZEFSAII (Michael W. Deem and Ramdas Pophale) SiO2 
 PCOD9407541
Probable space group: P M M A
;
_chemical_formula_sum "Si O2"
_cell_formula_units_Z 48
_cell_length_a 9.000000
_cell_length_b 30.000000
_cell_length_c 9.000000
_cell_angle_alpha 90.000000
_cell_angle_beta 90.000000
_cell_angle_gamma 90.000000
_cell_volume 2430.000000
_symmetry_space_group_name_H-M "P M M A"
_symmetry_group_IT_number 51
_symmetry_cell_setting 'orthorhombic'
loop_
_space_group_symop_operation_xyz
x,y,z
1/2-x,-y,z
1/2+x,-y,-z
-x,y,-z
-x,-y,-z
1/2+x,y,-z
1/2-x,y,z
x,-y,z
loop_
_atom_site_type_symbol
_atom_site_label
_atom_site_fract_x
_atom_site_fract_y
_atom_site_fract_z
Si Si1 0.072146 0.452847 0.336454
Si Si2 0.928664 0.275660 0.160326
Si Si3 0.072752 0.881732 0.842631
Si Si4 0.920592 0.946720 0.652901
Si Si5 0.570090 0.356377 0.664307
Si Si6 0.928899 0.195454 0.659496
O O1 0.250000 0.452862 0.355647
O O2 0.028970 0.500000 0.263162
O O3 0.037411 0.405189 0.265996
O O4 0.000000 0.452889 0.500000
O O5 0.750000 0.271609 0.158014
O O6 0.983923 0.318188 0.251038
O O7 0.005733 0.233044 0.233633
O O8 0.000000 0.280165 0.000000
O O9 0.250000 0.877071 0.845640
O O10 0.019048 0.930118 0.789839
O O11 0.995965 0.850199 0.721463
O O12 0.000000 0.870555 0.000000
O O13 0.750000 0.930261 0.661277
O O14 0.000000 0.932414 0.500000
O O15 0.915364 0.000000 0.651546
O O16 0.500000 0.356894 0.500000
O O17 0.750000 0.349311 0.660424
O O18 0.750000 0.195425 0.655642
O O19 0.000000 0.204243 0.500000
#
# Coordination Sequence:
#
# PCOD9407541 Si02
#       6
#     8   8   8   8   8   8
#     4   8  14  25  44  72 106 142 181 227 277 328
#     4  12  25  42  61  84 114 149 189 234 287 343
#     4  12  25  42  63  90 124 161 200 243 294 349
#     4  10  21  39  63  91 123 161 205 251 298 348
#     4  10  19  33  54  82 114 149 189 233 282 336
#     4  12  25  44  67  92 120 152 192 236 285 340
#
# _framework density 19.753086
#
# number of rings (size 3 to 8) (size 9 to 14) (size 15 to 20)
#    0.000    1.333    0.000    7.000    0.000    2.000 
#    0.000    0.000    0.000    0.500    0.000    0.000 
#    0.000    0.000    0.000    0.000    0.000    0.000 
#
# Total GULP energy -267873.697920 kJ/mol
# GULP energy per Si atom -5580.702040 kJ/mol
# Density = 1.970813 g / cm^3
# Si number density = 19.753086 Si / 1000 Ang^3
#
#
#
# Elastic Constant Matrix: (Units=GPa)
#
#
# Indices 1 2 3 4 5 6 
#
# 1 177.6671 38.4020 19.8228 0.0000 0.0000 0.0000
# 2 38.4020 79.9521 18.7257 0.0000 0.0000 0.0000
# 3 19.8228 18.7257 33.7041 0.0000 0.0000 0.0000
# 4 0.0000 0.0000 0.0000 1582.8746 0.0000 0.0000
# 5 0.0000 0.0000 0.0000 0.0000 25.3358 0.0000
# 6 0.0000 0.0000 0.0000 0.0000 0.0000 -15.3429
#
#
#
# Elastic Compliance Matrix: (Units=1/GPa)
#
#
# Indices 1 2 3 4 5 6 
#
# 1 0.006442 -0.002537 -0.002379 0.000000 0.000000 0.000000
# 2 -0.002537 0.015378 -0.007051 0.000000 0.000000 0.000000
# 3 -0.002379 -0.007051 0.034987 0.000000 0.000000 0.000000
# 4 0.000000 0.000000 0.000000 0.000632 0.000000 0.000000
# 5 0.000000 0.000000 0.000000 0.000000 0.039470 0.000000
# 6 0.000000 0.000000 0.000000 0.000000 0.000000 -0.065177
#
#
# Mechanical properties :
#
#
# Convention : Reuss Voigt Hill
#
# Bulk Modulus (GPa) = 30.42187 49.46937 39.94562
# Shear Modulus (GPa) = 75.04688 332.86502 203.95595
#
# Velocity S-wave (km/s) = 6.17049 12.99534 10.17236
# Velocity P-wave (km/s) = 8.13641 15.81992 12.57917
#
# Compressibility (1/GPa) = 0.03287109
#
# Stress axis : x y z
#
# Youngs Moduli (GPa) = 155.22257 65.02965 28.58193
#
# Poissons Ratio (x) = 0.16498 0.06801
# Poissons Ratio (y) = 0.39381 0.20155
# Poissons Ratio (z) = 0.36935 0.45856
#
# Static dielectric constant tensor:
#      x y z
#    x 1.676960 0.000000 0.000000 
#    y 0.000000 1.820330 0.000000 
#    z 0.000000 0.000000 1.451850 
# 
# From -- ./inp_files/6051.got.cif
#   From: 2010.05.17/outbox.ucp.g08.bks.cvg/sg51_4_cif.got.tgz:6051.got - 2010.06.11 16:27:58.
