data_PCOD9407433
_publ_section_title
;
Structure prediction by ZEFSAII (Michael W. Deem and Ramdas Pophale) SiO2 
 PCOD9407433
Probable space group: P M M A
;
_chemical_formula_sum "Si O2"
_cell_formula_units_Z 56
_cell_length_a 15.000000
_cell_length_b 9.000000
_cell_length_c 21.000000
_cell_angle_alpha 90.000000
_cell_angle_beta 90.000000
_cell_angle_gamma 90.000000
_cell_volume 2835.000000
_symmetry_space_group_name_H-M "P M M A"
_symmetry_group_IT_number 51
_symmetry_cell_setting 'orthorhombic'
loop_
_space_group_symop_operation_xyz
x,y,z
1/2-x,-y,z
1/2+x,-y,-z
-x,y,-z
-x,-y,-z
1/2+x,y,-z
1/2-x,y,z
x,-y,z
loop_
_atom_site_type_symbol
_atom_site_label
_atom_site_fract_x
_atom_site_fract_y
_atom_site_fract_z
Si Si1 0.150967 0.179038 0.014806
Si Si2 0.025959 0.827648 0.124641
Si Si3 0.250000 0.325716 0.397011
Si Si4 0.567761 0.668813 0.654210
Si Si5 0.348206 0.322595 0.875423
Si Si6 0.853444 0.664068 0.789820
Si Si7 0.750000 0.830056 0.476900
Si Si8 0.448834 0.827283 0.563387
O O1 0.250000 0.210646 0.043372
O O2 0.067040 0.224974 0.057436
O O3 0.145584 0.000000 0.006587
O O4 0.149444 0.258847 0.947176
O O5 0.111249 0.797410 0.168413
O O6 0.940093 0.742668 0.151477
O O7 0.003567 0.000000 0.119557
O O8 0.250000 0.500000 0.377987
O O9 0.158468 0.258218 0.372182
O O10 0.250000 0.298469 0.471188
O O11 0.563272 0.500000 0.629796
O O12 0.583832 0.663355 0.728575
O O13 0.484531 0.751700 0.626444
O O14 0.250000 0.279234 0.848715
O O15 0.352478 0.500000 0.875308
O O16 0.750000 0.678083 0.771257
O O17 0.862568 0.500000 0.821412
O O18 0.657007 0.815144 0.441140
O O19 0.750000 0.000000 0.504590
O O20 0.500000 0.766675 0.500000
O O21 0.473066 0.000000 0.566199
#
# Coordination Sequence:
#
# PCOD9407433 Si02
#       8
#     8   8   4   8   8   8   4   8
#     4   9  18  33  52  77 112 146 174 212 265 322
#     4  11  22  35  54  81 111 143 180 221 267 319
#     4  10  18  30  52  80 108 138 174 215 258 307
#     4  10  20  35  55  79 107 139 177 218 260 312
#     4  10  21  36  55  79 106 140 183 226 268 318
#     4  10  21  38  58  80 108 141 176 219 270 318
#     4  10  20  34  50  76 112 142 170 213 264 315
#     4  10  20  33  52  78 108 141 176 214 263 315
#
# _framework density 19.753086
#
# number of rings (size 3 to 8) (size 9 to 14) (size 15 to 20)
#    0.000    2.000    2.143    1.714    0.000    6.000 
#    0.000    1.429    1.571    0.000    0.000    0.000 
#    0.000    0.000    0.000    0.000    0.000    0.000 
#
# Total GULP energy -311758.271656 kJ/mol
# GULP energy per Si atom -5567.111994 kJ/mol
# Density = 1.970813 g / cm^3
# Si number density = 19.753086 Si / 1000 Ang^3
#
#
#
# Elastic Constant Matrix: (Units=GPa)
#
#
# Indices 1 2 3 4 5 6 
#
# 1 88.1563 34.8267 19.1136 0.0000 0.0000 0.0000
# 2 34.8267 3.2235 6.0131 0.0000 0.0000 0.0000
# 3 19.1136 6.0131 24.0937 0.0000 0.0000 0.0000
# 4 0.0000 0.0000 0.0000 12.4095 0.0000 0.0000
# 5 0.0000 0.0000 0.0000 0.0000 31.5187 0.0000
# 6 0.0000 0.0000 0.0000 0.0000 0.0000 28.4982
#
#
#
# Elastic Compliance Matrix: (Units=1/GPa)
#
#
# Indices 1 2 3 4 5 6 
#
# 1 -0.002215 0.038651 -0.007889 0.000000 0.000000 0.000000
# 2 0.038651 -0.093866 -0.007236 0.000000 0.000000 0.000000
# 3 -0.007889 -0.007236 0.049569 0.000000 0.000000 0.000000
# 4 0.000000 0.000000 0.000000 0.080583 0.000000 0.000000
# 5 0.000000 0.000000 0.000000 0.000000 0.031727 0.000000
# 6 0.000000 0.000000 0.000000 0.000000 0.000000 0.035090
#
#
# Mechanical properties :
#
#
# Convention : Reuss Voigt Hill
#
# Bulk Modulus (GPa) = 1848.75425 26.15337 937.45381
# Shear Modulus (GPa) = 92.56658 18.18660 55.37659
#
# Velocity S-wave (km/s) = 6.85300 3.03759 5.30050
# Velocity P-wave (km/s) = 31.63197 5.05683 22.65119
#
# Compressibility (1/GPa) = 0.00054090
#
# Stress axis : x y z
#
# Youngs Moduli (GPa) = -451.38263 -10.65354 20.17409
#
# Poissons Ratio (x) = 0.41177 0.15915
# Poissons Ratio (y) = 17.44637 0.14597
# Poissons Ratio (z) = -3.56084 -0.07708
#
# Static dielectric constant tensor:
#      x y z
#    x 1.778220 0.000000 0.000000 
#    y 0.000000 1.699660 0.000000 
#    z 0.000000 0.000000 1.734280 
# 
# From -- ./inp_files/33552.got.cif
#   From: 2010.05.17/outbox.ucp.g08.bks.cvg/sg51_17_cif.got.tgz:33552.got - 2010.06.11 16:27:58.
