data_PCOD9407768
_publ_section_title
;
Structure prediction by ZEFSAII (Michael W. Deem and Ramdas Pophale) SiO2 
 PCOD9407768
Probable space group: P M M A
;
_chemical_formula_sum "Si O2"
_cell_formula_units_Z 36
_cell_length_a 9.000000
_cell_length_b 12.000000
_cell_length_c 21.000000
_cell_angle_alpha 90.000000
_cell_angle_beta 90.000000
_cell_angle_gamma 90.000000
_cell_volume 2268.000000
_symmetry_space_group_name_H-M "P M M A"
_symmetry_group_IT_number 51
_symmetry_cell_setting 'orthorhombic'
loop_
_space_group_symop_operation_xyz
x,y,z
1/2-x,-y,z
1/2+x,-y,-z
-x,y,-z
-x,-y,-z
1/2+x,y,-z
1/2-x,y,z
x,-y,z
loop_
_atom_site_type_symbol
_atom_site_label
_atom_site_fract_x
_atom_site_fract_y
_atom_site_fract_z
Si Si1 0.075240 0.365071 0.934550
Si Si2 0.077838 0.865996 0.565840
Si Si3 0.571191 0.367109 0.207544
Si Si4 0.571938 0.291618 0.661560
Si Si5 0.571585 0.500000 0.570176
O O1 0.250000 0.340159 0.938215
O O2 0.059948 0.500000 0.934035
O O3 0.022124 0.328906 0.863765
O O4 0.000000 0.324503 0.000000
O O5 0.250000 0.830969 0.565564
O O6 0.000000 0.829084 0.500000
O O7 0.994037 0.815467 0.626159
O O8 0.072360 0.000000 0.567510
O O9 0.750000 0.352745 0.210927
O O10 0.541515 0.500000 0.211929
O O11 0.494968 0.310962 0.268322
O O12 0.750000 0.287076 0.665657
O O13 0.531304 0.393420 0.613710
O O14 0.750000 0.500000 0.562139
O O15 0.500000 0.500000 0.500000
#
# Coordination Sequence:
#
# PCOD9407768 Si02
#       5
#     8   8   8   8   4
#     4   8  14  24  38  58  84 117 157 193 226 267
#     4  10  21  37  55  73  92 117 153 196 241 285
#     4   9  17  29  44  63  91 127 161 192 231 277
#     4  11  21  33  48  69  96 124 158 194 233 281
#     4  10  22  34  44  64  91 120 153 188 225 272
#
# _framework density 15.873016
#
# number of rings (size 3 to 8) (size 9 to 14) (size 15 to 20)
#    0.000    2.444    1.111    3.333    0.000    5.778 
#    0.000    2.222    0.000    0.000    0.000    0.000 
#    0.000    0.889    0.000    2.889    0.000    3.556 
#
# Total GULP energy -200611.293694 kJ/mol
# GULP energy per Si atom -5572.535936 kJ/mol
# Density = 1.583689 g / cm^3
# Si number density = 15.873016 Si / 1000 Ang^3
#
#
#
# Elastic Constant Matrix: (Units=GPa)
#
#
# Indices 1 2 3 4 5 6 
#
# 1 55.0638 18.5072 65.6682 0.0000 0.0000 0.0000
# 2 18.5072 15.1736 24.5667 0.0000 0.0000 0.0000
# 3 65.6682 24.5667 193.2111 0.0000 0.0000 0.0000
# 4 0.0000 0.0000 0.0000 19.3387 0.0000 0.0000
# 5 0.0000 0.0000 0.0000 0.0000 37.5186 0.0000
# 6 0.0000 0.0000 0.0000 0.0000 0.0000 14.4536
#
#
#
# Elastic Compliance Matrix: (Units=1/GPa)
#
#
# Indices 1 2 3 4 5 6 
#
# 1 0.041352 -0.034858 -0.009623 0.000000 0.000000 0.000000
# 2 -0.034858 0.112371 -0.002441 0.000000 0.000000 0.000000
# 3 -0.009623 -0.002441 0.008757 0.000000 0.000000 0.000000
# 4 0.000000 0.000000 0.000000 0.051710 0.000000 0.000000
# 5 0.000000 0.000000 0.000000 0.000000 0.026653 0.000000
# 6 0.000000 0.000000 0.000000 0.000000 0.000000 0.069187
#
#
# Mechanical properties :
#
#
# Convention : Reuss Voigt Hill
#
# Bulk Modulus (GPa) = 14.56919 53.43696 34.00308
# Shear Modulus (GPa) = 11.71642 24.57595 18.14618
#
# Velocity S-wave (km/s) = 2.71981 3.93909 3.38481
# Velocity P-wave (km/s) = 4.36597 7.37746 6.06171
#
# Compressibility (1/GPa) = 0.06863801
#
# Stress axis : x y z
#
# Youngs Moduli (GPa) = 24.18239 8.89907 114.20086
#
# Poissons Ratio (x) = 0.31020 1.09891
# Poissons Ratio (y) = 0.84295 0.27871
# Poissons Ratio (z) = 0.23270 0.02172
#
# Static dielectric constant tensor:
#      x y z
#    x 1.535560 0.000000 0.000000 
#    y 0.000000 1.530900 0.000000 
#    z 0.000000 0.000000 1.534040 
# 
# From -- ./inp_files/31285.got.cif
#   From: 2010.05.17/outbox.ucp.g08.bks.cvg/sg51_16_cif.got.tgz:31285.got - 2010.06.11 16:27:58.
