data_PCOD9407637
_publ_section_title
;
Structure prediction by ZEFSAII (Michael W. Deem and Ramdas Pophale) SiO2 
 PCOD9407637
Probable space group: P M M A
;
_chemical_formula_sum "Si O2"
_cell_formula_units_Z 52
_cell_length_a 9.000000
_cell_length_b 21.000000
_cell_length_c 15.000000
_cell_angle_alpha 90.000000
_cell_angle_beta 90.000000
_cell_angle_gamma 90.000000
_cell_volume 2835.000000
_symmetry_space_group_name_H-M "P M M A"
_symmetry_group_IT_number 51
_symmetry_cell_setting 'orthorhombic'
loop_
_space_group_symop_operation_xyz
x,y,z
1/2-x,-y,z
1/2+x,-y,-z
-x,y,-z
-x,-y,-z
1/2+x,y,-z
1/2-x,y,z
x,-y,z
loop_
_atom_site_type_symbol
_atom_site_label
_atom_site_fract_x
_atom_site_fract_y
_atom_site_fract_z
Si Si1 0.928948 0.428416 0.729282
Si Si2 0.927446 0.773249 0.096254
Si Si3 0.068811 0.000000 0.898773
Si Si4 0.071387 0.168169 0.403580
Si Si5 0.074254 0.377919 0.905096
Si Si6 0.429186 0.684354 0.404102
Si Si7 0.429843 0.118029 0.212177
O O1 0.750000 0.424984 0.737004
O O2 0.966519 0.500000 0.696857
O O3 0.976557 0.370278 0.665136
O O4 0.000639 0.416580 0.825317
O O5 0.750000 0.786231 0.095351
O O6 0.948699 0.697866 0.112735
O O7 0.011675 0.816987 0.167084
O O8 0.000000 0.787387 0.000000
O O9 0.008544 0.938942 0.842699
O O10 0.250000 0.000000 0.903803
O O11 0.000000 0.000000 0.000000
O O12 0.250000 0.165985 0.413380
O O13 0.030436 0.242154 0.381306
O O14 0.033072 0.124291 0.318018
O O15 0.000000 0.152413 0.500000
O O16 0.250000 0.389403 0.909523
O O17 0.000000 0.392418 0.000000
O O18 0.500000 0.670992 0.500000
O O19 0.250000 0.682160 0.410031
O O20 0.250000 0.112736 0.204077
#
# Coordination Sequence:
#
# PCOD9407637 Si02
#       7
#     8   8   4   8   8   8   8
#     4  10  21  36  53  74 104 143 185 228 277 335
#     4  10  20  34  54  82 111 141 179 226 279 333
#     4  12  26  44  63  86 119 158 195 232 272 320
#     4   9  19  35  58  85 113 144 181 228 278 328
#     4  10  21  36  55  78 105 138 179 228 280 334
#     4   9  18  34  55  81 111 143 179 223 277 331
#     4  11  22  38  60  86 116 152 190 229 274 324
#
# _framework density 18.342151999999999
#
# number of rings (size 3 to 8) (size 9 to 14) (size 15 to 20)
#    0.000    2.000    0.000    3.462    0.000    5.846 
#    0.000    3.462    0.000    0.000    0.000    0.000 
#    0.000    0.000    0.000    0.000    0.000    0.000 
#
# Total GULP energy -290307.573713 kJ/mol
# GULP energy per Si atom -5582.837956 kJ/mol
# Density = 1.830040 g / cm^3
# Si number density = 18.342152 Si / 1000 Ang^3
#
#
#
# Elastic Constant Matrix: (Units=GPa)
#
#
# Indices 1 2 3 4 5 6 
#
# 1 61.9031 32.2405 39.8209 0.0000 0.0000 0.0000
# 2 32.2405 59.7541 61.7802 0.0000 0.0000 0.0000
# 3 39.8209 61.7802 137.7915 0.0000 0.0000 0.0000
# 4 0.0000 0.0000 0.0000 27.8280 0.0000 0.0000
# 5 0.0000 0.0000 0.0000 0.0000 37.1782 0.0000
# 6 0.0000 0.0000 0.0000 0.0000 0.0000 24.2818
#
#
#
# Elastic Compliance Matrix: (Units=1/GPa)
#
#
# Indices 1 2 3 4 5 6 
#
# 1 0.022759 -0.010215 -0.001997 0.000000 0.000000 0.000000
# 2 -0.010215 0.035781 -0.013091 0.000000 0.000000 0.000000
# 3 -0.001997 -0.013091 0.013704 0.000000 0.000000 0.000000
# 4 0.000000 0.000000 0.000000 0.035935 0.000000 0.000000
# 5 0.000000 0.000000 0.000000 0.000000 0.026898 0.000000
# 6 0.000000 0.000000 0.000000 0.000000 0.000000 0.041183
#
#
# Mechanical properties :
#
#
# Convention : Reuss Voigt Hill
#
# Bulk Modulus (GPa) = 46.21380 58.57021 52.39200
# Shear Modulus (GPa) = 21.36028 26.23141 23.79585
#
# Velocity S-wave (km/s) = 3.41625 3.78579 3.60576
# Velocity P-wave (km/s) = 6.38836 7.14919 6.77946
#
# Compressibility (1/GPa) = 0.02163856
#
# Stress axis : x y z
#
# Youngs Moduli (GPa) = 43.93831 27.94746 72.97115
#
# Poissons Ratio (x) = 0.28547 0.14575
# Poissons Ratio (y) = 0.44881 0.95526
# Poissons Ratio (z) = 0.08776 0.36586
#
# Static dielectric constant tensor:
#      x y z
#    x 1.608860 0.000000 0.000000 
#    y 0.000000 1.648570 0.000000 
#    z 0.000000 0.000000 1.613540 
# 
# From -- ./inp_files/21607.got.cif
#   From: 2010.05.17/outbox.ucp.g08.bks.cvg/sg51_11_cif.got.tgz:21607.got - 2010.06.11 16:27:58.
