data_PCOD9407218
_publ_section_title
;
Structure prediction by ZEFSAII (Michael W. Deem and Ramdas Pophale) SiO2 
 PCOD9407218
Probable space group: P M M A
;
_chemical_formula_sum "Si O2"
_cell_formula_units_Z 58
_cell_length_a 7.625695
_cell_length_b 26.453015
_cell_length_c 13.122540
_cell_angle_alpha 90.000000
_cell_angle_beta 90.000000
_cell_angle_gamma 90.000000
_cell_volume 2647.113205
_symmetry_space_group_name_H-M "P M M A"
_symmetry_group_IT_number 51
_symmetry_cell_setting 'orthorhombic'
loop_
_space_group_symop_operation_xyz
x,y,z
1/2-x,-y,z
1/2+x,-y,-z
-x,y,-z
-x,-y,-z
1/2+x,y,-z
1/2-x,y,z
x,-y,z
loop_
_atom_site_type_symbol
_atom_site_label
_atom_site_fract_x
_atom_site_fract_y
_atom_site_fract_z
Si Si1 0.959004 0.794228 0.887988
Si Si2 0.555826 0.060467 0.111472
Si Si3 0.951015 0.427266 0.117147
Si Si4 0.034667 0.836611 0.327059
Si Si5 0.949287 0.943687 0.663173
Si Si6 0.041144 0.726912 0.389753
Si Si7 0.962866 0.315439 0.823088
Si Si8 0.250000 0.500000 0.191589
O O1 0.750000 0.792574 0.877301
O O2 0.019306 0.826627 0.791026
O O3 0.022326 0.736325 0.877475
O O4 0.000000 0.812977 0.000000
O O5 0.750000 0.079465 0.134430
O O6 0.443335 0.065244 0.213825
O O7 0.566271 0.000000 0.099455
O O8 0.500000 0.079177 0.000000
O O9 0.750000 0.442046 0.135984
O O10 0.965822 0.367077 0.132454
O O11 0.094754 0.456111 0.183872
O O12 0.000000 0.439316 0.000000
O O13 0.250000 0.838810 0.330723
O O14 0.969576 0.890238 0.370980
O O15 0.975321 0.784881 0.381146
O O16 0.750000 0.946339 0.624803
O O17 0.028655 0.000000 0.645800
O O18 0.250000 0.730474 0.378458
O O19 0.981701 0.693731 0.294275
O O20 0.000000 0.705668 0.500000
O O21 0.750000 0.317925 0.829000
#
# Coordination Sequence:
#
# PCOD9407218 Si02
#       8
#     8   8   8   8   8   8   8   2
#     4   9  17  29  47  65  95 134 170 209 264 326
#     4   9  16  25  36  51  74 106 146 193 238 279
#     4  12  23  35  57  83 121 170 212 251 287 326
#     4   8  16  31  47  68  96 131 164 204 265 328
#     4   9  16  27  44  62  83 116 162 207 250 309
#     4   9  18  34  58  80 107 134 166 222 285 344
#     4   9  18  35  52  77 109 142 181 231 289 339
#     4  12  24  40  54  82 130 168 222 252 280 322
#
# _framework density 21.91066
#
# number of rings (size 3 to 8) (size 9 to 14) (size 15 to 20)
#    0.000    2.621    1.379    2.897    0.000    4.414 
#    0.000    4.828    0.000    0.414    0.000    0.483 
#    0.000    0.000    0.000    0.000    0.000    0.000 
#
# Total GULP energy -323019.605283 kJ/mol
# GULP energy per Si atom -5569.303539 kJ/mol
# Density = 2.186079 g / cm^3
# Si number density = 21.910660 Si / 1000 Ang^3
#
#
#
# Elastic Constant Matrix: (Units=GPa)
#
#
# Indices 1 2 3 4 5 6 
#
# 1 96.4939 20.2449 -6.6259 0.0000 0.0000 0.0000
# 2 20.2449 140.3609 -3.4442 0.0000 0.0000 0.0000
# 3 -6.6259 -3.4442 61.0611 0.0000 0.0000 0.0000
# 4 0.0000 0.0000 0.0000 -26.7000 0.0000 0.0000
# 5 0.0000 0.0000 0.0000 0.0000 10.9885 0.0000
# 6 0.0000 0.0000 0.0000 0.0000 0.0000 8.0982
#
#
#
# Elastic Compliance Matrix: (Units=1/GPa)
#
#
# Indices 1 2 3 4 5 6 
#
# 1 0.010758 -0.001525 0.001081 0.000000 0.000000 0.000000
# 2 -0.001525 0.007351 0.000249 0.000000 0.000000 0.000000
# 3 0.001081 0.000249 0.016508 0.000000 0.000000 0.000000
# 4 0.000000 0.000000 0.000000 -0.037453 0.000000 0.000000
# 5 0.000000 0.000000 0.000000 0.000000 0.091004 0.000000
# 6 0.000000 0.000000 0.000000 0.000000 0.000000 0.123484
#
#
# Mechanical properties :
#
#
# Convention : Reuss Voigt Hill
#
# Bulk Modulus (GPa) = 29.21649 35.36286 32.28968
# Shear Modulus (GPa) = 22.37640 17.66008 20.01824
#
# Velocity S-wave (km/s) = 3.19918 2.84210 3.02591
# Velocity P-wave (km/s) = 5.19708 5.19082 5.19395
#
# Compressibility (1/GPa) = 0.03422724
#
# Stress axis : x y z
#
# Youngs Moduli (GPa) = 92.95784 136.04380 60.57515
#
# Poissons Ratio (x) = 0.20748 -0.06550
# Poissons Ratio (y) = 0.14177 -0.01509
# Poissons Ratio (z) = -0.10052 -0.03389
#
# Static dielectric constant tensor:
#      x y z
#    x 1.800730 0.000000 0.000000 
#    y 0.000000 1.831240 0.000000 
#    z 0.000000 0.000000 1.881840 
# 
# From -- ./inp_files/22483.got.cif
#   From: 2010.05.17/outbox.cif.g08.bks.cpg/sg51_12_cif.got.tgz:22483.got - 2010.06.03 11:52:47.
