data_PCOD9407271
_publ_section_title
;
Structure prediction by ZEFSAII (Michael W. Deem and Ramdas Pophale) SiO2 
 PCOD9407271
Probable space group: P M M A
;
_chemical_formula_sum "Si O2"
_cell_formula_units_Z 56
_cell_length_a 7.396143
_cell_length_b 19.298270
_cell_length_c 19.908564
_cell_angle_alpha 90.000000
_cell_angle_beta 90.000000
_cell_angle_gamma 90.000000
_cell_volume 2841.604378
_symmetry_space_group_name_H-M "P M M A"
_symmetry_group_IT_number 51
_symmetry_cell_setting 'orthorhombic'
loop_
_space_group_symop_operation_xyz
x,y,z
1/2-x,-y,z
1/2+x,-y,-z
-x,y,-z
-x,-y,-z
1/2+x,y,-z
1/2-x,y,z
x,-y,z
loop_
_atom_site_type_symbol
_atom_site_label
_atom_site_fract_x
_atom_site_fract_y
_atom_site_fract_z
Si Si1 0.965556 0.343769 0.574663
Si Si2 0.966058 0.815046 0.574569
Si Si3 0.028720 0.421362 0.292265
Si Si4 0.465527 0.784840 0.077250
Si Si5 0.529167 0.077116 0.850939
Si Si6 0.969830 0.706878 0.793610
Si Si7 0.969517 0.152525 0.717790
O O1 0.750000 0.338826 0.583014
O O2 0.036008 0.264527 0.576974
O O3 0.030592 0.390827 0.635684
O O4 0.000000 0.371588 0.500000
O O5 0.750000 0.811160 0.580814
O O6 0.031502 0.854738 0.641025
O O7 0.000000 0.843420 0.500000
O O8 0.250000 0.422010 0.292182
O O9 0.969354 0.500000 0.281972
O O10 0.969884 0.366024 0.236250
O O11 0.250000 0.786912 0.085597
O O12 0.531305 0.861132 0.099865
O O13 0.531664 0.729429 0.132261
O O14 0.500000 0.769404 0.000000
O O15 0.750000 0.076671 0.851880
O O16 0.472769 0.099171 0.775467
O O17 0.468580 0.000000 0.868408
O O18 0.750000 0.704934 0.793794
O O19 0.018690 0.770622 0.744387
O O20 0.750000 0.149439 0.718108
#
# Coordination Sequence:
#
# PCOD9407271 Si02
#       7
#     8   8   8   8   8   8   8
#     4   9  16  25  37  55  80 106 132 164 203 243
#     4   9  15  23  37  56  77 102 132 167 204 237
#     4   9  15  23  38  59  80 103 135 174 207 232
#     4   9  17  28  45  66  87 109 130 156 194 236
#     4   8  14  24  40  64  87 105 131 165 195 227
#     4   8  13  24  40  58  78 102 134 168 197 229
#     4   8  12  21  38  55  74 103 136 168 199 229
#
# _framework density 19.707177999999999
#
# number of rings (size 3 to 8) (size 9 to 14) (size 15 to 20)
#    0.000    3.429    1.429    1.714    0.000    0.571 
#    0.000    0.000    0.000    5.143    0.000    0.000 
#    0.000    0.000    0.000    0.000    0.000    0.000 
#
# Total GULP energy -312088.170082 kJ/mol
# GULP energy per Si atom -5573.003037 kJ/mol
# Density = 1.966232 g / cm^3
# Si number density = 19.707178 Si / 1000 Ang^3
#
#
#
# Elastic Constant Matrix: (Units=GPa)
#
#
# Indices 1 2 3 4 5 6 
#
# 1 63.9924 0.4411 -3.0364 0.0000 0.0000 0.0000
# 2 0.4411 55.8910 37.1264 0.0000 0.0000 0.0000
# 3 -3.0364 37.1264 156.1133 0.0000 0.0000 0.0000
# 4 0.0000 0.0000 0.0000 16.0321 0.0000 0.0000
# 5 0.0000 0.0000 0.0000 0.0000 15.7724 0.0000
# 6 0.0000 0.0000 0.0000 0.0000 0.0000 -6.4439
#
#
#
# Elastic Compliance Matrix: (Units=1/GPa)
#
#
# Indices 1 2 3 4 5 6 
#
# 1 0.015648 -0.000387 0.000396 0.000000 0.000000 0.000000
# 2 -0.000387 0.021258 -0.005063 0.000000 0.000000 0.000000
# 3 0.000396 -0.005063 0.007617 0.000000 0.000000 0.000000
# 4 0.000000 0.000000 0.000000 0.062375 0.000000 0.000000
# 5 0.000000 0.000000 0.000000 0.000000 0.063402 0.000000
# 6 0.000000 0.000000 0.000000 0.000000 0.000000 -0.155187
#
#
# Mechanical properties :
#
#
# Convention : Reuss Voigt Hill
#
# Bulk Modulus (GPa) = 29.05549 38.33989 33.69769
# Shear Modulus (GPa) = 136.26329 21.16983 78.71656
#
# Velocity S-wave (km/s) = 8.32431 3.28108 6.32691
# Velocity P-wave (km/s) = 10.35219 5.81816 8.39699
#
# Compressibility (1/GPa) = 0.03441690
#
# Stress axis : x y z
#
# Youngs Moduli (GPa) = 63.90456 47.04057 131.27833
#
# Poissons Ratio (x) = 0.01819 -0.05203
# Poissons Ratio (y) = 0.02472 0.66468
# Poissons Ratio (z) = -0.02533 0.23817
#
# Static dielectric constant tensor:
#      x y z
#    x 1.771190 0.000000 0.000000 
#    y 0.000000 1.664600 0.000000 
#    z 0.000000 0.000000 1.711490 
# 
# From -- ./inp_files/29157.got.cif
#   From: 2010.05.17/outbox.cif.g08.bks.cpg/sg51_15_cif.got.tgz:29157.got - 2010.06.03 11:52:47.
