data_PCOD9407793
_publ_section_title
;
Structure prediction by ZEFSAII (Michael W. Deem and Ramdas Pophale) SiO2 
 PCOD9407793
Probable space group: P M M A
;
_chemical_formula_sum "Si O2"
_cell_formula_units_Z 48
_cell_length_a 27.000000
_cell_length_b 15.000000
_cell_length_c 6.000000
_cell_angle_alpha 90.000000
_cell_angle_beta 90.000000
_cell_angle_gamma 90.000000
_cell_volume 2430.000000
_symmetry_space_group_name_H-M "P M M A"
_symmetry_group_IT_number 51
_symmetry_cell_setting 'orthorhombic'
loop_
_space_group_symop_operation_xyz
x,y,z
1/2-x,-y,z
1/2+x,-y,-z
-x,y,-z
-x,-y,-z
1/2+x,y,-z
1/2-x,y,z
x,-y,z
loop_
_atom_site_type_symbol
_atom_site_label
_atom_site_fract_x
_atom_site_fract_y
_atom_site_fract_z
Si Si1 0.485027 0.104155 0.252229
Si Si2 0.378201 0.104698 0.080179
Si Si3 0.360095 0.396557 0.124927
Si Si4 0.120219 0.256338 0.742239
Si Si5 0.308259 0.236621 0.348111
Si Si6 0.559046 0.399641 0.509737
O O1 0.500000 0.139937 0.500000
O O2 0.425339 0.106635 0.244117
O O3 0.502211 0.000000 0.249196
O O4 0.500000 0.139528 0.000000
O O5 0.333951 0.162219 0.190034
O O6 0.367472 0.000000 0.032284
O O7 0.394066 0.165937 0.869795
O O8 0.346269 0.500000 0.092488
O O9 0.322783 0.337562 0.273836
O O10 0.413533 0.395902 0.250505
O O11 0.363430 0.335445 0.908340
O O12 0.165414 0.228796 0.585434
O O13 0.078307 0.309933 0.607829
O O14 0.250000 0.225002 0.352372
O O15 0.500000 0.398476 0.500000
O O16 0.573816 0.500000 0.418756
#
# Coordination Sequence:
#
# PCOD9407793 Si02
#       6
#     8   8   8   8   8   8
#     4   9  19  37  62  91 123 161 206 259 319 383
#     4  10  23  42  62  85 119 162 208 260 317 380
#     4   9  19  38  62  88 119 156 197 246 308 379
#     4  10  21  38  58  90 119 158 202 258 308 377
#     4  10  23  42  60  84 117 153 199 260 321 380
#     4   9  18  35  59  89 128 168 204 245 299 368
#
# _framework density 19.753086
#
# number of rings (size 3 to 8) (size 9 to 14) (size 15 to 20)
#    0.000    2.500    0.000    0.500    2.333    5.333 
#    9.000    2.500    0.000    0.500    0.000    0.000 
#    0.000    0.000    0.000    0.000    0.000    0.000 
#
# Total GULP energy -267295.721430 kJ/mol
# GULP energy per Si atom -5568.660863 kJ/mol
# Density = 1.970813 g / cm^3
# Si number density = 19.753086 Si / 1000 Ang^3
#
#
#
# Elastic Constant Matrix: (Units=GPa)
#
#
# Indices 1 2 3 4 5 6 
#
# 1 105.2460 24.5319 16.4025 0.0000 0.0000 0.0000
# 2 24.5319 137.7364 27.2210 0.0000 0.0000 0.0000
# 3 16.4025 27.2210 77.2881 0.0000 0.0000 0.0000
# 4 0.0000 0.0000 0.0000 25.5405 0.0000 0.0000
# 5 0.0000 0.0000 0.0000 0.0000 12.2309 0.0000
# 6 0.0000 0.0000 0.0000 0.0000 0.0000 15.7025
#
#
#
# Elastic Compliance Matrix: (Units=1/GPa)
#
#
# Indices 1 2 3 4 5 6 
#
# 1 0.010099 -0.001478 -0.001623 0.000000 0.000000 0.000000
# 2 -0.001478 0.008020 -0.002511 0.000000 0.000000 0.000000
# 3 -0.001623 -0.002511 0.014167 0.000000 0.000000 0.000000
# 4 0.000000 0.000000 0.000000 0.039154 0.000000 0.000000
# 5 0.000000 0.000000 0.000000 0.000000 0.081760 0.000000
# 6 0.000000 0.000000 0.000000 0.000000 0.000000 0.063684
#
#
# Mechanical properties :
#
#
# Convention : Reuss Voigt Hill
#
# Bulk Modulus (GPa) = 47.47704 50.73125 49.10414
# Shear Modulus (GPa) = 21.26504 27.50246 24.38375
#
# Velocity S-wave (km/s) = 3.28463 3.73542 3.51725
# Velocity P-wave (km/s) = 6.20262 6.65905 6.43488
#
# Compressibility (1/GPa) = 0.02106281
#
# Stress axis : x y z
#
# Youngs Moduli (GPa) = 99.02010 124.69260 70.58501
#
# Poissons Ratio (x) = 0.18430 0.11454
# Poissons Ratio (y) = 0.14635 0.17723
# Poissons Ratio (z) = 0.16068 0.31309
#
# Static dielectric constant tensor:
#      x y z
#    x 1.687820 0.000000 0.000000 
#    y 0.000000 1.694890 0.000000 
#    z 0.000000 0.000000 1.782880 
# 
# From -- ./inp_files/3524.got.cif
#   From: 2010.05.17/outbox.ucp.g08.bks.cvg/sg51_2_cif.got.tgz:3524.got - 2010.06.11 16:27:58.
