data_PCOD9407041
_publ_section_title
;
Structure prediction by ZEFSAII (Michael W. Deem and Ramdas Pophale) SiO2 
 PCOD9407041
Probable space group: P M M A
;
_chemical_formula_sum "Si O2"
_cell_formula_units_Z 44
_cell_length_a 9.302694
_cell_length_b 13.968428
_cell_length_c 16.579833
_cell_angle_alpha 90.000000
_cell_angle_beta 90.000000
_cell_angle_gamma 90.000000
_cell_volume 2154.450007
_symmetry_space_group_name_H-M "P M M A"
_symmetry_group_IT_number 51
_symmetry_cell_setting 'orthorhombic'
loop_
_space_group_symop_operation_xyz
x,y,z
1/2-x,-y,z
1/2+x,-y,-z
-x,y,-z
-x,-y,-z
1/2+x,y,-z
1/2-x,y,z
x,-y,z
loop_
_atom_site_type_symbol
_atom_site_label
_atom_site_fract_x
_atom_site_fract_y
_atom_site_fract_z
Si Si1 0.415037 0.305215 0.361483
Si Si2 0.250000 0.388164 0.047925
Si Si3 0.077265 0.109461 0.633981
Si Si4 0.750000 0.385850 0.134485
Si Si5 0.425529 0.500000 0.587120
Si Si6 0.081439 0.898519 0.195926
Si Si7 0.039096 0.698067 0.173117
O O1 0.250000 0.313357 0.393359
O O2 0.492266 0.206670 0.393393
O O3 0.509979 0.400669 0.376356
O O4 0.401648 0.299515 0.263923
O O5 0.250000 0.500000 0.035633
O O6 0.381924 0.361521 0.104808
O O7 0.250000 0.347709 0.957839
O O8 0.250000 0.123030 0.628305
O O9 0.022395 0.103886 0.726596
O O10 0.045296 0.000000 0.601239
O O11 0.750000 0.500000 0.135174
O O12 0.615314 0.345446 0.180233
O O13 0.250000 0.500000 0.587360
O O14 0.500000 0.500000 0.500000
O O15 0.250000 0.892977 0.221896
O O16 0.046115 0.806912 0.143938
O O17 0.062757 0.000000 0.154198
#
# Coordination Sequence:
#
# PCOD9407041 Si02
#       7
#     8   4   8   4   4   8   8
#     4  11  23  38  63  94 125 167 211 255 306 362
#     4  11  22  40  57  77 111 159 200 253 314 372
#     4   9  17  30  52  87 126 159 202 257 309 356
#     4  11  26  38  53  79 117 157 200 251 318 368
#     4  12  28  48  70  96 133 168 201 247 303 368
#     4   9  17  31  51  77 109 146 191 249 314 366
#     4  11  21  36  59  86 113 154 203 254 298 361
#
# _framework density 20.422846
#
# number of rings (size 3 to 8) (size 9 to 14) (size 15 to 20)
#    0.000    1.636    1.818    4.091    8.909    2.545 
#    0.000    0.000    0.000    3.818    0.000    0.000 
#    0.000    0.000    0.000    0.000    0.000    0.000 
#
# Total GULP energy -244966.935206 kJ/mol
# GULP energy per Si atom -5567.430346 kJ/mol
# Density = 2.037636 g / cm^3
# Si number density = 20.422846 Si / 1000 Ang^3
#
#
#
# Elastic Constant Matrix: (Units=GPa)
#
#
# Indices 1 2 3 4 5 6 
#
# 1 159.6716 72.9537 5.2642 0.0000 0.0000 0.0000
# 2 72.9537 168.7495 19.0413 0.0000 0.0000 0.0000
# 3 5.2642 19.0413 35.7744 0.0000 0.0000 0.0000
# 4 0.0000 0.0000 0.0000 -28.5327 0.0000 0.0000
# 5 0.0000 0.0000 0.0000 0.0000 25.8600 0.0000
# 6 0.0000 0.0000 0.0000 0.0000 0.0000 38.9602
#
#
#
# Elastic Compliance Matrix: (Units=1/GPa)
#
#
# Indices 1 2 3 4 5 6 
#
# 1 0.007820 -0.003459 0.000690 0.000000 0.000000 0.000000
# 2 -0.003459 0.007834 -0.003661 0.000000 0.000000 0.000000
# 3 0.000690 -0.003661 0.029800 0.000000 0.000000 0.000000
# 4 0.000000 0.000000 0.000000 -0.035048 0.000000 0.000000
# 5 0.000000 0.000000 0.000000 0.000000 0.038670 0.000000
# 6 0.000000 0.000000 0.000000 0.000000 0.000000 0.025667
#
#
# Mechanical properties :
#
#
# Convention : Reuss Voigt Hill
#
# Bulk Modulus (GPa) = 30.67894 62.07933 46.37914
# Shear Modulus (GPa) = 50.77769 25.05327 37.91548
#
# Velocity S-wave (km/s) = 4.99171 3.50627 4.31341
# Velocity P-wave (km/s) = 6.94819 6.84506 6.89682
#
# Compressibility (1/GPa) = 0.03259565
#
# Stress axis : x y z
#
# Youngs Moduli (GPa) = 127.87041 127.64308 33.55708
#
# Poissons Ratio (x) = 0.44149 -0.02316
# Poissons Ratio (y) = 0.44228 0.12285
# Poissons Ratio (z) = -0.08826 0.46730
#
# Static dielectric constant tensor:
#      x y z
#    x 1.762840 0.000000 0.000000 
#    y 0.000000 1.809110 0.000000 
#    z 0.000000 0.000000 1.687690 
# 
# From -- ./inp_files/27481.got.cif
#   From: 2010.05.17/outbox.cif.g08.bks.cpg/sg51_14_cif.got.tgz:27481.got - 2010.06.03 11:52:47.
