data_PCOD9407907
_publ_section_title
;
Structure prediction by ZEFSAII (Michael W. Deem and Ramdas Pophale) SiO2 
 PCOD9407907
Probable space group: P N N A
;
_chemical_formula_sum "Si O2"
_cell_formula_units_Z 52
_cell_length_a 6.488722
_cell_length_b 11.759102
_cell_length_c 32.077989
_cell_angle_alpha 90.000000
_cell_angle_beta 90.000000
_cell_angle_gamma 90.000000
_cell_volume 2447.600084
_symmetry_space_group_name_H-M "P N N A"
_symmetry_group_IT_number 52
_symmetry_cell_setting 'orthorhombic'
loop_
_space_group_symop_operation_xyz
x,y,z
1/2-x,-y,z
x,1/2-y,1/2-z
1/2-x,1/2+y,1/2-z
-x,-y,-z
1/2+x,y,-z
-x,1/2+y,1/2+z
1/2+x,1/2-y,1/2+z
loop_
_atom_site_type_symbol
_atom_site_label
_atom_site_fract_x
_atom_site_fract_y
_atom_site_fract_z
Si Si1 0.124191 0.594665 0.505080
Si Si2 0.226522 0.750000 0.250000
Si Si3 0.586557 0.662862 0.584702
Si Si4 0.893445 0.896679 0.292857
Si Si5 0.320977 0.114387 0.370807
Si Si6 0.469471 0.240779 0.825324
Si Si7 0.948045 0.085181 0.099628
O O1 0.373005 0.558456 0.498387
O O2 0.105692 0.677301 0.464956
O O3 0.125445 0.631579 0.554039
O O4 0.373940 0.789564 0.212243
O O5 0.070108 0.850818 0.262377
O O6 0.558182 0.784592 0.605664
O O7 0.442295 0.553629 0.596619
O O8 0.809276 0.617472 0.598537
O O9 0.729955 0.799691 0.305374
O O10 0.026533 0.925968 0.333978
O O11 0.750000 0.000000 0.277999
O O12 0.113859 0.173106 0.352227
O O13 0.250000 0.000000 0.394289
O O14 0.391339 0.142904 0.856627
#
# Coordination Sequence:
#
# PCOD9407907 Si02
#       7
#     8   4   8   8   8   8   8
#     4  10  16  29  52  84 119 165 199 240 310 382
#     4  10  24  42  66  94 124 162 204 276 336 384
#     4   9  17  33  55  87 127 163 206 252 315 375
#     4  11  22  42  66  91 123 170 219 253 324 405
#     4  10  20  37  62  87 120 173 217 260 305 377
#     4  10  21  40  64  93 126 159 213 262 323 388
#     4   9  18  33  56  87 126 162 200 259 318 379
#
# _framework density 21.2453
#
# number of rings (size 3 to 8) (size 9 to 14) (size 15 to 20)
#    0.000    2.154    4.615    0.462    0.000    2.462 
#    0.000   16.923    0.000    5.538    0.000    0.000 
#    0.000    0.000    0.000    0.000    0.000    0.000 
#
# Total GULP energy -289553.081387 kJ/mol
# GULP energy per Si atom -5568.328488 kJ/mol
# Density = 2.119694 g / cm^3
# Si number density = 21.245300 Si / 1000 Ang^3
#
#
#
# Elastic Constant Matrix: (Units=GPa)
#
#
# Indices 1 2 3 4 5 6 
#
# 1 101.9158 22.7336 30.3648 0.0000 0.0000 0.0000
# 2 22.7336 111.9683 71.3585 0.0000 0.0000 0.0000
# 3 30.3648 71.3585 114.6515 0.0000 0.0000 0.0000
# 4 0.0000 0.0000 0.0000 13.0681 0.0000 0.0000
# 5 0.0000 0.0000 0.0000 0.0000 30.1516 0.0000
# 6 0.0000 0.0000 0.0000 0.0000 0.0000 28.0980
#
#
#
# Elastic Compliance Matrix: (Units=1/GPa)
#
#
# Indices 1 2 3 4 5 6 
#
# 1 0.010677 -0.000606 -0.002451 0.000000 0.000000 0.000000
# 2 -0.000606 0.014837 -0.009074 0.000000 0.000000 0.000000
# 3 -0.002451 -0.009074 0.015019 0.000000 0.000000 0.000000
# 4 0.000000 0.000000 0.000000 0.076522 0.000000 0.000000
# 5 0.000000 0.000000 0.000000 0.000000 0.033166 0.000000
# 6 0.000000 0.000000 0.000000 0.000000 0.000000 0.035590
#
#
# Mechanical properties :
#
#
# Convention : Reuss Voigt Hill
#
# Bulk Modulus (GPa) = 61.45616 64.16103 62.80859
# Shear Modulus (GPa) = 23.20228 27.86879 25.53554
#
# Velocity S-wave (km/s) = 3.30830 3.62576 3.47066
# Velocity P-wave (km/s) = 6.60173 6.91331 6.75931
#
# Compressibility (1/GPa) = 0.01627176
#
# Stress axis : x y z
#
# Youngs Moduli (GPa) = 93.65621 67.39851 66.58350
#
# Poissons Ratio (x) = 0.04085 0.16317
# Poissons Ratio (y) = 0.05676 0.60418
# Poissons Ratio (z) = 0.22951 0.61158
#
# Static dielectric constant tensor:
#      x y z
#    x 1.852710 0.000000 0.000000 
#    y 0.000000 1.796790 0.000000 
#    z 0.000000 0.000000 1.735800 
# 
# From -- ./inp_files/41796.got.cif
#   From: 2010.05.17/outbox.cif.g08.bks.cpg/sg52_21_cif.got.tgz:41796.got - 2010.06.03 12:15:38.
