data_PCOD9407298
_publ_section_title
;
Structure prediction by ZEFSAII (Michael W. Deem and Ramdas Pophale) SiO2 
 PCOD9407298
Probable space group: P M M A
;
_chemical_formula_sum "Si O2"
_cell_formula_units_Z 40
_cell_length_a 7.386218
_cell_length_b 9.445770
_cell_length_c 27.225460
_cell_angle_alpha 90.000000
_cell_angle_beta 90.000000
_cell_angle_gamma 90.000000
_cell_volume 1899.479952
_symmetry_space_group_name_H-M "P M M A"
_symmetry_group_IT_number 51
_symmetry_cell_setting 'orthorhombic'
loop_
_space_group_symop_operation_xyz
x,y,z
1/2-x,-y,z
1/2+x,-y,-z
-x,y,-z
-x,-y,-z
1/2+x,y,-z
1/2-x,y,z
x,-y,z
loop_
_atom_site_type_symbol
_atom_site_label
_atom_site_fract_x
_atom_site_fract_y
_atom_site_fract_z
Si Si1 0.971195 0.837097 0.755287
Si Si2 0.971348 0.662530 0.851247
Si Si3 0.465850 0.337725 0.447056
Si Si4 0.470544 0.334450 0.339990
Si Si5 0.033840 0.838619 0.055282
O O1 0.750000 0.836643 0.755045
O O2 0.027389 0.750924 0.803500
O O3 0.031691 0.758540 0.705743
O O4 0.028410 0.000000 0.757121
O O5 0.750000 0.662004 0.851414
O O6 0.029363 0.500000 0.848671
O O7 0.032693 0.739362 0.901072
O O8 0.500000 0.268019 0.500000
O O9 0.250000 0.345885 0.443392
O O10 0.536483 0.500000 0.449808
O O11 0.528512 0.281080 0.394207
O O12 0.250000 0.332178 0.338859
O O13 0.522254 0.500000 0.335063
O O14 0.250000 0.846739 0.061070
O O15 0.963242 0.000000 0.058901
O O16 0.000000 0.786351 0.000000
#
# Coordination Sequence:
#
# PCOD9407298 Si02
#       5
#     8   8   8   8   8
#     4   9  15  22  34  53  77 103 129 160 201 245
#     4   9  16  25  38  57  81 107 134 166 204 242
#     4   8  13  21  34  53  76 101 129 160 193 230
#     4   8  13  21  33  50  73  99 126 158 196 236
#     4   9  17  29  44  62  85 112 140 168 198 235
#
# _framework density 21.058395000000001
#
# number of rings (size 3 to 8) (size 9 to 14) (size 15 to 20)
#    0.000    3.400    0.000    2.400    0.000    5.200 
#    0.000    0.000    0.000    0.600    0.000    1.400 
#    0.000    4.800    0.000    0.000    0.000    0.000 
#
# Total GULP energy -223027.739420 kJ/mol
# GULP energy per Si atom -5575.693486 kJ/mol
# Density = 2.101047 g / cm^3
# Si number density = 21.058395 Si / 1000 Ang^3
#
#
#
# Elastic Constant Matrix: (Units=GPa)
#
#
# Indices 1 2 3 4 5 6 
#
# 1 71.7153 4.4466 4.6042 0.0000 0.0000 0.0000
# 2 4.4466 126.2166 132.6527 0.0000 0.0000 0.0000
# 3 4.6042 132.6527 277.5009 0.0000 0.0000 0.0000
# 4 0.0000 0.0000 0.0000 -59.3181 0.0000 0.0000
# 5 0.0000 0.0000 0.0000 0.0000 12.6349 0.0000
# 6 0.0000 0.0000 0.0000 0.0000 0.0000 -16.0943
#
#
#
# Elastic Compliance Matrix: (Units=1/GPa)
#
#
# Indices 1 2 3 4 5 6 
#
# 1 0.013975 -0.000500 0.000007 0.000000 0.000000 0.000000
# 2 -0.000500 0.015940 -0.007612 0.000000 0.000000 0.000000
# 3 0.000007 -0.007612 0.007242 0.000000 0.000000 0.000000
# 4 0.000000 0.000000 0.000000 -0.016858 0.000000 0.000000
# 5 0.000000 0.000000 0.000000 0.000000 0.079146 0.000000
# 6 0.000000 0.000000 0.000000 0.000000 0.000000 -0.062134
#
#
# Mechanical properties :
#
#
# Convention : Reuss Voigt Hill
#
# Bulk Modulus (GPa) = 47.73659 84.31556 66.02607
# Shear Modulus (GPa) = 82.64270 9.69313 46.16791
#
# Velocity S-wave (km/s) = 6.27134 2.14778 4.68736
# Velocity P-wave (km/s) = 8.66934 6.80268 7.79211
#
# Compressibility (1/GPa) = 0.02094829
#
# Stress axis : x y z
#
# Youngs Moduli (GPa) = 71.55857 62.73475 138.08383
#
# Poissons Ratio (x) = 0.03135 -0.00097
# Poissons Ratio (y) = 0.03576 1.05103
# Poissons Ratio (z) = -0.00050 0.47751
#
# Static dielectric constant tensor:
#      x y z
#    x 1.846520 0.000000 0.000000 
#    y 0.000000 1.705360 0.000000 
#    z 0.000000 0.000000 1.768390 
# 
# From -- ./inp_files/32782.got.cif
#   From: 2010.05.17/outbox.cif.g08.bks.cpg/sg51_17_cif.got.tgz:32782.got - 2010.06.03 11:52:47.
