data_PCOD9407347
_publ_section_title
;
Structure prediction by ZEFSAII (Michael W. Deem and Ramdas Pophale) SiO2 
 PCOD9407347
Probable space group: P M M A
;
_chemical_formula_sum "Si O2"
_cell_formula_units_Z 48
_cell_length_a 9.565133
_cell_length_b 7.384060
_cell_length_c 32.364256
_cell_angle_alpha 90.000000
_cell_angle_beta 90.000000
_cell_angle_gamma 90.000000
_cell_volume 2285.871736
_symmetry_space_group_name_H-M "P M M A"
_symmetry_group_IT_number 51
_symmetry_cell_setting 'orthorhombic'
loop_
_space_group_symop_operation_xyz
x,y,z
1/2-x,-y,z
1/2+x,-y,-z
-x,y,-z
-x,-y,-z
1/2+x,y,-z
1/2-x,y,z
x,-y,z
loop_
_atom_site_type_symbol
_atom_site_label
_atom_site_fract_x
_atom_site_fract_y
_atom_site_fract_z
Si Si1 0.413198 0.279577 0.039203
Si Si2 0.087347 0.220568 0.698946
Si Si3 0.092719 0.783866 0.790523
Si Si4 0.588127 0.779043 0.459880
Si Si5 0.092063 0.283860 0.129672
Si Si6 0.088678 0.778781 0.379826
O O1 0.250000 0.230952 0.035720
O O2 0.419865 0.500000 0.038314
O O3 0.462978 0.220040 0.084882
O O4 0.500000 0.213902 0.000000
O O5 0.250000 0.272723 0.692412
O O6 0.044309 0.279956 0.745165
O O7 0.986140 0.280800 0.662421
O O8 0.085303 0.000000 0.698025
O O9 0.250000 0.714586 0.797376
O O10 0.998282 0.749761 0.829993
O O11 0.101312 0.000000 0.786791
O O12 0.500000 0.722744 0.500000
O O13 0.750000 0.720587 0.460662
O O14 0.505393 0.722954 0.418775
O O15 0.590378 0.000000 0.459984
O O16 0.250000 0.214206 0.135100
O O17 0.101127 0.500000 0.125910
O O18 0.250000 0.721229 0.383015
O O19 0.089703 0.000000 0.379865
#
# Coordination Sequence:
#
# PCOD9407347 Si02
#       6
#     8   8   8   8   8   8
#     4   8  14  25  41  62  87 112 139 173 211 251
#     4   8  14  25  38  51  70  96 126 163 205 244
#     4   9  18  31  46  65  88 114 147 185 221 259
#     4   9  15  21  28  38  55  81 113 151 196 242
#     4   9  18  31  46  67  94 119 144 177 217 261
#     4   9  15  21  30  45  63  84 116 157 197 240
#
# _framework density 20.998553000000001
#
# number of rings (size 3 to 8) (size 9 to 14) (size 15 to 20)
#    0.000    3.333    0.000    3.000    0.000    6.000 
#    0.000    3.333    0.000    0.500    0.000    0.000 
#    0.000    0.000    0.000    0.000    0.000    0.833 
#
# Total GULP energy -267737.163577 kJ/mol
# GULP energy per Si atom -5577.857575 kJ/mol
# Density = 2.095076 g / cm^3
# Si number density = 20.998553 Si / 1000 Ang^3
#
#
#
# Elastic Constant Matrix: (Units=GPa)
#
#
# Indices 1 2 3 4 5 6 
#
# 1 153.5115 3.6194 150.3975 0.0000 0.0000 0.0000
# 2 3.6194 70.1537 6.3718 0.0000 0.0000 0.0000
# 3 150.3975 6.3718 265.7414 0.0000 0.0000 0.0000
# 4 0.0000 0.0000 0.0000 11.7194 0.0000 0.0000
# 5 0.0000 0.0000 0.0000 0.0000 45.9740 0.0000
# 6 0.0000 0.0000 0.0000 0.0000 0.0000 0.1328
#
#
#
# Elastic Compliance Matrix: (Units=1/GPa)
#
#
# Indices 1 2 3 4 5 6 
#
# 1 0.014621 -0.000003 -0.008275 0.000000 0.000000 0.000000
# 2 -0.000003 0.014286 -0.000341 0.000000 0.000000 0.000000
# 3 -0.008275 -0.000341 0.008454 0.000000 0.000000 0.000000
# 4 0.000000 0.000000 0.000000 0.085329 0.000000 0.000000
# 5 0.000000 0.000000 0.000000 0.000000 0.021751 0.000000
# 6 0.000000 0.000000 0.000000 0.000000 0.000000 7.531661
#
#
# Mechanical properties :
#
#
# Convention : Reuss Voigt Hill
#
# Bulk Modulus (GPa) = 49.69195 90.02043 69.85619
# Shear Modulus (GPa) = 0.64935 33.49976 17.07456
#
# Velocity S-wave (km/s) = 0.55669 3.99850 2.85464
# Velocity P-wave (km/s) = 4.91213 8.01750 6.64866
#
# Compressibility (1/GPa) = 0.02012398
#
# Stress axis : x y z
#
# Youngs Moduli (GPa) = 68.39343 70.00092 118.28081
#
# Poissons Ratio (x) = 0.00019 0.97876
# Poissons Ratio (y) = 0.00019 0.04033
# Poissons Ratio (z) = 0.56595 0.02387
#
# Static dielectric constant tensor:
#      x y z
#    x 1.718130 0.000000 0.000000 
#    y 0.000000 1.876140 0.000000 
#    z 0.000000 0.000000 1.749110 
# 
# From -- ./inp_files/36135.got.cif
#   From: 2010.05.17/outbox.cif.g08.bks.cpg/sg51_19_cif.got.tgz:36135.got - 2010.06.03 11:52:47.
