data_PCOD9407579
_publ_section_title
;
Structure prediction by ZEFSAII (Michael W. Deem and Ramdas Pophale) SiO2 
 PCOD9407579
Probable space group: P M M A
;
_chemical_formula_sum "Si O2"
_cell_formula_units_Z 64
_cell_length_a 24.000000
_cell_length_b 9.000000
_cell_length_c 18.000000
_cell_angle_alpha 90.000000
_cell_angle_beta 90.000000
_cell_angle_gamma 90.000000
_cell_volume 3888.000000
_symmetry_space_group_name_H-M "P M M A"
_symmetry_group_IT_number 51
_symmetry_cell_setting 'orthorhombic'
loop_
_space_group_symop_operation_xyz
x,y,z
1/2-x,-y,z
1/2+x,-y,-z
-x,y,-z
-x,-y,-z
1/2+x,y,-z
1/2-x,y,z
x,-y,z
loop_
_atom_site_type_symbol
_atom_site_label
_atom_site_fract_x
_atom_site_fract_y
_atom_site_fract_z
Si Si1 0.630940 0.678897 0.866400
Si Si2 0.815229 0.677641 0.712805
Si Si3 0.817917 0.830134 0.561125
Si Si4 0.604283 0.179482 0.132732
Si Si5 0.813538 0.821512 0.262168
Si Si6 0.312426 0.821278 0.996917
Si Si7 0.992823 0.678681 0.913590
Si Si8 0.182372 0.332469 0.585949
O O1 0.634320 0.500000 0.873177
O O2 0.648924 0.720115 0.783815
O O3 0.673123 0.750756 0.924536
O O4 0.568078 0.724752 0.885794
O O5 0.750000 0.713890 0.726128
O O6 0.818342 0.500000 0.702359
O O7 0.834523 0.757754 0.638485
O O8 0.750000 0.827196 0.559983
O O9 0.837768 0.737621 0.490574
O O10 0.835395 0.000000 0.555398
O O11 0.642020 0.227956 0.201745
O O12 0.543491 0.248750 0.130465
O O13 0.600395 0.000000 0.132837
O O14 0.639734 0.225601 0.060328
O O15 0.750000 0.769605 0.246556
O O16 0.830615 0.766386 0.343071
O O17 0.811984 0.000000 0.260687
O O18 0.250000 0.780218 0.971863
O O19 0.314135 0.000000 0.001654
O O20 0.996565 0.500000 0.908467
O O21 0.000000 0.720540 0.000000
O O22 0.250000 0.335941 0.581819
O O23 0.162651 0.500000 0.595790
#
# Coordination Sequence:
#
# PCOD9407579 Si02
#       8
#     8   8   8   8   8   8   8   8
#     4  10  20  34  50  68  92 125 162 199 242 286
#     4   9  17  29  45  66  93 123 155 192 233 280
#     4   9  16  26  42  65  94 127 158 187 225 275
#     4  10  20  33  50  70  93 124 161 199 241 286
#     4   9  17  30  47  68  97 129 159 194 237 285
#     4  10  20  32  47  69  96 124 155 193 238 287
#     4  10  20  35  52  69  91 121 161 208 247 282
#     4   9  16  26  42  66  96 128 160 191 225 272
#
# _framework density 16.460905
#
# number of rings (size 3 to 8) (size 9 to 14) (size 15 to 20)
#    0.000    2.500    1.250    1.500    0.000    7.000 
#    0.000    1.250    0.000    2.250    0.000    0.875 
#    0.000    7.000    0.000    0.000    0.000    0.000 
#
# Total GULP energy -356668.128309 kJ/mol
# GULP energy per Si atom -5572.939505 kJ/mol
# Density = 1.642344 g / cm^3
# Si number density = 16.460905 Si / 1000 Ang^3
#
#
#
# Elastic Constant Matrix: (Units=GPa)
#
#
# Indices 1 2 3 4 5 6 
#
# 1 49.5613 11.1796 16.4398 0.0000 0.0000 0.0000
# 2 11.1796 -0.2361 13.0036 0.0000 0.0000 0.0000
# 3 16.4398 13.0036 71.9812 0.0000 0.0000 0.0000
# 4 0.0000 0.0000 0.0000 27.1145 0.0000 0.0000
# 5 0.0000 0.0000 0.0000 0.0000 -5.8014 0.0000
# 6 0.0000 0.0000 0.0000 0.0000 0.0000 13.2694
#
#
#
# Elastic Compliance Matrix: (Units=1/GPa)
#
#
# Indices 1 2 3 4 5 6 
#
# 1 0.013912 0.044181 -0.011159 0.000000 0.000000 0.000000
# 2 0.044181 -0.246511 0.034442 0.000000 0.000000 0.000000
# 3 -0.011159 0.034442 0.010219 0.000000 0.000000 0.000000
# 4 0.000000 0.000000 0.000000 0.036881 0.000000 0.000000
# 5 0.000000 0.000000 0.000000 0.000000 -0.172371 0.000000
# 6 0.000000 0.000000 0.000000 0.000000 0.000000 0.075361
#
#
# Mechanical properties :
#
#
# Convention : Reuss Voigt Hill
#
# Bulk Modulus (GPa) = -11.43508 22.50581 5.53536
# Shear Modulus (GPa) = -11.19601 12.29540 0.54969
#
# Velocity S-wave (km/s) = -2.61081 2.73599 0.57850
# Velocity P-wave (km/s) = 4.00629 4.86650 1.95352
#
# Compressibility (1/GPa) = -0.08745018
#
# Stress axis : x y z
#
# Youngs Moduli (GPa) = 71.87807 -4.05662 97.85651
#
# Poissons Ratio (x) = 0.17923 1.09197
# Poissons Ratio (y) = -3.17567 -3.37039
# Poissons Ratio (z) = 0.80208 0.13972
#
# Static dielectric constant tensor:
#      x y z
#    x 1.538980 0.000000 0.000000 
#    y 0.000000 1.556320 0.000000 
#    z 0.000000 0.000000 1.548880 
# 
# From -- ./inp_files/30811.got.cif
#   From: 2010.05.17/outbox.ucp.g08.bks.cvg/sg51_16_cif.got.tgz:30811.got - 2010.06.11 16:27:58.
