data_PCOD9407537
_publ_section_title
;
Structure prediction by ZEFSAII (Michael W. Deem and Ramdas Pophale) SiO2 
 PCOD9407537
Probable space group: P M M A
;
_chemical_formula_sum "Si O2"
_cell_formula_units_Z 44
_cell_length_a 9.000000
_cell_length_b 30.000000
_cell_length_c 9.000000
_cell_angle_alpha 90.000000
_cell_angle_beta 90.000000
_cell_angle_gamma 90.000000
_cell_volume 2430.000000
_symmetry_space_group_name_H-M "P M M A"
_symmetry_group_IT_number 51
_symmetry_cell_setting 'orthorhombic'
loop_
_space_group_symop_operation_xyz
x,y,z
1/2-x,-y,z
1/2+x,-y,-z
-x,y,-z
-x,-y,-z
1/2+x,y,-z
1/2-x,y,z
x,-y,z
loop_
_atom_site_type_symbol
_atom_site_label
_atom_site_fract_x
_atom_site_fract_y
_atom_site_fract_z
Si Si1 0.928500 0.822021 0.165313
Si Si2 0.928766 0.089320 0.836365
Si Si3 0.572113 0.000000 0.659951
Si Si4 0.429466 0.636662 0.660167
Si Si5 0.428217 0.724297 0.838041
Si Si6 0.928682 0.450964 0.162080
O O1 0.750000 0.827543 0.156131
O O2 0.961993 0.773082 0.230859
O O3 0.003209 0.865696 0.235001
O O4 0.000000 0.820218 0.000000
O O5 0.750000 0.093062 0.847140
O O6 0.968872 0.044817 0.747808
O O7 0.000000 0.085509 0.000000
O O8 0.500000 0.000000 0.500000
O O9 0.750000 0.000000 0.646193
O O10 0.500000 0.636919 0.500000
O O11 0.250000 0.636694 0.651693
O O12 0.476174 0.681485 0.745477
O O13 0.476517 0.591596 0.743913
O O14 0.250000 0.722515 0.854902
O O15 0.500000 0.721929 0.000000
O O16 0.750000 0.449152 0.148062
O O17 0.967236 0.500000 0.225576
O O18 0.000000 0.448145 0.000000
#
# Coordination Sequence:
#
# PCOD9407537 Si02
#       6
#     8   8   4   8   8   8
#     4   9  16  28  48  74 100 126 158 200 246 288
#     4  10  19  33  53  78 102 127 162 202 243 290
#     4  10  23  38  52  72 100 132 167 202 240 290
#     4  10  21  35  49  70 101 134 167 203 243 290
#     4   9  18  32  51  74  99 127 163 204 244 289
#     4   9  18  33  53  76 100 126 161 205 249 294
#
# _framework density 18.106995999999999
#
# number of rings (size 3 to 8) (size 9 to 14) (size 15 to 20)
#    0.000    2.545    0.000    3.000    0.000    4.000 
#    0.000    0.909    0.000    4.364    0.000    0.000 
#    0.000    0.000    0.000    0.000    0.000    0.000 
#
# Total GULP energy -245184.625882 kJ/mol
# GULP energy per Si atom -5572.377861 kJ/mol
# Density = 1.806578 g / cm^3
# Si number density = 18.106996 Si / 1000 Ang^3
#
#
#
# Elastic Constant Matrix: (Units=GPa)
#
#
# Indices 1 2 3 4 5 6 
#
# 1 27.8410 51.3465 20.7708 0.0000 0.0000 0.0000
# 2 51.3465 240.4806 89.2776 0.0000 0.0000 0.0000
# 3 20.7708 89.2776 68.6972 0.0000 0.0000 0.0000
# 4 0.0000 0.0000 0.0000 -26.7281 0.0000 0.0000
# 5 0.0000 0.0000 0.0000 0.0000 26.2769 0.0000
# 6 0.0000 0.0000 0.0000 0.0000 0.0000 14.6149
#
#
#
# Elastic Compliance Matrix: (Units=1/GPa)
#
#
# Indices 1 2 3 4 5 6 
#
# 1 0.059539 -0.011650 -0.002861 0.000000 0.000000 0.000000
# 2 -0.011650 0.010315 -0.009882 0.000000 0.000000 0.000000
# 3 -0.002861 -0.009882 0.028264 0.000000 0.000000 0.000000
# 4 0.000000 0.000000 0.000000 -0.037414 0.000000 0.000000
# 5 0.000000 0.000000 0.000000 0.000000 0.038056 0.000000
# 6 0.000000 0.000000 0.000000 0.000000 0.000000 0.068423
#
#
# Mechanical properties :
#
#
# Convention : Reuss Voigt Hill
#
# Bulk Modulus (GPa) = 20.27131 73.31206 46.79169
# Shear Modulus (GPa) = 21.51322 14.54100 18.02711
#
# Velocity S-wave (km/s) = 3.45065 2.83691 3.15872
# Velocity P-wave (km/s) = 5.20534 7.16288 6.26109
#
# Compressibility (1/GPa) = 0.04933080
#
# Stress axis : x y z
#
# Youngs Moduli (GPa) = 16.79561 96.94994 35.38019
#
# Poissons Ratio (x) = 1.12951 0.10123
# Poissons Ratio (y) = 0.19568 0.34963
# Poissons Ratio (z) = 0.04806 0.95807
#
# Static dielectric constant tensor:
#      x y z
#    x 1.594220 0.000000 0.000000 
#    y 0.000000 1.689850 0.000000 
#    z 0.000000 0.000000 1.573830 
# 
# From -- ./inp_files/5707.got.cif
#   From: 2010.05.17/outbox.ucp.g08.bks.cvg/sg51_3_cif.got.tgz:5707.got - 2010.06.11 16:27:58.
