data_PCOD9407862
_publ_section_title
;
Structure prediction by ZEFSAII (Michael W. Deem and Ramdas Pophale) SiO2 
 PCOD9407862
Probable space group: P N N A
;
_chemical_formula_sum "Si O2"
_cell_formula_units_Z 40
_cell_length_a 8.137693
_cell_length_b 7.037130
_cell_length_c 28.107624
_cell_angle_alpha 90.000000
_cell_angle_beta 90.000000
_cell_angle_gamma 90.000000
_cell_volume 1609.611296
_symmetry_space_group_name_H-M "P N N A"
_symmetry_group_IT_number 52
_symmetry_cell_setting 'orthorhombic'
loop_
_space_group_symop_operation_xyz
x,y,z
1/2-x,-y,z
x,1/2-y,1/2-z
1/2-x,1/2+y,1/2-z
-x,-y,-z
1/2+x,y,-z
-x,1/2+y,1/2+z
1/2+x,1/2-y,1/2+z
loop_
_atom_site_type_symbol
_atom_site_label
_atom_site_fract_x
_atom_site_fract_y
_atom_site_fract_z
Si Si1 0.680868 0.286442 0.969899
Si Si2 0.234690 0.768170 0.365693
Si Si3 0.935085 0.791945 0.302133
Si Si4 0.187430 0.787715 0.563840
Si Si5 0.089081 0.738524 0.831552
O O1 0.750000 0.500000 0.974835
O O2 0.760848 0.208472 0.921242
O O3 0.490519 0.297787 0.959352
O O4 0.701802 0.199263 0.022403
O O5 0.396421 0.704009 0.335788
O O6 0.064078 0.715759 0.340989
O O7 0.250000 0.000000 0.367322
O O8 0.005630 0.750000 0.250000
O O9 0.751120 0.705684 0.301893
O O10 0.924753 0.014942 0.316385
O O11 0.157309 0.710178 0.615968
O O12 0.250000 0.000000 0.574205
#
# Coordination Sequence:
#
# PCOD9407862 Si02
#       5
#     8   8   8   8   8
#     4   9  16  19  33  54  74 105 136 153 185 235
#     4   8  16  28  38  56  80 104 139 172 196 240
#     4  10  18  28  44  56  75 115 145 174 209 233
#     4  10  15  22  35  54  80 110 134 158 184 238
#     4   9  18  30  41  58  87 105 143 177 200 240
#
# _framework density 24.850719999999999
#
# number of rings (size 3 to 8) (size 9 to 14) (size 15 to 20)
#    0.000    2.800    2.000    3.600    2.800    0.800 
#    0.000    0.000    0.000    0.000    0.000    0.000 
#    0.000    0.000    0.000    7.200   12.800    7.000 
#
# Total GULP energy -222886.774251 kJ/mol
# GULP energy per Si atom -5572.169356 kJ/mol
# Density = 2.479416 g / cm^3
# Si number density = 24.850720 Si / 1000 Ang^3
#
#
#
# Elastic Constant Matrix: (Units=GPa)
#
#
# Indices 1 2 3 4 5 6 
#
# 1 95.8787 -11.2430 43.3820 0.0000 0.0000 0.0000
# 2 -11.2430 115.0219 -10.8278 0.0000 0.0000 0.0000
# 3 43.3820 -10.8278 111.7170 0.0000 0.0000 0.0000
# 4 0.0000 0.0000 0.0000 -60.5690 0.0000 0.0000
# 5 0.0000 0.0000 0.0000 0.0000 46.6043 0.0000
# 6 0.0000 0.0000 0.0000 0.0000 0.0000 -22.7777
#
#
#
# Elastic Compliance Matrix: (Units=1/GPa)
#
#
# Indices 1 2 3 4 5 6 
#
# 1 0.012723 0.000786 -0.004864 0.000000 0.000000 0.000000
# 2 0.000786 0.008823 0.000550 0.000000 0.000000 0.000000
# 3 -0.004864 0.000550 0.010893 0.000000 0.000000 0.000000
# 4 0.000000 0.000000 0.000000 -0.016510 0.000000 0.000000
# 5 0.000000 0.000000 0.000000 0.000000 0.021457 0.000000
# 6 0.000000 0.000000 0.000000 0.000000 0.000000 -0.043903
#
#
# Mechanical properties :
#
#
# Convention : Reuss Voigt Hill
#
# Bulk Modulus (GPa) = 39.39874 40.58222 39.99048
# Shear Modulus (GPa) = 555.45483 12.73860 284.09672
#
# Velocity S-wave (km/s) = 14.96669 2.26653 10.70371
# Velocity P-wave (km/s) = 17.73577 4.81824 12.99564
#
# Compressibility (1/GPa) = 0.02538152
#
# Stress axis : x y z
#
# Youngs Moduli (GPa) = 78.59790 113.34568 91.79822
#
# Poissons Ratio (x) = -0.08906 0.44655
# Poissons Ratio (y) = -0.06175 -0.05049
# Poissons Ratio (z) = 0.38234 -0.06234
#
# Static dielectric constant tensor:
#      x y z
#    x 1.940330 0.000000 0.000000 
#    y 0.000000 2.202580 0.000000 
#    z 0.000000 0.000000 2.013150 
# 
# From -- ./inp_files/35842.got.cif
#   From: 2010.05.17/outbox.cif.g08.bks.cpg/sg52_18_cif.got.tgz:35842.got - 2010.06.03 12:15:38.
