data_PCOD9407618
_publ_section_title
;
Structure prediction by ZEFSAII (Michael W. Deem and Ramdas Pophale) SiO2 
 PCOD9407618
Probable space group: P M M A
;
_chemical_formula_sum "Si O2"
_cell_formula_units_Z 64
_cell_length_a 9.000000
_cell_length_b 24.000000
_cell_length_c 15.000000
_cell_angle_alpha 90.000000
_cell_angle_beta 90.000000
_cell_angle_gamma 90.000000
_cell_volume 3240.000000
_symmetry_space_group_name_H-M "P M M A"
_symmetry_group_IT_number 51
_symmetry_cell_setting 'orthorhombic'
loop_
_space_group_symop_operation_xyz
x,y,z
1/2-x,-y,z
1/2+x,-y,-z
-x,y,-z
-x,-y,-z
1/2+x,y,-z
1/2-x,y,z
x,-y,z
loop_
_atom_site_type_symbol
_atom_site_label
_atom_site_fract_x
_atom_site_fract_y
_atom_site_fract_z
Si Si1 0.574839 0.647044 0.584143
Si Si2 0.413051 0.933512 0.414755
Si Si3 0.072372 0.742329 0.677828
Si Si4 0.574166 0.171417 0.083079
Si Si5 0.919264 0.561752 0.743147
Si Si6 0.424657 0.402046 0.914221
Si Si7 0.572825 0.713804 0.864145
Si Si8 0.576807 0.133109 0.280570
O O1 0.500000 0.618136 0.500000
O O2 0.750000 0.656733 0.572615
O O3 0.485032 0.704133 0.599017
O O4 0.553600 0.608001 0.669503
O O5 0.500000 0.911830 0.500000
O O6 0.250000 0.909741 0.417780
O O7 0.487962 0.915952 0.324161
O O8 0.407709 0.000000 0.421187
O O9 0.250000 0.736613 0.692559
O O10 0.039322 0.807877 0.672844
O O11 0.982070 0.719677 0.762735
O O12 0.750000 0.180241 0.071511
O O13 0.490871 0.230319 0.092372
O O14 0.550541 0.140841 0.176275
O O15 0.500000 0.141156 0.000000
O O16 0.750000 0.570267 0.777938
O O17 0.926294 0.500000 0.703886
O O18 0.031997 0.567108 0.823975
O O19 0.250000 0.397356 0.925950
O O20 0.497760 0.341037 0.903051
O O21 0.500000 0.429126 0.000000
O O22 0.750000 0.710954 0.870773
O O23 0.750000 0.123309 0.294932
#
# Coordination Sequence:
#
# PCOD9407618 Si02
#       8
#     8   8   8   8   8   8   8   8
#     4  11  23  39  62  88 116 151 189 232 286 344
#     4  10  21  37  59  86 115 150 194 243 293 343
#     4  10  20  36  57  84 118 152 189 233 282 340
#     4  10  20  34  52  80 117 156 197 239 284 335
#     4  10  23  44  65  85 112 145 186 238 289 343
#     4  12  24  38  59  85 114 148 188 232 282 341
#     4  11  20  33  54  81 114 151 189 230 281 336
#     4   9  20  36  56  84 118 155 193 236 287 339
#
# _framework density 19.753086
#
# number of rings (size 3 to 8) (size 9 to 14) (size 15 to 20)
#    0.000    1.625    1.250    4.875    0.000    5.500 
#    0.000    0.000    0.000    0.375    0.000    0.000 
#    0.000    0.000    0.000    0.000    0.000    0.000 
#
# Total GULP energy -357111.785277 kJ/mol
# GULP energy per Si atom -5579.871645 kJ/mol
# Density = 1.970813 g / cm^3
# Si number density = 19.753086 Si / 1000 Ang^3
#
#
#
# Elastic Constant Matrix: (Units=GPa)
#
#
# Indices 1 2 3 4 5 6 
#
# 1 66.3938 30.6322 76.0839 0.0000 0.0000 0.0000
# 2 30.6322 -2.0360 17.4839 0.0000 0.0000 0.0000
# 3 76.0839 17.4839 57.5461 0.0000 0.0000 0.0000
# 4 0.0000 0.0000 0.0000 34.3602 0.0000 0.0000
# 5 0.0000 0.0000 0.0000 0.0000 27.6089 0.0000
# 6 0.0000 0.0000 0.0000 0.0000 0.0000 0.6173
#
#
#
# Elastic Compliance Matrix: (Units=1/GPa)
#
#
# Indices 1 2 3 4 5 6 
#
# 1 -0.037719 -0.038581 0.061592 0.000000 0.000000 0.000000
# 2 -0.038581 -0.175555 0.104348 0.000000 0.000000 0.000000
# 3 0.061592 0.104348 -0.095759 0.000000 0.000000 0.000000
# 4 0.000000 0.000000 0.000000 0.029103 0.000000 0.000000
# 5 0.000000 0.000000 0.000000 0.000000 0.036220 0.000000
# 6 0.000000 0.000000 0.000000 0.000000 0.000000 1.619974
#
#
# Mechanical properties :
#
#
# Convention : Reuss Voigt Hill
#
# Bulk Modulus (GPa) = -18.41065 41.14487 11.36711
# Shear Modulus (GPa) = 4.53127 12.36420 8.44774
#
# Velocity S-wave (km/s) = 1.51622 2.50459 2.07025
# Velocity P-wave (km/s) = 2.50507 5.40729 3.38846
#
# Compressibility (1/GPa) = -0.05431638
#
# Stress axis : x y z
#
# Youngs Moduli (GPa) = -26.51176 -5.69622 -10.44287
#
# Poissons Ratio (x) = -0.21977 0.64320
# Poissons Ratio (y) = -1.02286 1.08969
# Poissons Ratio (z) = 1.63291 0.59439
#
# Static dielectric constant tensor:
#      x y z
#    x 1.664180 0.000000 0.000000 
#    y 0.000000 1.686600 0.000000 
#    z 0.000000 0.000000 1.689100 
# 
# From -- ./inp_files/22214.got.cif
#   From: 2010.05.17/outbox.ucp.g08.bks.cvg/sg51_12_cif.got.tgz:22214.got - 2010.06.11 16:27:58.
