data_PCOD9407679
_publ_section_title
;
Structure prediction by ZEFSAII (Michael W. Deem and Ramdas Pophale) SiO2 
 PCOD9407679
Probable space group: P M M A
;
_chemical_formula_sum "Si O2"
_cell_formula_units_Z 48
_cell_length_a 9.000000
_cell_length_b 9.000000
_cell_length_c 30.000000
_cell_angle_alpha 90.000000
_cell_angle_beta 90.000000
_cell_angle_gamma 90.000000
_cell_volume 2430.000000
_symmetry_space_group_name_H-M "P M M A"
_symmetry_group_IT_number 51
_symmetry_cell_setting 'orthorhombic'
loop_
_space_group_symop_operation_xyz
x,y,z
1/2-x,-y,z
1/2+x,-y,-z
-x,y,-z
-x,-y,-z
1/2+x,y,-z
1/2-x,y,z
x,-y,z
loop_
_atom_site_type_symbol
_atom_site_label
_atom_site_fract_x
_atom_site_fract_y
_atom_site_fract_z
Si Si1 0.082007 0.181097 0.043649
Si Si2 0.925302 0.334084 0.620212
Si Si3 0.430757 0.335296 0.779751
Si Si4 0.928394 0.835596 0.304688
Si Si5 0.928653 0.828873 0.134498
Si Si6 0.916900 0.177572 0.456887
O O1 0.250000 0.233397 0.046094
O O2 0.990946 0.217897 0.087313
O O3 0.085154 0.000000 0.041374
O O4 0.000000 0.236197 0.000000
O O5 0.750000 0.322870 0.625232
O O6 0.963269 0.500000 0.605191
O O7 0.005160 0.293175 0.665560
O O8 0.986116 0.218001 0.585091
O O9 0.250000 0.340346 0.779786
O O10 0.483309 0.500000 0.767540
O O11 0.469875 0.206796 0.745231
O O12 0.481204 0.283040 0.827813
O O13 0.750000 0.835053 0.309127
O O14 0.981373 0.000000 0.317494
O O15 0.750000 0.827988 0.133674
O O16 0.974020 0.000000 0.143803
O O17 0.750000 0.235943 0.452522
O O18 0.000000 0.238180 0.500000
O O19 0.907656 0.000000 0.460912
#
# Coordination Sequence:
#
# PCOD9407679 Si02
#       6
#     8   8   8   8   8   8
#     4   9  16  26  42  66  95 125 158 199 247 296
#     4  11  24  39  55  79 112 148 184 222 267 318
#     4   9  17  30  50  75 102 133 169 209 254 305
#     4  10  20  35  57  83 108 137 177 222 266 314
#     4   9  16  27  45  69  96 126 162 204 248 296
#     4  10  21  38  61  87 113 144 183 225 269 317
#
# _framework density 19.753086
#
# number of rings (size 3 to 8) (size 9 to 14) (size 15 to 20)
#    0.000    2.333    0.000    3.000    0.000    9.667 
#    0.000    0.833    0.000    4.000    0.000    0.000 
#    0.000    0.000    0.000    0.000    0.000    0.000 
#
# Total GULP energy -267429.411601 kJ/mol
# GULP energy per Si atom -5571.446075 kJ/mol
# Density = 1.970813 g / cm^3
# Si number density = 19.753086 Si / 1000 Ang^3
#
#
#
# Elastic Constant Matrix: (Units=GPa)
#
#
# Indices 1 2 3 4 5 6 
#
# 1 13.1727 25.6058 15.8961 0.0000 0.0000 0.0000
# 2 25.6058 21.7122 6.7540 0.0000 0.0000 0.0000
# 3 15.8961 6.7540 70.0858 0.0000 0.0000 0.0000
# 4 0.0000 0.0000 0.0000 56.0603 0.0000 0.0000
# 5 0.0000 0.0000 0.0000 0.0000 12.2890 0.0000
# 6 0.0000 0.0000 0.0000 0.0000 0.0000 17.9493
#
#
#
# Elastic Compliance Matrix: (Units=1/GPa)
#
#
# Indices 1 2 3 4 5 6 
#
# 1 -0.055710 0.063678 0.006499 0.000000 0.000000 0.000000
# 2 0.063678 -0.025307 -0.012004 0.000000 0.000000 0.000000
# 3 0.006499 -0.012004 0.013951 0.000000 0.000000 0.000000
# 4 0.000000 0.000000 0.000000 0.017838 0.000000 0.000000
# 5 0.000000 0.000000 0.000000 0.000000 0.081374 0.000000
# 6 0.000000 0.000000 0.000000 0.000000 0.000000 0.055712
#
#
# Mechanical properties :
#
#
# Convention : Reuss Voigt Hill
#
# Bulk Modulus (GPa) = 20.29173 22.38695 21.33934
# Shear Modulus (GPa) = -414.56306 21.04071 -196.76118
#
# Velocity S-wave (km/s) = -14.50270 3.26726 -9.99133
# Velocity P-wave (km/s) = 16.43601 5.05878 11.05783
#
# Compressibility (1/GPa) = 0.04928116
#
# Stress axis : x y z
#
# Youngs Moduli (GPa) = -17.95019 -39.51525 71.67930
#
# Poissons Ratio (x) = 2.51627 -0.46584
# Poissons Ratio (y) = 1.14304 0.86044
# Poissons Ratio (z) = 0.11666 -0.47434
#
# Static dielectric constant tensor:
#      x y z
#    x 1.682200 0.000000 0.000000 
#    y 0.000000 1.727020 0.000000 
#    z 0.000000 0.000000 1.693150 
# 
# From -- ./inp_files/37007.got.cif
#   From: 2010.05.17/outbox.ucp.g08.bks.cvg/sg51_19_cif.got.tgz:37007.got - 2010.06.11 16:27:58.
