data_PCOD9407018
_publ_section_title
;
Structure prediction by ZEFSAII (Michael W. Deem and Ramdas Pophale) SiO2 
 PCOD9407018
Probable space group: P M M A
;
_chemical_formula_sum "Si O2"
_cell_formula_units_Z 48
_cell_length_a 17.976458
_cell_length_b 15.893349
_cell_length_c 8.842456
_cell_angle_alpha 90.000000
_cell_angle_beta 90.000000
_cell_angle_gamma 90.000000
_cell_volume 2526.343802
_symmetry_space_group_name_H-M "P M M A"
_symmetry_group_IT_number 51
_symmetry_cell_setting 'orthorhombic'
loop_
_space_group_symop_operation_xyz
x,y,z
1/2-x,-y,z
1/2+x,-y,-z
-x,y,-z
-x,-y,-z
1/2+x,y,-z
1/2-x,y,z
x,-y,z
loop_
_atom_site_type_symbol
_atom_site_label
_atom_site_fract_x
_atom_site_fract_y
_atom_site_fract_z
Si Si1 0.660881 0.098437 0.688348
Si Si2 0.101679 0.500000 0.851351
Si Si3 0.061285 0.341575 0.378867
Si Si4 0.838665 0.683714 0.135023
Si Si5 0.662152 0.219494 0.431811
Si Si6 0.064400 0.774627 0.111929
Si Si7 0.075905 0.500000 0.202005
O O1 0.750000 0.110049 0.713462
O O2 0.643541 0.132385 0.517905
O O3 0.614073 0.154105 0.807310
O O4 0.644216 0.000000 0.701948
O O5 0.136837 0.590419 0.806593
O O6 0.014600 0.500000 0.808081
O O7 0.105895 0.500000 0.033499
O O8 0.121177 0.287978 0.467562
O O9 0.029186 0.281486 0.246872
O O10 0.097850 0.419073 0.295500
O O11 0.000000 0.368807 0.500000
O O12 0.750000 0.681446 0.107080
O O13 0.854621 0.756622 0.259317
O O14 0.884013 0.711756 0.986803
O O15 0.750000 0.229418 0.445461
O O16 0.000000 0.806324 0.000000
#
# Coordination Sequence:
#
# PCOD9407018 Si02
#       7
#     8   4   8   8   8   8   4
#     4   9  19  38  61  84 113 148 186 232 288 346
#     4  11  21  36  53  79 117 149 189 234 280 324
#     4  11  21  35  55  80 110 150 194 235 281 332
#     4  11  22  38  58  82 114 153 193 234 281 332
#     4   9  20  37  57  80 108 145 188 234 284 340
#     4  11  21  35  58  85 116 149 188 235 282 341
#     4  11  21  34  53  79 111 149 192 238 276 327
#
# _framework density 18.999789
#
# number of rings (size 3 to 8) (size 9 to 14) (size 15 to 20)
#    0.000    1.667    1.667    4.000    0.000    1.667 
#    0.000    2.083    0.000   20.000    0.000    0.000 
#    0.000    0.000    0.000    0.000    0.000    0.000 
#
# Total GULP energy -267704.541171 kJ/mol
# GULP energy per Si atom -5577.177941 kJ/mol
# Density = 1.895654 g / cm^3
# Si number density = 18.999789 Si / 1000 Ang^3
#
#
#
# Elastic Constant Matrix: (Units=GPa)
#
#
# Indices 1 2 3 4 5 6 
#
# 1 31.0152 6.1600 9.0337 0.0000 0.0000 0.0000
# 2 6.1600 51.5595 -8.7335 0.0000 0.0000 0.0000
# 3 9.0337 -8.7335 64.8121 0.0000 0.0000 0.0000
# 4 0.0000 0.0000 0.0000 24.8539 0.0000 0.0000
# 5 0.0000 0.0000 0.0000 0.0000 26.5801 0.0000
# 6 0.0000 0.0000 0.0000 0.0000 0.0000 6.0710
#
#
#
# Elastic Compliance Matrix: (Units=1/GPa)
#
#
# Indices 1 2 3 4 5 6 
#
# 1 0.034873 -0.005106 -0.005549 0.000000 0.000000 0.000000
# 2 -0.005106 0.020596 0.003487 0.000000 0.000000 0.000000
# 3 -0.005549 0.003487 0.016673 0.000000 0.000000 0.000000
# 4 0.000000 0.000000 0.000000 0.040235 0.000000 0.000000
# 5 0.000000 0.000000 0.000000 0.000000 0.037622 0.000000
# 6 0.000000 0.000000 0.000000 0.000000 0.000000 0.164717
#
#
# Mechanical properties :
#
#
# Convention : Reuss Voigt Hill
#
# Bulk Modulus (GPa) = 17.29953 17.81190 17.55571
# Shear Modulus (GPa) = 14.35464 20.89611 17.62538
#
# Velocity S-wave (km/s) = 2.75165 3.31993 3.04906
# Velocity P-wave (km/s) = 4.38410 4.90827 4.65357
#
# Compressibility (1/GPa) = 0.05780505
#
# Stress axis : x y z
#
# Youngs Moduli (GPa) = 28.67579 48.55362 59.97898
#
# Poissons Ratio (x) = 0.24793 0.33281
# Poissons Ratio (y) = 0.14643 -0.20915
# Poissons Ratio (z) = 0.15911 -0.16931
#
# Static dielectric constant tensor:
#      x y z
#    x 1.657370 0.000000 0.000000 
#    y 0.000000 1.657400 0.000000 
#    z 0.000000 0.000000 1.689030 
# 
# From -- ./inp_files/9676.got.cif
#   From: 2010.05.17/outbox.cif.g08.bks.cpg/sg51_5_cif.got.tgz:9676.got - 2010.06.03 11:52:47.
