data_PCOD9407097
_publ_section_title
;
Structure prediction by ZEFSAII (Michael W. Deem and Ramdas Pophale) SiO2 
 PCOD9407097
Probable space group: P M M A
;
_chemical_formula_sum "Si O2"
_cell_formula_units_Z 56
_cell_length_a 8.496381
_cell_length_b 20.327377
_cell_length_c 16.243518
_cell_angle_alpha 90.000000
_cell_angle_beta 90.000000
_cell_angle_gamma 90.000000
_cell_volume 2805.404020
_symmetry_space_group_name_H-M "P M M A"
_symmetry_group_IT_number 51
_symmetry_cell_setting 'orthorhombic'
loop_
_space_group_symop_operation_xyz
x,y,z
1/2-x,-y,z
1/2+x,-y,-z
-x,y,-z
-x,-y,-z
1/2+x,y,-z
1/2-x,y,z
x,-y,z
loop_
_atom_site_type_symbol
_atom_site_label
_atom_site_fract_x
_atom_site_fract_y
_atom_site_fract_z
Si Si1 0.574622 0.921629 0.918317
Si Si2 0.938061 0.712537 0.090208
Si Si3 0.438374 0.574016 0.349900
Si Si4 0.560307 0.574513 0.844794
Si Si5 0.065855 0.072254 0.744628
Si Si6 0.435046 0.295906 0.586101
Si Si7 0.443439 0.215138 0.742492
O O1 0.750000 0.896040 0.899703
O O2 0.456433 0.918128 0.842501
O O3 0.592684 0.000000 0.932271
O O4 0.500000 0.891919 0.000000
O O5 0.750000 0.716296 0.089107
O O6 0.994027 0.757774 0.167686
O O7 0.987526 0.636885 0.109083
O O8 0.000000 0.731239 0.000000
O O9 0.250000 0.582282 0.357198
O O10 0.479412 0.500000 0.374079
O O11 0.477338 0.581334 0.252619
O O12 0.524369 0.627877 0.403346
O O13 0.750000 0.577448 0.852945
O O14 0.511111 0.500000 0.870339
O O15 0.250000 0.069411 0.723852
O O16 0.001055 0.142134 0.715734
O O17 0.996083 0.000000 0.723822
O O18 0.500000 0.270132 0.500000
O O19 0.250000 0.286108 0.585427
O O20 0.497351 0.262750 0.669634
O O21 0.250000 0.213797 0.744996
#
# Coordination Sequence:
#
# PCOD9407097 Si02
#       7
#     8   8   8   8   8   8   8
#     4   9  16  26  41  65  98 132 167 209 255 307
#     4  11  22  37  55  78 109 148 191 234 276 324
#     4   9  18  34  57  85 116 147 182 227 276 326
#     4   9  18  34  56  81 110 144 185 233 278 321
#     4   9  17  32  55  78 100 132 173 218 271 329
#     4  11  22  38  59  84 113 147 186 228 272 328
#     4   9  20  38  57  80 112 143 179 227 276 329
#
# _framework density 19.961473999999999
#
# number of rings (size 3 to 8) (size 9 to 14) (size 15 to 20)
#    0.000    2.429    1.429    2.143    0.000    3.429 
#    0.000    5.714    0.000    0.429    0.000    0.000 
#    0.000    0.000    0.000    0.000    0.000    0.143 
#
# Total GULP energy -312112.562761 kJ/mol
# GULP energy per Si atom -5573.438621 kJ/mol
# Density = 1.991604 g / cm^3
# Si number density = 19.961474 Si / 1000 Ang^3
#
#
#
# Elastic Constant Matrix: (Units=GPa)
#
#
# Indices 1 2 3 4 5 6 
#
# 1 15.0029 14.5386 16.0403 0.0000 0.0000 0.0000
# 2 14.5386 110.7832 41.3408 0.0000 0.0000 0.0000
# 3 16.0403 41.3408 87.4967 0.0000 0.0000 0.0000
# 4 0.0000 0.0000 0.0000 429.4331 0.0000 0.0000
# 5 0.0000 0.0000 0.0000 0.0000 20.1448 0.0000
# 6 0.0000 0.0000 0.0000 0.0000 0.0000 6.3746
#
#
#
# Elastic Compliance Matrix: (Units=1/GPa)
#
#
# Indices 1 2 3 4 5 6 
#
# 1 0.086719 -0.006614 -0.012773 0.000000 0.000000 0.000000
# 2 -0.006614 0.011463 -0.004204 0.000000 0.000000 0.000000
# 3 -0.012773 -0.004204 0.015757 0.000000 0.000000 0.000000
# 4 0.000000 0.000000 0.000000 0.002329 0.000000 0.000000
# 5 0.000000 0.000000 0.000000 0.000000 0.049640 0.000000
# 6 0.000000 0.000000 0.000000 0.000000 0.000000 0.156872
#
#
# Mechanical properties :
#
#
# Convention : Reuss Voigt Hill
#
# Bulk Modulus (GPa) = 14.97943 39.68025 27.32984
# Shear Modulus (GPa) = 12.74813 100.61472 56.68143
#
# Velocity S-wave (km/s) = 2.52987 7.10731 5.33452
# Velocity P-wave (km/s) = 4.00676 9.34202 7.18775
#
# Compressibility (1/GPa) = 0.06675820
#
# Stress axis : x y z
#
# Youngs Moduli (GPa) = 11.53145 87.23452 63.46493
#
# Poissons Ratio (x) = 0.57699 0.81062
# Poissons Ratio (y) = 0.07627 0.26679
# Poissons Ratio (z) = 0.14729 0.36671
#
# Static dielectric constant tensor:
#      x y z
#    x 1.705560 0.000000 0.000000 
#    y 0.000000 1.763300 0.000000 
#    z 0.000000 0.000000 1.701870 
# 
# From -- ./inp_files/21801.got.cif
#   From: 2010.05.17/outbox.cif.g08.bks.cpg/sg51_11_cif.got.tgz:21801.got - 2010.06.03 11:52:47.
