data_PCOD9407912
_publ_section_title
;
Structure prediction by ZEFSAII (Michael W. Deem and Ramdas Pophale) SiO2 
 PCOD9407912
Probable space group: P N N A
;
_chemical_formula_sum "Si O2"
_cell_formula_units_Z 64
_cell_length_a 5.436831
_cell_length_b 24.974367
_cell_length_c 21.435443
_cell_angle_alpha 90.000000
_cell_angle_beta 90.000000
_cell_angle_gamma 90.000000
_cell_volume 2910.534733
_symmetry_space_group_name_H-M "P N N A"
_symmetry_group_IT_number 52
_symmetry_cell_setting 'orthorhombic'
loop_
_space_group_symop_operation_xyz
x,y,z
1/2-x,-y,z
x,1/2-y,1/2-z
1/2-x,1/2+y,1/2-z
-x,-y,-z
1/2+x,y,-z
-x,1/2+y,1/2+z
1/2+x,1/2-y,1/2+z
loop_
_atom_site_type_symbol
_atom_site_label
_atom_site_fract_x
_atom_site_fract_y
_atom_site_fract_z
Si Si1 0.286062 0.816191 0.980919
Si Si2 0.189785 0.599933 0.672181
Si Si3 0.816472 0.396133 0.795905
Si Si4 0.728255 0.216260 0.673834
Si Si5 0.286516 0.695845 0.031553
Si Si6 0.184490 0.939900 0.689999
Si Si7 0.772432 0.717653 0.335769
Si Si8 0.810263 0.438447 0.655923
O O1 0.275189 0.797562 0.909303
O O2 0.538878 0.844789 0.997671
O O3 0.290572 0.760468 0.020504
O O4 0.162705 0.563970 0.734241
O O5 0.247219 0.659727 0.695453
O O6 0.422394 0.579857 0.632584
O O7 0.927756 0.596604 0.638005
O O8 0.752071 0.334695 0.781483
O O9 0.582963 0.420777 0.831886
O O10 0.837917 0.427898 0.730585
O O11 0.082773 0.402855 0.827347
O O12 0.732685 0.189696 0.605125
O O13 0.469986 0.247347 0.678444
O O14 0.971719 0.252743 0.678522
O O15 0.542711 0.675540 0.003239
O O16 0.250000 0.000000 0.672084
O O17 0.750000 0.500000 0.643519
#
# Coordination Sequence:
#
# PCOD9407912 Si02
#       8
#     8   8   8   8   8   8   8   8
#     4  10  16  30  48  66  88 136 172 193 233 274
#     4  10  20  32  51  78  96 128 173 203 242 301
#     4  10  20  32  51  78  96 128 173 203 242 301
#     4  12  21  32  47  72 110 139 160 207 230 284
#     4  10  16  30  48  66  88 136 172 193 233 274
#     4  10  19  38  57  70  96 126 165 222 256 286
#     4  12  21  32  47  72 110 139 160 207 230 284
#     4  10  19  38  57  70  96 126 165 222 256 286
#
# _framework density 21.989084999999999
#
# number of rings (size 3 to 8) (size 9 to 14) (size 15 to 20)
#    0.000    1.500    5.000    5.250    0.000    0.000 
#    0.000   15.000    0.000    0.000    0.000    0.000 
#    0.000   34.000    0.000    0.000    0.000    0.000 
#
# Total GULP energy -357416.406677 kJ/mol
# GULP energy per Si atom -5584.631354 kJ/mol
# Density = 2.193904 g / cm^3
# Si number density = 21.989085 Si / 1000 Ang^3
#
#
#
# Elastic Constant Matrix: (Units=GPa)
#
#
# Indices 1 2 3 4 5 6 
#
# 1 174.8645 -14.6829 4.2002 0.0000 0.0000 0.0000
# 2 -14.6829 46.7278 -8.6301 0.0000 0.0000 0.0000
# 3 4.2002 -8.6301 48.7171 0.0000 0.0000 0.0000
# 4 0.0000 0.0000 0.0000 24.9948 0.0000 0.0000
# 5 0.0000 0.0000 0.0000 0.0000 -3.8228 0.0000
# 6 0.0000 0.0000 0.0000 0.0000 0.0000 28.1753
#
#
#
# Elastic Compliance Matrix: (Units=1/GPa)
#
#
# Indices 1 2 3 4 5 6 
#
# 1 0.005875 0.001812 -0.000186 0.000000 0.000000 0.000000
# 2 0.001812 0.022683 0.003862 0.000000 0.000000 0.000000
# 3 -0.000186 0.003862 0.021227 0.000000 0.000000 0.000000
# 4 0.000000 0.000000 0.000000 0.040008 0.000000 0.000000
# 5 0.000000 0.000000 0.000000 0.000000 -0.261587 0.000000
# 6 0.000000 0.000000 0.000000 0.000000 0.000000 0.035492
#
#
# Mechanical properties :
#
#
# Convention : Reuss Voigt Hill
#
# Bulk Modulus (GPa) = 16.45767 25.78709 21.12238
# Shear Modulus (GPa) = -39.36274 29.16429 -5.09923
#
# Velocity S-wave (km/s) = -4.23555 3.64580 -1.52447
# Velocity P-wave (km/s) = 4.05205 5.42910 2.55500
#
# Compressibility (1/GPa) = 0.06076194
#
# Stress axis : x y z
#
# Youngs Moduli (GPa) = 170.20381 44.08564 47.11020
#
# Poissons Ratio (x) = -0.07988 0.00874
# Poissons Ratio (y) = -0.30839 -0.18194
# Poissons Ratio (z) = 0.03159 -0.17026
#
# Static dielectric constant tensor:
#      x y z
#    x 1.955310 0.000000 0.000000 
#    y 0.000000 1.797320 0.000000 
#    z 0.000000 0.000000 1.832100 
# 
# From -- ./inp_files/41862.got.cif
#   From: 2010.05.17/outbox.cif.g08.bks.cpg/sg52_21_cif.got.tgz:41862.got - 2010.06.03 12:15:38.
