data_PCOD9407847
_publ_section_title
;
Structure prediction by ZEFSAII (Michael W. Deem and Ramdas Pophale) SiO2 
 PCOD9407847
Probable space group: P N N A
;
_chemical_formula_sum "Si O2"
_cell_formula_units_Z 44
_cell_length_a 15.419800
_cell_length_b 8.118146
_cell_length_c 15.229112
_cell_angle_alpha 90.000000
_cell_angle_beta 90.000000
_cell_angle_gamma 90.000000
_cell_volume 1906.383099
_symmetry_space_group_name_H-M "P N N A"
_symmetry_group_IT_number 52
_symmetry_cell_setting 'orthorhombic'
loop_
_space_group_symop_operation_xyz
x,y,z
1/2-x,-y,z
x,1/2-y,1/2-z
1/2-x,1/2+y,1/2-z
-x,-y,-z
1/2+x,y,-z
-x,1/2+y,1/2+z
1/2+x,1/2-y,1/2+z
loop_
_atom_site_type_symbol
_atom_site_label
_atom_site_fract_x
_atom_site_fract_y
_atom_site_fract_z
Si Si1 0.479800 0.273583 0.983395
Si Si2 0.062686 0.061115 0.874016
Si Si3 0.250000 0.500000 0.608272
Si Si4 0.617875 0.988858 0.804658
Si Si5 0.298746 0.254062 0.453610
Si Si6 0.871285 0.867908 0.626871
O O1 0.388316 0.334836 0.020736
O O2 0.544860 0.211959 0.059714
O O3 0.454976 0.104493 0.931528
O O4 0.534655 0.385221 0.918082
O O5 0.982715 0.064777 0.807312
O O6 0.161394 0.047182 0.841758
O O7 0.272405 0.355513 0.540004
O O8 0.645222 0.999920 0.703692
O O9 0.622613 0.178112 0.836439
O O10 0.671989 0.875906 0.872594
O O11 0.213932 0.152838 0.430700
#
# Coordination Sequence:
#
# PCOD9407847 Si02
#       6
#     8   8   4   8   8   8
#     4   8  14  22  35  56  86 113 145 175 222 274
#     4   8  13  21  32  56  84 115 137 182 219 279
#     4  10  12  20  40  54  84 118 150 176 230 274
#     4   9  17  23  35  59  97 118 142 180 237 284
#     4  10  15  24  39  61  92 118 148 188 230 276
#     4  10  15  25  38  58  95 121 143 182 235 283
#
# _framework density 23.080355999999998
#
# number of rings (size 3 to 8) (size 9 to 14) (size 15 to 20)
#    0.000    2.909    3.636    2.182    0.000    0.000 
#    0.000    0.000    0.000    0.000    0.000    0.000 
#   43.636   10.182    0.000    0.182    0.000    0.364 
#
# Total GULP energy -245538.825372 kJ/mol
# GULP energy per Si atom -5580.427849 kJ/mol
# Density = 2.302782 g / cm^3
# Si number density = 23.080356 Si / 1000 Ang^3
#
#
#
# Elastic Constant Matrix: (Units=GPa)
#
#
# Indices 1 2 3 4 5 6 
#
# 1 198.3777 4.8106 30.0659 0.0000 0.0000 0.0000
# 2 4.8106 41.6112 -0.3819 0.0000 0.0000 0.0000
# 3 30.0659 -0.3819 39.5944 0.0000 0.0000 0.0000
# 4 0.0000 0.0000 0.0000 -8.9477 0.0000 0.0000
# 5 0.0000 0.0000 0.0000 0.0000 12.6451 0.0000
# 6 0.0000 0.0000 0.0000 0.0000 0.0000 20.4333
#
#
#
# Elastic Compliance Matrix: (Units=1/GPa)
#
#
# Indices 1 2 3 4 5 6 
#
# 1 0.005717 -0.000701 -0.004348 0.000000 0.000000 0.000000
# 2 -0.000701 0.024120 0.000765 0.000000 0.000000 0.000000
# 3 -0.004348 0.000765 0.028565 0.000000 0.000000 0.000000
# 4 0.000000 0.000000 0.000000 -0.111761 0.000000 0.000000
# 5 0.000000 0.000000 0.000000 0.000000 0.079082 0.000000
# 6 0.000000 0.000000 0.000000 0.000000 0.000000 0.048940
#
#
# Mechanical properties :
#
#
# Convention : Reuss Voigt Hill
#
# Bulk Modulus (GPa) = 20.06656 38.73028 29.39842
# Shear Modulus (GPa) = 50.07907 21.16537 35.62222
#
# Velocity S-wave (km/s) = 4.66313 3.03154 3.93287
# Velocity P-wave (km/s) = 6.14053 5.39172 5.77827
#
# Compressibility (1/GPa) = 0.04983416
#
# Stress axis : x y z
#
# Youngs Moduli (GPa) = 174.92192 41.45931 35.00788
#
# Poissons Ratio (x) = 0.02906 0.15221
# Poissons Ratio (y) = 0.12259 -0.02677
# Poissons Ratio (z) = 0.76053 -0.03171
#
# Static dielectric constant tensor:
#      x y z
#    x 1.866690 0.000000 0.000000 
#    y 0.000000 1.905240 0.000000 
#    z 0.000000 0.000000 1.902190 
# 
# From -- ./inp_files/27089.got.cif
#   From: 2010.05.17/outbox.cif.g08.bks.cpg/sg52_14_cif.got.tgz:27089.got - 2010.06.03 12:15:38.
