data_PCOD9407456
_publ_section_title
;
Structure prediction by ZEFSAII (Michael W. Deem and Ramdas Pophale) SiO2 
 PCOD9407456
Probable space group: P M M A
;
_chemical_formula_sum "Si O2"
_cell_formula_units_Z 56
_cell_length_a 15.000000
_cell_length_b 9.000000
_cell_length_c 21.000000
_cell_angle_alpha 90.000000
_cell_angle_beta 90.000000
_cell_angle_gamma 90.000000
_cell_volume 2835.000000
_symmetry_space_group_name_H-M "P M M A"
_symmetry_group_IT_number 51
_symmetry_cell_setting 'orthorhombic'
loop_
_space_group_symop_operation_xyz
x,y,z
1/2-x,-y,z
1/2+x,-y,-z
-x,y,-z
-x,-y,-z
1/2+x,y,-z
1/2-x,y,z
x,-y,z
loop_
_atom_site_type_symbol
_atom_site_label
_atom_site_fract_x
_atom_site_fract_y
_atom_site_fract_z
Si Si1 0.393864 0.671985 0.488805
Si Si2 0.644282 0.673680 0.041506
Si Si3 0.533950 0.822892 0.153798
Si Si4 0.149559 0.178540 0.095361
Si Si5 0.151498 0.319341 0.343942
Si Si6 0.029111 0.323245 0.716609
Si Si7 0.648583 0.830185 0.385019
O O1 0.500000 0.674791 0.500000
O O2 0.364433 0.500000 0.496965
O O3 0.369992 0.719200 0.417291
O O4 0.353376 0.776270 0.542365
O O5 0.750000 0.685785 0.054991
O O6 0.620332 0.500000 0.039852
O O7 0.589001 0.757157 0.095207
O O8 0.629874 0.746389 0.972515
O O9 0.430076 0.781930 0.142612
O O10 0.564308 0.754303 0.220192
O O11 0.542098 0.000000 0.154654
O O12 0.250000 0.221871 0.115213
O O13 0.148199 0.000000 0.087045
O O14 0.250000 0.266717 0.326259
O O15 0.151264 0.500000 0.342159
O O16 0.071143 0.269920 0.299276
O O17 0.029254 0.500000 0.724583
O O18 0.087782 0.277673 0.656289
O O19 0.750000 0.823856 0.361649
O O20 0.616516 0.000000 0.380035
#
# Coordination Sequence:
#
# PCOD9407456 Si02
#       7
#     8   8   8   8   8   8   8
#     4  10  18  34  61  89 114 145 186 232 283 338
#     4  10  21  37  59  88 118 148 187 235 283 330
#     4  11  23  38  58  84 115 153 192 230 282 339
#     4   9  19  37  60  86 118 154 189 227 276 335
#     4   9  18  34  57  84 113 145 184 231 282 336
#     4  11  23  40  59  81 111 150 195 238 282 334
#     4  11  24  40  58  83 115 150 189 235 289 343
#
# _framework density 19.753086
#
# number of rings (size 3 to 8) (size 9 to 14) (size 15 to 20)
#    0.000    1.857    1.429    2.571    0.000    6.857 
#    0.000    0.000    0.000    2.143    0.000    0.000 
#    0.000    0.000    0.000    0.000    0.000    0.000 
#
# Total GULP energy -312757.881364 kJ/mol
# GULP energy per Si atom -5584.962167 kJ/mol
# Density = 1.970813 g / cm^3
# Si number density = 19.753086 Si / 1000 Ang^3
#
#
#
# Elastic Constant Matrix: (Units=GPa)
#
#
# Indices 1 2 3 4 5 6 
#
# 1 44.4755 12.2185 6.1275 0.0000 0.0000 0.0000
# 2 12.2185 23.9489 7.5167 0.0000 0.0000 0.0000
# 3 6.1275 7.5167 42.4801 0.0000 0.0000 0.0000
# 4 0.0000 0.0000 0.0000 26.7378 0.0000 0.0000
# 5 0.0000 0.0000 0.0000 0.0000 -10.3229 0.0000
# 6 0.0000 0.0000 0.0000 0.0000 0.0000 20.1146
#
#
#
# Elastic Compliance Matrix: (Units=1/GPa)
#
#
# Indices 1 2 3 4 5 6 
#
# 1 0.026239 -0.012917 -0.001499 0.000000 0.000000 0.000000
# 2 -0.012917 0.050569 -0.007085 0.000000 0.000000 0.000000
# 3 -0.001499 -0.007085 0.025010 0.000000 0.000000 0.000000
# 4 0.000000 0.000000 0.000000 0.037400 0.000000 0.000000
# 5 0.000000 0.000000 0.000000 0.000000 -0.096872 0.000000
# 6 0.000000 0.000000 0.000000 0.000000 0.000000 0.049715
#
#
# Mechanical properties :
#
#
# Convention : Reuss Voigt Hill
#
# Bulk Modulus (GPa) = 17.00177 18.06998 17.53588
# Shear Modulus (GPa) = 32.32690 12.97534 22.65112
#
# Velocity S-wave (km/s) = 4.04982 2.56574 3.38999
# Velocity P-wave (km/s) = 5.52212 4.23617 4.92133
#
# Compressibility (1/GPa) = 0.05881741
#
# Stress axis : x y z
#
# Youngs Moduli (GPa) = 38.11069 19.77488 39.98348
#
# Poissons Ratio (x) = 0.25542 0.05995
# Poissons Ratio (y) = 0.49226 0.28328
# Poissons Ratio (z) = 0.05714 0.14010
#
# Static dielectric constant tensor:
#      x y z
#    x 1.726730 0.000000 0.000000 
#    y 0.000000 1.659890 0.000000 
#    z 0.000000 0.000000 1.636620 
# 
# From -- ./inp_files/33357.got.cif
#   From: 2010.05.17/outbox.ucp.g08.bks.cvg/sg51_17_cif.got.tgz:33357.got - 2010.06.11 16:27:58.
