data_PCOD9407498
_publ_section_title
;
Structure prediction by ZEFSAII (Michael W. Deem and Ramdas Pophale) SiO2 
 PCOD9407498
Probable space group: P M M A
;
_chemical_formula_sum "Si O2"
_cell_formula_units_Z 40
_cell_length_a 9.000000
_cell_length_b 27.000000
_cell_length_c 9.000000
_cell_angle_alpha 90.000000
_cell_angle_beta 90.000000
_cell_angle_gamma 90.000000
_cell_volume 2187.000000
_symmetry_space_group_name_H-M "P M M A"
_symmetry_group_IT_number 51
_symmetry_cell_setting 'orthorhombic'
loop_
_space_group_symop_operation_xyz
x,y,z
1/2-x,-y,z
1/2+x,-y,-z
-x,y,-z
-x,-y,-z
1/2+x,y,-z
1/2-x,y,z
x,-y,z
loop_
_atom_site_type_symbol
_atom_site_label
_atom_site_fract_x
_atom_site_fract_y
_atom_site_fract_z
Si Si1 0.571434 0.552614 0.664202
Si Si2 0.073424 0.054460 0.338645
Si Si3 0.428294 0.340696 0.337208
Si Si4 0.926703 0.748186 0.161653
Si Si5 0.573599 0.857459 0.161233
O O1 0.500000 0.552497 0.500000
O O2 0.750000 0.552713 0.647564
O O3 0.528365 0.500000 0.736515
O O4 0.533001 0.605567 0.734134
O O5 0.250000 0.061121 0.350989
O O6 0.000000 0.054103 0.500000
O O7 0.000303 0.098629 0.250197
O O8 0.046166 0.000000 0.269931
O O9 0.500000 0.340822 0.500000
O O10 0.250000 0.336228 0.345871
O O11 0.497874 0.295274 0.251569
O O12 0.750000 0.740891 0.150082
O O13 0.952478 0.802869 0.229217
O O14 0.000000 0.748320 0.000000
O O15 0.750000 0.864518 0.148797
O O16 0.500000 0.857088 0.000000
#
# Coordination Sequence:
#
# PCOD9407498 Si02
#       5
#     8   8   8   8   8
#     4   8  14  25  42  66  96 128 162 202 248 296
#     4  10  21  37  57  81 109 140 172 208 252 300
#     4  10  19  31  50  76 104 134 169 210 254 301
#     4  10  21  37  55  75 101 134 171 211 257 306
#     4  10  21  37  57  79 103 134 172 213 255 301
#
# _framework density 18.289895000000001
#
# number of rings (size 3 to 8) (size 9 to 14) (size 15 to 20)
#    0.000    2.400    0.000    2.400    0.000    5.600 
#    0.000    0.000    0.000    0.600    0.000    0.000 
#    0.000    0.000    0.000    0.000    0.000    0.000 
#
# Total GULP energy -222761.925599 kJ/mol
# GULP energy per Si atom -5569.048140 kJ/mol
# Density = 1.824827 g / cm^3
# Si number density = 18.289895 Si / 1000 Ang^3
#
#
#
# Elastic Constant Matrix: (Units=GPa)
#
#
# Indices 1 2 3 4 5 6 
#
# 1 82.0433 103.9932 23.9595 0.0000 0.0000 0.0000
# 2 103.9932 228.2365 69.3380 0.0000 0.0000 0.0000
# 3 23.9595 69.3380 29.8556 0.0000 0.0000 0.0000
# 4 0.0000 0.0000 0.0000 31.3038 0.0000 0.0000
# 5 0.0000 0.0000 0.0000 0.0000 28.5659 0.0000
# 6 0.0000 0.0000 0.0000 0.0000 0.0000 38.3276
#
#
#
# Elastic Compliance Matrix: (Units=1/GPa)
#
#
# Indices 1 2 3 4 5 6 
#
# 1 0.035674 -0.025666 0.030978 0.000000 0.000000 0.000000
# 2 -0.025666 0.033345 -0.056845 0.000000 0.000000 0.000000
# 3 0.030978 -0.056845 0.140655 0.000000 0.000000 0.000000
# 4 0.000000 0.000000 0.000000 0.031945 0.000000 0.000000
# 5 0.000000 0.000000 0.000000 0.000000 0.035007 0.000000
# 6 0.000000 0.000000 0.000000 0.000000 0.000000 0.026091
#
#
# Mechanical properties :
#
#
# Convention : Reuss Voigt Hill
#
# Bulk Modulus (GPa) = 9.38019 81.63521 45.50770
# Shear Modulus (GPa) = 11.32968 29.16245 20.24606
#
# Velocity S-wave (km/s) = 2.49158 3.99740 3.33070
# Velocity P-wave (km/s) = 3.66292 8.12629 6.30292
#
# Compressibility (1/GPa) = 0.10660768
#
# Stress axis : x y z
#
# Youngs Moduli (GPa) = 28.03145 29.98935 7.10961
#
# Poissons Ratio (x) = 0.76969 -0.22024
# Poissons Ratio (y) = 0.71944 0.40415
# Poissons Ratio (z) = -0.86835 1.70476
#
# Static dielectric constant tensor:
#      x y z
#    x 1.571370 0.000000 0.000000 
#    y 0.000000 1.707640 0.000000 
#    z 0.000000 0.000000 1.590920 
# 
# From -- ./inp_files/5210.got.cif
#   From: 2010.05.17/outbox.ucp.g08.bks.cvg/sg51_3_cif.got.tgz:5210.got - 2010.06.11 16:27:58.
