data_PCOD9407357
_publ_section_title
;
Structure prediction by ZEFSAII (Michael W. Deem and Ramdas Pophale) SiO2 
 PCOD9407357
Probable space group: P M M A
;
_chemical_formula_sum "Si O2"
_cell_formula_units_Z 64
_cell_length_a 28.867685
_cell_length_b 7.518891
_cell_length_c 14.438209
_cell_angle_alpha 90.000000
_cell_angle_beta 90.000000
_cell_angle_gamma 90.000000
_cell_volume 3133.856245
_symmetry_space_group_name_H-M "P M M A"
_symmetry_group_IT_number 51
_symmetry_cell_setting 'orthorhombic'
loop_
_space_group_symop_operation_xyz
x,y,z
1/2-x,-y,z
1/2+x,-y,-z
-x,y,-z
-x,-y,-z
1/2+x,y,-z
1/2-x,y,z
x,-y,z
loop_
_atom_site_type_symbol
_atom_site_label
_atom_site_fract_x
_atom_site_fract_y
_atom_site_fract_z
Si Si1 0.025305 0.215192 0.784655
Si Si2 0.019180 0.709049 0.403965
Si Si3 0.698243 0.206241 0.162927
Si Si4 0.193844 0.296173 0.631551
Si Si5 0.612363 0.284753 0.695529
Si Si6 0.394335 0.218763 0.920144
Si Si7 0.432534 0.209088 0.115727
Si Si8 0.803348 0.717911 0.570861
O O1 0.071502 0.271313 0.837043
O O2 0.017555 0.273346 0.679348
O O3 0.980887 0.281126 0.843867
O O4 0.024151 0.000000 0.784087
O O5 0.027802 0.500000 0.420256
O O6 0.067766 0.780916 0.363388
O O7 0.000000 0.785275 0.500000
O O8 0.750000 0.285914 0.157194
O O9 0.682410 0.210187 0.270550
O O10 0.657413 0.283213 0.100979
O O11 0.702430 0.000000 0.137142
O O12 0.250000 0.294833 0.626546
O O13 0.178084 0.500000 0.637345
O O14 0.179772 0.222401 0.531487
O O15 0.611628 0.500000 0.694239
O O16 0.604131 0.229489 0.801271
O O17 0.660069 0.226759 0.648235
O O18 0.393427 0.000000 0.921092
O O19 0.414657 0.280309 0.018232
O O20 0.440800 0.000000 0.100151
O O21 0.750000 0.773350 0.586289
O O22 0.802867 0.500000 0.567557
#
# Coordination Sequence:
#
# PCOD9407357 Si02
#       8
#     8   8   8   8   8   8   8   8
#     4   9  17  30  49  69  86 110 148 188 218 248
#     4   9  18  31  45  65  95 124 144 168 213 269
#     4   9  17  29  44  63  89 118 143 171 214 264
#     4   8  14  26  44  64  86 113 145 180 214 248
#     4   9  17  30  47  65  88 117 146 179 218 258
#     4   9  17  30  48  67  86 112 148 184 217 259
#     4   9  17  31  49  66  86 113 145 182 224 263
#     4   8  14  26  45  66  86 114 152 184 211 252
#
# _framework density 20.422122999999999
#
# number of rings (size 3 to 8) (size 9 to 14) (size 15 to 20)
#    0.000    3.250    0.000    1.125    0.000    2.750 
#    0.000    4.375    0.000    4.875    0.000    0.000 
#    0.000    0.000    0.000    0.000    0.000    0.000 
#
# Total GULP energy -356719.100075 kJ/mol
# GULP energy per Si atom -5573.735939 kJ/mol
# Density = 2.037564 g / cm^3
# Si number density = 20.422123 Si / 1000 Ang^3
#
#
#
# Elastic Constant Matrix: (Units=GPa)
#
#
# Indices 1 2 3 4 5 6 
#
# 1 87.3546 -1.5635 67.2143 0.0000 0.0000 0.0000
# 2 -1.5635 46.1382 -12.6228 0.0000 0.0000 0.0000
# 3 67.2143 -12.6228 109.0913 0.0000 0.0000 0.0000
# 4 0.0000 0.0000 0.0000 13.9838 0.0000 0.0000
# 5 0.0000 0.0000 0.0000 0.0000 25.2796 0.0000
# 6 0.0000 0.0000 0.0000 0.0000 0.0000 6.5378
#
#
#
# Elastic Compliance Matrix: (Units=1/GPa)
#
#
# Indices 1 2 3 4 5 6 
#
# 1 0.022184 -0.003085 -0.014025 0.000000 0.000000 0.000000
# 2 -0.003085 0.022812 0.004541 0.000000 0.000000 0.000000
# 3 -0.014025 0.004541 0.018333 0.000000 0.000000 0.000000
# 4 0.000000 0.000000 0.000000 0.071511 0.000000 0.000000
# 5 0.000000 0.000000 0.000000 0.000000 0.039558 0.000000
# 6 0.000000 0.000000 0.000000 0.000000 0.000000 0.152956
#
#
# Mechanical properties :
#
#
# Convention : Reuss Voigt Hill
#
# Bulk Modulus (GPa) = 26.18565 38.73779 32.46172
# Shear Modulus (GPa) = 13.69026 21.79732 17.74379
#
# Velocity S-wave (km/s) = 2.59195 3.27056 2.95083
# Velocity P-wave (km/s) = 4.66986 5.76817 5.24783
#
# Compressibility (1/GPa) = 0.03818885
#
# Stress axis : x y z
#
# Youngs Moduli (GPa) = 45.07760 43.83722 54.54540
#
# Poissons Ratio (x) = 0.13525 0.76501
# Poissons Ratio (y) = 0.13908 -0.24766
# Poissons Ratio (z) = 0.63222 -0.19904
#
# Static dielectric constant tensor:
#      x y z
#    x 1.729130 0.000000 0.000000 
#    y 0.000000 1.763560 0.000000 
#    z 0.000000 0.000000 1.712960 
# 
# From -- ./inp_files/26570.got.cif
#   From: 2010.05.17/outbox.cif.g08.bks.cpg/sg51_14_cif.got.tgz:26570.got - 2010.06.03 11:52:47.
