data_PCOD9407776
_publ_section_title
;
Structure prediction by ZEFSAII (Michael W. Deem and Ramdas Pophale) SiO2 
 PCOD9407776
Probable space group: P M M A
;
_chemical_formula_sum "Si O2"
_cell_formula_units_Z 40
_cell_length_a 9.000000
_cell_length_b 9.000000
_cell_length_c 24.000000
_cell_angle_alpha 90.000000
_cell_angle_beta 90.000000
_cell_angle_gamma 90.000000
_cell_volume 1944.000000
_symmetry_space_group_name_H-M "P M M A"
_symmetry_group_IT_number 51
_symmetry_cell_setting 'orthorhombic'
loop_
_space_group_symop_operation_xyz
x,y,z
1/2-x,-y,z
1/2+x,-y,-z
-x,y,-z
-x,-y,-z
1/2+x,y,-z
1/2-x,y,z
x,-y,z
loop_
_atom_site_type_symbol
_atom_site_label
_atom_site_fract_x
_atom_site_fract_y
_atom_site_fract_z
Si Si1 0.416258 0.668249 0.146787
Si Si2 0.413049 0.822496 0.761593
Si Si3 0.075869 0.838429 0.940793
Si Si4 0.923035 0.669497 0.440372
Si Si5 0.083087 0.822013 0.343540
O O1 0.250000 0.695951 0.126901
O O2 0.428804 0.500000 0.166054
O O3 0.461291 0.774622 0.196230
O O4 0.525195 0.704922 0.097042
O O5 0.250000 0.765595 0.778098
O O6 0.464868 0.767225 0.701713
O O7 0.404751 0.000000 0.760500
O O8 0.250000 0.836712 0.947991
O O9 0.035083 0.000000 0.914734
O O10 0.000000 0.830660 0.000000
O O11 0.750000 0.712670 0.443414
O O12 0.929783 0.500000 0.418499
O O13 0.000000 0.668938 0.500000
O O14 0.019540 0.775224 0.402215
O O15 0.250000 0.764967 0.333899
O O16 0.088787 0.000000 0.339301
#
# Coordination Sequence:
#
# PCOD9407776 Si02
#       5
#     8   8   8   8   8
#     4  11  24  39  56  82 115 150 187 227 274 327
#     4  10  21  38  60  84 110 143 184 229 277 329
#     4  10  21  38  61  87 113 145 186 229 275 328
#     4  10  21  37  57  81 110 146 186 227 274 328
#     4  10  21  37  58  84 112 144 183 227 276 328
#
# _framework density 20.576132000000001
#
# number of rings (size 3 to 8) (size 9 to 14) (size 15 to 20)
#    0.000    1.800    0.000    3.600    0.000   10.400 
#    0.000    0.000    0.000    0.000    0.000    0.000 
#    0.000    0.000    0.000    0.000    0.000    0.000 
#
# Total GULP energy -222984.429673 kJ/mol
# GULP energy per Si atom -5574.610742 kJ/mol
# Density = 2.052930 g / cm^3
# Si number density = 20.576132 Si / 1000 Ang^3
#
#
#
# Elastic Constant Matrix: (Units=GPa)
#
#
# Indices 1 2 3 4 5 6 
#
# 1 69.2645 34.7529 10.2261 0.0000 0.0000 0.0000
# 2 34.7529 2.1578 17.4855 0.0000 0.0000 0.0000
# 3 10.2261 17.4855 43.3972 0.0000 0.0000 0.0000
# 4 0.0000 0.0000 0.0000 47.1787 0.0000 0.0000
# 5 0.0000 0.0000 0.0000 0.0000 25.2928 0.0000
# 6 0.0000 0.0000 0.0000 0.0000 0.0000 28.7671
#
#
#
# Elastic Compliance Matrix: (Units=1/GPa)
#
#
# Indices 1 2 3 4 5 6 
#
# 1 0.003863 0.024213 -0.010666 0.000000 0.000000 0.000000
# 2 0.024213 -0.052845 0.015587 0.000000 0.000000 0.000000
# 3 -0.010666 0.015587 0.019276 0.000000 0.000000 0.000000
# 4 0.000000 0.000000 0.000000 0.021196 0.000000 0.000000
# 5 0.000000 0.000000 0.000000 0.000000 0.039537 0.000000
# 6 0.000000 0.000000 0.000000 0.000000 0.000000 0.034762
#
#
# Mechanical properties :
#
#
# Convention : Reuss Voigt Hill
#
# Bulk Modulus (GPa) = 35.01184 26.63871 30.82527
# Shear Modulus (GPa) = 293.38580 23.73805 158.56192
#
# Velocity S-wave (km/s) = 11.95387 3.40026 8.78797
# Velocity P-wave (km/s) = 14.40762 5.32824 10.86208
#
# Compressibility (1/GPa) = 0.02856177
#
# Stress axis : x y z
#
# Youngs Moduli (GPa) = 258.84889 -18.92320 51.87720
#
# Poissons Ratio (x) = 0.45820 0.55334
# Poissons Ratio (y) = -6.26763 -0.80859
# Poissons Ratio (z) = 2.76098 0.29495
#
# Static dielectric constant tensor:
#      x y z
#    x 1.743110 0.000000 0.000000 
#    y 0.000000 1.781030 0.000000 
#    z 0.000000 0.000000 1.539340 
# 
# From -- ./inp_files/34289.got.cif
#   From: 2010.05.17/outbox.ucp.g08.bks.cvg/sg51_18_cif.got.tgz:34289.got - 2010.06.11 16:27:58.
