data_PCOD9407386
_publ_section_title
;
Structure prediction by ZEFSAII (Michael W. Deem and Ramdas Pophale) SiO2 
 PCOD9407386
Probable space group: P M M A
;
_chemical_formula_sum "Si O2"
_cell_formula_units_Z 56
_cell_length_a 9.222646
_cell_length_b 14.047319
_cell_length_c 29.998525
_cell_angle_alpha 90.000000
_cell_angle_beta 90.000000
_cell_angle_gamma 90.000000
_cell_volume 3886.412420
_symmetry_space_group_name_H-M "P M M A"
_symmetry_group_IT_number 51
_symmetry_cell_setting 'orthorhombic'
loop_
_space_group_symop_operation_xyz
x,y,z
1/2-x,-y,z
1/2+x,-y,-z
-x,y,-z
-x,-y,-z
1/2+x,y,-z
1/2-x,y,z
x,-y,z
loop_
_atom_site_type_symbol
_atom_site_label
_atom_site_fract_x
_atom_site_fract_y
_atom_site_fract_z
Si Si1 0.923251 0.887231 0.864990
Si Si2 0.423890 0.107485 0.688029
Si Si3 0.923566 0.387893 0.454196
Si Si4 0.916965 0.884103 0.044463
Si Si5 0.575683 0.798053 0.771457
Si Si6 0.076117 0.392379 0.277800
Si Si7 0.575514 0.297737 0.361263
O O1 0.750000 0.877125 0.871235
O O2 0.967518 0.829943 0.820882
O O3 0.004093 0.856105 0.909845
O O4 0.951934 0.000000 0.857705
O O5 0.250000 0.110978 0.694505
O O6 0.500911 0.137109 0.733950
O O7 0.460423 0.189019 0.652041
O O8 0.463579 0.000000 0.675159
O O9 0.750000 0.379081 0.459170
O O10 0.956038 0.500000 0.446584
O O11 0.969127 0.329076 0.410647
O O12 0.000000 0.358614 0.500000
O O13 0.750000 0.854073 0.043827
O O14 0.919414 0.000000 0.043846
O O15 0.000000 0.852056 0.000000
O O16 0.750000 0.809696 0.768299
O O17 0.539829 0.689226 0.758236
O O18 0.250000 0.388733 0.284399
O O19 0.036853 0.500000 0.264966
O O20 0.998516 0.362718 0.323646
O O21 0.750000 0.309250 0.358342
#
# Coordination Sequence:
#
# PCOD9407386 Si02
#       7
#     8   8   8   8   8   8   8
#     4   9  16  25  37  53  75 104 135 164 193 227
#     4   9  17  28  42  60  81 105 134 167 199 231
#     4   9  17  28  42  60  80 101 126 158 197 240
#     4   9  16  25  37  53  74 101 132 164 197 233
#     4   9  17  28  41  58  81 109 138 166 198 236
#     4   9  17  28  42  61  84 108 134 165 199 235
#     4   9  17  29  44  61  81 106 134 162 195 237
#
# _framework density 14.409176
#
# number of rings (size 3 to 8) (size 9 to 14) (size 15 to 20)
#    0.000    3.000    0.000    1.286    0.000    4.571 
#    0.000    2.857    0.000    0.429    0.000    0.000 
#    0.000    0.571    0.000    1.000    0.000    1.429 
#
# Total GULP energy -311841.855092 kJ/mol
# GULP energy per Si atom -5568.604555 kJ/mol
# Density = 1.437638 g / cm^3
# Si number density = 14.409176 Si / 1000 Ang^3
#
#
#
# Elastic Constant Matrix: (Units=GPa)
#
#
# Indices 1 2 3 4 5 6 
#
# 1 25.0473 28.5998 48.1432 0.0000 0.0000 0.0000
# 2 28.5998 79.9657 61.4055 0.0000 0.0000 0.0000
# 3 48.1432 61.4055 155.9248 0.0000 0.0000 0.0000
# 4 0.0000 0.0000 0.0000 18.6848 0.0000 0.0000
# 5 0.0000 0.0000 0.0000 0.0000 26.5971 0.0000
# 6 0.0000 0.0000 0.0000 0.0000 0.0000 13.9323
#
#
#
# Elastic Compliance Matrix: (Units=1/GPa)
#
#
# Indices 1 2 3 4 5 6 
#
# 1 0.117417 -0.020292 -0.028262 0.000000 0.000000 0.000000
# 2 -0.020292 0.021433 -0.002175 0.000000 0.000000 0.000000
# 3 -0.028262 -0.002175 0.015996 0.000000 0.000000 0.000000
# 4 0.000000 0.000000 0.000000 0.053519 0.000000 0.000000
# 5 0.000000 0.000000 0.000000 0.000000 0.037598 0.000000
# 6 0.000000 0.000000 0.000000 0.000000 0.000000 0.071775
#
#
# Mechanical properties :
#
#
# Convention : Reuss Voigt Hill
#
# Bulk Modulus (GPa) = 18.73099 59.69275 39.21187
# Shear Modulus (GPa) = 11.44180 20.02882 15.73531
#
# Velocity S-wave (km/s) = 2.82097 3.73232 3.30818
# Velocity P-wave (km/s) = 4.86190 7.75180 6.47026
#
# Compressibility (1/GPa) = 0.05338747
#
# Stress axis : x y z
#
# Youngs Moduli (GPa) = 8.51666 46.65653 62.51430
#
# Poissons Ratio (x) = 0.94674 1.76680
# Poissons Ratio (y) = 0.17282 0.13600
# Poissons Ratio (z) = 0.24070 0.10150
#
# Static dielectric constant tensor:
#      x y z
#    x 1.479950 0.000000 0.000000 
#    y 0.000000 1.474890 0.000000 
#    z 0.000000 0.000000 1.455270 
# 
# From -- ./inp_files/37464.got.cif
#   From: 2010.05.17/outbox.cif.g08.bks.cpg/sg51_19_cif.got.tgz:37464.got - 2010.06.03 11:52:47.
