data_PCOD9407853
_publ_section_title
;
Structure prediction by ZEFSAII (Michael W. Deem and Ramdas Pophale) SiO2 
 PCOD9407853
Probable space group: P N N A
;
_chemical_formula_sum "Si O2"
_cell_formula_units_Z 40
_cell_length_a 15.748250
_cell_length_b 9.193324
_cell_length_c 12.174890
_cell_angle_alpha 90.000000
_cell_angle_beta 90.000000
_cell_angle_gamma 90.000000
_cell_volume 1762.665534
_symmetry_space_group_name_H-M "P N N A"
_symmetry_group_IT_number 52
_symmetry_cell_setting 'orthorhombic'
loop_
_space_group_symop_operation_xyz
x,y,z
1/2-x,-y,z
x,1/2-y,1/2-z
1/2-x,1/2+y,1/2-z
-x,-y,-z
1/2+x,y,-z
-x,1/2+y,1/2+z
1/2+x,1/2-y,1/2+z
loop_
_atom_site_type_symbol
_atom_site_label
_atom_site_fract_x
_atom_site_fract_y
_atom_site_fract_z
Si Si1 0.168516 0.714305 0.473338
Si Si2 0.750000 0.500000 0.362006
Si Si3 0.750000 0.000000 0.805533
Si Si4 0.970859 0.310760 0.135003
Si Si5 0.250000 0.500000 0.984442
Si Si6 0.388541 0.903031 0.692460
Si Si7 0.130394 0.250000 0.250000
O O1 0.227645 0.639213 0.565611
O O2 0.184851 0.602904 0.375393
O O3 0.078000 0.743780 0.531585
O O4 0.202741 0.874681 0.449691
O O5 0.667828 0.470889 0.289698
O O6 0.811962 0.889548 0.747453
O O7 0.931262 0.250000 0.250000
O O8 0.961107 0.484998 0.150696
O O9 0.067170 0.256743 0.145660
O O10 0.320002 0.582472 0.907482
O O11 0.415690 0.750000 0.750000
#
# Coordination Sequence:
#
# PCOD9407853 Si02
#       7
#     8   4   4   8   4   8   4
#     4  10  19  34  61 101 126 173 212 279 315 382
#     4  10  14  24  42  86 134 168 211 237 316 376
#     4  11  26  44  76  89 126 176 233 266 326 410
#     4   9  19  37  61  92 141 164 211 271 336 381
#     4   9  18  26  50  91 146 166 210 263 318 388
#     4  10  16  24  49  88 134 187 202 248 318 404
#     4  10  24  50  66  96 122 186 218 276 332 410
#
# _framework density 22.692902
#
# number of rings (size 3 to 8) (size 9 to 14) (size 15 to 20)
#    0.600    1.600    4.000    0.000    0.000    1.600 
#    1.800    0.000    0.000    3.600    0.000    0.000 
#    0.000    0.000    0.000    0.000    0.000    0.000 
#
# Total GULP energy -222808.593542 kJ/mol
# GULP energy per Si atom -5570.214839 kJ/mol
# Density = 2.264125 g / cm^3
# Si number density = 22.692902 Si / 1000 Ang^3
#
#
#
# Elastic Constant Matrix: (Units=GPa)
#
#
# Indices 1 2 3 4 5 6 
#
# 1 107.6267 48.8873 30.4702 0.0000 0.0000 0.0000
# 2 48.8873 139.5774 16.6648 0.0000 0.0000 0.0000
# 3 30.4702 16.6648 32.8813 0.0000 0.0000 0.0000
# 4 0.0000 0.0000 0.0000 17.0693 0.0000 0.0000
# 5 0.0000 0.0000 0.0000 0.0000 40.9924 0.0000
# 6 0.0000 0.0000 0.0000 0.0000 0.0000 28.1961
#
#
#
# Elastic Compliance Matrix: (Units=1/GPa)
#
#
# Indices 1 2 3 4 5 6 
#
# 1 0.014112 -0.003599 -0.011253 0.000000 0.000000 0.000000
# 2 -0.003599 0.008544 -0.000995 0.000000 0.000000 0.000000
# 3 -0.011253 -0.000995 0.041345 0.000000 0.000000 0.000000
# 4 0.000000 0.000000 0.000000 0.058585 0.000000 0.000000
# 5 0.000000 0.000000 0.000000 0.000000 0.024395 0.000000
# 6 0.000000 0.000000 0.000000 0.000000 0.000000 0.035466
#
#
# Mechanical properties :
#
#
# Convention : Reuss Voigt Hill
#
# Bulk Modulus (GPa) = 30.95387 52.45886 41.70636
# Shear Modulus (GPa) = 22.23116 29.52243 25.87679
#
# Velocity S-wave (km/s) = 3.13334 3.61079 3.38050
# Velocity P-wave (km/s) = 5.17304 6.36795 5.80134
#
# Compressibility (1/GPa) = 0.03230614
#
# Stress axis : x y z
#
# Youngs Moduli (GPa) = 70.86093 117.04244 24.18690
#
# Poissons Ratio (x) = 0.42126 0.27218
# Poissons Ratio (y) = 0.25505 0.02406
# Poissons Ratio (z) = 0.79741 0.11644
#
# Static dielectric constant tensor:
#      x y z
#    x 1.825920 0.000000 0.000000 
#    y 0.000000 1.868260 0.000000 
#    z 0.000000 0.000000 1.906110 
# 
# From -- ./inp_files/27937.got.cif
#   From: 2010.05.17/outbox.cif.g08.bks.cpg/sg52_14_cif.got.tgz:27937.got - 2010.06.03 12:15:38.
