data_PCOD9407061
_publ_section_title
;
Structure prediction by ZEFSAII (Michael W. Deem and Ramdas Pophale) SiO2 
 PCOD9407061
Probable space group: P M M A
;
_chemical_formula_sum "Si O2"
_cell_formula_units_Z 64
_cell_length_a 7.708212
_cell_length_b 19.839835
_cell_length_c 24.614375
_cell_angle_alpha 90.000000
_cell_angle_beta 90.000000
_cell_angle_gamma 90.000000
_cell_volume 3764.267858
_symmetry_space_group_name_H-M "P M M A"
_symmetry_group_IT_number 51
_symmetry_cell_setting 'orthorhombic'
loop_
_space_group_symop_operation_xyz
x,y,z
1/2-x,-y,z
1/2+x,-y,-z
-x,y,-z
-x,-y,-z
1/2+x,y,-z
1/2-x,y,z
x,-y,z
loop_
_atom_site_type_symbol
_atom_site_label
_atom_site_fract_x
_atom_site_fract_y
_atom_site_fract_z
Si Si1 0.546545 0.716408 0.938683
Si Si2 0.961150 0.206868 0.833829
Si Si3 0.962251 0.424752 0.235583
Si Si4 0.541172 0.843429 0.334869
Si Si5 0.541387 0.922957 0.438833
Si Si6 0.041408 0.425507 0.890167
Si Si7 0.455563 0.713787 0.724425
Si Si8 0.541014 0.075864 0.774014
O O1 0.750000 0.724695 0.934236
O O2 0.471394 0.762592 0.890318
O O3 0.508032 0.638198 0.925988
O O4 0.500000 0.734042 0.000000
O O5 0.750000 0.207246 0.833449
O O6 0.018496 0.131352 0.817956
O O7 0.020284 0.254124 0.784205
O O8 0.750000 0.423478 0.235567
O O9 0.015233 0.500000 0.252435
O O10 0.015924 0.415159 0.172491
O O11 0.025119 0.362141 0.271435
O O12 0.750000 0.837930 0.338828
O O13 0.475291 0.874874 0.390993
O O14 0.472548 0.769836 0.316980
O O15 0.503997 0.894017 0.285051
O O16 0.500000 0.900689 0.500000
O O17 0.750000 0.925497 0.434010
O O18 0.476264 0.000000 0.432297
O O19 0.250000 0.427490 0.889264
O O20 0.979964 0.500000 0.908025
O O21 0.250000 0.708601 0.713798
O O22 0.750000 0.073392 0.777222
O O23 0.474160 0.000000 0.780809
#
# Coordination Sequence:
#
# PCOD9407061 Si02
#       8
#     8   8   8   8   8   8   8   8
#     4  11  22  33  46  61  80 106 136 171 206 244
#     4   9  18  31  44  61  83 104 130 165 204 244
#     4   8  13  22  39  62  85 108 133 160 193 238
#     4   9  17  27  41  64  90 113 138 173 209 240
#     4   9  17  28  40  55  81 116 149 177 203 234
#     4   9  17  30  47  64  83 107 135 167 200 238
#     4   9  15  25  44  64  83 109 136 163 203 248
#     4   9  17  29  46  66  86 108 133 163 202 250
#
# _framework density 17.001978999999999
#
# number of rings (size 3 to 8) (size 9 to 14) (size 15 to 20)
#    0.000    2.875    1.250    1.500    0.000    2.250 
#    0.000    1.250    0.000    0.750    0.000    0.000 
#    0.000    0.500    0.000    0.375    0.000    0.875 
#
# Total GULP energy -356594.193997 kJ/mol
# GULP energy per Si atom -5571.784281 kJ/mol
# Density = 1.696328 g / cm^3
# Si number density = 17.001979 Si / 1000 Ang^3
#
#
#
# Elastic Constant Matrix: (Units=GPa)
#
#
# Indices 1 2 3 4 5 6 
#
# 1 25.3943 -1.4200 0.3452 0.0000 0.0000 0.0000
# 2 -1.4200 128.8534 67.6927 0.0000 0.0000 0.0000
# 3 0.3452 67.6927 113.3225 0.0000 0.0000 0.0000
# 4 0.0000 0.0000 0.0000 26.9350 0.0000 0.0000
# 5 0.0000 0.0000 0.0000 0.0000 7.2880 0.0000
# 6 0.0000 0.0000 0.0000 0.0000 0.0000 18.4020
#
#
#
# Elastic Compliance Matrix: (Units=1/GPa)
#
#
# Indices 1 2 3 4 5 6 
#
# 1 0.039427 0.000725 -0.000553 0.000000 0.000000 0.000000
# 2 0.000725 0.011323 -0.006766 0.000000 0.000000 0.000000
# 3 -0.000553 -0.006766 0.012868 0.000000 0.000000 0.000000
# 4 0.000000 0.000000 0.000000 0.037126 0.000000 0.000000
# 5 0.000000 0.000000 0.000000 0.000000 0.137211 0.000000
# 6 0.000000 0.000000 0.000000 0.000000 0.000000 0.054342
#
#
# Mechanical properties :
#
#
# Convention : Reuss Voigt Hill
#
# Bulk Modulus (GPa) = 19.82963 44.53401 32.18182
# Shear Modulus (GPa) = 15.51369 23.92183 19.71776
#
# Velocity S-wave (km/s) = 3.02398 3.75507 3.40918
# Velocity P-wave (km/s) = 4.88682 6.71201 5.87078
#
# Compressibility (1/GPa) = 0.05042958
#
# Stress axis : x y z
#
# Youngs Moduli (GPa) = 25.36331 88.31334 77.71348
#
# Poissons Ratio (x) = -0.06404 0.04300
# Poissons Ratio (y) = -0.01839 0.52582
# Poissons Ratio (z) = 0.01403 0.59754
#
# Static dielectric constant tensor:
#      x y z
#    x 1.620100 0.000000 0.000000 
#    y 0.000000 1.627160 0.000000 
#    z 0.000000 0.000000 1.676460 
# 
# From -- ./inp_files/35187.got.cif
#   From: 2010.05.17/outbox.cif.g08.bks.cpg/sg51_18_cif.got.tgz:35187.got - 2010.06.03 11:52:47.
