data_PCOD9407647
_publ_section_title
;
Structure prediction by ZEFSAII (Michael W. Deem and Ramdas Pophale) SiO2 
 PCOD9407647
Probable space group: P M M A
;
_chemical_formula_sum "Si O2"
_cell_formula_units_Z 64
_cell_length_a 9.000000
_cell_length_b 15.000000
_cell_length_c 24.000000
_cell_angle_alpha 90.000000
_cell_angle_beta 90.000000
_cell_angle_gamma 90.000000
_cell_volume 3240.000000
_symmetry_space_group_name_H-M "P M M A"
_symmetry_group_IT_number 51
_symmetry_cell_setting 'orthorhombic'
loop_
_space_group_symop_operation_xyz
x,y,z
1/2-x,-y,z
1/2+x,-y,-z
-x,y,-z
-x,-y,-z
1/2+x,y,-z
1/2-x,y,z
x,-y,z
loop_
_atom_site_type_symbol
_atom_site_label
_atom_site_fract_x
_atom_site_fract_y
_atom_site_fract_z
Si Si1 0.582496 0.893339 0.445015
Si Si2 0.923204 0.232877 0.630807
Si Si3 0.930503 0.899490 0.158459
Si Si4 0.077616 0.399556 0.076304
Si Si5 0.426399 0.216512 0.945751
Si Si6 0.419897 0.774297 0.742226
Si Si7 0.914386 0.596395 0.186560
Si Si8 0.070883 0.401040 0.439421
O O1 0.500000 0.860636 0.500000
O O2 0.750000 0.861637 0.446534
O O3 0.500877 0.854306 0.392620
O O4 0.580556 0.000000 0.444973
O O5 0.750000 0.226380 0.620303
O O6 0.980600 0.320696 0.599294
O O7 0.963193 0.238425 0.694391
O O8 0.750000 0.901258 0.155387
O O9 0.980165 0.834542 0.109161
O O10 0.964348 0.854148 0.217042
O O11 0.985241 0.000000 0.152855
O O12 0.250000 0.382654 0.063586
O O13 0.039055 0.500000 0.058033
O O14 0.976279 0.319038 0.056465
O O15 0.045259 0.399865 0.142243
O O16 0.250000 0.211338 0.948893
O O17 0.500000 0.174549 0.000000
O O18 0.250000 0.790327 0.721757
O O19 0.417240 0.682609 0.776130
O O20 0.750000 0.598575 0.157717
O O21 0.922223 0.500000 0.215809
O O22 0.250000 0.397175 0.444054
O O23 0.032208 0.500000 0.417846
O O24 0.000000 0.391447 0.500000
#
# Coordination Sequence:
#
# PCOD9407647 Si02
#       8
#     8   8   8   8   8   8   8   8
#     4  10  21  38  60  84 111 145 183 228 284 344
#     4  11  23  36  54  83 117 152 190 237 285 334
#     4   9  19  38  62  84 109 145 188 232 284 345
#     4  10  20  34  55  84 116 150 186 225 273 329
#     4  11  22  38  60  87 116 149 186 232 285 339
#     4  10  20  36  56  81 111 149 192 232 281 337
#     4   9  17  32  55  81 109 144 187 231 275 328
#     4   9  19  36  56  79 111 152 195 236 282 334
#
# _framework density 19.753086
#
# number of rings (size 3 to 8) (size 9 to 14) (size 15 to 20)
#    0.000    2.125    1.250    1.875    0.000    5.500 
#    0.000    1.250    0.000    2.625    0.000    0.000 
#    0.000    0.000    0.000    0.000    0.000    0.000 
#
# Total GULP energy -356681.838828 kJ/mol
# GULP energy per Si atom -5573.153732 kJ/mol
# Density = 1.970813 g / cm^3
# Si number density = 19.753086 Si / 1000 Ang^3
#
#
#
# Elastic Constant Matrix: (Units=GPa)
#
#
# Indices 1 2 3 4 5 6 
#
# 1 37.6723 32.4526 23.1582 0.0000 0.0000 0.0000
# 2 32.4526 63.3326 27.1583 0.0000 0.0000 0.0000
# 3 23.1582 27.1583 40.9008 0.0000 0.0000 0.0000
# 4 0.0000 0.0000 0.0000 141.8456 0.0000 0.0000
# 5 0.0000 0.0000 0.0000 0.0000 28.2912 0.0000
# 6 0.0000 0.0000 0.0000 0.0000 0.0000 45.1938
#
#
#
# Elastic Compliance Matrix: (Units=1/GPa)
#
#
# Indices 1 2 3 4 5 6 
#
# 1 0.055177 -0.020799 -0.017431 0.000000 0.000000 0.000000
# 2 -0.020799 0.029915 -0.008088 0.000000 0.000000 0.000000
# 3 -0.017431 -0.008088 0.039689 0.000000 0.000000 0.000000
# 4 0.000000 0.000000 0.000000 0.007050 0.000000 0.000000
# 5 0.000000 0.000000 0.000000 0.000000 0.035347 0.000000
# 6 0.000000 0.000000 0.000000 0.000000 0.000000 0.022127
#
#
# Mechanical properties :
#
#
# Convention : Reuss Voigt Hill
#
# Bulk Modulus (GPa) = 31.10729 34.16041 32.63385
# Shear Modulus (GPa) = 17.08496 47.00857 32.04676
#
# Velocity S-wave (km/s) = 2.94415 4.88362 4.03223
# Velocity P-wave (km/s) = 5.22873 7.00935 6.18347
#
# Compressibility (1/GPa) = 0.03214680
#
# Stress axis : x y z
#
# Youngs Moduli (GPa) = 18.12350 33.42760 25.19589
#
# Poissons Ratio (x) = 0.69525 0.43919
# Poissons Ratio (y) = 0.37695 0.20377
# Poissons Ratio (z) = 0.31591 0.27035
#
# Static dielectric constant tensor:
#      x y z
#    x 1.982680 0.000000 0.000000 
#    y 0.000000 1.617700 0.000000 
#    z 0.000000 0.000000 1.663830 
# 
# From -- ./inp_files/34850.got.cif
#   From: 2010.05.17/outbox.ucp.g08.bks.cvg/sg51_18_cif.got.tgz:34850.got - 2010.06.11 16:27:58.
