data_PCOD9407852
_publ_section_title
;
Structure prediction by ZEFSAII (Michael W. Deem and Ramdas Pophale) SiO2 
 PCOD9407852
Probable space group: P N N A
;
_chemical_formula_sum "Si O2"
_cell_formula_units_Z 44
_cell_length_a 24.818698
_cell_length_b 5.584995
_cell_length_c 16.212426
_cell_angle_alpha 90.000000
_cell_angle_beta 90.000000
_cell_angle_gamma 90.000000
_cell_volume 2247.241725
_symmetry_space_group_name_H-M "P N N A"
_symmetry_group_IT_number 52
_symmetry_cell_setting 'orthorhombic'
loop_
_space_group_symop_operation_xyz
x,y,z
1/2-x,-y,z
x,1/2-y,1/2-z
1/2-x,1/2+y,1/2-z
-x,-y,-z
1/2+x,y,-z
-x,1/2+y,1/2+z
1/2+x,1/2-y,1/2+z
loop_
_atom_site_type_symbol
_atom_site_label
_atom_site_fract_x
_atom_site_fract_y
_atom_site_fract_z
Si Si1 0.563637 0.498158 0.988338
Si Si2 0.113432 0.000432 0.052458
Si Si3 0.340059 0.525365 0.892715
Si Si4 0.699396 0.863269 0.829489
Si Si5 0.250000 0.500000 0.036473
Si Si6 0.186864 0.518070 0.612405
O O1 0.582658 0.744183 0.943012
O O2 0.578583 0.241263 0.948713
O O3 0.500000 0.500000 0.000000
O O4 0.599481 0.494513 0.072337
O O5 0.156376 0.025153 0.124958
O O6 0.148732 0.982004 0.968644
O O7 0.329797 0.770987 0.844847
O O8 0.323245 0.278923 0.849588
O O9 0.299908 0.547526 0.973562
O O10 0.671767 0.750000 0.750000
O O11 0.725506 0.697787 0.901295
O O12 0.750000 0.000000 0.792164
O O13 0.250000 0.500000 0.591383
#
# Coordination Sequence:
#
# PCOD9407852 Si02
#       6
#     8   8   8   8   4   8
#     4  10  19  32  47  62  77 103 142 193 244 278
#     4  10  20  31  45  60  84 107 143 189 236 265
#     4  10  18  24  43  55  76 102 131 176 219 259
#     4  12  23  31  44  64  91 127 159 193 232 282
#     4  12  18  32  40  58  86 114 150 180 234 258
#     4  10  14  24  37  55  72  99 127 157 209 251
#
# _framework density 19.579559
#
# number of rings (size 3 to 8) (size 9 to 14) (size 15 to 20)
#    0.000    1.455    6.364    3.273    0.000    0.000 
#    0.000    0.000    0.000    0.000    0.000    0.000 
#    0.000    0.000    0.000    0.000    0.000    0.000 
#
# Total GULP energy -245088.833895 kJ/mol
# GULP energy per Si atom -5570.200770 kJ/mol
# Density = 1.953500 g / cm^3
# Si number density = 19.579559 Si / 1000 Ang^3
#
#
#
# Elastic Constant Matrix: (Units=GPa)
#
#
# Indices 1 2 3 4 5 6 
#
# 1 140.3571 45.0949 12.2388 0.0000 0.0000 0.0000
# 2 45.0949 183.9448 12.2078 0.0000 0.0000 0.0000
# 3 12.2388 12.2078 56.7835 0.0000 0.0000 0.0000
# 4 0.0000 0.0000 0.0000 -10.2736 0.0000 0.0000
# 5 0.0000 0.0000 0.0000 0.0000 -4.8933 0.0000
# 6 0.0000 0.0000 0.0000 0.0000 0.0000 32.6657
#
#
#
# Elastic Compliance Matrix: (Units=1/GPa)
#
#
# Indices 1 2 3 4 5 6 
#
# 1 0.007826 -0.001833 -0.001293 0.000000 0.000000 0.000000
# 2 -0.001833 0.005944 -0.000883 0.000000 0.000000 0.000000
# 3 -0.001293 -0.000883 0.018079 0.000000 0.000000 0.000000
# 4 0.000000 0.000000 0.000000 -0.097337 0.000000 0.000000
# 5 0.000000 0.000000 0.000000 0.000000 -0.204362 0.000000
# 6 0.000000 0.000000 0.000000 0.000000 0.000000 0.030613
#
#
# Mechanical properties :
#
#
# Convention : Reuss Voigt Hill
#
# Bulk Modulus (GPa) = 41.95916 57.79649 49.87783
# Shear Modulus (GPa) = -22.39389 24.26937 0.93774
#
# Velocity S-wave (km/s) = -3.38559 3.52451 0.69281
# Velocity P-wave (km/s) = 2.48871 6.79307 5.11563
#
# Compressibility (1/GPa) = 0.02383270
#
# Stress axis : x y z
#
# Youngs Moduli (GPa) = 127.77461 168.22722 55.31219
#
# Poissons Ratio (x) = 0.30834 0.07151
# Poissons Ratio (y) = 0.23419 0.04884
# Poissons Ratio (z) = 0.16519 0.14853
#
# Static dielectric constant tensor:
#      x y z
#    x 1.562430 0.000000 0.000000 
#    y 0.000000 2.049860 0.000000 
#    z 0.000000 0.000000 1.650360 
# 
# From -- ./inp_files/38065.got.cif
#   From: 2010.05.17/outbox.cif.g08.bks.cpg/sg52_20_cif.got.tgz:38065.got - 2010.06.03 12:15:38.
