data_PCOD9407397
_publ_section_title
;
Structure prediction by ZEFSAII (Michael W. Deem and Ramdas Pophale) SiO2 
 PCOD9407397
Probable space group: P M M A
;
_chemical_formula_sum "Si O2"
_cell_formula_units_Z 48
_cell_length_a 9.243497
_cell_length_b 9.462066
_cell_length_c 32.099318
_cell_angle_alpha 90.000000
_cell_angle_beta 90.000000
_cell_angle_gamma 90.000000
_cell_volume 2807.489126
_symmetry_space_group_name_H-M "P M M A"
_symmetry_group_IT_number 51
_symmetry_cell_setting 'orthorhombic'
loop_
_space_group_symop_operation_xyz
x,y,z
1/2-x,-y,z
1/2+x,-y,-z
-x,y,-z
-x,-y,-z
1/2+x,y,-z
1/2-x,y,z
x,-y,z
loop_
_atom_site_type_symbol
_atom_site_label
_atom_site_fract_x
_atom_site_fract_y
_atom_site_fract_z
Si Si1 0.077600 0.167466 0.375137
Si Si2 0.573695 0.662618 0.208199
Si Si3 0.577189 0.332799 0.542351
Si Si4 0.423088 0.832514 0.873977
Si Si5 0.423671 0.833669 0.710140
Si Si6 0.916559 0.172254 0.958554
O O1 0.250000 0.189069 0.370180
O O2 0.029807 0.250304 0.416345
O O3 0.997498 0.211765 0.332923
O O4 0.052286 0.000000 0.380842
O O5 0.750000 0.664359 0.208362
O O6 0.526854 0.500000 0.207871
O O7 0.529717 0.745512 0.166540
O O8 0.527899 0.743665 0.250026
O O9 0.500000 0.284930 0.500000
O O10 0.750000 0.314099 0.537932
O O11 0.548409 0.500000 0.547530
O O12 0.250000 0.815464 0.879431
O O13 0.503322 0.786519 0.916035
O O14 0.449618 0.000000 0.867313
O O15 0.250000 0.820823 0.706272
O O16 0.456386 0.000000 0.716893
O O17 0.750000 0.217453 0.959007
O O18 0.918202 0.000000 0.959208
O O19 0.000000 0.219886 0.000000
#
# Coordination Sequence:
#
# PCOD9407397 Si02
#       6
#     8   8   8   8   8   8
#     4   9  18  32  48  67  92 120 148 181 224 270
#     4   9  17  29  46  68  92 118 150 187 224 263
#     4   9  18  32  48  66  90 120 152 185 222 265
#     4   9  16  27  45  67  90 118 150 183 222 266
#     4   9  17  30  48  69  92 118 150 187 224 264
#     4   9  16  26  42  66  94 120 148 185 226 266
#
# _framework density 17.097128000000001
#
# number of rings (size 3 to 8) (size 9 to 14) (size 15 to 20)
#    0.000    3.000    0.000    1.000    0.000    5.667 
#    0.000    0.833    0.000    6.000    0.000    0.000 
#    0.000    0.000    0.000    0.000    0.000    0.000 
#
# Total GULP energy -267503.349119 kJ/mol
# GULP energy per Si atom -5572.986440 kJ/mol
# Density = 1.705821 g / cm^3
# Si number density = 17.097128 Si / 1000 Ang^3
#
#
#
# Elastic Constant Matrix: (Units=GPa)
#
#
# Indices 1 2 3 4 5 6 
#
# 1 33.3761 34.1892 65.6697 0.0000 0.0000 0.0000
# 2 34.1892 54.5114 86.1040 0.0000 0.0000 0.0000
# 3 65.6697 86.1040 227.3756 0.0000 0.0000 0.0000
# 4 0.0000 0.0000 0.0000 -6.2891 0.0000 0.0000
# 5 0.0000 0.0000 0.0000 0.0000 32.6758 0.0000
# 6 0.0000 0.0000 0.0000 0.0000 0.0000 11.0932
#
#
#
# Elastic Compliance Matrix: (Units=1/GPa)
#
#
# Indices 1 2 3 4 5 6 
#
# 1 0.095755 -0.040746 -0.012226 0.000000 0.000000 0.000000
# 2 -0.040746 0.062990 -0.012085 0.000000 0.000000 0.000000
# 3 -0.012226 -0.012085 0.012506 0.000000 0.000000 0.000000
# 4 0.000000 0.000000 0.000000 -0.159005 0.000000 0.000000
# 5 0.000000 0.000000 0.000000 0.000000 0.030604 0.000000
# 6 0.000000 0.000000 0.000000 0.000000 0.000000 0.090146
#
#
# Mechanical properties :
#
#
# Convention : Reuss Voigt Hill
#
# Bulk Modulus (GPa) = 24.30918 76.35433 50.33176
# Shear Modulus (GPa) = 18.06230 16.11599 17.08914
#
# Velocity S-wave (km/s) = 3.25384 3.07353 3.16497
# Velocity P-wave (km/s) = 5.32595 7.57308 6.54665
#
# Compressibility (1/GPa) = 0.04113672
#
# Stress axis : x y z
#
# Youngs Moduli (GPa) = 10.44335 15.87560 79.96447
#
# Poissons Ratio (x) = 0.64686 0.97762
# Poissons Ratio (y) = 0.42552 0.96640
# Poissons Ratio (z) = 0.12768 0.19186
#
# Static dielectric constant tensor:
#      x y z
#    x 1.570920 0.000000 0.000000 
#    y 0.000000 1.569240 0.000000 
#    z 0.000000 0.000000 1.559510 
# 
# From -- ./inp_files/35301.got.cif
#   From: 2010.05.17/outbox.cif.g08.bks.cpg/sg51_18_cif.got.tgz:35301.got - 2010.06.03 11:52:47.
