data_PCOD9407566
_publ_section_title
;
Structure prediction by ZEFSAII (Michael W. Deem and Ramdas Pophale) SiO2 
 PCOD9407566
Probable space group: P M M A
;
_chemical_formula_sum "Si O2"
_cell_formula_units_Z 48
_cell_length_a 30.000000
_cell_length_b 9.000000
_cell_length_c 9.000000
_cell_angle_alpha 90.000000
_cell_angle_beta 90.000000
_cell_angle_gamma 90.000000
_cell_volume 2430.000000
_symmetry_space_group_name_H-M "P M M A"
_symmetry_group_IT_number 51
_symmetry_cell_setting 'orthorhombic'
loop_
_space_group_symop_operation_xyz
x,y,z
1/2-x,-y,z
1/2+x,-y,-z
-x,y,-z
-x,-y,-z
1/2+x,y,-z
1/2-x,y,z
x,-y,z
loop_
_atom_site_type_symbol
_atom_site_label
_atom_site_fract_x
_atom_site_fract_y
_atom_site_fract_z
Si Si1 0.839116 0.178565 0.665787
Si Si2 0.840718 0.181325 0.327858
Si Si3 0.576355 0.171008 0.130506
Si Si4 0.488844 0.837235 0.328463
Si Si5 0.417850 0.329952 0.169431
Si Si6 0.750000 0.818641 0.827230
Si Si7 0.250000 0.181329 0.830738
O O1 0.845796 0.232015 0.497246
O O2 0.876988 0.233363 0.774331
O O3 0.792881 0.229323 0.735949
O O4 0.838855 0.000000 0.661148
O O5 0.881239 0.226172 0.222838
O O6 0.794156 0.228330 0.256162
O O7 0.841287 0.000000 0.330699
O O8 0.534007 0.169068 0.236514
O O9 0.584906 0.000000 0.082708
O O10 0.567281 0.271227 0.989763
O O11 0.500000 0.833098 0.500000
O O12 0.457350 0.704805 0.282371
O O13 0.467318 0.000000 0.296267
O O14 0.405504 0.500000 0.164878
O O15 0.750000 0.000000 0.830678
O O16 0.750000 0.769558 0.998177
O O17 0.250000 0.000000 0.831663
#
# Coordination Sequence:
#
# PCOD9407566 Si02
#       7
#     8   8   8   8   8   4   4
#     4  10  19  35  58  84 112 144 186 232 278 328
#     4   9  17  30  53  83 112 141 177 225 275 325
#     4  10  20  36  58  82 109 144 185 229 275 322
#     4  10  21  39  63  87 109 139 182 231 281 330
#     4  12  25  38  54  80 114 151 186 224 274 330
#     4   9  17  29  54  87 114 143 180 228 280 327
#     4   9  15  25  45  81 120 143 168 216 278 331
#
# _framework density 19.753086
#
# number of rings (size 3 to 8) (size 9 to 14) (size 15 to 20)
#    0.000    2.000    0.000    4.500    0.000   10.333 
#    0.000    2.917    0.000    0.000    0.000    1.167 
#    0.000    0.000    0.000    0.000    0.000    0.000 
#
# Total GULP energy -267866.892030 kJ/mol
# GULP energy per Si atom -5580.560251 kJ/mol
# Density = 1.970813 g / cm^3
# Si number density = 19.753086 Si / 1000 Ang^3
#
#
#
# Elastic Constant Matrix: (Units=GPa)
#
#
# Indices 1 2 3 4 5 6 
#
# 1 57.3572 10.3801 0.4493 0.0000 0.0000 0.0000
# 2 10.3801 -2.5292 18.0547 0.0000 0.0000 0.0000
# 3 0.4493 18.0547 72.5544 0.0000 0.0000 0.0000
# 4 0.0000 0.0000 0.0000 -15.3735 0.0000 0.0000
# 5 0.0000 0.0000 0.0000 0.0000 27.2714 0.0000
# 6 0.0000 0.0000 0.0000 0.0000 0.0000 -15.3587
#
#
#
# Elastic Compliance Matrix: (Units=1/GPa)
#
#
# Indices 1 2 3 4 5 6 
#
# 1 0.013818 0.020206 -0.005114 0.000000 0.000000 0.000000
# 2 0.020206 -0.112863 0.027960 0.000000 0.000000 0.000000
# 3 -0.005114 0.027960 0.006857 0.000000 0.000000 0.000000
# 4 0.000000 0.000000 0.000000 -0.065047 0.000000 0.000000
# 5 0.000000 0.000000 0.000000 0.000000 0.036668 0.000000
# 6 0.000000 0.000000 0.000000 0.000000 0.000000 -0.065110
#
#
# Mechanical properties :
#
#
# Convention : Reuss Voigt Hill
#
# Bulk Modulus (GPa) = -164.38200 20.57229 -71.90485
# Shear Modulus (GPa) = -18.26096 5.87438 -6.19329
#
# Velocity S-wave (km/s) = -3.04379 1.72637 -1.77261
# Velocity P-wave (km/s) = 9.78529 3.79620 6.37733
#
# Compressibility (1/GPa) = -0.00608339
#
# Stress axis : x y z
#
# Youngs Moduli (GPa) = 72.36972 -8.86033 145.84140
#
# Poissons Ratio (x) = 0.17903 0.74579
# Poissons Ratio (y) = -1.46230 -4.07773
# Poissons Ratio (z) = 0.37008 0.24773
#
# Static dielectric constant tensor:
#      x y z
#    x 1.653020 0.000000 0.000000 
#    y 0.000000 1.717740 0.000000 
#    z 0.000000 0.000000 1.674570 
# 
# From -- ./inp_files/12967.got.cif
#   From: 2010.05.17/outbox.ucp.g08.bks.cvg/sg51_7_cif.got.tgz:12967.got - 2010.06.11 16:27:58.
