data_PCOD9407910
_publ_section_title
;
Structure prediction by ZEFSAII (Michael W. Deem and Ramdas Pophale) SiO2 
 PCOD9407910
Probable space group: P N N A
;
_chemical_formula_sum "Si O2"
_cell_formula_units_Z 36
_cell_length_a 20.892191
_cell_length_b 5.302008
_cell_length_c 18.729326
_cell_angle_alpha 90.000000
_cell_angle_beta 90.000000
_cell_angle_gamma 90.000000
_cell_volume 2074.658001
_symmetry_space_group_name_H-M "P N N A"
_symmetry_group_IT_number 52
_symmetry_cell_setting 'orthorhombic'
loop_
_space_group_symop_operation_xyz
x,y,z
1/2-x,-y,z
x,1/2-y,1/2-z
1/2-x,1/2+y,1/2-z
-x,-y,-z
1/2+x,y,-z
-x,1/2+y,1/2+z
1/2+x,1/2-y,1/2+z
loop_
_atom_site_type_symbol
_atom_site_label
_atom_site_fract_x
_atom_site_fract_y
_atom_site_fract_z
Si Si1 0.645316 0.021920 0.111871
Si Si2 0.177883 0.970079 0.525951
Si Si3 0.501835 0.480028 0.587074
Si Si4 0.788178 0.750000 0.250000
Si Si5 0.052804 0.976717 0.435468
O O1 0.656894 0.264541 0.061456
O O2 0.671643 0.118489 0.187165
O O3 0.677974 0.768944 0.080398
O O4 0.570369 0.955524 0.113430
O O5 0.250000 0.000000 0.498190
O O6 0.121810 0.921843 0.468891
O O7 0.500000 0.500000 0.500000
O O8 0.545673 0.241883 0.603649
O O9 0.530718 0.743275 0.611662
O O10 0.750000 0.500000 0.221514
O O11 0.000000 0.000000 0.500000
#
# Coordination Sequence:
#
# PCOD9407910 Si02
#       5
#     8   8   8   4   8
#     4  12  21  35  50  64  92 130 173 208 234 279
#     4  12  21  30  48  71  93 124 162 202 244 298
#     4  10  16  30  51  69  83 113 160 205 253 289
#     4  12  26  40  46  64 100 142 180 210 238 278
#     4  10  16  30  46  68  91 111 153 199 252 298
#
# _framework density 17.352256000000001
#
# number of rings (size 3 to 8) (size 9 to 14) (size 15 to 20)
#    0.000    0.889    8.889    4.000    0.000    0.000 
#    0.000    0.000    0.000    0.000    0.000    0.000 
#    0.000    0.000    0.000    4.000    0.000    2.889 
#
# Total GULP energy -200583.532787 kJ/mol
# GULP energy per Si atom -5571.764800 kJ/mol
# Density = 1.731276 g / cm^3
# Si number density = 17.352256 Si / 1000 Ang^3
#
#
#
# Elastic Constant Matrix: (Units=GPa)
#
#
# Indices 1 2 3 4 5 6 
#
# 1 118.6934 17.3586 26.6556 0.0000 0.0000 0.0000
# 2 17.3586 139.7699 7.8107 0.0000 0.0000 0.0000
# 3 26.6556 7.8107 15.5917 0.0000 0.0000 0.0000
# 4 0.0000 0.0000 0.0000 16.5843 0.0000 0.0000
# 5 0.0000 0.0000 0.0000 0.0000 16.9522 0.0000
# 6 0.0000 0.0000 0.0000 0.0000 0.0000 20.4086
#
#
#
# Elastic Compliance Matrix: (Units=1/GPa)
#
#
# Indices 1 2 3 4 5 6 
#
# 1 0.013698 -0.000404 -0.023215 0.000000 0.000000 0.000000
# 2 -0.000404 0.007373 -0.003003 0.000000 0.000000 0.000000
# 3 -0.023215 -0.003003 0.105329 0.000000 0.000000 0.000000
# 4 0.000000 0.000000 0.000000 0.060298 0.000000 0.000000
# 5 0.000000 0.000000 0.000000 0.000000 0.058989 0.000000
# 6 0.000000 0.000000 0.000000 0.000000 0.000000 0.048999
#
#
# Mechanical properties :
#
#
# Convention : Reuss Voigt Hill
#
# Bulk Modulus (GPa) = 13.66945 41.96719 27.81832
# Shear Modulus (GPa) = 13.42948 25.60437 19.51693
#
# Velocity S-wave (km/s) = 2.78498 3.84547 3.35737
# Velocity P-wave (km/s) = 4.27039 6.62984 5.57634
#
# Compressibility (1/GPa) = 0.07315584
#
# Stress axis : x y z
#
# Youngs Moduli (GPa) = 73.00500 135.63773 9.49402
#
# Poissons Ratio (x) = 0.05478 0.22041
# Poissons Ratio (y) = 0.02948 0.02851
# Poissons Ratio (z) = 1.69483 0.40730
#
# Static dielectric constant tensor:
#      x y z
#    x 1.629680 0.000000 0.000000 
#    y 0.000000 1.693110 0.000000 
#    z 0.000000 0.000000 1.564020 
# 
# From -- ./inp_files/37500.got.cif
#   From: 2010.05.17/outbox.cif.g08.bks.cpg/sg52_19_cif.got.tgz:37500.got - 2010.06.03 12:15:38.
