data_PCOD9407294
_publ_section_title
;
Structure prediction by ZEFSAII (Michael W. Deem and Ramdas Pophale) SiO2 
 PCOD9407294
Probable space group: P M M A
;
_chemical_formula_sum "Si O2"
_cell_formula_units_Z 48
_cell_length_a 7.360141
_cell_length_b 9.721244
_cell_length_c 32.594876
_cell_angle_alpha 90.000000
_cell_angle_beta 90.000000
_cell_angle_gamma 90.000000
_cell_volume 2332.154464
_symmetry_space_group_name_H-M "P M M A"
_symmetry_group_IT_number 51
_symmetry_cell_setting 'orthorhombic'
loop_
_space_group_symop_operation_xyz
x,y,z
1/2-x,-y,z
1/2+x,-y,-z
-x,y,-z
-x,-y,-z
1/2+x,y,-z
1/2-x,y,z
x,-y,z
loop_
_atom_site_type_symbol
_atom_site_label
_atom_site_fract_x
_atom_site_fract_y
_atom_site_fract_z
Si Si1 0.472145 0.158535 0.288954
Si Si2 0.966987 0.156351 0.954377
Si Si3 0.471189 0.658770 0.212386
Si Si4 0.528506 0.341694 0.879745
Si Si5 0.533532 0.342596 0.544210
Si Si6 0.528668 0.660670 0.633926
O O1 0.250000 0.158908 0.289002
O O2 0.530624 0.239621 0.248170
O O3 0.531659 0.243497 0.328976
O O4 0.529354 0.000000 0.289529
O O5 0.750000 0.148983 0.949682
O O6 0.036057 0.246753 0.916748
O O7 0.038210 0.000000 0.953337
O O8 0.000000 0.213613 0.000000
O O9 0.250000 0.658763 0.212779
O O10 0.526146 0.500000 0.219724
O O11 0.527203 0.699706 0.166310
O O12 0.750000 0.339161 0.879994
O O13 0.474715 0.500000 0.885946
O O14 0.500000 0.274405 0.500000
O O15 0.750000 0.350610 0.547345
O O16 0.462276 0.500000 0.541736
O O17 0.470875 0.288777 0.588467
O O18 0.750000 0.661333 0.634956
O O19 0.475499 0.500000 0.638771
#
# Coordination Sequence:
#
# PCOD9407294 Si02
#       6
#     8   8   8   8   8   8
#     4   9  15  20  28  45  68  93 121 151 181 216
#     4   9  17  28  41  57  78 104 132 161 192 225
#     4   8  13  21  32  46  67  95 123 149 180 221
#     4   8  14  24  37  53  73  98 127 157 190 228
#     4   8  13  21  34  52  72  94 122 155 187 219
#     4   8  13  21  32  45  64  92 121 147 180 221
#
# _framework density 20.581828999999999
#
# number of rings (size 3 to 8) (size 9 to 14) (size 15 to 20)
#    0.000    3.667    0.000    2.500    0.000    3.000 
#    0.000    3.333    0.000    0.500    0.000    0.000 
#    0.000    1.333    0.000    5.667    0.000    7.500 
#
# Total GULP energy -267490.658807 kJ/mol
# GULP energy per Si atom -5572.722058 kJ/mol
# Density = 2.053498 g / cm^3
# Si number density = 20.581829 Si / 1000 Ang^3
#
#
#
# Elastic Constant Matrix: (Units=GPa)
#
#
# Indices 1 2 3 4 5 6 
#
# 1 74.5687 3.5518 5.5969 0.0000 0.0000 0.0000
# 2 3.5518 99.6651 127.9558 0.0000 0.0000 0.0000
# 3 5.5969 127.9558 265.1557 0.0000 0.0000 0.0000
# 4 0.0000 0.0000 0.0000 -10.6785 0.0000 0.0000
# 5 0.0000 0.0000 0.0000 0.0000 7.2124 0.0000
# 6 0.0000 0.0000 0.0000 0.0000 0.0000 -12.5308
#
#
#
# Elastic Compliance Matrix: (Units=1/GPa)
#
#
# Indices 1 2 3 4 5 6 
#
# 1 0.013435 -0.000302 -0.000138 0.000000 0.000000 0.000000
# 2 -0.000302 0.026380 -0.012724 0.000000 0.000000 0.000000
# 3 -0.000138 -0.012724 0.009914 0.000000 0.000000 0.000000
# 4 0.000000 0.000000 0.000000 -0.093646 0.000000 0.000000
# 5 0.000000 0.000000 0.000000 0.000000 0.138650 0.000000
# 6 0.000000 0.000000 0.000000 0.000000 0.000000 -0.079803
#
#
# Mechanical properties :
#
#
# Convention : Reuss Voigt Hill
#
# Bulk Modulus (GPa) = 42.73012 79.28871 61.00941
# Shear Modulus (GPa) = 101.92360 16.95296 59.43828
#
# Velocity S-wave (km/s) = 7.04476 2.87311 5.37975
# Velocity P-wave (km/s) = 9.32618 7.04369 8.26412
#
# Compressibility (1/GPa) = 0.02340270
#
# Stress axis : x y z
#
# Youngs Moduli (GPa) = 74.43143 37.90798 100.86431
#
# Poissons Ratio (x) = 0.01143 0.01393
# Poissons Ratio (y) = 0.02244 1.28336
# Poissons Ratio (z) = 0.01028 0.48233
#
# Static dielectric constant tensor:
#      x y z
#    x 1.872740 0.000000 0.000000 
#    y 0.000000 1.683650 0.000000 
#    z 0.000000 0.000000 1.750150 
# 
# From -- ./inp_files/37687.got.cif
#   From: 2010.05.17/outbox.cif.g08.bks.cpg/sg51_19_cif.got.tgz:37687.got - 2010.06.03 11:52:47.
