data_PCOD9407048
_publ_section_title
;
Structure prediction by ZEFSAII (Michael W. Deem and Ramdas Pophale) SiO2 
 PCOD9407048
Probable space group: P M M A
;
_chemical_formula_sum "Si O2"
_cell_formula_units_Z 64
_cell_length_a 17.766905
_cell_length_b 15.754960
_cell_length_c 11.888720
_cell_angle_alpha 90.000000
_cell_angle_beta 90.000000
_cell_angle_gamma 90.000000
_cell_volume 3327.853381
_symmetry_space_group_name_H-M "P M M A"
_symmetry_group_IT_number 51
_symmetry_cell_setting 'orthorhombic'
loop_
_space_group_symop_operation_xyz
x,y,z
1/2-x,-y,z
1/2+x,-y,-z
-x,y,-z
-x,-y,-z
1/2+x,y,-z
1/2-x,y,z
x,-y,z
loop_
_atom_site_type_symbol
_atom_site_label
_atom_site_fract_x
_atom_site_fract_y
_atom_site_fract_z
Si Si1 0.581069 0.402480 0.939616
Si Si2 0.336504 0.595592 0.509753
Si Si3 0.841517 0.906889 0.938806
Si Si4 0.402089 0.265766 0.671375
Si Si5 0.340095 0.742391 0.922170
Si Si6 0.839761 0.845228 0.693687
Si Si7 0.587739 0.905307 0.466240
Si Si8 0.571421 0.330805 0.689724
O O1 0.606257 0.500000 0.949460
O O2 0.572492 0.377038 0.809497
O O3 0.500000 0.394956 0.000000
O O4 0.636012 0.336883 0.001159
O O5 0.250000 0.603302 0.469965
O O6 0.346488 0.500000 0.554994
O O7 0.352411 0.667257 0.601934
O O8 0.393911 0.611430 0.407995
O O9 0.750000 0.906400 0.941287
O O10 0.863341 0.891310 0.809094
O O11 0.867159 0.000000 0.976439
O O12 0.866326 0.828341 0.014953
O O13 0.377777 0.264171 0.800606
O O14 0.394975 0.172542 0.616616
O O15 0.487804 0.298444 0.661818
O O16 0.250000 0.745100 0.910115
O O17 0.750000 0.838499 0.693506
O O18 0.866634 0.892049 0.581577
O O19 0.876435 0.752494 0.694739
O O20 0.500000 0.899755 0.500000
O O21 0.602345 0.000000 0.420330
#
# Coordination Sequence:
#
# PCOD9407048 Si02
#       8
#     8   8   8   8   8   8   8   8
#     4  11  24  43  67  94 126 164 208 260 318 385
#     4  11  25  43  65  95 127 161 208 265 318 371
#     4   9  19  37  62  92 123 156 200 255 313 370
#     4  12  24  42  64  90 131 176 212 253 314 386
#     4  11  24  41  64  93 128 168 209 259 316 379
#     4  11  21  37  65  94 122 161 208 262 322 373
#     4  11  23  40  62  93 129 166 211 263 320 379
#     4  12  22  40  68  95 125 165 211 261 318 376
#
# _framework density 19.231615999999999
#
# number of rings (size 3 to 8) (size 9 to 14) (size 15 to 20)
#    0.000    1.000    5.000    1.875    0.000    4.500 
#    0.000    0.000    0.000    1.125    0.000    0.000 
#    0.000    0.000    0.000    0.000    0.000    0.000 
#
# Total GULP energy -357742.116412 kJ/mol
# GULP energy per Si atom -5589.720569 kJ/mol
# Density = 1.918784 g / cm^3
# Si number density = 19.231616 Si / 1000 Ang^3
#
#
#
# Elastic Constant Matrix: (Units=GPa)
#
#
# Indices 1 2 3 4 5 6 
#
# 1 70.7277 29.3941 18.5266 0.0000 0.0000 0.0000
# 2 29.3941 157.3623 40.2939 0.0000 0.0000 0.0000
# 3 18.5266 40.2939 93.6827 0.0000 0.0000 0.0000
# 4 0.0000 0.0000 0.0000 13.3773 0.0000 0.0000
# 5 0.0000 0.0000 0.0000 0.0000 20.7659 0.0000
# 6 0.0000 0.0000 0.0000 0.0000 0.0000 4.9020
#
#
#
# Elastic Compliance Matrix: (Units=1/GPa)
#
#
# Indices 1 2 3 4 5 6 
#
# 1 0.015677 -0.002399 -0.002069 0.000000 0.000000 0.000000
# 2 -0.002399 0.007508 -0.002755 0.000000 0.000000 0.000000
# 3 -0.002069 -0.002755 0.012268 0.000000 0.000000 0.000000
# 4 0.000000 0.000000 0.000000 0.074754 0.000000 0.000000
# 5 0.000000 0.000000 0.000000 0.000000 0.048156 0.000000
# 6 0.000000 0.000000 0.000000 0.000000 0.000000 0.203998
#
#
# Mechanical properties :
#
#
# Convention : Reuss Voigt Hill
#
# Bulk Modulus (GPa) = 47.59784 55.35577 51.47680
# Shear Modulus (GPa) = 13.02730 23.37959 18.20344
#
# Velocity S-wave (km/s) = 2.60549 3.49045 3.07992
# Velocity P-wave (km/s) = 5.81850 6.71495 6.28274
#
# Compressibility (1/GPa) = 0.02100936
#
# Stress axis : x y z
#
# Youngs Moduli (GPa) = 63.78570 133.18642 81.51038
#
# Poissons Ratio (x) = 0.31948 0.16861
# Poissons Ratio (y) = 0.15301 0.22456
# Poissons Ratio (z) = 0.13195 0.36693
#
# Static dielectric constant tensor:
#      x y z
#    x 1.655760 0.000000 0.000000 
#    y 0.000000 1.675850 0.000000 
#    z 0.000000 0.000000 1.646100 
# 
# From -- ./inp_files/17589.got.cif
#   From: 2010.05.17/outbox.cif.g08.bks.cpg/sg51_9_cif.got.tgz:17589.got - 2010.06.03 11:52:47.
