data_PCOD9407523
_publ_section_title
;
Structure prediction by ZEFSAII (Michael W. Deem and Ramdas Pophale) SiO2 
 PCOD9407523
Probable space group: P M M A
;
_chemical_formula_sum "Si O2"
_cell_formula_units_Z 44
_cell_length_a 9.000000
_cell_length_b 18.000000
_cell_length_c 15.000000
_cell_angle_alpha 90.000000
_cell_angle_beta 90.000000
_cell_angle_gamma 90.000000
_cell_volume 2430.000000
_symmetry_space_group_name_H-M "P M M A"
_symmetry_group_IT_number 51
_symmetry_cell_setting 'orthorhombic'
loop_
_space_group_symop_operation_xyz
x,y,z
1/2-x,-y,z
1/2+x,-y,-z
-x,y,-z
-x,-y,-z
1/2+x,y,-z
1/2-x,y,z
x,-y,z
loop_
_atom_site_type_symbol
_atom_site_label
_atom_site_fract_x
_atom_site_fract_y
_atom_site_fract_z
Si Si1 0.073227 0.416424 0.596911
Si Si2 0.571785 0.872853 0.728731
Si Si3 0.928705 0.000000 0.595338
Si Si4 0.081232 0.882540 0.911270
Si Si5 0.420229 0.701617 0.910783
Si Si6 0.927462 0.701050 0.726748
O O1 0.250000 0.407141 0.589885
O O2 0.043800 0.500000 0.632018
O O3 0.000000 0.411879 0.500000
O O4 0.003411 0.353583 0.657817
O O5 0.750000 0.874592 0.737242
O O6 0.503670 0.900893 0.821078
O O7 0.528769 0.787353 0.711865
O O8 0.525915 0.927237 0.650252
O O9 0.000000 0.000000 0.500000
O O10 0.750000 0.000000 0.589047
O O11 0.250000 0.907983 0.908777
O O12 0.082157 0.791979 0.914530
O O13 0.000000 0.908738 0.000000
O O14 0.250000 0.676704 0.904058
O O15 0.514789 0.680968 0.824800
O O16 0.500000 0.675099 0.000000
O O17 0.750000 0.696023 0.721515
#
# Coordination Sequence:
#
# PCOD9407523 Si02
#       6
#     8   8   4   8   8   8
#     4  10  21  37  56  78 105 136 169 208 257 311
#     4   9  19  35  53  75 103 135 173 215 256 301
#     4  10  22  40  57  72  97 134 173 216 264 308
#     4   9  16  27  47  74 103 134 167 207 254 304
#     4   9  16  27  45  72 105 139 174 211 252 299
#     4  10  19  32  53  80 107 136 172 213 256 304
#
# _framework density 18.106995999999999
#
# number of rings (size 3 to 8) (size 9 to 14) (size 15 to 20)
#    0.000    2.545    0.000    2.182    0.000    7.636 
#    0.000    2.273    0.000    0.545    0.000    0.000 
#    0.000    0.000    0.000    0.000    0.000    0.000 
#
# Total GULP energy -245440.612447 kJ/mol
# GULP energy per Si atom -5578.195737 kJ/mol
# Density = 1.806578 g / cm^3
# Si number density = 18.106996 Si / 1000 Ang^3
#
#
#
# Elastic Constant Matrix: (Units=GPa)
#
#
# Indices 1 2 3 4 5 6 
#
# 1 57.5372 56.5906 59.8467 0.0000 0.0000 0.0000
# 2 56.5906 84.7139 85.1456 0.0000 0.0000 0.0000
# 3 59.8467 85.1456 152.8226 0.0000 0.0000 0.0000
# 4 0.0000 0.0000 0.0000 125.7065 0.0000 0.0000
# 5 0.0000 0.0000 0.0000 0.0000 37.7102 0.0000
# 6 0.0000 0.0000 0.0000 0.0000 0.0000 15.1445
#
#
#
# Elastic Compliance Matrix: (Units=1/GPa)
#
#
# Indices 1 2 3 4 5 6 
#
# 1 0.051014 -0.031815 -0.002251 0.000000 0.000000 0.000000
# 2 -0.031815 0.046670 -0.013543 0.000000 0.000000 0.000000
# 3 -0.002251 -0.013543 0.014971 0.000000 0.000000 0.000000
# 4 0.000000 0.000000 0.000000 0.007955 0.000000 0.000000
# 5 0.000000 0.000000 0.000000 0.000000 0.026518 0.000000
# 6 0.000000 0.000000 0.000000 0.000000 0.000000 0.066031
#
#
# Mechanical properties :
#
#
# Convention : Reuss Voigt Hill
#
# Bulk Modulus (GPa) = 57.35688 77.58216 67.46952
# Shear Modulus (GPa) = 15.91398 41.94496 28.92947
#
# Velocity S-wave (km/s) = 2.96782 4.81823 4.00145
# Velocity P-wave (km/s) = 6.59464 8.59612 7.66103
#
# Compressibility (1/GPa) = 0.01743470
#
# Stress axis : x y z
#
# Youngs Moduli (GPa) = 19.60258 21.42716 66.79677
#
# Poissons Ratio (x) = 0.68171 0.15039
# Poissons Ratio (y) = 0.62366 0.90463
# Poissons Ratio (z) = 0.04413 0.29019
#
# Static dielectric constant tensor:
#      x y z
#    x 1.601170 0.000000 0.000000 
#    y 0.000000 1.624530 0.000000 
#    z 0.000000 0.000000 1.560350 
# 
# From -- ./inp_files/20906.got.cif
#   From: 2010.05.17/outbox.ucp.g08.bks.cvg/sg51_11_cif.got.tgz:20906.got - 2010.06.11 16:27:58.
