data_PCOD9407391
_publ_section_title
;
Structure prediction by ZEFSAII (Michael W. Deem and Ramdas Pophale) SiO2 
 PCOD9407391
Probable space group: P M M A
;
_chemical_formula_sum "Si O2"
_cell_formula_units_Z 48
_cell_length_a 7.480616
_cell_length_b 9.624944
_cell_length_c 31.984259
_cell_angle_alpha 90.000000
_cell_angle_beta 90.000000
_cell_angle_gamma 90.000000
_cell_volume 2302.882963
_symmetry_space_group_name_H-M "P M M A"
_symmetry_group_IT_number 51
_symmetry_cell_setting 'orthorhombic'
loop_
_space_group_symop_operation_xyz
x,y,z
1/2-x,-y,z
1/2+x,-y,-z
-x,y,-z
-x,-y,-z
1/2+x,y,-z
1/2-x,y,z
x,-y,z
loop_
_atom_site_type_symbol
_atom_site_label
_atom_site_fract_x
_atom_site_fract_y
_atom_site_fract_z
Si Si1 0.963566 0.341136 0.283462
Si Si2 0.468613 0.340225 0.874818
Si Si3 0.963898 0.841811 0.047585
Si Si4 0.964147 0.842005 0.546322
Si Si5 0.535540 0.657829 0.622666
Si Si6 0.968646 0.159977 0.205457
O O1 0.750000 0.349402 0.278400
O O2 0.033205 0.500000 0.279825
O O3 0.029228 0.239323 0.247296
O O4 0.998103 0.290048 0.330531
O O5 0.250000 0.342156 0.874940
O O6 0.526917 0.500000 0.872185
O O7 0.529011 0.263286 0.917068
O O8 0.522915 0.249071 0.834896
O O9 0.750000 0.848842 0.052357
O O10 0.032870 0.000000 0.052902
O O11 0.000000 0.797808 0.000000
O O12 0.750000 0.849234 0.550572
O O13 0.033114 0.751432 0.584811
O O14 0.000000 0.783990 0.500000
O O15 0.034159 0.000000 0.547586
O O16 0.750000 0.651684 0.618628
O O17 0.466413 0.500000 0.620112
O O18 0.750000 0.158114 0.205651
O O19 0.026774 0.000000 0.203521
#
# Coordination Sequence:
#
# PCOD9407391 Si02
#       6
#     8   8   8   8   8   8
#     4   9  17  29  45  66  91 116 143 178 219 259
#     4   9  16  26  42  64  89 117 148 182 221 264
#     4   9  17  29  45  65  89 117 148 182 221 264
#     4   9  18  32  48  66  89 117 148 182 220 260
#     4   9  18  32  48  66  90 120 150 179 215 261
#     4   9  16  26  42  65  91 116 144 181 222 261
#
# _framework density 20.843439
#
# number of rings (size 3 to 8) (size 9 to 14) (size 15 to 20)
#    0.000    3.000    0.000    1.000    0.000    6.000 
#    0.000    0.000    0.000    1.000    0.000    0.000 
#    0.000    0.000    0.000    0.000    0.000    0.000 
#
# Total GULP energy -267879.853007 kJ/mol
# GULP energy per Si atom -5580.830271 kJ/mol
# Density = 2.079600 g / cm^3
# Si number density = 20.843439 Si / 1000 Ang^3
#
#
#
# Elastic Constant Matrix: (Units=GPa)
#
#
# Indices 1 2 3 4 5 6 
#
# 1 58.7210 5.0522 -1.3487 0.0000 0.0000 0.0000
# 2 5.0522 146.8615 145.8335 0.0000 0.0000 0.0000
# 3 -1.3487 145.8335 237.9030 0.0000 0.0000 0.0000
# 4 0.0000 0.0000 0.0000 37.2432 0.0000 0.0000
# 5 0.0000 0.0000 0.0000 0.0000 17.7997 0.0000
# 6 0.0000 0.0000 0.0000 0.0000 0.0000 63.0508
#
#
#
# Elastic Compliance Matrix: (Units=1/GPa)
#
#
# Indices 1 2 3 4 5 6 
#
# 1 0.017208 -0.001760 0.001177 0.000000 0.000000 0.000000
# 2 -0.001760 0.017582 -0.010787 0.000000 0.000000 0.000000
# 3 0.001177 -0.010787 0.010823 0.000000 0.000000 0.000000
# 4 0.000000 0.000000 0.000000 0.026851 0.000000 0.000000
# 5 0.000000 0.000000 0.000000 0.000000 0.056181 0.000000
# 6 0.000000 0.000000 0.000000 0.000000 0.000000 0.015860
#
#
# Mechanical properties :
#
#
# Convention : Reuss Voigt Hill
#
# Bulk Modulus (GPa) = 43.72514 82.50662 63.11588
# Shear Modulus (GPa) = 28.59272 43.21532 35.90402
#
# Velocity S-wave (km/s) = 3.70778 4.55832 4.15487
# Velocity P-wave (km/s) = 6.27325 8.20819 7.30506
#
# Compressibility (1/GPa) = 0.02287014
#
# Stress axis : x y z
#
# Youngs Moduli (GPa) = 58.11196 56.87764 92.39835
#
# Poissons Ratio (x) = 0.10013 -0.10872
# Poissons Ratio (y) = 0.10230 0.99674
# Poissons Ratio (z) = -0.06838 0.61356
#
# Static dielectric constant tensor:
#      x y z
#    x 1.797140 0.000000 0.000000 
#    y 0.000000 1.725260 0.000000 
#    z 0.000000 0.000000 1.717150 
# 
# From -- ./inp_files/35298.got.cif
#   From: 2010.05.17/outbox.cif.g08.bks.cpg/sg51_18_cif.got.tgz:35298.got - 2010.06.03 11:52:47.
