data_PCOD9407825
_publ_section_title
;
Structure prediction by ZEFSAII (Michael W. Deem and Ramdas Pophale) SiO2 
 PCOD9407825
Probable space group: P M M A
;
_chemical_formula_sum "Si O2"
_cell_formula_units_Z 56
_cell_length_a 15.000000
_cell_length_b 9.000000
_cell_length_c 21.000000
_cell_angle_alpha 90.000000
_cell_angle_beta 90.000000
_cell_angle_gamma 90.000000
_cell_volume 2835.000000
_symmetry_space_group_name_H-M "P M M A"
_symmetry_group_IT_number 51
_symmetry_cell_setting 'orthorhombic'
loop_
_space_group_symop_operation_xyz
x,y,z
1/2-x,-y,z
1/2+x,-y,-z
-x,y,-z
-x,-y,-z
1/2+x,y,-z
1/2-x,y,z
x,-y,z
loop_
_atom_site_type_symbol
_atom_site_label
_atom_site_fract_x
_atom_site_fract_y
_atom_site_fract_z
Si Si1 0.750000 0.328765 0.381398
Si Si2 0.250000 0.330106 0.466085
Si Si3 0.563583 0.176939 0.559212
Si Si4 0.393718 0.670395 0.010515
Si Si5 0.439226 0.328022 0.656388
Si Si6 0.849422 0.173682 0.115233
Si Si7 0.995243 0.668025 0.199221
Si Si8 0.647915 0.171400 0.858080
O O1 0.750000 0.500000 0.357337
O O2 0.750000 0.330637 0.457248
O O3 0.657746 0.261348 0.358336
O O4 0.250000 0.500000 0.443492
O O5 0.339763 0.249054 0.445560
O O6 0.500000 0.222785 0.500000
O O7 0.513866 0.234686 0.621364
O O8 0.571284 0.000000 0.558085
O O9 0.364785 0.500000 0.001980
O O10 0.370121 0.729723 0.079862
O O11 0.500000 0.676017 0.000000
O O12 0.351456 0.776383 0.957843
O O13 0.441972 0.500000 0.632362
O O14 0.455131 0.331222 0.730932
O O15 0.750000 0.198432 0.141093
O O16 0.921902 0.270635 0.151098
O O17 0.871086 0.000000 0.120681
O O18 0.019816 0.500000 0.181247
O O19 0.080918 0.771611 0.195026
O O20 0.750000 0.185548 0.838572
O O21 0.629751 0.000000 0.874225
#
# Coordination Sequence:
#
# PCOD9407825 Si02
#       8
#     4   4   8   8   8   8   8   8
#     4   9  18  35  63  95 123 157 202 249 296 355
#     4  11  21  37  67  95 123 163 210 253 302 365
#     4  11  23  39  61  92 130 163 199 253 311 362
#     4  11  22  37  61  92 121 152 196 253 313 361
#     4  10  22  41  64  91 123 164 211 252 299 361
#     4  11  24  40  60  88 123 161 199 241 299 369
#     4  11  24  41  64  91 121 159 204 255 301 353
#     4  11  24  42  65  89 117 159 206 252 310 373
#
# _framework density 19.753086
#
# number of rings (size 3 to 8) (size 9 to 14) (size 15 to 20)
#    0.000    1.286    2.857    2.786    1.000    6.286 
#    1.286    0.357    0.000    0.000    0.000    0.000 
#    0.000    0.000    0.000    0.000    0.000    0.000 
#
# Total GULP energy -312851.524251 kJ/mol
# GULP energy per Si atom -5586.634362 kJ/mol
# Density = 1.970813 g / cm^3
# Si number density = 19.753086 Si / 1000 Ang^3
#
#
#
# Elastic Constant Matrix: (Units=GPa)
#
#
# Indices 1 2 3 4 5 6 
#
# 1 126.3668 36.7016 32.1981 0.0000 0.0000 0.0000
# 2 36.7016 37.2983 14.3139 0.0000 0.0000 0.0000
# 3 32.1981 14.3139 40.6502 0.0000 0.0000 0.0000
# 4 0.0000 0.0000 0.0000 11.0948 0.0000 0.0000
# 5 0.0000 0.0000 0.0000 0.0000 22.0955 0.0000
# 6 0.0000 0.0000 0.0000 0.0000 0.0000 31.8690
#
#
#
# Elastic Compliance Matrix: (Units=1/GPa)
#
#
# Indices 1 2 3 4 5 6 
#
# 1 0.012358 -0.009717 -0.006367 0.000000 0.000000 0.000000
# 2 -0.009717 0.038640 -0.005910 0.000000 0.000000 0.000000
# 3 -0.006367 -0.005910 0.031724 0.000000 0.000000 0.000000
# 4 0.000000 0.000000 0.000000 0.090133 0.000000 0.000000
# 5 0.000000 0.000000 0.000000 0.000000 0.045258 0.000000
# 6 0.000000 0.000000 0.000000 0.000000 0.000000 0.031378
#
#
# Mechanical properties :
#
#
# Convention : Reuss Voigt Hill
#
# Bulk Modulus (GPa) = 25.81611 41.19360 33.50485
# Shear Modulus (GPa) = 16.31910 21.08531 18.70220
#
# Velocity S-wave (km/s) = 2.87741 3.27072 3.08035
# Velocity P-wave (km/s) = 4.91295 5.92984 5.44519
#
# Compressibility (1/GPa) = 0.03873550
#
# Stress axis : x y z
#
# Youngs Moduli (GPa) = 80.92026 25.87982 31.52180
#
# Poissons Ratio (x) = 0.25147 0.20070
# Poissons Ratio (y) = 0.78628 0.18628
# Poissons Ratio (z) = 0.51521 0.15294
#
# Static dielectric constant tensor:
#      x y z
#    x 1.702740 0.000000 0.000000 
#    y 0.000000 1.676640 0.000000 
#    z 0.000000 0.000000 1.680760 
# 
# From -- ./inp_files/33519.got.cif
#   From: 2010.05.17/outbox.ucp.g08.bks.cvg/sg51_17_cif.got.tgz:33519.got - 2010.06.11 16:27:58.
