data_PCOD9407265
_publ_section_title
;
Structure prediction by ZEFSAII (Michael W. Deem and Ramdas Pophale) SiO2 
 PCOD9407265
Probable space group: P M M A
;
_chemical_formula_sum "Si O2"
_cell_formula_units_Z 64
_cell_length_a 19.710918
_cell_length_b 7.493026
_cell_length_c 22.430472
_cell_angle_alpha 90.000000
_cell_angle_beta 90.000000
_cell_angle_gamma 90.000000
_cell_volume 3312.855576
_symmetry_space_group_name_H-M "P M M A"
_symmetry_group_IT_number 51
_symmetry_cell_setting 'orthorhombic'
loop_
_space_group_symop_operation_xyz
x,y,z
1/2-x,-y,z
1/2+x,-y,-z
-x,y,-z
-x,-y,-z
1/2+x,y,-z
1/2-x,y,z
x,-y,z
loop_
_atom_site_type_symbol
_atom_site_label
_atom_site_fract_x
_atom_site_fract_y
_atom_site_fract_z
Si Si1 0.672201 0.218176 0.594538
Si Si2 0.523241 0.205474 0.817600
Si Si3 0.868532 0.794198 0.231092
Si Si4 0.577230 0.782137 0.485717
Si Si5 0.430890 0.781678 0.304982
Si Si6 0.579722 0.781789 0.351869
Si Si7 0.534162 0.708673 0.058960
Si Si8 0.677359 0.707089 0.104225
O O1 0.750000 0.276575 0.593349
O O2 0.629102 0.275296 0.536824
O O3 0.631105 0.273608 0.653533
O O4 0.672181 0.000000 0.594236
O O5 0.447510 0.210237 0.789316
O O6 0.568559 0.280895 0.763749
O O7 0.514403 0.283794 0.883164
O O8 0.542525 0.000000 0.826478
O O9 0.871290 0.720781 0.298204
O O10 0.829810 0.709146 0.176064
O O11 0.846411 0.000000 0.233411
O O12 0.500000 0.727181 0.500000
O O13 0.596243 0.726033 0.418806
O O14 0.576960 0.000000 0.486170
O O15 0.502162 0.729942 0.336101
O O16 0.431625 0.000000 0.303058
O O17 0.580945 0.000000 0.349926
O O18 0.546076 0.500000 0.046825
O O19 0.607706 0.786344 0.077696
O O20 0.500000 0.787314 0.000000
O O21 0.750000 0.788574 0.087679
O O22 0.679122 0.500000 0.086412
#
# Coordination Sequence:
#
# PCOD9407265 Si02
#       8
#     8   8   8   8   8   8   8   8
#     4   9  15  20  27  43  68  98 132 170 211 250
#     4   8  14  24  40  60  80 103 133 165 196 235
#     4   8  14  24  38  58  81 103 131 167 201 234
#     4   9  13  18  29  44  66 100 139 171 200 243
#     4   8  12  20  33  48  67  94 129 166 200 236
#     4   8  12  19  32  49  69  96 132 167 198 236
#     4   9  17  29  45  65  87 108 132 164 198 230
#     4   9  17  29  44  61  82 108 136 163 194 237
#
# _framework density 19.318681000000002
#
# number of rings (size 3 to 8) (size 9 to 14) (size 15 to 20)
#    0.000    3.500    1.250    1.500    0.000    0.500 
#    0.000    0.625    0.000    3.000    0.000    0.000 
#    0.000    1.500    0.000    0.375    0.000    0.250 
#
# Total GULP energy -356309.822548 kJ/mol
# GULP energy per Si atom -5567.340977 kJ/mol
# Density = 1.927471 g / cm^3
# Si number density = 19.318681 Si / 1000 Ang^3
#
#
#
# Elastic Constant Matrix: (Units=GPa)
#
#
# Indices 1 2 3 4 5 6 
#
# 1 111.2347 6.6238 78.9218 0.0000 0.0000 0.0000
# 2 6.6238 48.3476 6.0149 0.0000 0.0000 0.0000
# 3 78.9218 6.0149 167.4776 0.0000 0.0000 0.0000
# 4 0.0000 0.0000 0.0000 10.3846 0.0000 0.0000
# 5 0.0000 0.0000 0.0000 0.0000 12.8402 0.0000
# 6 0.0000 0.0000 0.0000 0.0000 0.0000 -0.8170
#
#
#
# Elastic Compliance Matrix: (Units=1/GPa)
#
#
# Indices 1 2 3 4 5 6 
#
# 1 0.013560 -0.001068 -0.006352 0.000000 0.000000 0.000000
# 2 -0.001068 0.020860 -0.000246 0.000000 0.000000 0.000000
# 3 -0.006352 -0.000246 0.008973 0.000000 0.000000 0.000000
# 4 0.000000 0.000000 0.000000 0.096297 0.000000 0.000000
# 5 0.000000 0.000000 0.000000 0.000000 0.077880 0.000000
# 6 0.000000 0.000000 0.000000 0.000000 0.000000 -1.223941
#
#
# Mechanical properties :
#
#
# Convention : Reuss Voigt Hill
#
# Bulk Modulus (GPa) = 35.63446 56.68677 46.16062
# Shear Modulus (GPa) = -5.09328 20.18151 7.54411
#
# Velocity S-wave (km/s) = -1.62548 3.23563 1.97827
# Velocity P-wave (km/s) = 3.86817 6.58527 5.40039
#
# Compressibility (1/GPa) = 0.02806272
#
# Stress axis : x y z
#
# Youngs Moduli (GPa) = 73.74541 47.93769 111.44596
#
# Poissons Ratio (x) = 0.05118 0.70787
# Poissons Ratio (y) = 0.07873 0.02743
# Poissons Ratio (z) = 0.46841 0.01180
#
# Static dielectric constant tensor:
#      x y z
#    x 1.673090 0.000000 0.000000 
#    y 0.000000 1.755690 0.000000 
#    z 0.000000 0.000000 1.694100 
# 
# From -- ./inp_files/35944.got.cif
#   From: 2010.05.17/outbox.cif.g08.bks.cpg/sg51_18_cif.got.tgz:35944.got - 2010.06.03 11:52:47.
