data_PCOD9407382
_publ_section_title
;
Structure prediction by ZEFSAII (Michael W. Deem and Ramdas Pophale) SiO2 
 PCOD9407382
Probable space group: P M M A
;
_chemical_formula_sum "Si O2"
_cell_formula_units_Z 64
_cell_length_a 17.543397
_cell_length_b 9.352848
_cell_length_c 23.445836
_cell_angle_alpha 90.000000
_cell_angle_beta 90.000000
_cell_angle_gamma 90.000000
_cell_volume 3847.009782
_symmetry_space_group_name_H-M "P M M A"
_symmetry_group_IT_number 51
_symmetry_cell_setting 'orthorhombic'
loop_
_space_group_symop_operation_xyz
x,y,z
1/2-x,-y,z
1/2+x,-y,-z
-x,y,-z
-x,-y,-z
1/2+x,y,-z
1/2-x,y,z
x,-y,z
loop_
_atom_site_type_symbol
_atom_site_label
_atom_site_fract_x
_atom_site_fract_y
_atom_site_fract_z
Si Si1 0.667738 0.169911 0.200010
Si Si2 0.410539 0.165173 0.019815
Si Si3 0.627899 0.336812 0.087924
Si Si4 0.974597 0.170953 0.631611
Si Si5 0.549010 0.663863 0.872155
Si Si6 0.500484 0.171266 0.761542
Si Si7 0.662927 0.170204 0.547322
Si Si8 0.571957 0.336017 0.456289
O O1 0.750000 0.199196 0.228215
O O2 0.664723 0.254221 0.140634
O O3 0.590213 0.205045 0.233614
O O4 0.664073 0.000000 0.188301
O O5 0.406412 0.246160 0.080088
O O6 0.387315 0.000000 0.023967
O O7 0.500000 0.165477 0.000000
O O8 0.365992 0.250079 0.970688
O O9 0.654226 0.500000 0.082588
O O10 0.537990 0.341110 0.104280
O O11 0.896480 0.204729 0.597900
O O12 0.971594 0.207005 0.698226
O O13 0.042055 0.253111 0.599093
O O14 0.987352 0.000000 0.626903
O O15 0.575503 0.500000 0.867113
O O16 0.543003 0.743908 0.811690
O O17 0.509053 0.000000 0.770611
O O18 0.750000 0.202427 0.562589
O O19 0.637247 0.254102 0.490904
O O20 0.656237 0.000000 0.536696
O O21 0.500000 0.335258 0.500000
O O22 0.591706 0.500000 0.444071
#
# Coordination Sequence:
#
# PCOD9407382 Si02
#       8
#     8   8   8   8   8   8   8   8
#     4   9  17  29  43  58  79 110 148 187 226 272
#     4   9  15  23  37  57  81 107 134 168 214 266
#     4   9  16  25  38  57  80 105 135 174 222 270
#     4   9  17  30  48  69  94 124 158 194 231 275
#     4   9  16  25  38  58  84 111 140 178 221 264
#     4   9  17  29  44  62  86 118 154 190 228 270
#     4   9  17  30  49  72  96 122 153 190 232 277
#     4   9  17  29  46  68  94 123 152 184 226 273
#
# _framework density 16.636296999999999
#
# number of rings (size 3 to 8) (size 9 to 14) (size 15 to 20)
#    0.000    3.000    0.000    1.500    0.000    7.000 
#    0.000    0.625    0.000    2.250    0.000    0.875 
#    0.000    5.000    0.000    0.000    0.000    0.000 
#
# Total GULP energy -356419.524583 kJ/mol
# GULP energy per Si atom -5569.055072 kJ/mol
# Density = 1.659843 g / cm^3
# Si number density = 16.636297 Si / 1000 Ang^3
#
#
#
# Elastic Constant Matrix: (Units=GPa)
#
#
# Indices 1 2 3 4 5 6 
#
# 1 48.8988 27.2472 29.5379 0.0000 0.0000 0.0000
# 2 27.2472 71.6204 64.0018 0.0000 0.0000 0.0000
# 3 29.5379 64.0018 127.2437 0.0000 0.0000 0.0000
# 4 0.0000 0.0000 0.0000 12.7926 0.0000 0.0000
# 5 0.0000 0.0000 0.0000 0.0000 9.1712 0.0000
# 6 0.0000 0.0000 0.0000 0.0000 0.0000 4.4221
#
#
#
# Elastic Compliance Matrix: (Units=1/GPa)
#
#
# Indices 1 2 3 4 5 6 
#
# 1 0.026213 -0.008237 -0.001942 0.000000 0.000000 0.000000
# 2 -0.008237 0.027951 -0.012147 0.000000 0.000000 0.000000
# 3 -0.001942 -0.012147 0.014419 0.000000 0.000000 0.000000
# 4 0.000000 0.000000 0.000000 0.078170 0.000000 0.000000
# 5 0.000000 0.000000 0.000000 0.000000 0.109037 0.000000
# 6 0.000000 0.000000 0.000000 0.000000 0.000000 0.226137
#
#
# Mechanical properties :
#
#
# Convention : Reuss Voigt Hill
#
# Bulk Modulus (GPa) = 41.78532 54.37073 48.07802
# Shear Modulus (GPa) = 9.35355 13.74225 11.54790
#
# Velocity S-wave (km/s) = 2.37373 2.87721 2.63751
# Velocity P-wave (km/s) = 5.71701 6.61746 6.18365
#
# Compressibility (1/GPa) = 0.02393185
#
# Stress axis : x y z
#
# Youngs Moduli (GPa) = 38.14854 35.77698 69.35131
#
# Poissons Ratio (x) = 0.29471 0.13467
# Poissons Ratio (y) = 0.31424 0.84239
# Poissons Ratio (z) = 0.07408 0.43457
#
# Static dielectric constant tensor:
#      x y z
#    x 1.573450 0.000000 0.000000 
#    y 0.000000 1.561040 0.000000 
#    z 0.000000 0.000000 1.533120 
# 
# From -- ./inp_files/35900.got.cif
#   From: 2010.05.17/outbox.cif.g08.bks.cpg/sg51_18_cif.got.tgz:35900.got - 2010.06.03 11:52:47.
