data_PCOD9407799
_publ_section_title
;
Structure prediction by ZEFSAII (Michael W. Deem and Ramdas Pophale) SiO2 
 PCOD9407799
Probable space group: P M M A
;
_chemical_formula_sum "Si O2"
_cell_formula_units_Z 48
_cell_length_a 30.000000
_cell_length_b 9.000000
_cell_length_c 9.000000
_cell_angle_alpha 90.000000
_cell_angle_beta 90.000000
_cell_angle_gamma 90.000000
_cell_volume 2430.000000
_symmetry_space_group_name_H-M "P M M A"
_symmetry_group_IT_number 51
_symmetry_cell_setting 'orthorhombic'
loop_
_space_group_symop_operation_xyz
x,y,z
1/2-x,-y,z
1/2+x,-y,-z
-x,y,-z
-x,-y,-z
1/2+x,y,-z
1/2-x,y,z
x,-y,z
loop_
_atom_site_type_symbol
_atom_site_label
_atom_site_fract_x
_atom_site_fract_y
_atom_site_fract_z
Si Si1 0.489550 0.671628 0.334159
Si Si2 0.580547 0.832765 0.866460
Si Si3 0.673253 0.829502 0.695555
Si Si4 0.839148 0.178396 0.357529
Si Si5 0.415717 0.668923 0.825335
Si Si6 0.750000 0.673377 0.869783
Si Si7 0.250000 0.820596 0.810552
O O1 0.500000 0.722676 0.500000
O O2 0.473545 0.500000 0.341912
O O3 0.454055 0.771828 0.252395
O O4 0.535259 0.673849 0.243570
O O5 0.628585 0.833586 0.790724
O O6 0.568759 0.000000 0.912160
O O7 0.581672 0.730483 0.009643
O O8 0.662643 0.778285 0.529323
O O9 0.707751 0.723546 0.774861
O O10 0.690973 0.000000 0.687882
O O11 0.881926 0.238200 0.273679
O O12 0.794310 0.228657 0.275012
O O13 0.840272 0.000000 0.352485
O O14 0.399868 0.500000 0.826531
O O15 0.750000 0.500000 0.899710
O O16 0.750000 0.761345 0.023683
O O17 0.250000 0.000000 0.813531
#
# Coordination Sequence:
#
# PCOD9407799 Si02
#       7
#     8   8   8   8   8   4   4
#     4  10  22  40  60  83 115 154 192 235 292 349
#     4  11  23  38  60  88 116 151 195 240 285 340
#     4  10  22  41  62  85 116 152 190 236 290 341
#     4  10  21  39  63  87 112 148 193 238 285 339
#     4  11  23  38  58  85 118 154 190 234 289 345
#     4  12  25  38  58  88 118 152 193 234 278 336
#     4  10  21  38  60  84 112 148 187 230 284 338
#
# _framework density 19.753086
#
# number of rings (size 3 to 8) (size 9 to 14) (size 15 to 20)
#    0.000    1.500    0.000    4.750    0.000   11.667 
#    0.000    0.833    0.000    0.000    0.000    0.000 
#    0.000    0.000    0.000    0.000    0.000    0.000 
#
# Total GULP energy -268267.345429 kJ/mol
# GULP energy per Si atom -5588.903030 kJ/mol
# Density = 1.970813 g / cm^3
# Si number density = 19.753086 Si / 1000 Ang^3
#
#
#
# Elastic Constant Matrix: (Units=GPa)
#
#
# Indices 1 2 3 4 5 6 
#
# 1 48.9431 26.4589 15.9109 0.0000 0.0000 0.0000
# 2 26.4589 1.5934 3.5374 0.0000 0.0000 0.0000
# 3 15.9109 3.5374 82.8833 0.0000 0.0000 0.0000
# 4 0.0000 0.0000 0.0000 19.1212 0.0000 0.0000
# 5 0.0000 0.0000 0.0000 0.0000 22.2217 0.0000
# 6 0.0000 0.0000 0.0000 0.0000 0.0000 30.4796
#
#
#
# Elastic Compliance Matrix: (Units=1/GPa)
#
#
# Indices 1 2 3 4 5 6 
#
# 1 -0.002411 0.043081 -0.001376 0.000000 0.000000 0.000000
# 2 0.043081 -0.076685 -0.004997 0.000000 0.000000 0.000000
# 3 -0.001376 -0.004997 0.012543 0.000000 0.000000 0.000000
# 4 0.000000 0.000000 0.000000 0.052298 0.000000 0.000000
# 5 0.000000 0.000000 0.000000 0.000000 0.045001 0.000000
# 6 0.000000 0.000000 0.000000 0.000000 0.000000 0.032809
#
#
# Mechanical properties :
#
#
# Convention : Reuss Voigt Hill
#
# Bulk Modulus (GPa) = 145.72341 25.02603 85.37472
# Shear Modulus (GPa) = -660.22091 20.19867 -320.01112
#
# Velocity S-wave (km/s) = -18.30198 3.20122 -12.74195
# Velocity P-wave (km/s) = 19.30502 5.13426 13.15909
#
# Compressibility (1/GPa) = 0.00686232
#
# Stress axis : x y z
#
# Youngs Moduli (GPa) = -414.84602 -13.04034 79.72849
#
# Poissons Ratio (x) = 0.56179 0.10970
# Poissons Ratio (y) = 17.87194 0.39842
# Poissons Ratio (z) = -0.57080 -0.06517
#
# Static dielectric constant tensor:
#      x y z
#    x 1.658160 0.000000 0.000000 
#    y 0.000000 1.685180 0.000000 
#    z 0.000000 0.000000 1.640570 
# 
# From -- ./inp_files/12974.got.cif
#   From: 2010.05.17/outbox.ucp.g08.bks.cvg/sg51_7_cif.got.tgz:12974.got - 2010.06.11 16:27:58.
