data_PCOD9407763
_publ_section_title
;
Structure prediction by ZEFSAII (Michael W. Deem and Ramdas Pophale) SiO2 
 PCOD9407763
Probable space group: P M M A
;
_chemical_formula_sum "Si O2"
_cell_formula_units_Z 64
_cell_length_a 18.000000
_cell_length_b 15.000000
_cell_length_c 12.000000
_cell_angle_alpha 90.000000
_cell_angle_beta 90.000000
_cell_angle_gamma 90.000000
_cell_volume 3240.000000
_symmetry_space_group_name_H-M "P M M A"
_symmetry_group_IT_number 51
_symmetry_cell_setting 'orthorhombic'
loop_
_space_group_symop_operation_xyz
x,y,z
1/2-x,-y,z
1/2+x,-y,-z
-x,y,-z
-x,-y,-z
1/2+x,y,-z
1/2-x,y,z
x,-y,z
loop_
_atom_site_type_symbol
_atom_site_label
_atom_site_fract_x
_atom_site_fract_y
_atom_site_fract_z
Si Si1 0.073724 0.715271 0.923600
Si Si2 0.589358 0.100466 0.007512
Si Si3 0.338328 0.601642 0.094334
Si Si4 0.556901 0.394205 0.301750
Si Si5 0.336176 0.107467 0.230515
Si Si6 0.335763 0.719902 0.543658
Si Si7 0.613188 0.395109 0.657527
Si Si8 0.587045 0.105482 0.533508
O O1 0.056153 0.658772 0.814423
O O2 0.100725 0.817412 0.907847
O O3 0.134137 0.663603 0.996248
O O4 0.000000 0.718393 0.000000
O O5 0.624971 0.129459 0.888035
O O6 0.617205 0.000000 0.034773
O O7 0.500000 0.092515 0.000000
O O8 0.250000 0.601748 0.101309
O O9 0.364487 0.500000 0.073850
O O10 0.369409 0.628508 0.214724
O O11 0.572170 0.500000 0.287321
O O12 0.617232 0.343871 0.375826
O O13 0.475455 0.387165 0.357241
O O14 0.250000 0.141171 0.240020
O O15 0.388564 0.127279 0.337742
O O16 0.331018 0.000000 0.229654
O O17 0.250000 0.723599 0.575503
O O18 0.344901 0.670932 0.424400
O O19 0.369158 0.819553 0.536043
O O20 0.633688 0.500000 0.640643
O O21 0.500000 0.114525 0.500000
O O22 0.606226 0.000000 0.515434
#
# Coordination Sequence:
#
# PCOD9407763 Si02
#       8
#     8   8   8   8   8   8   8   8
#     4  11  22  38  63  89 121 162 210 257 314 385
#     4   9  20  36  56  87 126 165 207 255 310 375
#     4  10  21  36  58  91 124 153 197 259 320 374
#     4  11  24  42  65  91 125 169 217 265 320 391
#     4   9  18  35  60  90 123 158 200 258 322 375
#     4  12  26  41  62  91 129 171 214 261 319 387
#     4  10  21  40  65  91 122 160 209 267 321 378
#     4  10  22  40  65  95 128 166 212 264 319 383
#
# _framework density 19.753086
#
# number of rings (size 3 to 8) (size 9 to 14) (size 15 to 20)
#    0.000    1.750    1.250    2.625    1.750    6.750 
#    0.000    1.875    0.000    0.000    0.000    0.000 
#    0.000    0.000    0.000    0.000    0.000    0.000 
#
# Total GULP energy -357304.790055 kJ/mol
# GULP energy per Si atom -5582.887345 kJ/mol
# Density = 1.970813 g / cm^3
# Si number density = 19.753086 Si / 1000 Ang^3
#
#
#
# Elastic Constant Matrix: (Units=GPa)
#
#
# Indices 1 2 3 4 5 6 
#
# 1 80.1047 3.6229 9.5132 0.0000 0.0000 0.0000
# 2 3.6229 76.4552 14.2469 0.0000 0.0000 0.0000
# 3 9.5132 14.2469 27.2968 0.0000 0.0000 0.0000
# 4 0.0000 0.0000 0.0000 31.2393 0.0000 0.0000
# 5 0.0000 0.0000 0.0000 0.0000 29.1064 0.0000
# 6 0.0000 0.0000 0.0000 0.0000 0.0000 7.5784
#
#
#
# Elastic Compliance Matrix: (Units=1/GPa)
#
#
# Indices 1 2 3 4 5 6 
#
# 1 0.013027 0.000253 -0.004672 0.000000 0.000000 0.000000
# 2 0.000253 0.014494 -0.007653 0.000000 0.000000 0.000000
# 3 -0.004672 -0.007653 0.042257 0.000000 0.000000 0.000000
# 4 0.000000 0.000000 0.000000 0.032011 0.000000 0.000000
# 5 0.000000 0.000000 0.000000 0.000000 0.034357 0.000000
# 6 0.000000 0.000000 0.000000 0.000000 0.000000 0.131953
#
#
# Mechanical properties :
#
#
# Convention : Reuss Voigt Hill
#
# Bulk Modulus (GPa) = 21.91351 26.51362 24.21357
# Shear Modulus (GPa) = 16.26262 24.01641 20.13951
#
# Velocity S-wave (km/s) = 2.87242 3.49066 3.19652
# Velocity P-wave (km/s) = 4.70307 5.44958 5.09003
#
# Compressibility (1/GPa) = 0.04563394
#
# Stress axis : x y z
#
# Youngs Moduli (GPa) = 76.76314 68.99591 23.66478
#
# Poissons Ratio (x) = -0.01748 0.11057
# Poissons Ratio (y) = -0.01945 0.18110
# Poissons Ratio (z) = 0.35866 0.52802
#
# Static dielectric constant tensor:
#      x y z
#    x 1.688720 0.000000 0.000000 
#    y 0.000000 1.730480 0.000000 
#    z 0.000000 0.000000 1.699700 
# 
# From -- ./inp_files/17588.got.cif
#   From: 2010.05.17/outbox.ucp.g08.bks.cvg/sg51_9_cif.got.tgz:17588.got - 2010.06.11 16:27:58.
