data_PCOD9407348
_publ_section_title
;
Structure prediction by ZEFSAII (Michael W. Deem and Ramdas Pophale) SiO2 
 PCOD9407348
Probable space group: P M M A
;
_chemical_formula_sum "Si O2"
_cell_formula_units_Z 40
_cell_length_a 9.792630
_cell_length_b 7.432049
_cell_length_c 26.786395
_cell_angle_alpha 90.000000
_cell_angle_beta 90.000000
_cell_angle_gamma 90.000000
_cell_volume 1949.495238
_symmetry_space_group_name_H-M "P M M A"
_symmetry_group_IT_number 51
_symmetry_cell_setting 'orthorhombic'
loop_
_space_group_symop_operation_xyz
x,y,z
1/2-x,-y,z
1/2+x,-y,-z
-x,y,-z
-x,-y,-z
1/2+x,y,-z
1/2-x,y,z
x,-y,z
loop_
_atom_site_type_symbol
_atom_site_label
_atom_site_fract_x
_atom_site_fract_y
_atom_site_fract_z
Si Si1 0.908117 0.780685 0.360637
Si Si2 0.404110 0.285089 0.155989
Si Si3 0.903123 0.214910 0.249011
Si Si4 0.091152 0.719277 0.045859
Si Si5 0.592137 0.219810 0.547120
O O1 0.750000 0.728125 0.370542
O O2 0.945074 0.721484 0.304365
O O3 0.013884 0.721574 0.402727
O O4 0.909262 0.000000 0.361674
O O5 0.250000 0.216268 0.163807
O O6 0.395201 0.500000 0.151737
O O7 0.497970 0.250216 0.203223
O O8 0.454139 0.221746 0.101413
O O9 0.750000 0.283107 0.238829
O O10 0.894848 0.000000 0.253307
O O11 0.250000 0.769221 0.040070
O O12 0.086113 0.500000 0.044915
O O13 0.000000 0.783725 0.000000
O O14 0.500000 0.274790 0.500000
O O15 0.750000 0.277918 0.544224
O O16 0.594244 0.000000 0.547062
#
# Coordination Sequence:
#
# PCOD9407348 Si02
#       5
#     8   8   8   8   8
#     4   8  14  25  38  52  75 106 138 174 214 254
#     4   9  18  31  46  67  94 119 145 181 222 263
#     4   9  18  31  46  65  89 118 152 187 222 262
#     4   8  14  25  41  62  87 112 139 174 216 260
#     4   9  15  21  31  49  73 102 136 172 211 255
#
# _framework density 20.518132000000001
#
# number of rings (size 3 to 8) (size 9 to 14) (size 15 to 20)
#    0.000    3.400    0.000    3.000    0.000    4.800 
#    0.000    4.000    0.000    0.600    0.000    0.000 
#    0.000    0.800    0.000    2.600    0.000    5.800 
#
# Total GULP energy -223027.863572 kJ/mol
# GULP energy per Si atom -5575.696589 kJ/mol
# Density = 2.047143 g / cm^3
# Si number density = 20.518132 Si / 1000 Ang^3
#
#
#
# Elastic Constant Matrix: (Units=GPa)
#
#
# Indices 1 2 3 4 5 6 
#
# 1 148.6515 3.6179 156.3023 0.0000 0.0000 0.0000
# 2 3.6179 60.8071 6.2317 0.0000 0.0000 0.0000
# 3 156.3023 6.2317 247.2941 0.0000 0.0000 0.0000
# 4 0.0000 0.0000 0.0000 15.1919 0.0000 0.0000
# 5 0.0000 0.0000 0.0000 0.0000 46.3629 0.0000
# 6 0.0000 0.0000 0.0000 0.0000 0.0000 10.7584
#
#
#
# Elastic Compliance Matrix: (Units=1/GPa)
#
#
# Indices 1 2 3 4 5 6 
#
# 1 0.020057 0.000106 -0.012679 0.000000 0.000000 0.000000
# 2 0.000106 0.016489 -0.000483 0.000000 0.000000 0.000000
# 3 -0.012679 -0.000483 0.012070 0.000000 0.000000 0.000000
# 4 0.000000 0.000000 0.000000 0.065824 0.000000 0.000000
# 5 0.000000 0.000000 0.000000 0.000000 0.021569 0.000000
# 6 0.000000 0.000000 0.000000 0.000000 0.000000 0.092951
#
#
# Mechanical properties :
#
#
# Convention : Reuss Voigt Hill
#
# Bulk Modulus (GPa) = 44.43790 87.67296 66.05543
# Shear Modulus (GPa) = 19.04236 33.83603 26.43919
#
# Velocity S-wave (km/s) = 3.04974 4.06529 3.59357
# Velocity P-wave (km/s) = 5.84004 8.05343 7.03434
#
# Compressibility (1/GPa) = 0.02250331
#
# Stress axis : x y z
#
# Youngs Moduli (GPa) = 49.85891 60.64804 82.85018
#
# Poissons Ratio (x) = -0.00643 1.05049
# Poissons Ratio (y) = -0.00529 0.03998
# Poissons Ratio (z) = 0.63218 0.02927
#
# Static dielectric constant tensor:
#      x y z
#    x 1.706490 0.000000 0.000000 
#    y 0.000000 1.832420 0.000000 
#    z 0.000000 0.000000 1.728800 
# 
# From -- ./inp_files/31367.got.cif
#   From: 2010.05.17/outbox.cif.g08.bks.cpg/sg51_16_cif.got.tgz:31367.got - 2010.06.03 11:52:47.
