data_PCOD9407690
_publ_section_title
;
Structure prediction by ZEFSAII (Michael W. Deem and Ramdas Pophale) SiO2 
 PCOD9407690
Probable space group: P M M A
;
_chemical_formula_sum "Si O2"
_cell_formula_units_Z 64
_cell_length_a 18.000000
_cell_length_b 9.000000
_cell_length_c 21.000000
_cell_angle_alpha 90.000000
_cell_angle_beta 90.000000
_cell_angle_gamma 90.000000
_cell_volume 3402.000000
_symmetry_space_group_name_H-M "P M M A"
_symmetry_group_IT_number 51
_symmetry_cell_setting 'orthorhombic'
loop_
_space_group_symop_operation_xyz
x,y,z
1/2-x,-y,z
1/2+x,-y,-z
-x,y,-z
-x,-y,-z
1/2+x,y,-z
1/2-x,y,z
x,-y,z
loop_
_atom_site_type_symbol
_atom_site_label
_atom_site_fract_x
_atom_site_fract_y
_atom_site_fract_z
Si Si1 0.419889 0.824994 0.709526
Si Si2 0.589643 0.824840 0.668069
Si Si3 0.071319 0.819676 0.083529
Si Si4 0.600034 0.820794 0.057418
Si Si5 0.333562 0.676648 0.822182
Si Si6 0.334681 0.818801 0.204265
Si Si7 0.920328 0.677442 0.530400
Si Si8 0.837520 0.826373 0.417839
O O1 0.507168 0.811247 0.697300
O O2 0.391188 0.741835 0.771492
O O3 0.379352 0.770943 0.645289
O O4 0.402383 0.000000 0.717374
O O5 0.642915 0.769667 0.724710
O O6 0.591683 0.743471 0.600529
O O7 0.604228 0.000000 0.656596
O O8 0.111145 0.766531 0.147648
O O9 0.984522 0.780924 0.077832
O O10 0.073688 0.000000 0.084635
O O11 0.109116 0.775504 0.016468
O O12 0.652859 0.746055 0.108547
O O13 0.606796 0.000000 0.060828
O O14 0.250000 0.713688 0.800216
O O15 0.340921 0.500000 0.825696
O O16 0.250000 0.779297 0.189632
O O17 0.339952 0.000000 0.205460
O O18 0.918722 0.500000 0.533896
O O19 0.860661 0.737447 0.480235
O O20 0.000000 0.723092 0.500000
O O21 0.750000 0.818767 0.407171
O O22 0.858762 0.000000 0.426804
#
# Coordination Sequence:
#
# PCOD9407690 Si02
#       8
#     8   8   8   8   8   8   8   8
#     4  10  20  36  59  81 103 137 184 233 276 325
#     4  10  20  35  59  84 108 141 182 229 273 317
#     4   8  15  30  53  81 110 137 174 230 281 320
#     4   9  17  32  56  81 104 137 185 232 273 322
#     4  11  24  37  49  73 112 150 180 219 273 330
#     4   9  17  29  48  79 114 142 173 218 276 332
#     4  11  23  38  57  82 113 148 182 218 268 333
#     4  10  21  37  59  85 109 138 181 231 281 330
#
# _framework density 18.812463000000001
#
# number of rings (size 3 to 8) (size 9 to 14) (size 15 to 20)
#    0.000    2.250    1.250    2.625    0.000    6.250 
#    0.000    3.750    0.000    0.750    0.000    0.000 
#    0.000    0.000    0.000    0.000    0.000    0.000 
#
# Total GULP energy -357124.428736 kJ/mol
# GULP energy per Si atom -5580.069199 kJ/mol
# Density = 1.876965 g / cm^3
# Si number density = 18.812463 Si / 1000 Ang^3
#
#
#
# Elastic Constant Matrix: (Units=GPa)
#
#
# Indices 1 2 3 4 5 6 
#
# 1 25.7750 9.6248 19.0230 0.0000 0.0000 0.0000
# 2 9.6248 15.9280 16.1889 0.0000 0.0000 0.0000
# 3 19.0230 16.1889 104.3187 0.0000 0.0000 0.0000
# 4 0.0000 0.0000 0.0000 -12.9469 0.0000 0.0000
# 5 0.0000 0.0000 0.0000 0.0000 7.7996 0.0000
# 6 0.0000 0.0000 0.0000 0.0000 0.0000 9.7456
#
#
#
# Elastic Compliance Matrix: (Units=1/GPa)
#
#
# Indices 1 2 3 4 5 6 
#
# 1 0.052667 -0.026196 -0.005539 0.000000 0.000000 0.000000
# 2 -0.026196 0.087569 -0.008813 0.000000 0.000000 0.000000
# 3 -0.005539 -0.008813 0.011964 0.000000 0.000000 0.000000
# 4 0.000000 0.000000 0.000000 -0.077238 0.000000 0.000000
# 5 0.000000 0.000000 0.000000 0.000000 0.128212 0.000000
# 6 0.000000 0.000000 0.000000 0.000000 0.000000 0.102610
#
#
# Mechanical properties :
#
#
# Convention : Reuss Voigt Hill
#
# Bulk Modulus (GPa) = 14.06366 26.18835 20.12600
# Shear Modulus (GPa) = 12.17790 7.66531 9.92161
#
# Velocity S-wave (km/s) = 2.54703 2.02075 2.29900
# Velocity P-wave (km/s) = 4.01768 4.40404 4.21529
#
# Compressibility (1/GPa) = 0.07110525
#
# Stress axis : x y z
#
# Youngs Moduli (GPa) = 18.98716 11.41959 83.58646
#
# Poissons Ratio (x) = 0.29914 0.46297
# Poissons Ratio (y) = 0.49738 0.73662
# Poissons Ratio (z) = 0.10517 0.10064
#
# Static dielectric constant tensor:
#      x y z
#    x 1.669110 0.000000 0.000000 
#    y 0.000000 1.631530 0.000000 
#    z 0.000000 0.000000 1.636980 
# 
# From -- ./inp_files/33860.got.cif
#   From: 2010.05.17/outbox.ucp.g08.bks.cvg/sg51_17_cif.got.tgz:33860.got - 2010.06.11 16:27:58.
