data_PCOD9407726
_publ_section_title
;
Structure prediction by ZEFSAII (Michael W. Deem and Ramdas Pophale) SiO2 
 PCOD9407726
Probable space group: P M M A
;
_chemical_formula_sum "Si O2"
_cell_formula_units_Z 44
_cell_length_a 9.000000
_cell_length_b 30.000000
_cell_length_c 9.000000
_cell_angle_alpha 90.000000
_cell_angle_beta 90.000000
_cell_angle_gamma 90.000000
_cell_volume 2430.000000
_symmetry_space_group_name_H-M "P M M A"
_symmetry_group_IT_number 51
_symmetry_cell_setting 'orthorhombic'
loop_
_space_group_symop_operation_xyz
x,y,z
1/2-x,-y,z
1/2+x,-y,-z
-x,y,-z
-x,-y,-z
1/2+x,y,-z
1/2-x,y,z
x,-y,z
loop_
_atom_site_type_symbol
_atom_site_label
_atom_site_fract_x
_atom_site_fract_y
_atom_site_fract_z
Si Si1 0.929048 0.087647 0.337282
Si Si2 0.928283 0.369118 0.663709
Si Si3 0.073175 0.449747 0.837681
Si Si4 0.429479 0.000000 0.839833
Si Si5 0.570598 0.719537 0.333745
Si Si6 0.428122 0.184074 0.663630
O O1 0.750000 0.086034 0.351191
O O2 0.976685 0.044765 0.245258
O O3 0.968827 0.136131 0.268023
O O4 0.000000 0.085349 0.500000
O O5 0.750000 0.367415 0.656893
O O6 0.000000 0.370801 0.500000
O O7 0.987832 0.412519 0.745940
O O8 0.994181 0.323800 0.736219
O O9 0.250000 0.440481 0.845477
O O10 0.055382 0.500000 0.775860
O O11 0.000000 0.449715 0.000000
O O12 0.250000 0.000000 0.848462
O O13 0.500000 0.000000 0.000000
O O14 0.500000 0.721695 0.500000
O O15 0.750000 0.713906 0.341967
O O16 0.534672 0.768097 0.264652
O O17 0.500000 0.183661 0.500000
O O18 0.250000 0.184543 0.645794
#
# Coordination Sequence:
#
# PCOD9407726 Si02
#       6
#     8   8   8   4   8   8
#     4   9  17  30  48  72  96 121 156 199 243 286
#     4  11  21  33  51  76 106 137 169 207 248 292
#     4  10  21  38  58  78 101 131 167 206 249 298
#     4  10  21  34  48  66  94 128 161 196 238 290
#     4   9  15  25  42  66  96 128 159 195 241 291
#     4   8  14  24  41  65  93 122 153 192 239 286
#
# _framework density 18.106995999999999
#
# number of rings (size 3 to 8) (size 9 to 14) (size 15 to 20)
#    0.000    2.545    0.000    4.091    0.000    2.909 
#    0.000    0.000    0.000    1.091    0.000    2.545 
#    0.000    0.000    0.000    0.000    0.000    0.000 
#
# Total GULP energy -244935.341367 kJ/mol
# GULP energy per Si atom -5566.712304 kJ/mol
# Density = 1.806578 g / cm^3
# Si number density = 18.106996 Si / 1000 Ang^3
#
#
#
# Elastic Constant Matrix: (Units=GPa)
#
#
# Indices 1 2 3 4 5 6 
#
# 1 85.4029 69.6607 16.3309 0.0000 0.0000 0.0000
# 2 69.6607 217.3134 56.6470 0.0000 0.0000 0.0000
# 3 16.3309 56.6470 31.6831 0.0000 0.0000 0.0000
# 4 0.0000 0.0000 0.0000 -28.3390 0.0000 0.0000
# 5 0.0000 0.0000 0.0000 0.0000 21.2589 0.0000
# 6 0.0000 0.0000 0.0000 0.0000 0.0000 464.3819
#
#
#
# Elastic Compliance Matrix: (Units=1/GPa)
#
#
# Indices 1 2 3 4 5 6 
#
# 1 0.015904 -0.005546 0.001718 0.000000 0.000000 0.000000
# 2 -0.005546 0.010552 -0.016008 0.000000 0.000000 0.000000
# 3 0.001718 -0.016008 0.059298 0.000000 0.000000 0.000000
# 4 0.000000 0.000000 0.000000 -0.035287 0.000000 0.000000
# 5 0.000000 0.000000 0.000000 0.000000 0.047039 0.000000
# 6 0.000000 0.000000 0.000000 0.000000 0.000000 0.002153
#
#
# Mechanical properties :
#
#
# Convention : Reuss Voigt Hill
#
# Bulk Modulus (GPa) = 21.70006 68.85298 45.27652
# Shear Modulus (GPa) = 32.32215 104.24441 68.28328
#
# Velocity S-wave (km/s) = 4.22959 7.59581 6.14759
# Velocity P-wave (km/s) = 5.98856 10.72551 8.68618
#
# Compressibility (1/GPa) = 0.04608282
#
# Stress axis : x y z
#
# Youngs Moduli (GPa) = 62.87538 94.76646 16.86402
#
# Poissons Ratio (x) = 0.52559 -0.02898
# Poissons Ratio (y) = 0.34871 0.26996
# Poissons Ratio (z) = -0.10803 1.51701
#
# Static dielectric constant tensor:
#      x y z
#    x 1.590630 0.000000 0.000000 
#    y 0.000000 1.726650 0.000000 
#    z 0.000000 0.000000 1.598300 
# 
# From -- ./inp_files/5728.got.cif
#   From: 2010.05.17/outbox.ucp.g08.bks.cvg/sg51_3_cif.got.tgz:5728.got - 2010.06.11 16:27:58.
