data_PCOD9407880
_publ_section_title
;
Structure prediction by ZEFSAII (Michael W. Deem and Ramdas Pophale) SiO2 
 PCOD9407880
Probable space group: P N N A
;
_chemical_formula_sum "Si O2"
_cell_formula_units_Z 36
_cell_length_a 5.879142
_cell_length_b 9.086803
_cell_length_c 32.497629
_cell_angle_alpha 90.000000
_cell_angle_beta 90.000000
_cell_angle_gamma 90.000000
_cell_volume 1736.108003
_symmetry_space_group_name_H-M "P N N A"
_symmetry_group_IT_number 52
_symmetry_cell_setting 'orthorhombic'
loop_
_space_group_symop_operation_xyz
x,y,z
1/2-x,-y,z
x,1/2-y,1/2-z
1/2-x,1/2+y,1/2-z
-x,-y,-z
1/2+x,y,-z
-x,1/2+y,1/2+z
1/2+x,1/2-y,1/2+z
loop_
_atom_site_type_symbol
_atom_site_label
_atom_site_fract_x
_atom_site_fract_y
_atom_site_fract_z
Si Si1 0.250000 0.500000 0.464810
Si Si2 0.113382 0.649936 0.323411
Si Si3 0.109011 0.146349 0.904772
Si Si4 0.077517 0.250000 0.250000
Si Si5 0.175050 0.208342 0.514050
Si Si6 0.750000 0.000000 0.232426
O O1 0.425536 0.426716 0.434198
O O2 0.153926 0.368552 0.492252
O O3 0.250000 0.500000 0.334645
O O4 0.274527 0.734080 0.291409
O O5 0.014622 0.716388 0.365355
O O6 0.897702 0.605415 0.296257
O O7 0.218676 0.262770 0.936969
O O8 0.250000 0.000000 0.890942
O O9 0.924259 0.394975 0.244372
O O10 0.415912 0.146746 0.495071
#
# Coordination Sequence:
#
# PCOD9407880 Si02
#       6
#     4   8   8   4   8   4
#     4  10  16  25  34  60  94 136 172 212 251 332
#     4  10  20  32  50  73  97 132 184 227 279 336
#     4  11  16  25  41  63  93 129 177 217 261 324
#     4  10  22  38  54  80 102 144 184 240 290 348
#     4  10  17  25  37  58  94 138 176 207 261 329
#     4  10  20  37  58  74 108 138 178 232 295 338
#
# _framework density 20.736035999999999
#
# number of rings (size 3 to 8) (size 9 to 14) (size 15 to 20)
#    0.000    1.778    5.556    2.000    0.000    0.000 
#    0.000    0.000    0.000    0.000    0.000    0.000 
#    0.000    0.000    0.000    8.000    2.667   13.556 
#
# Total GULP energy -200418.606638 kJ/mol
# GULP energy per Si atom -5567.183518 kJ/mol
# Density = 2.068884 g / cm^3
# Si number density = 20.736036 Si / 1000 Ang^3
#
#
#
# Elastic Constant Matrix: (Units=GPa)
#
#
# Indices 1 2 3 4 5 6 
#
# 1 119.6761 27.1124 53.3215 0.0000 0.0000 0.0000
# 2 27.1124 29.4384 44.4341 0.0000 0.0000 0.0000
# 3 53.3215 44.4341 141.4939 0.0000 0.0000 0.0000
# 4 0.0000 0.0000 0.0000 -10.6555 0.0000 0.0000
# 5 0.0000 0.0000 0.0000 0.0000 74.2253 0.0000
# 6 0.0000 0.0000 0.0000 0.0000 0.0000 29.9628
#
#
#
# Elastic Compliance Matrix: (Units=1/GPa)
#
#
# Indices 1 2 3 4 5 6 
#
# 1 0.010794 -0.007227 -0.001798 0.000000 0.000000 0.000000
# 2 -0.007227 0.069420 -0.019077 0.000000 0.000000 0.000000
# 3 -0.001798 -0.019077 0.013736 0.000000 0.000000 0.000000
# 4 0.000000 0.000000 0.000000 -0.093848 0.000000 0.000000
# 5 0.000000 0.000000 0.000000 0.000000 0.013472 0.000000
# 6 0.000000 0.000000 0.000000 0.000000 0.000000 0.033375
#
#
# Mechanical properties :
#
#
# Convention : Reuss Voigt Hill
#
# Bulk Modulus (GPa) = 26.49311 60.03829 43.26570
# Shear Modulus (GPa) = 43.20183 29.75588 36.47886
#
# Velocity S-wave (km/s) = 4.56940 3.79223 4.19883
# Velocity P-wave (km/s) = 6.37521 6.94198 6.66462
#
# Compressibility (1/GPa) = 0.03774566
#
# Stress axis : x y z
#
# Youngs Moduli (GPa) = 92.64049 14.40507 72.80209
#
# Poissons Ratio (x) = 0.10411 0.13091
# Poissons Ratio (y) = 0.66955 1.38883
# Poissons Ratio (z) = 0.16658 0.27480
#
# Static dielectric constant tensor:
#      x y z
#    x 1.916190 0.000000 0.000000 
#    y 0.000000 1.745690 0.000000 
#    z 0.000000 0.000000 1.747780 
# 
# From -- ./inp_files/38591.got.cif
#   From: 2010.05.17/outbox.cif.g08.bks.cpg/sg52_20_cif.got.tgz:38591.got - 2010.06.03 12:15:38.
