data_PCOD9407545
_publ_section_title
;
Structure prediction by ZEFSAII (Michael W. Deem and Ramdas Pophale) SiO2 
 PCOD9407545
Probable space group: P M M A
;
_chemical_formula_sum "Si O2"
_cell_formula_units_Z 64
_cell_length_a 21.000000
_cell_length_b 9.000000
_cell_length_c 18.000000
_cell_angle_alpha 90.000000
_cell_angle_beta 90.000000
_cell_angle_gamma 90.000000
_cell_volume 3402.000000
_symmetry_space_group_name_H-M "P M M A"
_symmetry_group_IT_number 51
_symmetry_cell_setting 'orthorhombic'
loop_
_space_group_symop_operation_xyz
x,y,z
1/2-x,-y,z
1/2+x,-y,-z
-x,y,-z
-x,-y,-z
1/2+x,y,-z
1/2-x,y,z
x,-y,z
loop_
_atom_site_type_symbol
_atom_site_label
_atom_site_fract_x
_atom_site_fract_y
_atom_site_fract_z
Si Si1 0.820323 0.822856 0.493604
Si Si2 0.680794 0.323442 0.180318
Si Si3 0.858029 0.176218 0.323598
Si Si4 0.942816 0.328868 0.551310
Si Si5 0.325426 0.819598 0.059939
Si Si6 0.418189 0.821267 0.924322
Si Si7 0.449913 0.179790 0.146356
Si Si8 0.491496 0.672352 0.708653
O O1 0.750000 0.765518 0.512227
O O2 0.835395 0.795109 0.407019
O O3 0.877354 0.754492 0.539650
O O4 0.820381 0.000000 0.503452
O O5 0.750000 0.280928 0.146612
O O6 0.673407 0.500000 0.172506
O O7 0.680946 0.272969 0.265253
O O8 0.620531 0.239110 0.146142
O O9 0.930328 0.229631 0.312312
O O10 0.851470 0.000000 0.308317
O O11 0.933920 0.500000 0.527051
O O12 0.964589 0.326288 0.636020
O O13 0.000000 0.266174 0.500000
O O14 0.250000 0.769689 0.062217
O O15 0.376727 0.781433 0.125036
O O16 0.322021 0.000000 0.057352
O O17 0.369948 0.770396 0.990044
O O18 0.493305 0.781198 0.913724
O O19 0.417812 0.000000 0.927761
O O20 0.472447 0.258909 0.221156
O O21 0.452359 0.000000 0.153328
O O22 0.472749 0.500000 0.723381
#
# Coordination Sequence:
#
# PCOD9407545 Si02
#       8
#     8   8   8   8   8   8   8   8
#     4  10  22  38  57  85 117 147 185 235 287 337
#     4  11  23  35  49  76 116 157 191 225 270 329
#     4  11  21  35  56  81 113 150 188 230 278 335
#     4  10  21  38  59  83 112 150 192 232 278 336
#     4   9  18  34  57  84 113 147 189 237 287 337
#     4  10  19  33  56  84 112 145 187 234 279 333
#     4  10  20  35  57  85 114 147 190 235 283 337
#     4  11  22  37  58  84 115 147 188 236 282 335
#
# _framework density 18.812463000000001
#
# number of rings (size 3 to 8) (size 9 to 14) (size 15 to 20)
#    0.000    1.750    2.500    2.250    0.000    5.500 
#    0.000    1.250    0.000    4.875    0.000    0.000 
#    0.000    0.000    0.000    0.000    0.000    0.000 
#
# Total GULP energy -356731.708195 kJ/mol
# GULP energy per Si atom -5573.932941 kJ/mol
# Density = 1.876965 g / cm^3
# Si number density = 18.812463 Si / 1000 Ang^3
#
#
#
# Elastic Constant Matrix: (Units=GPa)
#
#
# Indices 1 2 3 4 5 6 
#
# 1 164.4415 11.5748 35.5681 0.0000 0.0000 0.0000
# 2 11.5748 -4.3219 11.3200 0.0000 0.0000 0.0000
# 3 35.5681 11.3200 51.6567 0.0000 0.0000 0.0000
# 4 0.0000 0.0000 0.0000 3.7402 0.0000 0.0000
# 5 0.0000 0.0000 0.0000 0.0000 24.9719 0.0000
# 6 0.0000 0.0000 0.0000 0.0000 0.0000 16.9014
#
#
#
# Elastic Compliance Matrix: (Units=1/GPa)
#
#
# Indices 1 2 3 4 5 6 
#
# 1 0.007040 0.003912 -0.005704 0.000000 0.000000 0.000000
# 2 0.003912 -0.144828 0.029044 0.000000 0.000000 0.000000
# 3 -0.005704 0.029044 0.016922 0.000000 0.000000 0.000000
# 4 0.000000 0.000000 0.000000 0.267364 0.000000 0.000000
# 5 0.000000 0.000000 0.000000 0.000000 0.040045 0.000000
# 6 0.000000 0.000000 0.000000 0.000000 0.000000 0.059167
#
#
# Mechanical properties :
#
#
# Convention : Reuss Voigt Hill
#
# Bulk Modulus (GPa) = -15.06848 36.52245 10.72699
# Shear Modulus (GPa) = 29.57096 19.34360 24.45728
#
# Velocity S-wave (km/s) = 3.96900 3.21009 3.60954
# Velocity P-wave (km/s) = 3.60232 5.76157 4.80481
#
# Compressibility (1/GPa) = -0.06636372
#
# Stress axis : x y z
#
# Youngs Moduli (GPa) = 142.05220 -6.90473 59.09561
#
# Poissons Ratio (x) = 0.02701 0.33711
# Poissons Ratio (y) = -0.55574 -1.71636
# Poissons Ratio (z) = 0.81033 0.20054
#
# Static dielectric constant tensor:
#      x y z
#    x 1.673320 0.000000 0.000000 
#    y 0.000000 1.630370 0.000000 
#    z 0.000000 0.000000 1.699190 
# 
# From -- ./inp_files/30672.got.cif
#   From: 2010.05.17/outbox.ucp.g08.bks.cvg/sg51_16_cif.got.tgz:30672.got - 2010.06.11 16:27:58.
