data_PCOD9407376
_publ_section_title
;
Structure prediction by ZEFSAII (Michael W. Deem and Ramdas Pophale) SiO2 
 PCOD9407376
Probable space group: P M M A
;
_chemical_formula_sum "Si O2"
_cell_formula_units_Z 48
_cell_length_a 18.546172
_cell_length_b 23.504073
_cell_length_c 5.350521
_cell_angle_alpha 90.000000
_cell_angle_beta 90.000000
_cell_angle_gamma 90.000000
_cell_volume 2332.348715
_symmetry_space_group_name_H-M "P M M A"
_symmetry_group_IT_number 51
_symmetry_cell_setting 'orthorhombic'
loop_
_space_group_symop_operation_xyz
x,y,z
1/2-x,-y,z
1/2+x,-y,-z
-x,y,-z
-x,-y,-z
1/2+x,y,-z
1/2-x,y,z
x,-y,z
loop_
_atom_site_type_symbol
_atom_site_label
_atom_site_fract_x
_atom_site_fract_y
_atom_site_fract_z
Si Si1 0.665296 0.564656 0.933498
Si Si2 0.662081 0.131280 0.193601
Si Si3 0.161846 0.737494 0.857581
Si Si4 0.161983 0.934229 0.307006
Si Si5 0.461670 0.431422 0.745667
Si Si6 0.162571 0.674403 0.361943
O O1 0.750000 0.568587 0.983569
O O2 0.648011 0.500000 0.852913
O O3 0.621865 0.577235 0.185993
O O4 0.646390 0.610212 0.723141
O O5 0.750000 0.130989 0.195051
O O6 0.640200 0.197106 0.179469
O O7 0.639160 0.096979 0.947136
O O8 0.638668 0.100130 0.447138
O O9 0.250000 0.735740 0.857876
O O10 0.139106 0.712779 0.125273
O O11 0.136044 0.699609 0.623581
O O12 0.250000 0.934061 0.307601
O O13 0.139313 0.000000 0.314298
O O14 0.500000 0.407877 0.500000
O O15 0.470489 0.500000 0.736279
O O16 0.500000 0.411329 0.000000
O O17 0.250000 0.677613 0.373563
#
# Coordination Sequence:
#
# PCOD9407376 Si02
#       6
#     8   8   8   8   8   8
#     4   9  18  33  52  74  98 124 156 197 248 300
#     4   9  15  22  32  44  61  89 122 157 204 258
#     4   9  16  26  38  52  72 100 133 168 213 267
#     4   9  15  21  29  43  62  84 116 161 209 251
#     4   9  18  33  51  70  94 124 155 187 230 288
#     4   9  17  28  41  58  80 104 134 176 222 268
#
# _framework density 20.580114999999999
#
# number of rings (size 3 to 8) (size 9 to 14) (size 15 to 20)
#    0.000    3.000    0.000    1.500    0.000    7.333 
#    0.000    5.000    0.000   14.000    0.000    0.000 
#    0.000    0.000    0.000    0.000    0.000    0.000 
#
# Total GULP energy -267863.945620 kJ/mol
# GULP energy per Si atom -5580.498867 kJ/mol
# Density = 2.053327 g / cm^3
# Si number density = 20.580115 Si / 1000 Ang^3
#
#
#
# Elastic Constant Matrix: (Units=GPa)
#
#
# Indices 1 2 3 4 5 6 
#
# 1 26.3401 12.1172 10.8454 0.0000 0.0000 0.0000
# 2 12.1172 144.2898 65.8337 0.0000 0.0000 0.0000
# 3 10.8454 65.8337 147.3182 0.0000 0.0000 0.0000
# 4 0.0000 0.0000 0.0000 9.9158 0.0000 0.0000
# 5 0.0000 0.0000 0.0000 0.0000 26.2470 0.0000
# 6 0.0000 0.0000 0.0000 0.0000 0.0000 1.1829
#
#
#
# Elastic Compliance Matrix: (Units=1/GPa)
#
#
# Indices 1 2 3 4 5 6 
#
# 1 0.039870 -0.002524 -0.001807 0.000000 0.000000 0.000000
# 2 -0.002524 0.008865 -0.003776 0.000000 0.000000 0.000000
# 3 -0.001807 -0.003776 0.008608 0.000000 0.000000 0.000000
# 4 0.000000 0.000000 0.000000 0.100849 0.000000 0.000000
# 5 0.000000 0.000000 0.000000 0.000000 0.038100 0.000000
# 6 0.000000 0.000000 0.000000 0.000000 0.000000 0.845392
#
#
# Mechanical properties :
#
#
# Convention : Reuss Voigt Hill
#
# Bulk Modulus (GPa) = 24.31320 55.06008 39.68664
# Shear Modulus (GPa) = 4.66588 22.74592 13.70590
#
# Velocity S-wave (km/s) = 1.50735 3.32812 2.58345
# Velocity P-wave (km/s) = 3.85604 6.44830 5.31270
#
# Compressibility (1/GPa) = 0.04112992
#
# Stress axis : x y z
#
# Youngs Moduli (GPa) = 25.08147 112.80043 116.16459
#
# Poissons Ratio (x) = 0.28465 0.20997
# Poissons Ratio (y) = 0.06329 0.43863
# Poissons Ratio (z) = 0.04533 0.42592
#
# Static dielectric constant tensor:
#      x y z
#    x 1.742810 0.000000 0.000000 
#    y 0.000000 1.743660 0.000000 
#    z 0.000000 0.000000 1.749220 
# 
# From -- ./inp_files/2529.got.cif
#   From: 2010.05.17/outbox.cif.g08.bks.cpg/sg51_2_cif.got.tgz:2529.got - 2010.06.03 11:52:47.
