data_PCOD9407455
_publ_section_title
;
Structure prediction by ZEFSAII (Michael W. Deem and Ramdas Pophale) SiO2 
 PCOD9407455
Probable space group: P M M A
;
_chemical_formula_sum "Si O2"
_cell_formula_units_Z 64
_cell_length_a 30.000000
_cell_length_b 9.000000
_cell_length_c 12.000000
_cell_angle_alpha 90.000000
_cell_angle_beta 90.000000
_cell_angle_gamma 90.000000
_cell_volume 3240.000000
_symmetry_space_group_name_H-M "P M M A"
_symmetry_group_IT_number 51
_symmetry_cell_setting 'orthorhombic'
loop_
_space_group_symop_operation_xyz
x,y,z
1/2-x,-y,z
1/2+x,-y,-z
-x,y,-z
-x,-y,-z
1/2+x,y,-z
1/2-x,y,z
x,-y,z
loop_
_atom_site_type_symbol
_atom_site_label
_atom_site_fract_x
_atom_site_fract_y
_atom_site_fract_z
Si Si1 0.383315 0.320703 0.884089
Si Si2 0.563580 0.330616 0.461797
Si Si3 0.051585 0.676159 0.278393
Si Si4 0.668121 0.670572 0.489950
Si Si5 0.637381 0.322906 0.865492
Si Si6 0.298292 0.318890 0.743381
Si Si7 0.699414 0.824070 0.706750
Si Si8 0.964015 0.826318 0.243056
O O1 0.385363 0.500000 0.877491
O O2 0.340033 0.269070 0.815512
O O3 0.427313 0.255972 0.829848
O O4 0.377377 0.277646 0.012015
O O5 0.548088 0.500000 0.437641
O O6 0.552638 0.294357 0.589402
O O7 0.616898 0.331370 0.452080
O O8 0.544824 0.219736 0.371179
O O9 0.043917 0.500000 0.264779
O O10 0.098455 0.711030 0.222265
O O11 0.013029 0.766318 0.218778
O O12 0.681018 0.500000 0.515155
O O13 0.695920 0.727388 0.384912
O O14 0.673012 0.764325 0.600387
O O15 0.644373 0.500000 0.865611
O O16 0.680755 0.243804 0.819822
O O17 0.250000 0.273358 0.786928
O O18 0.299749 0.500000 0.742104
O O19 0.750000 0.777078 0.688940
O O20 0.696564 0.000000 0.711270
O O21 0.960585 0.000000 0.227871
#
# Coordination Sequence:
#
# PCOD9407455 Si02
#       8
#     8   8   8   8   8   8   8   8
#     4  10  21  40  63  85 115 151 195 247 293 339
#     4  10  19  36  62  87 115 152 191 241 297 344
#     4  10  21  39  61  86 115 148 194 246 301 349
#     4  10  18  34  61  88 115 151 196 242 287 338
#     4  10  22  41  65  88 109 149 205 254 291 335
#     4   9  17  31  56  89 118 145 182 234 291 338
#     4  11  24  39  57  86 126 164 192 230 291 354
#     4  12  25  38  57  87 121 155 192 232 289 361
#
# _framework density 19.753086
#
# number of rings (size 3 to 8) (size 9 to 14) (size 15 to 20)
#    0.000    1.750    2.500    2.250    0.000    6.000 
#    0.000    3.750    0.000    0.375    0.000    0.000 
#    0.000    0.000    0.000    0.000    0.000    0.000 
#
# Total GULP energy -357294.667735 kJ/mol
# GULP energy per Si atom -5582.729183 kJ/mol
# Density = 1.970813 g / cm^3
# Si number density = 19.753086 Si / 1000 Ang^3
#
#
#
# Elastic Constant Matrix: (Units=GPa)
#
#
# Indices 1 2 3 4 5 6 
#
# 1 42.4798 39.8236 5.9588 0.0000 0.0000 0.0000
# 2 39.8236 -18.9555 28.7875 0.0000 0.0000 0.0000
# 3 5.9588 28.7875 64.1430 0.0000 0.0000 0.0000
# 4 0.0000 0.0000 0.0000 -123.5312 0.0000 0.0000
# 5 0.0000 0.0000 0.0000 0.0000 -1.3401 0.0000
# 6 0.0000 0.0000 0.0000 0.0000 0.0000 25.7916
#
#
#
# Elastic Compliance Matrix: (Units=1/GPa)
#
#
# Indices 1 2 3 4 5 6 
#
# 1 0.011734 0.013675 -0.007228 0.000000 0.000000 0.000000
# 2 0.013675 -0.015434 0.005656 0.000000 0.000000 0.000000
# 3 -0.007228 0.005656 0.013723 0.000000 0.000000 0.000000
# 4 0.000000 0.000000 0.000000 -0.008095 0.000000 0.000000
# 5 0.000000 0.000000 0.000000 0.000000 -0.746228 0.000000
# 6 0.000000 0.000000 0.000000 0.000000 0.000000 0.038772
#
#
# Mechanical properties :
#
#
# Convention : Reuss Voigt Hill
#
# Bulk Modulus (GPa) = 29.21287 26.31189 27.76238
# Shear Modulus (GPa) = -6.96063 -18.94276 -12.95170
#
# Velocity S-wave (km/s) = -1.87922 -3.10010 -2.56340
# Velocity P-wave (km/s) = 3.18002 0.73156 2.30735
#
# Compressibility (1/GPa) = 0.03423149
#
# Stress axis : x y z
#
# Youngs Moduli (GPa) = 85.22193 -64.79197 72.87022
#
# Poissons Ratio (x) = 0.88606 0.52668
# Poissons Ratio (y) = -1.16545 -0.41218
# Poissons Ratio (z) = 0.61596 0.36649
#
# Static dielectric constant tensor:
#      x y z
#    x 1.725900 0.000000 0.000000 
#    y 0.000000 1.661170 0.000000 
#    z 0.000000 0.000000 1.677630 
# 
# From -- ./inp_files/19612.got.cif
#   From: 2010.05.17/outbox.ucp.g08.bks.cvg/sg51_10_cif.got.tgz:19612.got - 2010.06.11 16:27:58.
