data_PCOD9407198
_publ_section_title
;
Structure prediction by ZEFSAII (Michael W. Deem and Ramdas Pophale) SiO2 
 PCOD9407198
Probable space group: P M M A
;
_chemical_formula_sum "Si O2"
_cell_formula_units_Z 44
_cell_length_a 14.087842
_cell_length_b 17.326275
_cell_length_c 7.759205
_cell_angle_alpha 90.000000
_cell_angle_beta 90.000000
_cell_angle_gamma 90.000000
_cell_volume 1893.942988
_symmetry_space_group_name_H-M "P M M A"
_symmetry_group_IT_number 51
_symmetry_cell_setting 'orthorhombic'
loop_
_space_group_symop_operation_xyz
x,y,z
1/2-x,-y,z
1/2+x,-y,-z
-x,y,-z
-x,-y,-z
1/2+x,y,-z
1/2-x,y,z
x,-y,z
loop_
_atom_site_type_symbol
_atom_site_label
_atom_site_fract_x
_atom_site_fract_y
_atom_site_fract_z
Si Si1 0.500000 0.868904 0.500000
Si Si2 0.636563 0.581560 0.320255
Si Si3 0.637093 0.415957 0.902683
Si Si4 0.135291 0.251639 0.660660
Si Si5 0.362234 0.749803 0.058851
Si Si6 0.422619 0.082425 0.151193
O O1 0.412821 0.813621 0.549696
O O2 0.525892 0.917013 0.666255
O O3 0.750000 0.580372 0.349750
O O4 0.598047 0.500000 0.384079
O O5 0.626535 0.584309 0.111635
O O6 0.604577 0.662586 0.395152
O O7 0.750000 0.418626 0.862019
O O8 0.597721 0.500000 0.843666
O O9 0.600126 0.330071 0.854219
O O10 0.250000 0.246476 0.654046
O O11 0.103513 0.242691 0.860767
O O12 0.250000 0.735310 0.045119
O O13 0.373967 0.833595 0.141865
O O14 0.369111 0.000000 0.133202
O O15 0.500000 0.083506 0.000000
#
# Coordination Sequence:
#
# PCOD9407198 Si02
#       6
#     4   8   8   8   8   8
#     4  12  23  40  65  88 118 160 195 248 306 364
#     4   7  10  20  42  73 111 154 196 240 292 347
#     4   7  10  19  43  80 114 147 191 238 288 348
#     4   9  18  33  56  88 121 157 204 251 299 358
#     4   9  17  34  60  88 120 156 198 251 301 351
#     4  11  24  42  62  85 114 152 196 243 301 364
#
# _framework density 23.231954000000002
#
# number of rings (size 3 to 8) (size 9 to 14) (size 15 to 20)
#    0.000    3.091    1.818    3.545    0.000    1.091 
#    0.000    0.455    0.000    4.364    0.000    5.091 
#    0.000    0.000    0.000    0.000    0.000    0.000 
#
# Total GULP energy -245304.586783 kJ/mol
# GULP energy per Si atom -5575.104245 kJ/mol
# Density = 2.317908 g / cm^3
# Si number density = 23.231954 Si / 1000 Ang^3
#
#
#
# Elastic Constant Matrix: (Units=GPa)
#
#
# Indices 1 2 3 4 5 6 
#
# 1 52.2155 30.1846 12.4271 0.0000 0.0000 0.0000
# 2 30.1846 247.3983 36.0756 0.0000 0.0000 0.0000
# 3 12.4271 36.0756 80.0235 0.0000 0.0000 0.0000
# 4 0.0000 0.0000 0.0000 -3.7319 0.0000 0.0000
# 5 0.0000 0.0000 0.0000 0.0000 19.5725 0.0000
# 6 0.0000 0.0000 0.0000 0.0000 0.0000 12.1551
#
#
#
# Elastic Compliance Matrix: (Units=1/GPa)
#
#
# Indices 1 2 3 4 5 6 
#
# 1 0.020977 -0.002231 -0.002252 0.000000 0.000000 0.000000
# 2 -0.002231 0.004564 -0.001711 0.000000 0.000000 0.000000
# 3 -0.002252 -0.001711 0.013617 0.000000 0.000000 0.000000
# 4 0.000000 0.000000 0.000000 -0.267963 0.000000 0.000000
# 5 0.000000 0.000000 0.000000 0.000000 0.051092 0.000000
# 6 0.000000 0.000000 0.000000 0.000000 0.000000 0.082270
#
#
# Mechanical properties :
#
#
# Convention : Reuss Voigt Hill
#
# Bulk Modulus (GPa) = 37.35447 59.66800 48.51123
# Shear Modulus (GPa) = -67.44802 25.66247 -20.89277
#
# Velocity S-wave (km/s) = -5.39402 3.32719 -3.00211
# Velocity P-wave (km/s) = 4.76237 6.36393 2.98492
#
# Compressibility (1/GPa) = 0.02677056
#
# Stress axis : x y z
#
# Youngs Moduli (GPa) = 47.67126 219.11778 73.43576
#
# Poissons Ratio (x) = 0.48885 0.16536
# Poissons Ratio (y) = 0.10635 0.12564
# Poissons Ratio (z) = 0.10735 0.37490
#
# Static dielectric constant tensor:
#      x y z
#    x 1.889540 0.000000 0.000000 
#    y 0.000000 1.946750 0.000000 
#    z 0.000000 0.000000 1.872690 
# 
# From -- ./inp_files/9503.got.cif
#   From: 2010.05.17/outbox.cif.g08.bks.cpg/sg51_5_cif.got.tgz:9503.got - 2010.06.03 11:52:47.
