data_PCOD9407543
_publ_section_title
;
Structure prediction by ZEFSAII (Michael W. Deem and Ramdas Pophale) SiO2 
 PCOD9407543
Probable space group: P M M A
;
_chemical_formula_sum "Si O2"
_cell_formula_units_Z 48
_cell_length_a 18.000000
_cell_length_b 15.000000
_cell_length_c 9.000000
_cell_angle_alpha 90.000000
_cell_angle_beta 90.000000
_cell_angle_gamma 90.000000
_cell_volume 2430.000000
_symmetry_space_group_name_H-M "P M M A"
_symmetry_group_IT_number 51
_symmetry_cell_setting 'orthorhombic'
loop_
_space_group_symop_operation_xyz
x,y,z
1/2-x,-y,z
1/2+x,-y,-z
-x,y,-z
-x,-y,-z
1/2+x,y,-z
1/2-x,y,z
x,-y,z
loop_
_atom_site_type_symbol
_atom_site_label
_atom_site_fract_x
_atom_site_fract_y
_atom_site_fract_z
Si Si1 0.483107 0.096483 0.674721
Si Si2 0.160702 0.500000 0.589986
Si Si3 0.399166 0.680677 0.896856
Si Si4 0.164202 0.327458 0.419937
Si Si5 0.552365 0.267709 0.812914
Si Si6 0.337394 0.500000 0.940860
Si Si7 0.168805 0.808909 0.677420
O O1 0.500000 0.094377 0.500000
O O2 0.530204 0.175894 0.739942
O O3 0.397670 0.123442 0.699686
O O4 0.499898 0.000000 0.738901
O O5 0.250000 0.500000 0.575608
O O6 0.133669 0.410359 0.514008
O O7 0.148038 0.500000 0.763769
O O8 0.478224 0.671372 0.816062
O O9 0.374326 0.592586 0.982366
O O10 0.340065 0.724184 0.788212
O O11 0.418394 0.751199 0.023303
O O12 0.250000 0.344396 0.383700
O O13 0.115476 0.314753 0.278104
O O14 0.160799 0.238266 0.518118
O O15 0.250000 0.500000 0.972386
O O16 0.250000 0.848546 0.693368
#
# Coordination Sequence:
#
# PCOD9407543 Si02
#       7
#     8   4   8   8   8   4   8
#     4  10  20  37  63  87 110 145 188 235 291 350
#     4   9  18  32  51  80 110 143 189 233 272 319
#     4  10  22  36  56  80 116 160 187 231 281 342
#     4  10  19  33  55  80 113 150 189 239 284 330
#     4  10  22  39  54  83 118 145 191 235 287 346
#     4  11  20  35  57  83 114 154 201 235 277 333
#     4  10  19  35  58  85 113 147 189 233 283 338
#
# _framework density 19.753086
#
# number of rings (size 3 to 8) (size 9 to 14) (size 15 to 20)
#    0.000    2.000    3.333    0.500    0.000    4.333 
#    0.000    8.333    0.000    0.500    0.000    0.000 
#    0.000    0.000    0.000    0.000    0.000    0.000 
#
# Total GULP energy -267230.240003 kJ/mol
# GULP energy per Si atom -5567.296667 kJ/mol
# Density = 1.970813 g / cm^3
# Si number density = 19.753086 Si / 1000 Ang^3
#
#
#
# Elastic Constant Matrix: (Units=GPa)
#
#
# Indices 1 2 3 4 5 6 
#
# 1 42.0343 22.2302 33.0923 0.0000 0.0000 0.0000
# 2 22.2302 65.9049 16.7948 0.0000 0.0000 0.0000
# 3 33.0923 16.7948 52.5860 0.0000 0.0000 0.0000
# 4 0.0000 0.0000 0.0000 31.1246 0.0000 0.0000
# 5 0.0000 0.0000 0.0000 0.0000 23.8795 0.0000
# 6 0.0000 0.0000 0.0000 0.0000 0.0000 -4.7883
#
#
#
# Elastic Compliance Matrix: (Units=1/GPa)
#
#
# Indices 1 2 3 4 5 6 
#
# 1 0.052734 -0.010157 -0.029941 0.000000 0.000000 0.000000
# 2 -0.010157 0.018474 0.000492 0.000000 0.000000 0.000000
# 3 -0.029941 0.000492 0.037701 0.000000 0.000000 0.000000
# 4 0.000000 0.000000 0.000000 0.032129 0.000000 0.000000
# 5 0.000000 0.000000 0.000000 0.000000 0.041877 0.000000
# 6 0.000000 0.000000 0.000000 0.000000 0.000000 -0.208844
#
#
# Mechanical properties :
#
#
# Convention : Reuss Voigt Hill
#
# Bulk Modulus (GPa) = 33.67496 33.86218 33.76857
# Shear Modulus (GPa) = 79.13399 15.93703 47.53551
#
# Velocity S-wave (km/s) = 6.33629 2.84353 4.91092
# Velocity P-wave (km/s) = 8.40335 5.28780 7.02058
#
# Compressibility (1/GPa) = 0.02969565
#
# Stress axis : x y z
#
# Youngs Moduli (GPa) = 18.96314 54.12943 26.52421
#
# Poissons Ratio (x) = 0.54982 0.79417
# Poissons Ratio (y) = 0.19262 -0.01305
# Poissons Ratio (z) = 0.56778 -0.02662
#
# Static dielectric constant tensor:
#      x y z
#    x 1.700400 0.000000 0.000000 
#    y 0.000000 1.743290 0.000000 
#    z 0.000000 0.000000 1.715110 
# 
# From -- ./inp_files/9704.got.cif
#   From: 2010.05.17/outbox.ucp.g08.bks.cvg/sg51_5_cif.got.tgz:9704.got - 2010.06.11 16:27:58.
