data_PCOD9407549
_publ_section_title
;
Structure prediction by ZEFSAII (Michael W. Deem and Ramdas Pophale) SiO2 
 PCOD9407549
Probable space group: P M M A
;
_chemical_formula_sum "Si O2"
_cell_formula_units_Z 64
_cell_length_a 24.000000
_cell_length_b 9.000000
_cell_length_c 15.000000
_cell_angle_alpha 90.000000
_cell_angle_beta 90.000000
_cell_angle_gamma 90.000000
_cell_volume 3240.000000
_symmetry_space_group_name_H-M "P M M A"
_symmetry_group_IT_number 51
_symmetry_cell_setting 'orthorhombic'
loop_
_space_group_symop_operation_xyz
x,y,z
1/2-x,-y,z
1/2+x,-y,-z
-x,y,-z
-x,-y,-z
1/2+x,y,-z
1/2-x,y,z
x,-y,z
loop_
_atom_site_type_symbol
_atom_site_label
_atom_site_fract_x
_atom_site_fract_y
_atom_site_fract_z
Si Si1 0.599166 0.827313 0.073115
Si Si2 0.102012 0.322372 0.649377
Si Si3 0.984285 0.676784 0.195210
Si Si4 0.688668 0.176732 0.931699
Si Si5 0.938233 0.333286 0.535669
Si Si6 0.188310 0.671866 0.256941
Si Si7 0.813169 0.172299 0.234186
Si Si8 0.420931 0.171609 0.288035
O O1 0.546775 0.735153 0.107429
O O2 0.646530 0.815870 0.149511
O O3 0.583057 0.000000 0.064728
O O4 0.634135 0.781653 0.987082
O O5 0.096855 0.500000 0.645221
O O6 0.054378 0.272521 0.720097
O O7 0.095285 0.270215 0.548339
O O8 0.160138 0.273661 0.690505
O O9 0.985808 0.500000 0.195599
O O10 0.045246 0.741006 0.212226
O O11 0.750000 0.190594 0.977534
O O12 0.690768 0.278921 0.845715
O O13 0.683803 0.000000 0.909163
O O14 0.917832 0.500000 0.562275
O O15 0.943553 0.224890 0.617735
O O16 0.000000 0.352782 0.500000
O O17 0.250000 0.690313 0.295488
O O18 0.172154 0.500000 0.264889
O O19 0.142719 0.779987 0.295558
O O20 0.750000 0.211666 0.212535
O O21 0.814847 0.000000 0.262571
O O22 0.427709 0.000000 0.271219
#
# Coordination Sequence:
#
# PCOD9407549 Si02
#       8
#     8   8   8   8   8   8   8   8
#     4   9  17  30  50  79 112 145 183 224 268 319
#     4   9  18  32  51  74 102 138 177 218 262 309
#     4  10  19  34  53  77 111 148 182 219 268 322
#     4   9  17  32  56  83 112 146 184 228 277 327
#     4  10  19  36  58  80 108 141 179 221 266 320
#     4  10  22  41  63  84 108 141 182 227 275 326
#     4   9  17  29  46  70 105 146 181 215 259 312
#     4  12  24  37  58  86 112 140 178 225 277 331
#
# _framework density 19.753086
#
# number of rings (size 3 to 8) (size 9 to 14) (size 15 to 20)
#    0.000    2.250    1.250    2.250    0.000    4.250 
#    0.000    1.250    0.000    6.750    0.000    0.000 
#    0.000    0.000    0.000    0.000    0.000    0.000 
#
# Total GULP energy -356549.366980 kJ/mol
# GULP energy per Si atom -5571.083859 kJ/mol
# Density = 1.970813 g / cm^3
# Si number density = 19.753086 Si / 1000 Ang^3
#
#
#
# Elastic Constant Matrix: (Units=GPa)
#
#
# Indices 1 2 3 4 5 6 
#
# 1 27.6560 24.1452 21.1058 0.0000 0.0000 0.0000
# 2 24.1452 30.8057 11.5003 0.0000 0.0000 0.0000
# 3 21.1058 11.5003 20.9880 0.0000 0.0000 0.0000
# 4 0.0000 0.0000 0.0000 37.2983 0.0000 0.0000
# 5 0.0000 0.0000 0.0000 0.0000 34.6142 0.0000
# 6 0.0000 0.0000 0.0000 0.0000 0.0000 -16.9484
#
#
#
# Elastic Compliance Matrix: (Units=1/GPa)
#
#
# Indices 1 2 3 4 5 6 
#
# 1 -37.013196 19.002482 26.808638 0.000000 0.000000 0.000000
# 2 19.002482 -9.715017-13.785849 0.000000 0.000000 0.000000
# 3 26.808638-13.785849-19.357583 0.000000 0.000000 0.000000
# 4 0.000000 0.000000 0.000000 0.026811 0.000000 0.000000
# 5 0.000000 0.000000 0.000000 0.000000 0.028890 0.000000
# 6 0.000000 0.000000 0.000000 0.000000 0.000000 -0.059003
#
#
# Mechanical properties :
#
#
# Convention : Reuss Voigt Hill
#
# Bulk Modulus (GPa) = -0.49134 21.43913 10.47389
# Shear Modulus (GPa) = -0.03822 12.50606 6.23392
#
# Velocity S-wave (km/s) = -0.13925 2.51892 1.77842
# Velocity P-wave (km/s) = 0.52453 4.39739 3.08722
#
# Compressibility (1/GPa) = -2.03525377
#
# Stress axis : x y z
#
# Youngs Moduli (GPa) = -0.02702 -0.10293 -0.05166
#
# Poissons Ratio (x) = 1.95599 1.38492
# Poissons Ratio (y) = 0.51340 -0.71217
# Poissons Ratio (z) = 0.72430 -1.41902
#
# Static dielectric constant tensor:
#      x y z
#    x 1.798810 0.000000 0.000000 
#    y 0.000000 1.670310 0.000000 
#    z 0.000000 0.000000 1.889410 
# 
# From -- ./inp_files/26168.got.cif
#   From: 2010.05.17/outbox.ucp.g08.bks.cvg/sg51_14_cif.got.tgz:26168.got - 2010.06.11 16:27:58.
