data_PCOD9407219
_publ_section_title
;
Structure prediction by ZEFSAII (Michael W. Deem and Ramdas Pophale) SiO2 
 PCOD9407219
Probable space group: P M M A
;
_chemical_formula_sum "Si O2"
_cell_formula_units_Z 40
_cell_length_a 9.165256
_cell_length_b 14.535324
_cell_length_c 15.588538
_cell_angle_alpha 90.000000
_cell_angle_beta 90.000000
_cell_angle_gamma 90.000000
_cell_volume 2076.704495
_symmetry_space_group_name_H-M "P M M A"
_symmetry_group_IT_number 51
_symmetry_cell_setting 'orthorhombic'
loop_
_space_group_symop_operation_xyz
x,y,z
1/2-x,-y,z
1/2+x,-y,-z
-x,y,-z
-x,-y,-z
1/2+x,y,-z
1/2-x,y,z
x,-y,z
loop_
_atom_site_type_symbol
_atom_site_label
_atom_site_fract_x
_atom_site_fract_y
_atom_site_fract_z
Si Si1 0.082448 0.400029 0.112498
Si Si2 0.427509 0.191150 0.086140
Si Si3 0.409931 0.642052 0.311868
Si Si4 0.421025 0.142453 0.279162
Si Si5 0.574062 0.000000 0.404565
Si Si6 0.582755 0.500000 0.412429
O O1 0.250000 0.401035 0.079900
O O2 0.014262 0.500000 0.090886
O O3 0.021368 0.299003 0.090196
O O4 0.090276 0.394852 0.215113
O O5 0.250000 0.190920 0.080939
O O6 0.463734 0.142797 0.177551
O O7 0.500000 0.151244 0.000000
O O8 0.250000 0.620886 0.349816
O O9 0.426872 0.750977 0.306363
O O10 0.534132 0.589890 0.361149
O O11 0.250000 0.113621 0.284115
O O12 0.517287 0.084722 0.345458
O O13 0.500000 0.000000 0.500000
O O14 0.750000 0.000000 0.413260
O O15 0.750000 0.500000 0.427859
O O16 0.500000 0.500000 0.500000
#
# Coordination Sequence:
#
# PCOD9407219 Si02
#       6
#     8   8   8   8   4   4
#     4   8  13  25  49  74 102 146 196 237 278 331
#     4   9  18  32  53  83 118 159 199 241 290 342
#     4   9  17  34  58  78 103 146 193 236 284 340
#     4   9  20  40  65  90 118 155 197 243 297 353
#     4  12  26  44  69  96 121 148 183 238 302 364
#     4  12  24  34  48  74 109 146 187 236 287 346
#
# _framework density 19.261286999999999
#
# number of rings (size 3 to 8) (size 9 to 14) (size 15 to 20)
#    0.000    2.600    1.000    4.200    0.000    2.800 
#    0.000    3.500    0.000    0.000    0.000    0.000 
#    0.000    0.000    0.000    0.000    0.000    0.000 
#
# Total GULP energy -222738.406719 kJ/mol
# GULP energy per Si atom -5568.460168 kJ/mol
# Density = 1.921745 g / cm^3
# Si number density = 19.261287 Si / 1000 Ang^3
#
#
#
# Elastic Constant Matrix: (Units=GPa)
#
#
# Indices 1 2 3 4 5 6 
#
# 1 98.0401 33.8312 70.5558 0.0000 0.0000 0.0000
# 2 33.8312 80.9427 46.8590 0.0000 0.0000 0.0000
# 3 70.5558 46.8590 144.1954 0.0000 0.0000 0.0000
# 4 0.0000 0.0000 0.0000 11.8445 0.0000 0.0000
# 5 0.0000 0.0000 0.0000 0.0000 32.0684 0.0000
# 6 0.0000 0.0000 0.0000 0.0000 0.0000 -14.4991
#
#
#
# Elastic Compliance Matrix: (Units=1/GPa)
#
#
# Indices 1 2 3 4 5 6 
#
# 1 0.016205 -0.002689 -0.007056 0.000000 0.000000 0.000000
# 2 -0.002689 0.015663 -0.003775 0.000000 0.000000 0.000000
# 3 -0.007056 -0.003775 0.011614 0.000000 0.000000 0.000000
# 4 0.000000 0.000000 0.000000 0.084427 0.000000 0.000000
# 5 0.000000 0.000000 0.000000 0.000000 0.031183 0.000000
# 6 0.000000 0.000000 0.000000 0.000000 0.000000 -0.068970
#
#
# Mechanical properties :
#
#
# Convention : Reuss Voigt Hill
#
# Bulk Modulus (GPa) = 60.80858 69.51892 65.16375
# Shear Modulus (GPa) = 40.76880 17.34491 29.05685
#
# Velocity S-wave (km/s) = 4.60566 3.00410 3.88824
# Velocity P-wave (km/s) = 7.74091 6.94289 7.35274
#
# Compressibility (1/GPa) = 0.01644505
#
# Stress axis : x y z
#
# Youngs Moduli (GPa) = 61.70777 63.84347 86.10272
#
# Poissons Ratio (x) = 0.17165 0.60751
# Poissons Ratio (y) = 0.16591 0.32500
# Poissons Ratio (z) = 0.43539 0.24098
#
# Static dielectric constant tensor:
#      x y z
#    x 1.667240 0.000000 0.000000 
#    y 0.000000 1.702010 0.000000 
#    z 0.000000 0.000000 1.717550 
# 
# From -- ./inp_files/20524.got.cif
#   From: 2010.05.17/outbox.cif.g08.bks.cpg/sg51_11_cif.got.tgz:20524.got - 2010.06.03 11:52:47.
