data_PCOD9407308
_publ_section_title
;
Structure prediction by ZEFSAII (Michael W. Deem and Ramdas Pophale) SiO2 
 PCOD9407308
Probable space group: P M M A
;
_chemical_formula_sum "Si O2"
_cell_formula_units_Z 48
_cell_length_a 9.366556
_cell_length_b 7.348324
_cell_length_c 32.602835
_cell_angle_alpha 90.000000
_cell_angle_beta 90.000000
_cell_angle_gamma 90.000000
_cell_volume 2244.003846
_symmetry_space_group_name_H-M "P M M A"
_symmetry_group_IT_number 51
_symmetry_cell_setting 'orthorhombic'
loop_
_space_group_symop_operation_xyz
x,y,z
1/2-x,-y,z
1/2+x,-y,-z
-x,y,-z
-x,-y,-z
1/2+x,y,-z
1/2-x,y,z
x,-y,z
loop_
_atom_site_type_symbol
_atom_site_label
_atom_site_fract_x
_atom_site_fract_y
_atom_site_fract_z
Si Si1 0.914099 0.722499 0.378603
Si Si2 0.914524 0.721964 0.540452
Si Si3 0.914188 0.777736 0.040381
Si Si4 0.585198 0.218034 0.789964
Si Si5 0.087166 0.284988 0.299962
Si Si6 0.083211 0.221673 0.120666
O O1 0.750000 0.780499 0.380999
O O2 0.913128 0.500000 0.378451
O O3 0.004194 0.778510 0.418333
O O4 0.990822 0.785107 0.336910
O O5 0.750000 0.780315 0.539889
O O6 0.913814 0.500000 0.540332
O O7 0.000000 0.779532 0.500000
O O8 0.750000 0.720844 0.038792
O O9 0.991807 0.717328 0.081992
O O10 0.915472 0.000000 0.040562
O O11 0.000000 0.720550 0.000000
O O12 0.750000 0.282924 0.788509
O O13 0.522513 0.263886 0.745657
O O14 0.527955 0.279423 0.834217
O O15 0.587953 0.000000 0.791604
O O16 0.250000 0.210469 0.300393
O O17 0.099740 0.500000 0.306805
O O18 0.250000 0.273889 0.116785
O O19 0.081226 0.000000 0.120066
#
# Coordination Sequence:
#
# PCOD9407308 Si02
#       6
#     8   8   8   8   8   8
#     4   9  16  25  36  51  74 104 134 163 199 241
#     4   9  15  22  33  50  73 101 132 164 198 238
#     4   9  15  21  30  46  69  96 124 153 186 226
#     4   8  14  25  41  59  79 105 135 165 199 239
#     4   9  16  26  41  60  80 103 134 170 202 233
#     4   8  13  22  35  49  67  94 126 156 187 226
#
# _framework density 21.390336999999999
#
# number of rings (size 3 to 8) (size 9 to 14) (size 15 to 20)
#    0.000    3.333    0.000    2.500    0.000    6.000 
#    0.000    0.833    0.000    1.500    0.000    0.000 
#    0.000    1.333    0.000    3.000    0.000    5.000 
#
# Total GULP energy -267769.474705 kJ/mol
# GULP energy per Si atom -5578.530723 kJ/mol
# Density = 2.134165 g / cm^3
# Si number density = 21.390337 Si / 1000 Ang^3
#
#
#
# Elastic Constant Matrix: (Units=GPa)
#
#
# Indices 1 2 3 4 5 6 
#
# 1 154.3837 4.9871 135.9305 0.0000 0.0000 0.0000
# 2 4.9871 78.7577 4.0013 0.0000 0.0000 0.0000
# 3 135.9305 4.0013 275.5124 0.0000 0.0000 0.0000
# 4 0.0000 0.0000 0.0000 7.3846 0.0000 0.0000
# 5 0.0000 0.0000 0.0000 0.0000 36.2008 0.0000
# 6 0.0000 0.0000 0.0000 0.0000 0.0000 -17.4560
#
#
#
# Elastic Compliance Matrix: (Units=1/GPa)
#
#
# Indices 1 2 3 4 5 6 
#
# 1 0.011467 -0.000439 -0.005651 0.000000 0.000000 0.000000
# 2 -0.000439 0.012723 0.000032 0.000000 0.000000 0.000000
# 3 -0.005651 0.000032 0.006417 0.000000 0.000000 0.000000
# 4 0.000000 0.000000 0.000000 0.135416 0.000000 0.000000
# 5 0.000000 0.000000 0.000000 0.000000 0.027624 0.000000
# 6 0.000000 0.000000 0.000000 0.000000 0.000000 -0.057287
#
#
# Mechanical properties :
#
#
# Convention : Reuss Voigt Hill
#
# Bulk Modulus (GPa) = 54.08029 88.72129 71.40079
# Shear Modulus (GPa) = 32.33274 29.47487 30.90381
#
# Velocity S-wave (km/s) = 3.89209 3.71611 3.80512
# Velocity P-wave (km/s) = 6.74799 7.74467 7.26344
#
# Compressibility (1/GPa) = 0.01849102
#
# Stress axis : x y z
#
# Youngs Moduli (GPa) = 87.20384 78.59565 155.82750
#
# Poissons Ratio (x) = 0.03451 0.88063
# Poissons Ratio (y) = 0.03828 -0.00496
# Poissons Ratio (z) = 0.49282 -0.00250
#
# Static dielectric constant tensor:
#      x y z
#    x 1.720310 0.000000 0.000000 
#    y 0.000000 1.897740 0.000000 
#    z 0.000000 0.000000 1.769230 
# 
# From -- ./inp_files/34553.got.cif
#   From: 2010.05.17/outbox.cif.g08.bks.cpg/sg51_18_cif.got.tgz:34553.got - 2010.06.03 11:52:47.
