data_PCOD9407696
_publ_section_title
;
Structure prediction by ZEFSAII (Michael W. Deem and Ramdas Pophale) SiO2 
 PCOD9407696
Probable space group: P M M A
;
_chemical_formula_sum "Si O2"
_cell_formula_units_Z 56
_cell_length_a 15.000000
_cell_length_b 15.000000
_cell_length_c 12.000000
_cell_angle_alpha 90.000000
_cell_angle_beta 90.000000
_cell_angle_gamma 90.000000
_cell_volume 2700.000000
_symmetry_space_group_name_H-M "P M M A"
_symmetry_group_IT_number 51
_symmetry_cell_setting 'orthorhombic'
loop_
_space_group_symop_operation_xyz
x,y,z
1/2-x,-y,z
1/2+x,-y,-z
-x,y,-z
-x,-y,-z
1/2+x,y,-z
1/2-x,y,z
x,-y,z
loop_
_atom_site_type_symbol
_atom_site_label
_atom_site_fract_x
_atom_site_fract_y
_atom_site_fract_z
Si Si1 0.646374 0.249002 0.468940
Si Si2 0.353052 0.832732 0.308038
Si Si3 0.358220 0.399466 0.692533
Si Si4 0.038956 0.903196 0.648778
Si Si5 0.641754 0.236369 0.932046
Si Si6 0.854017 0.897767 0.123665
Si Si7 0.358930 0.601210 0.938169
O O1 0.750000 0.231410 0.435724
O O2 0.645147 0.246363 0.601525
O O3 0.615240 0.337859 0.408744
O O4 0.583028 0.171842 0.425559
O O5 0.250000 0.866698 0.305400
O O6 0.432547 0.897819 0.341983
O O7 0.381139 0.796006 0.189080
O O8 0.250000 0.403040 0.691612
O O9 0.391119 0.500000 0.682850
O O10 0.383231 0.363807 0.814857
O O11 0.083970 0.891117 0.769455
O O12 0.066405 0.000000 0.606659
O O13 0.750000 0.238170 0.934161
O O14 0.615091 0.167130 0.026806
O O15 0.608951 0.333282 0.966716
O O16 0.750000 0.876982 0.152593
O O17 0.855803 0.000000 0.083780
O O18 0.250000 0.599587 0.940825
O O19 0.388984 0.500000 0.949776
#
# Coordination Sequence:
#
# PCOD9407696 Si02
#       7
#     8   8   8   8   8   8   8
#     4  10  20  36  58  83 112 144 180 225 273 323
#     4  10  23  39  53  73 106 150 192 223 262 325
#     4   8  14  27  52  86 116 141 175 221 272 320
#     4  11  23  38  58  82 107 138 181 233 282 324
#     4   9  17  32  52  75 109 147 177 213 264 319
#     4   9  18  33  55  83 109 133 169 219 272 323
#     4   8  13  23  45  78 109 136 171 215 263 316
#
# _framework density 20.740741
#
# number of rings (size 3 to 8) (size 9 to 14) (size 15 to 20)
#    0.000    2.714    0.000    2.571    0.000    5.714 
#    0.000    5.000    0.000    6.857    0.000    3.000 
#    0.000    0.000    0.000    0.000    0.000    0.000 
#
# Total GULP energy -312196.292440 kJ/mol
# GULP energy per Si atom -5574.933794 kJ/mol
# Density = 2.069353 g / cm^3
# Si number density = 20.740741 Si / 1000 Ang^3
#
#
#
# Elastic Constant Matrix: (Units=GPa)
#
#
# Indices 1 2 3 4 5 6 
#
# 1 53.6286 17.0917 11.6874 0.0000 0.0000 0.0000
# 2 17.0917 57.7523 54.9512 0.0000 0.0000 0.0000
# 3 11.6874 54.9512 80.5415 0.0000 0.0000 0.0000
# 4 0.0000 0.0000 0.0000 139.9308 0.0000 0.0000
# 5 0.0000 0.0000 0.0000 0.0000 12.4671 0.0000
# 6 0.0000 0.0000 0.0000 0.0000 0.0000 -2.7015
#
#
#
# Elastic Compliance Matrix: (Units=1/GPa)
#
#
# Indices 1 2 3 4 5 6 
#
# 1 0.020908 -0.009409 0.003386 0.000000 0.000000 0.000000
# 2 -0.009409 0.053591 -0.035198 0.000000 0.000000 0.000000
# 3 0.003386 -0.035198 0.035940 0.000000 0.000000 0.000000
# 4 0.000000 0.000000 0.000000 0.007146 0.000000 0.000000
# 5 0.000000 0.000000 0.000000 0.000000 0.080211 0.000000
# 6 0.000000 0.000000 0.000000 0.000000 0.000000 -0.370168
#
#
# Mechanical properties :
#
#
# Convention : Reuss Voigt Hill
#
# Bulk Modulus (GPa) = 35.72097 39.93143 37.82620
# Shear Modulus (GPa) = -62.03648 37.15210 -12.44219
#
# Velocity S-wave (km/s) = -5.47498 4.23692 -2.45192
# Velocity P-wave (km/s) = 4.76520 6.57494 3.20333
#
# Compressibility (1/GPa) = 0.02799476
#
# Stress axis : x y z
#
# Youngs Moduli (GPa) = 47.82950 18.65983 27.82451
#
# Poissons Ratio (x) = 0.17557 -0.09420
# Poissons Ratio (y) = 0.45002 0.97938
# Poissons Ratio (z) = -0.16193 0.65680
#
# Static dielectric constant tensor:
#      x y z
#    x 1.749720 0.000000 0.000000 
#    y 0.000000 1.725900 0.000000 
#    z 0.000000 0.000000 1.760780 
# 
# From -- ./inp_files/16600.got.cif
#   From: 2010.05.17/outbox.ucp.g08.bks.cvg/sg51_9_cif.got.tgz:16600.got - 2010.06.11 16:27:58.
