data_PCOD9407631
_publ_section_title
;
Structure prediction by ZEFSAII (Michael W. Deem and Ramdas Pophale) SiO2 
 PCOD9407631
Probable space group: P M M A
;
_chemical_formula_sum "Si O2"
_cell_formula_units_Z 44
_cell_length_a 9.000000
_cell_length_b 9.000000
_cell_length_c 30.000000
_cell_angle_alpha 90.000000
_cell_angle_beta 90.000000
_cell_angle_gamma 90.000000
_cell_volume 2430.000000
_symmetry_space_group_name_H-M "P M M A"
_symmetry_group_IT_number 51
_symmetry_cell_setting 'orthorhombic'
loop_
_space_group_symop_operation_xyz
x,y,z
1/2-x,-y,z
1/2+x,-y,-z
-x,y,-z
-x,-y,-z
1/2+x,y,-z
1/2-x,y,z
x,-y,z
loop_
_atom_site_type_symbol
_atom_site_label
_atom_site_fract_x
_atom_site_fract_y
_atom_site_fract_z
Si Si1 0.425070 0.674598 0.277557
Si Si2 0.430101 0.825928 0.907408
Si Si3 0.074948 0.823162 0.368501
Si Si4 0.069548 0.500000 0.950981
Si Si5 0.073975 0.323395 0.546173
Si Si6 0.571857 0.831306 0.196159
O O1 0.250000 0.708757 0.273090
O O2 0.442417 0.500000 0.285105
O O3 0.481687 0.759601 0.321380
O O4 0.502807 0.722623 0.232081
O O5 0.250000 0.829906 0.910324
O O6 0.473713 0.664949 0.929866
O O7 0.473520 0.810720 0.855339
O O8 0.476442 0.000000 0.921310
O O9 0.250000 0.783027 0.371958
O O10 0.991696 0.756313 0.410760
O O11 0.062451 0.000000 0.368307
O O12 0.250000 0.500000 0.951421
O O13 0.000000 0.500000 0.000000
O O14 0.250000 0.301454 0.543603
O O15 0.044115 0.500000 0.550312
O O16 0.000000 0.271522 0.500000
O O17 0.750000 0.817995 0.196986
O O18 0.531917 0.000000 0.209096
#
# Coordination Sequence:
#
# PCOD9407631 Si02
#       6
#     8   8   8   4   8   8
#     4  10  21  35  52  77 108 142 176 213 262 317
#     4   8  16  32  53  77 105 139 180 223 269 324
#     4  10  21  37  56  76 102 139 178 214 256 309
#     4  10  20  34  54  78 106 142 180 224 275 322
#     4  10  21  37  58  82 106 134 170 213 262 313
#     4   9  18  33  54  79 104 134 177 223 263 311
#
# _framework density 18.106995999999999
#
# number of rings (size 3 to 8) (size 9 to 14) (size 15 to 20)
#    0.000    2.545    0.000    2.727    1.273    5.091 
#    0.000    0.909    0.000    1.091    0.000    0.000 
#    0.000    0.000    0.000    0.000    0.000    0.000 
#
# Total GULP energy -245070.336159 kJ/mol
# GULP energy per Si atom -5569.780367 kJ/mol
# Density = 1.806578 g / cm^3
# Si number density = 18.106996 Si / 1000 Ang^3
#
#
#
# Elastic Constant Matrix: (Units=GPa)
#
#
# Indices 1 2 3 4 5 6 
#
# 1 4.6700 28.4063 22.1262 0.0000 0.0000 0.0000
# 2 28.4063 75.0008 57.6416 0.0000 0.0000 0.0000
# 3 22.1262 57.6416 105.0326 0.0000 0.0000 0.0000
# 4 0.0000 0.0000 0.0000 22.5637 0.0000 0.0000
# 5 0.0000 0.0000 0.0000 0.0000 30.6561 0.0000
# 6 0.0000 0.0000 0.0000 0.0000 0.0000 24.1897
#
#
#
# Elastic Compliance Matrix: (Units=1/GPa)
#
#
# Indices 1 2 3 4 5 6 
#
# 1 -0.164198 0.061577 0.000797 0.000000 0.000000 0.000000
# 2 0.061577 -0.000033 -0.012953 0.000000 0.000000 0.000000
# 3 0.000797 -0.012953 0.016462 0.000000 0.000000 0.000000
# 4 0.000000 0.000000 0.000000 0.044319 0.000000 0.000000
# 5 0.000000 0.000000 0.000000 0.000000 0.032620 0.000000
# 6 0.000000 0.000000 0.000000 0.000000 0.000000 0.041340
#
#
# Mechanical properties :
#
#
# Convention : Reuss Voigt Hill
#
# Bulk Modulus (GPa) = -20.43774 44.56129 12.06178
# Shear Modulus (GPa) = -34.56834 20.58387 -6.99223
#
# Velocity S-wave (km/s) = -4.37408 3.37529 -1.96723
# Velocity P-wave (km/s) = 6.06810 6.31297 1.23120
#
# Compressibility (1/GPa) = -0.04892909
#
# Stress axis : x y z
#
# Youngs Moduli (GPa) = -6.09021 -29851.01691 60.74659
#
# Poissons Ratio (x) = 1838.13405 -0.04840
# Poissons Ratio (y) = 0.37502 0.78688
# Poissons Ratio (z) = 0.00485 -386.67362
#
# Static dielectric constant tensor:
#      x y z
#    x 1.611080 0.000000 0.000000 
#    y 0.000000 1.644180 0.000000 
#    z 0.000000 0.000000 1.601560 
# 
# From -- ./inp_files/36774.got.cif
#   From: 2010.05.17/outbox.ucp.g08.bks.cvg/sg51_19_cif.got.tgz:36774.got - 2010.06.11 16:27:58.
