data_PCOD9407422
_publ_section_title
;
Structure prediction by ZEFSAII (Michael W. Deem and Ramdas Pophale) SiO2 
 PCOD9407422
Probable space group: P M M A
;
_chemical_formula_sum "Si O2"
_cell_formula_units_Z 64
_cell_length_a 9.000000
_cell_length_b 24.000000
_cell_length_c 18.000000
_cell_angle_alpha 90.000000
_cell_angle_beta 90.000000
_cell_angle_gamma 90.000000
_cell_volume 3888.000000
_symmetry_space_group_name_H-M "P M M A"
_symmetry_group_IT_number 51
_symmetry_cell_setting 'orthorhombic'
loop_
_space_group_symop_operation_xyz
x,y,z
1/2-x,-y,z
1/2+x,-y,-z
-x,y,-z
-x,-y,-z
1/2+x,y,-z
1/2-x,y,z
x,-y,z
loop_
_atom_site_type_symbol
_atom_site_label
_atom_site_fract_x
_atom_site_fract_y
_atom_site_fract_z
Si Si1 0.071702 0.435431 0.423580
Si Si2 0.919637 0.164771 0.320611
Si Si3 0.417939 0.756529 0.426850
Si Si4 0.076640 0.781315 0.072259
Si Si5 0.071237 0.938869 0.241399
Si Si6 0.416547 0.731796 0.794776
Si Si7 0.571427 0.089480 0.924182
Si Si8 0.579250 0.655632 0.691027
O O1 0.250000 0.431525 0.430480
O O2 0.030352 0.500000 0.414199
O O3 0.028912 0.398477 0.353529
O O4 0.000000 0.414866 0.500000
O O5 0.750000 0.151436 0.338183
O O6 0.920310 0.215746 0.261553
O O7 0.002839 0.190302 0.391018
O O8 0.998679 0.111813 0.284847
O O9 0.500000 0.737355 0.500000
O O10 0.250000 0.770919 0.445005
O O11 0.417993 0.706287 0.368139
O O12 0.250000 0.783786 0.060872
O O13 0.025579 0.845424 0.082390
O O14 0.033680 0.746283 0.142837
O O15 0.000000 0.757642 0.000000
O O16 0.250000 0.932356 0.243399
O O17 0.027860 0.936664 0.154291
O O18 0.032752 0.000000 0.271243
O O19 0.250000 0.727965 0.824710
O O20 0.467334 0.676418 0.753167
O O21 0.750000 0.085563 0.930749
O O22 0.500000 0.067481 0.000000
O O23 0.750000 0.648557 0.717403
#
# Coordination Sequence:
#
# PCOD9407422 Si02
#       8
#     8   8   8   8   8   8   8   8
#     4   9  17  29  45  66  95 132 170 202 232 269
#     4  10  20  33  49  68  91 116 148 186 228 276
#     4  10  19  31  49  71  95 120 149 185 229 275
#     4  10  18  29  46  66  92 123 154 188 229 278
#     4  10  20  34  50  67  89 118 151 186 226 273
#     4  10  19  30  46  68  92 120 155 195 235 275
#     4   9  18  30  45  65  89 118 150 184 221 264
#     4   9  18  30  45  67  96 129 160 194 233 271
#
# _framework density 16.460905
#
# number of rings (size 3 to 8) (size 9 to 14) (size 15 to 20)
#    0.000    2.375    1.250    1.875    0.000    3.500 
#    0.000    0.000    0.000    0.375    0.000    0.000 
#    0.000    0.500    0.000    1.375    0.000    2.000 
#
# Total GULP energy -356572.669544 kJ/mol
# GULP energy per Si atom -5571.447962 kJ/mol
# Density = 1.642344 g / cm^3
# Si number density = 16.460905 Si / 1000 Ang^3
#
#
#
# Elastic Constant Matrix: (Units=GPa)
#
#
# Indices 1 2 3 4 5 6 
#
# 1 28.4956 15.4907 11.5194 0.0000 0.0000 0.0000
# 2 15.4907 57.9593 8.0514 0.0000 0.0000 0.0000
# 3 11.5194 8.0514 10.4469 0.0000 0.0000 0.0000
# 4 0.0000 0.0000 0.0000 20.6339 0.0000 0.0000
# 5 0.0000 0.0000 0.0000 0.0000 24.6702 0.0000
# 6 0.0000 0.0000 0.0000 0.0000 0.0000 14.8864
#
#
#
# Elastic Compliance Matrix: (Units=1/GPa)
#
#
# Indices 1 2 3 4 5 6 
#
# 1 0.066896 -0.008547 -0.067176 0.000000 0.000000 0.000000
# 2 -0.008547 0.020414 -0.006308 0.000000 0.000000 0.000000
# 3 -0.067176 -0.006308 0.174657 0.000000 0.000000 0.000000
# 4 0.000000 0.000000 0.000000 0.048464 0.000000 0.000000
# 5 0.000000 0.000000 0.000000 0.000000 0.040535 0.000000
# 6 0.000000 0.000000 0.000000 0.000000 0.000000 0.067175
#
#
# Mechanical properties :
#
#
# Convention : Reuss Voigt Hill
#
# Bulk Modulus (GPa) = 10.21418 18.55833 14.38625
# Shear Modulus (GPa) = 8.13219 16.16078 12.14649
#
# Velocity S-wave (km/s) = 2.22509 3.13672 2.71938
# Velocity P-wave (km/s) = 3.58050 4.94139 4.31493
#
# Compressibility (1/GPa) = 0.09790314
#
# Stress axis : x y z
#
# Youngs Moduli (GPa) = 14.94858 48.98529 5.72550
#
# Poissons Ratio (x) = 0.41870 0.38462
# Poissons Ratio (y) = 0.12777 0.03612
# Poissons Ratio (z) = 1.00419 0.30902
#
# Static dielectric constant tensor:
#      x y z
#    x 1.559930 0.000000 0.000000 
#    y 0.000000 1.547020 0.000000 
#    z 0.000000 0.000000 1.705730 
# 
# From -- ./inp_files/28626.got.cif
#   From: 2010.05.17/outbox.ucp.g08.bks.cvg/sg51_15_cif.got.tgz:28626.got - 2010.06.11 16:27:58.
