data_PCOD9407649
_publ_section_title
;
Structure prediction by ZEFSAII (Michael W. Deem and Ramdas Pophale) SiO2 
 PCOD9407649
Probable space group: P M M A
;
_chemical_formula_sum "Si O2"
_cell_formula_units_Z 64
_cell_length_a 9.000000
_cell_length_b 24.000000
_cell_length_c 15.000000
_cell_angle_alpha 90.000000
_cell_angle_beta 90.000000
_cell_angle_gamma 90.000000
_cell_volume 3240.000000
_symmetry_space_group_name_H-M "P M M A"
_symmetry_group_IT_number 51
_symmetry_cell_setting 'orthorhombic'
loop_
_space_group_symop_operation_xyz
x,y,z
1/2-x,-y,z
1/2+x,-y,-z
-x,y,-z
-x,-y,-z
1/2+x,y,-z
1/2-x,y,z
x,-y,z
loop_
_atom_site_type_symbol
_atom_site_label
_atom_site_fract_x
_atom_site_fract_y
_atom_site_fract_z
Si Si1 0.574834 0.145368 0.905106
Si Si2 0.072941 0.235179 0.777620
Si Si3 0.921926 0.393570 0.591762
Si Si4 0.927150 0.066631 0.410806
Si Si5 0.427416 0.340538 0.904012
Si Si6 0.078613 0.066638 0.785200
Si Si7 0.077514 0.741531 0.408299
Si Si8 0.571292 0.435769 0.227229
O O1 0.750000 0.151245 0.912229
O O2 0.506117 0.187734 0.834149
O O3 0.525632 0.086494 0.864133
O O4 0.500000 0.154866 0.000000
O O5 0.250000 0.227306 0.774651
O O6 0.041900 0.291777 0.832799
O O7 0.008436 0.238121 0.678683
O O8 0.750000 0.410375 0.590966
O O9 0.928467 0.326132 0.594201
O O10 0.000000 0.411826 0.500000
O O11 0.000910 0.416252 0.679841
O O12 0.750000 0.072742 0.416253
O O13 0.972510 0.087727 0.312830
O O14 0.000000 0.090602 0.500000
O O15 0.959730 0.000000 0.410399
O O16 0.250000 0.342477 0.917021
O O17 0.477681 0.396945 0.854736
O O18 0.500000 0.331176 0.000000
O O19 0.250000 0.085124 0.799818
O O20 0.081487 0.000000 0.780626
O O21 0.250000 0.758220 0.406402
O O22 0.000000 0.759534 0.500000
O O23 0.750000 0.429722 0.234956
O O24 0.535670 0.500000 0.211070
#
# Coordination Sequence:
#
# PCOD9407649 Si02
#       8
#     8   8   8   8   8   8   8   8
#     4  12  26  43  63  89 120 154 198 248 302 359
#     4  11  22  40  65  90 119 154 194 244 296 351
#     4  10  20  34  56  84 116 153 194 238 287 348
#     4   8  14  26  48  79 114 151 190 232 277 328
#     4  10  22  38  59  85 111 146 191 239 296 354
#     4   9  19  38  62  88 121 161 203 246 296 353
#     4  10  20  35  59  91 123 157 194 238 290 352
#     4  10  21  38  57  80 114 153 195 244 296 352
#
# _framework density 19.753086
#
# number of rings (size 3 to 8) (size 9 to 14) (size 15 to 20)
#    0.000    2.000    1.250    3.375    0.000    5.250 
#    0.000    1.875    0.000    1.500    0.000    0.000 
#    0.000    0.000    0.000    0.000    0.000    0.000 
#
# Total GULP energy -357432.883408 kJ/mol
# GULP energy per Si atom -5584.888803 kJ/mol
# Density = 1.970813 g / cm^3
# Si number density = 19.753086 Si / 1000 Ang^3
#
#
#
# Elastic Constant Matrix: (Units=GPa)
#
#
# Indices 1 2 3 4 5 6 
#
# 1 79.5107 32.8394 77.9310 0.0000 0.0000 0.0000
# 2 32.8394 44.1156 41.9794 0.0000 0.0000 0.0000
# 3 77.9310 41.9794 176.2158 0.0000 0.0000 0.0000
# 4 0.0000 0.0000 0.0000 -9.3023 0.0000 0.0000
# 5 0.0000 0.0000 0.0000 0.0000 40.5318 0.0000
# 6 0.0000 0.0000 0.0000 0.0000 0.0000 10.8030
#
#
#
# Elastic Compliance Matrix: (Units=1/GPa)
#
#
# Indices 1 2 3 4 5 6 
#
# 1 0.025593 -0.010708 -0.008767 0.000000 0.000000 0.000000
# 2 -0.010708 0.033793 -0.003315 0.000000 0.000000 0.000000
# 3 -0.008767 -0.003315 0.010342 0.000000 0.000000 0.000000
# 4 0.000000 0.000000 0.000000 -0.107500 0.000000 0.000000
# 5 0.000000 0.000000 0.000000 0.000000 0.024672 0.000000
# 6 0.000000 0.000000 0.000000 0.000000 0.000000 0.092566
#
#
# Mechanical properties :
#
#
# Convention : Reuss Voigt Hill
#
# Bulk Modulus (GPa) = 41.41298 67.26021 54.33659
# Shear Modulus (GPa) = 37.56682 18.21265 27.88974
#
# Velocity S-wave (km/s) = 4.36572 3.03976 3.76163
# Velocity P-wave (km/s) = 6.81348 6.81503 6.81425
#
# Compressibility (1/GPa) = 0.02414702
#
# Stress axis : x y z
#
# Youngs Moduli (GPa) = 39.07342 29.59177 96.69451
#
# Poissons Ratio (x) = 0.31688 0.84775
# Poissons Ratio (y) = 0.41841 0.32051
# Poissons Ratio (z) = 0.34257 0.09809
#
# Static dielectric constant tensor:
#      x y z
#    x 1.664590 0.000000 0.000000 
#    y 0.000000 1.759430 0.000000 
#    z 0.000000 0.000000 1.663930 
# 
# From -- ./inp_files/22201.got.cif
#   From: 2010.05.17/outbox.ucp.g08.bks.cvg/sg51_12_cif.got.tgz:22201.got - 2010.06.11 16:27:58.
