data_PCOD9407896
_publ_section_title
;
Structure prediction by ZEFSAII (Michael W. Deem and Ramdas Pophale) SiO2 
 PCOD9407896
Probable space group: P N N A
;
_chemical_formula_sum "Si O2"
_cell_formula_units_Z 40
_cell_length_a 8.791690
_cell_length_b 10.171847
_cell_length_c 21.941594
_cell_angle_alpha 90.000000
_cell_angle_beta 90.000000
_cell_angle_gamma 90.000000
_cell_volume 1962.186846
_symmetry_space_group_name_H-M "P N N A"
_symmetry_group_IT_number 52
_symmetry_cell_setting 'orthorhombic'
loop_
_space_group_symop_operation_xyz
x,y,z
1/2-x,-y,z
x,1/2-y,1/2-z
1/2-x,1/2+y,1/2-z
-x,-y,-z
1/2+x,y,-z
-x,1/2+y,1/2+z
1/2+x,1/2-y,1/2+z
loop_
_atom_site_type_symbol
_atom_site_label
_atom_site_fract_x
_atom_site_fract_y
_atom_site_fract_z
Si Si1 0.616067 0.895538 0.272783
Si Si2 0.070917 0.953633 0.857072
Si Si3 0.296068 0.804327 0.502679
Si Si4 0.967542 0.159985 0.407389
Si Si5 0.950569 0.381531 0.544919
O O1 0.671497 0.750000 0.250000
O O2 0.523677 0.936844 0.212934
O O3 0.539513 0.894608 0.339012
O O4 0.750000 0.000000 0.277997
O O5 0.050987 0.816897 0.893764
O O6 0.250000 0.000000 0.860790
O O7 0.965477 0.059776 0.888692
O O8 0.382311 0.873738 0.446407
O O9 0.174952 0.871325 0.547908
O O10 0.432332 0.739714 0.540695
O O11 0.208334 0.679524 0.473737
O O12 0.000000 0.500000 0.500000
#
# Coordination Sequence:
#
# PCOD9407896 Si02
#       5
#     8   8   8   8   8
#     4   9  20  36  56  83 111 149 201 245 282 348
#     4  10  16  27  49  78 109 140 186 242 292 330
#     4  10  19  26  47  80 115 143 177 234 296 341
#     4  10  19  31  47  80 108 147 186 233 286 346
#     4  11  16  25  44  80 113 138 179 239 287 334
#
# _framework density 20.38542
#
# number of rings (size 3 to 8) (size 9 to 14) (size 15 to 20)
#    0.000    2.000    6.000    0.600    0.000    0.000 
#    0.000    1.000    0.000    0.000   93.600    0.000 
#    0.000    0.000    0.000    0.000    0.000    0.000 
#
# Total GULP energy -222879.615630 kJ/mol
# GULP energy per Si atom -5571.990391 kJ/mol
# Density = 2.033902 g / cm^3
# Si number density = 20.385420 Si / 1000 Ang^3
#
#
#
# Elastic Constant Matrix: (Units=GPa)
#
#
# Indices 1 2 3 4 5 6 
#
# 1 56.3126 5.2927 39.7113 0.0000 0.0000 0.0000
# 2 5.2927 26.7409 35.6806 0.0000 0.0000 0.0000
# 3 39.7113 35.6806 185.9098 0.0000 0.0000 0.0000
# 4 0.0000 0.0000 0.0000 31.9035 0.0000 0.0000
# 5 0.0000 0.0000 0.0000 0.0000 15.1742 0.0000
# 6 0.0000 0.0000 0.0000 0.0000 0.0000 11.2646
#
#
#
# Elastic Compliance Matrix: (Units=1/GPa)
#
#
# Indices 1 2 3 4 5 6 
#
# 1 0.021027 0.002462 -0.004964 0.000000 0.000000 0.000000
# 2 0.002462 0.050557 -0.010229 0.000000 0.000000 0.000000
# 3 -0.004964 -0.010229 0.008402 0.000000 0.000000 0.000000
# 4 0.000000 0.000000 0.000000 0.031344 0.000000 0.000000
# 5 0.000000 0.000000 0.000000 0.000000 0.065901 0.000000
# 6 0.000000 0.000000 0.000000 0.000000 0.000000 0.088774
#
#
# Mechanical properties :
#
#
# Convention : Reuss Voigt Hill
#
# Bulk Modulus (GPa) = 18.34043 47.81471 33.07757
# Shear Modulus (GPa) = 16.14758 24.22038 20.18398
#
# Velocity S-wave (km/s) = 2.81751 3.45066 3.15003
# Velocity P-wave (km/s) = 4.42728 6.27553 5.43061
#
# Compressibility (1/GPa) = 0.05452436
#
# Stress axis : x y z
#
# Youngs Moduli (GPa) = 47.55742 19.77950 119.01259
#
# Poissons Ratio (x) = -0.04869 0.59077
# Poissons Ratio (y) = -0.11707 1.21738
# Poissons Ratio (z) = 0.23607 0.20232
#
# Static dielectric constant tensor:
#      x y z
#    x 1.713040 0.000000 0.000000 
#    y 0.000000 1.828640 0.000000 
#    z 0.000000 0.000000 1.766900 
# 
# From -- ./inp_files/35769.got.cif
#   From: 2010.05.17/outbox.cif.g08.bks.cpg/sg52_18_cif.got.tgz:35769.got - 2010.06.03 12:15:38.
