data_PCOD9407688
_publ_section_title
;
Structure prediction by ZEFSAII (Michael W. Deem and Ramdas Pophale) SiO2 
 PCOD9407688
Probable space group: P M M A
;
_chemical_formula_sum "Si O2"
_cell_formula_units_Z 48
_cell_length_a 30.000000
_cell_length_b 9.000000
_cell_length_c 9.000000
_cell_angle_alpha 90.000000
_cell_angle_beta 90.000000
_cell_angle_gamma 90.000000
_cell_volume 2430.000000
_symmetry_space_group_name_H-M "P M M A"
_symmetry_group_IT_number 51
_symmetry_cell_setting 'orthorhombic'
loop_
_space_group_symop_operation_xyz
x,y,z
1/2-x,-y,z
1/2+x,-y,-z
-x,y,-z
-x,-y,-z
1/2+x,y,-z
1/2-x,y,z
x,-y,z
loop_
_atom_site_type_symbol
_atom_site_label
_atom_site_fract_x
_atom_site_fract_y
_atom_site_fract_z
Si Si1 0.448777 0.331611 0.265885
Si Si2 0.198591 0.821274 0.400240
Si Si3 0.699152 0.321429 0.929653
Si Si4 0.112751 0.329966 0.550722
Si Si5 0.891168 0.826280 0.971568
Si Si6 0.955555 0.173006 0.238946
O O1 0.451960 0.500000 0.205994
O O2 0.426096 0.339024 0.426438
O O3 0.411331 0.239792 0.178304
O O4 0.498047 0.259812 0.262971
O O5 0.250000 0.794016 0.453883
O O6 0.196677 0.752854 0.234040
O O7 0.158557 0.744729 0.492590
O O8 0.192138 0.000000 0.395373
O O9 0.750000 0.289279 0.986982
O O10 0.695233 0.500000 0.917675
O O11 0.655004 0.258263 0.012105
O O12 0.122093 0.500000 0.598881
O O13 0.087045 0.232495 0.670866
O O14 0.880129 0.000000 0.960531
O O15 0.935005 0.812647 0.075021
O O16 0.963882 0.000000 0.272625
#
# Coordination Sequence:
#
# PCOD9407688 Si02
#       6
#     8   8   8   8   8   8
#     4  11  23  39  61  88 116 152 198 245 292 346
#     4  10  20  35  59  89 118 151 192 238 288 342
#     4  10  20  35  58  88 118 149 190 239 289 343
#     4  11  23  39  60  88 119 154 196 241 291 348
#     4  11  23  39  60  87 118 154 197 241 290 346
#     4  11  25  41  58  84 119 158 198 243 293 347
#
# _framework density 19.753086
#
# number of rings (size 3 to 8) (size 9 to 14) (size 15 to 20)
#    0.000    1.333    1.667    4.000    0.000   10.667 
#    0.000    0.833    0.000    1.000    0.000    0.000 
#    0.000    0.000    0.000    0.000    0.000    0.000 
#
# Total GULP energy -267710.603975 kJ/mol
# GULP energy per Si atom -5577.304249 kJ/mol
# Density = 1.970813 g / cm^3
# Si number density = 19.753086 Si / 1000 Ang^3
#
#
#
# Elastic Constant Matrix: (Units=GPa)
#
#
# Indices 1 2 3 4 5 6 
#
# 1 135.6829 -16.1324 -25.5637 0.0000 0.0000 0.0000
# 2 -16.1324 -104.1738 -35.6143 0.0000 0.0000 0.0000
# 3 -25.5637 -35.6143 -0.2561 0.0000 0.0000 0.0000
# 4 0.0000 0.0000 0.0000 19.7218 0.0000 0.0000
# 5 0.0000 0.0000 0.0000 0.0000 7.3850 0.0000
# 6 0.0000 0.0000 0.0000 0.0000 0.0000 48.4831
#
#
#
# Elastic Compliance Matrix: (Units=1/GPa)
#
#
# Indices 1 2 3 4 5 6 
#
# 1 0.009573 -0.006987 0.016102 0.000000 0.000000 0.000000
# 2 -0.006987 0.005306 -0.040434 0.000000 0.000000 0.000000
# 3 0.016102 -0.040434 0.110979 0.000000 0.000000 0.000000
# 4 0.000000 0.000000 0.000000 0.050705 0.000000 0.000000
# 5 0.000000 0.000000 0.000000 0.000000 0.135409 0.000000
# 6 0.000000 0.000000 0.000000 0.000000 0.000000 0.020626
#
#
# Mechanical properties :
#
#
# Convention : Reuss Voigt Hill
#
# Bulk Modulus (GPa) = 15.81816 -13.70755 1.05530
# Shear Modulus (GPa) = 12.01025 22.35555 17.18290
#
# Velocity S-wave (km/s) = 2.46848 3.36780 2.95258
# Velocity P-wave (km/s) = 4.01869 2.85801 3.48698
#
# Compressibility (1/GPa) = 0.06321848
#
# Stress axis : x y z
#
# Youngs Moduli (GPa) = 104.46001 188.45909 9.01070
#
# Poissons Ratio (x) = 1.31681 -0.14509
# Poissons Ratio (y) = 0.72989 0.36434
# Poissons Ratio (z) = -1.68199 7.62023
#
# Static dielectric constant tensor:
#      x y z
#    x 1.662790 0.000000 0.000000 
#    y 0.000000 1.690640 0.000000 
#    z 0.000000 0.000000 1.768690 
# 
# From -- ./inp_files/12798.got.cif
#   From: 2010.05.17/outbox.ucp.g08.bks.cvg/sg51_7_cif.got.tgz:12798.got - 2010.06.11 16:27:58.
