data_PCOD9407887
_publ_section_title
;
Structure prediction by ZEFSAII (Michael W. Deem and Ramdas Pophale) SiO2 
 PCOD9407887
Probable space group: P N N A
;
_chemical_formula_sum "Si O2"
_cell_formula_units_Z 48
_cell_length_a 15.186500
_cell_length_b 7.399657
_cell_length_c 17.830973
_cell_angle_alpha 90.000000
_cell_angle_beta 90.000000
_cell_angle_gamma 90.000000
_cell_volume 2003.753648
_symmetry_space_group_name_H-M "P N N A"
_symmetry_group_IT_number 52
_symmetry_cell_setting 'orthorhombic'
loop_
_space_group_symop_operation_xyz
x,y,z
1/2-x,-y,z
x,1/2-y,1/2-z
1/2-x,1/2+y,1/2-z
-x,-y,-z
1/2+x,y,-z
-x,1/2+y,1/2+z
1/2+x,1/2-y,1/2+z
loop_
_atom_site_type_symbol
_atom_site_label
_atom_site_fract_x
_atom_site_fract_y
_atom_site_fract_z
Si Si1 0.447676 0.075431 0.694130
Si Si2 0.375639 0.863982 0.829902
Si Si3 0.798131 0.246979 0.113361
Si Si4 0.463148 0.418795 0.421348
Si Si5 0.620435 0.270401 0.837527
Si Si6 0.274530 0.212389 0.054940
O O1 0.447666 0.250000 0.750000
O O2 0.414114 0.922869 0.749795
O O3 0.374247 0.113534 0.632646
O O4 0.545709 0.075475 0.662086
O O5 0.343047 0.051237 0.872066
O O6 0.458243 0.811460 0.881071
O O7 0.286311 0.750015 0.833204
O O8 0.762475 0.271764 0.030202
O O9 0.500000 0.500000 0.500000
O O10 0.429188 0.589616 0.370270
O O11 0.378658 0.290858 0.430546
O O12 0.646350 0.250000 0.750000
O O13 0.706343 0.302245 0.887869
O O14 0.250000 0.000000 0.057849
#
# Coordination Sequence:
#
# PCOD9407887 Si02
#       6
#     8   8   8   8   8   8
#     4   9  16  28  43  64  99 131 161 195 247 309
#     4  10  16  26  44  67  98 129 161 196 250 304
#     4  10  16  27  42  70 101 124 157 205 252 296
#     4  11  16  27  45  71  99 129 161 204 253 310
#     4  10  17  29  42  64 103 132 164 196 248 318
#     4  10  18  25  43  70  97 127 154 203 255 292
#
# _framework density 23.955041000000001
#
# number of rings (size 3 to 8) (size 9 to 14) (size 15 to 20)
#    0.000    2.000    8.333    1.000    0.000    0.000 
#    0.000    0.000    0.000    5.000    0.000    0.000 
#   45.000   40.333    0.000    0.000    0.000    0.000 
#
# Total GULP energy -268358.990068 kJ/mol
# GULP energy per Si atom -5590.812293 kJ/mol
# Density = 2.390052 g / cm^3
# Si number density = 23.955041 Si / 1000 Ang^3
#
#
#
# Elastic Constant Matrix: (Units=GPa)
#
#
# Indices 1 2 3 4 5 6 
#
# 1 231.2416 21.2790 103.4564 0.0000 0.0000 0.0000
# 2 21.2790 51.2364 8.3689 0.0000 0.0000 0.0000
# 3 103.4564 8.3689 179.0740 0.0000 0.0000 0.0000
# 4 0.0000 0.0000 0.0000 14.3637 0.0000 0.0000
# 5 0.0000 0.0000 0.0000 0.0000 58.0970 0.0000
# 6 0.0000 0.0000 0.0000 0.0000 0.0000 23.0910
#
#
#
# Elastic Compliance Matrix: (Units=1/GPa)
#
#
# Indices 1 2 3 4 5 6 
#
# 1 0.006019 -0.001946 -0.003386 0.000000 0.000000 0.000000
# 2 -0.001946 0.020297 0.000176 0.000000 0.000000 0.000000
# 3 -0.003386 0.000176 0.007532 0.000000 0.000000 0.000000
# 4 0.000000 0.000000 0.000000 0.069620 0.000000 0.000000
# 5 0.000000 0.000000 0.000000 0.000000 0.017213 0.000000
# 6 0.000000 0.000000 0.000000 0.000000 0.000000 0.043307
#
#
# Mechanical properties :
#
#
# Convention : Reuss Voigt Hill
#
# Bulk Modulus (GPa) = 42.49058 80.86227 61.67643
# Shear Modulus (GPa) = 27.45058 41.00686 34.22872
#
# Velocity S-wave (km/s) = 3.38882 4.14191 3.78414
# Velocity P-wave (km/s) = 5.75224 7.53014 6.70042
#
# Compressibility (1/GPa) = 0.02353463
#
# Stress axis : x y z
#
# Youngs Moduli (GPa) = 166.15355 49.26833 132.76117
#
# Poissons Ratio (x) = 0.09590 0.44954
# Poissons Ratio (y) = 0.32341 -0.02336
# Poissons Ratio (z) = 0.56262 -0.00867
#
# Static dielectric constant tensor:
#      x y z
#    x 1.941560 0.000000 0.000000 
#    y 0.000000 2.130790 0.000000 
#    z 0.000000 0.000000 1.910570 
# 
# From -- ./inp_files/27349.got.cif
#   From: 2010.05.17/outbox.cif.g08.bks.cpg/sg52_14_cif.got.tgz:27349.got - 2010.06.03 12:15:38.
