data_PCOD9407905
_publ_section_title
;
Structure prediction by ZEFSAII (Michael W. Deem and Ramdas Pophale) SiO2 
 PCOD9407905
Probable space group: P N N A
;
_chemical_formula_sum "Si O2"
_cell_formula_units_Z 56
_cell_length_a 5.374551
_cell_length_b 25.012351
_cell_length_c 28.703130
_cell_angle_alpha 90.000000
_cell_angle_beta 90.000000
_cell_angle_gamma 90.000000
_cell_volume 3858.566246
_symmetry_space_group_name_H-M "P N N A"
_symmetry_group_IT_number 52
_symmetry_cell_setting 'orthorhombic'
loop_
_space_group_symop_operation_xyz
x,y,z
1/2-x,-y,z
x,1/2-y,1/2-z
1/2-x,1/2+y,1/2-z
-x,-y,-z
1/2+x,y,-z
-x,1/2+y,1/2+z
1/2+x,1/2-y,1/2+z
loop_
_atom_site_type_symbol
_atom_site_label
_atom_site_fract_x
_atom_site_fract_y
_atom_site_fract_z
Si Si1 0.250000 0.500000 0.103720
Si Si2 0.771234 0.189877 0.228944
Si Si3 0.750000 0.000000 0.337537
Si Si4 0.272454 0.324968 0.133497
Si Si5 0.335190 0.430629 0.019860
Si Si6 0.820996 0.195120 0.523517
Si Si7 0.770870 0.221564 0.800718
Si Si8 0.227887 0.877200 0.676242
O O1 0.498919 0.497417 0.132709
O O2 0.243469 0.448414 0.070263
O O3 0.770660 0.250000 0.250000
O O4 0.520792 0.186776 0.198910
O O5 0.773193 0.151830 0.273650
O O6 0.020778 0.186875 0.198670
O O7 0.766393 0.059038 0.314863
O O8 0.283742 0.307630 0.079300
O O9 0.270723 0.269912 0.162965
O O10 0.522859 0.357559 0.148584
O O11 0.021239 0.357623 0.148275
O O12 0.343130 0.367849 0.011727
O O13 0.615228 0.450675 0.013567
O O14 0.581438 0.217948 0.496106
O O15 0.770489 0.250000 0.750000
#
# Coordination Sequence:
#
# PCOD9407905 Si02
#       8
#     4   8   4   8   8   8   8   8
#     4  12  22  37  44  58  78  98 152 186 226 261
#     4  10  16  30  47  70  90 103 129 179 223 260
#     4  12  26  33  42  62  88 118 140 170 208 287
#     4  12  20  32  54  65  85 117 139 189 232 258
#     4  10  19  32  48  58  69  97 139 191 232 255
#     4  10  21  33  42  60  84 109 145 176 216 272
#     4  10  16  29  47  76  87  98 135 173 237 259
#     4  12  21  33  48  66  90 114 144 176 231 264
#
# _framework density 14.513161999999999
#
# number of rings (size 3 to 8) (size 9 to 14) (size 15 to 20)
#    0.000    1.143    5.714    4.714    0.000    2.286 
#    0.000    0.000    0.000    0.000    0.000    0.000 
#    0.000    0.000    0.000    0.000    0.000    0.000 
#
# Total GULP energy -311879.548417 kJ/mol
# GULP energy per Si atom -5569.277650 kJ/mol
# Density = 1.448013 g / cm^3
# Si number density = 14.513162 Si / 1000 Ang^3
#
#
#
# Elastic Constant Matrix: (Units=GPa)
#
#
# Indices 1 2 3 4 5 6 
#
# 1 146.4668 30.1474 41.7883 0.0000 0.0000 0.0000
# 2 30.1474 49.7802 32.2320 0.0000 0.0000 0.0000
# 3 41.7883 32.2320 41.7445 0.0000 0.0000 0.0000
# 4 0.0000 0.0000 0.0000 24.4257 0.0000 0.0000
# 5 0.0000 0.0000 0.0000 0.0000 18.2003 0.0000
# 6 0.0000 0.0000 0.0000 0.0000 0.0000 9.6396
#
#
#
# Elastic Compliance Matrix: (Units=1/GPa)
#
#
# Indices 1 2 3 4 5 6 
#
# 1 0.009574 0.000815 -0.010213 0.000000 0.000000 0.000000
# 2 0.000815 0.040241 -0.031887 0.000000 0.000000 0.000000
# 3 -0.010213 -0.031887 0.058799 0.000000 0.000000 0.000000
# 4 0.000000 0.000000 0.000000 0.040941 0.000000 0.000000
# 5 0.000000 0.000000 0.000000 0.000000 0.054944 0.000000
# 6 0.000000 0.000000 0.000000 0.000000 0.000000 0.103739
#
#
# Mechanical properties :
#
#
# Convention : Reuss Voigt Hill
#
# Bulk Modulus (GPa) = 38.39583 49.59187 43.99385
# Shear Modulus (GPa) = 12.51601 19.37471 15.94536
#
# Velocity S-wave (km/s) = 2.93983 3.65769 3.31823
# Velocity P-wave (km/s) = 6.16740 7.21684 6.71266
#
# Compressibility (1/GPa) = 0.02604450
#
# Stress axis : x y z
#
# Youngs Moduli (GPa) = 104.45424 24.85018 17.00700
#
# Poissons Ratio (x) = -0.02025 0.17369
# Poissons Ratio (y) = -0.08510 0.54230
# Poissons Ratio (z) = 1.06676 0.79239
#
# Static dielectric constant tensor:
#      x y z
#    x 1.894650 0.000000 0.000000 
#    y 0.000000 1.479250 0.000000 
#    z 0.000000 0.000000 1.468910 
# 
# From -- ./inp_files/41851.got.cif
#   From: 2010.05.17/outbox.cif.g08.bks.cpg/sg52_21_cif.got.tgz:41851.got - 2010.06.03 12:15:38.
