data_PCOD9407608
_publ_section_title
;
Structure prediction by ZEFSAII (Michael W. Deem and Ramdas Pophale) SiO2 
 PCOD9407608
Probable space group: P M M A
;
_chemical_formula_sum "Si O2"
_cell_formula_units_Z 64
_cell_length_a 15.000000
_cell_length_b 9.000000
_cell_length_c 24.000000
_cell_angle_alpha 90.000000
_cell_angle_beta 90.000000
_cell_angle_gamma 90.000000
_cell_volume 3240.000000
_symmetry_space_group_name_H-M "P M M A"
_symmetry_group_IT_number 51
_symmetry_cell_setting 'orthorhombic'
loop_
_space_group_symop_operation_xyz
x,y,z
1/2-x,-y,z
1/2+x,-y,-z
-x,y,-z
-x,-y,-z
1/2+x,y,-z
1/2-x,y,z
x,-y,z
loop_
_atom_site_type_symbol
_atom_site_label
_atom_site_fract_x
_atom_site_fract_y
_atom_site_fract_z
Si Si1 0.846464 0.330843 0.876047
Si Si2 0.045018 0.820618 0.738666
Si Si3 0.528978 0.324646 0.369283
Si Si4 0.350376 0.819925 0.849372
Si Si5 0.851631 0.824270 0.592762
Si Si6 0.853047 0.670874 0.476893
Si Si7 0.999740 0.830210 0.065949
Si Si8 0.154288 0.177374 0.240587
O O1 0.750000 0.320172 0.904453
O O2 0.856494 0.500000 0.855563
O O3 0.925676 0.282726 0.914715
O O4 0.845714 0.219695 0.824215
O O5 0.096408 0.771645 0.794119
O O6 0.080027 0.754467 0.681284
O O7 0.942131 0.768232 0.740675
O O8 0.046519 0.000000 0.737159
O O9 0.525642 0.500000 0.359868
O O10 0.429995 0.259292 0.375871
O O11 0.580801 0.297129 0.426807
O O12 0.250000 0.762131 0.850824
O O13 0.407796 0.786613 0.904169
O O14 0.345654 0.000000 0.846284
O O15 0.750000 0.780214 0.607050
O O16 0.863722 0.781921 0.528072
O O17 0.859972 0.000000 0.602203
O O18 0.750000 0.677735 0.458151
O O19 0.869294 0.500000 0.496491
O O20 0.020370 0.000000 0.085472
O O21 0.000000 0.832808 0.000000
O O22 0.250000 0.233824 0.263209
O O23 0.154239 0.000000 0.248598
#
# Coordination Sequence:
#
# PCOD9407608 Si02
#       8
#     8   8   8   8   8   8   8   8
#     4  10  20  33  52  79 111 144 176 217 272 331
#     4  10  20  35  54  77 107 146 187 230 282 332
#     4  11  23  36  54  82 114 148 187 232 279 332
#     4   9  18  35  57  81 111 146 186 233 283 332
#     4  10  21  37  58  84 113 146 185 231 282 336
#     4   9  19  37  58  79 109 149 188 229 281 337
#     4  10  20  35  58  86 113 145 188 235 280 330
#     4   9  17  32  55  78 100 132 177 226 274 328
#
# _framework density 19.753086
#
# number of rings (size 3 to 8) (size 9 to 14) (size 15 to 20)
#    0.000    2.250    1.250    1.500    0.000    6.250 
#    0.000    2.500    0.000    1.125    0.000    0.000 
#    0.000    0.000    0.000    0.000    0.000    0.000 
#
# Total GULP energy -356765.538975 kJ/mol
# GULP energy per Si atom -5574.461546 kJ/mol
# Density = 1.970813 g / cm^3
# Si number density = 19.753086 Si / 1000 Ang^3
#
#
#
# Elastic Constant Matrix: (Units=GPa)
#
#
# Indices 1 2 3 4 5 6 
#
# 1 115.2208 28.8350 60.4830 0.0000 0.0000 0.0000
# 2 28.8350 -0.5760 26.9943 0.0000 0.0000 0.0000
# 3 60.4830 26.9943 97.9710 0.0000 0.0000 0.0000
# 4 0.0000 0.0000 0.0000 95.5255 0.0000 0.0000
# 5 0.0000 0.0000 0.0000 0.0000 -40.7049 0.0000
# 6 0.0000 0.0000 0.0000 0.0000 0.0000 17.5001
#
#
#
# Elastic Compliance Matrix: (Units=1/GPa)
#
#
# Indices 1 2 3 4 5 6 
#
# 1 0.010377 0.015759 -0.010749 0.000000 0.000000 0.000000
# 2 0.015759 -0.100852 0.018059 0.000000 0.000000 0.000000
# 3 -0.010749 0.018059 0.011867 0.000000 0.000000 0.000000
# 4 0.000000 0.000000 0.000000 0.010468 0.000000 0.000000
# 5 0.000000 0.000000 0.000000 0.000000 -0.024567 0.000000
# 6 0.000000 0.000000 0.000000 0.000000 0.000000 0.057142
#
#
# Mechanical properties :
#
#
# Convention : Reuss Voigt Hill
#
# Bulk Modulus (GPa) = -30.79933 49.47115 9.33591
# Shear Modulus (GPa) = -54.03952 20.88438 -16.57757
#
# Velocity S-wave (km/s) = -5.23611 3.25510 -2.90011
# Velocity P-wave (km/s) = 7.22370 6.26312 2.54511
#
# Compressibility (1/GPa) = -0.03246824
#
# Stress axis : x y z
#
# Youngs Moduli (GPa) = 96.36262 -9.91556 84.26653
#
# Poissons Ratio (x) = 0.15626 0.90576
# Poissons Ratio (y) = -1.51861 -1.52176
# Poissons Ratio (z) = 1.03578 0.17906
#
# Static dielectric constant tensor:
#      x y z
#    x 1.717470 0.000000 0.000000 
#    y 0.000000 1.672680 0.000000 
#    z 0.000000 0.000000 1.704340 
# 
# From -- ./inp_files/35736.got.cif
#   From: 2010.05.17/outbox.ucp.g08.bks.cvg/sg51_18_cif.got.tgz:35736.got - 2010.06.11 16:27:58.
