data_PCOD9407524
_publ_section_title
;
Structure prediction by ZEFSAII (Michael W. Deem and Ramdas Pophale) SiO2 
 PCOD9407524
Probable space group: P M M A
;
_chemical_formula_sum "Si O2"
_cell_formula_units_Z 48
_cell_length_a 24.000000
_cell_length_b 9.000000
_cell_length_c 12.000000
_cell_angle_alpha 90.000000
_cell_angle_beta 90.000000
_cell_angle_gamma 90.000000
_cell_volume 2592.000000
_symmetry_space_group_name_H-M "P M M A"
_symmetry_group_IT_number 51
_symmetry_cell_setting 'orthorhombic'
loop_
_space_group_symop_operation_xyz
x,y,z
1/2-x,-y,z
1/2+x,-y,-z
-x,y,-z
-x,-y,-z
1/2+x,y,-z
1/2-x,y,z
x,-y,z
loop_
_atom_site_type_symbol
_atom_site_label
_atom_site_fract_x
_atom_site_fract_y
_atom_site_fract_z
Si Si1 0.400018 0.681542 0.703055
Si Si2 0.685337 0.329844 0.864426
Si Si3 0.310704 0.677186 0.871896
Si Si4 0.982625 0.672384 0.629358
Si Si5 0.867714 0.172094 0.676963
Si Si6 0.311378 0.321649 0.519833
O O1 0.403111 0.500000 0.700947
O O2 0.364225 0.734259 0.807587
O O3 0.463412 0.730377 0.695014
O O4 0.362097 0.726861 0.598210
O O5 0.750000 0.311617 0.832315
O O6 0.668919 0.500000 0.837473
O O7 0.647099 0.214078 0.802357
O O8 0.683023 0.310631 0.996654
O O9 0.250000 0.738959 0.838969
O O10 0.308476 0.500000 0.846117
O O11 0.970681 0.500000 0.659044
O O12 0.928451 0.768064 0.648375
O O13 0.000000 0.673143 0.500000
O O14 0.823676 0.259998 0.601358
O O15 0.862920 0.000000 0.654266
O O16 0.250000 0.276255 0.559860
O O17 0.312474 0.500000 0.517635
#
# Coordination Sequence:
#
# PCOD9407524 Si02
#       6
#     8   8   8   8   8   8
#     4   9  16  29  52  81 107 132 166 211 263 313
#     4   9  18  34  56  79 104 135 171 213 261 311
#     4   8  14  27  51  83 110 129 160 212 267 313
#     4  10  19  35  56  76 103 139 178 216 256 309
#     4  12  24  35  50  73 105 141 180 218 256 305
#     4  10  19  32  53  80 108 135 166 210 264 318
#
# _framework density 18.518519000000001
#
# number of rings (size 3 to 8) (size 9 to 14) (size 15 to 20)
#    0.000    2.333    1.667    3.500    0.000    5.000 
#    0.000    0.833    0.000    7.000    0.000    2.333 
#    0.000    0.000    0.000    0.000    0.000    0.000 
#
# Total GULP energy -267457.384812 kJ/mol
# GULP energy per Si atom -5572.028850 kJ/mol
# Density = 1.847637 g / cm^3
# Si number density = 18.518519 Si / 1000 Ang^3
#
#
#
# Elastic Constant Matrix: (Units=GPa)
#
#
# Indices 1 2 3 4 5 6 
#
# 1 56.4069 11.0350 23.9511 0.0000 0.0000 0.0000
# 2 11.0350 -20.2319 11.9772 0.0000 0.0000 0.0000
# 3 23.9511 11.9772 24.9603 0.0000 0.0000 0.0000
# 4 0.0000 0.0000 0.0000 -25.4741 0.0000 0.0000
# 5 0.0000 0.0000 0.0000 0.0000 -62.6947 0.0000
# 6 0.0000 0.0000 0.0000 0.0000 0.0000 -44.0041
#
#
#
# Elastic Compliance Matrix: (Units=1/GPa)
#
#
# Indices 1 2 3 4 5 6 
#
# 1 0.029911 -0.000527 -0.028449 0.000000 0.000000 0.000000
# 2 -0.000527 -0.038483 0.018972 0.000000 0.000000 0.000000
# 3 -0.028449 0.018972 0.058259 0.000000 0.000000 0.000000
# 4 0.000000 0.000000 0.000000 -0.039256 0.000000 0.000000
# 5 0.000000 0.000000 0.000000 0.000000 -0.015950 0.000000
# 6 0.000000 0.000000 0.000000 0.000000 0.000000 -0.022725
#
#
# Mechanical properties :
#
#
# Convention : Reuss Voigt Hill
#
# Bulk Modulus (GPa) = 33.69447 17.22912 25.46179
# Shear Modulus (GPa) = 3017.94822 -25.48977 1496.22922
#
# Velocity S-wave (km/s) = 40.41324 -3.71408 28.45554
# Velocity P-wave (km/s) = 46.86016 3.01141 33.06664
#
# Compressibility (1/GPa) = 0.02967846
#
# Stress axis : x y z
#
# Youngs Moduli (GPa) = 33.43217 -25.98541 17.16486
#
# Poissons Ratio (x) = -0.01370 0.48832
# Poissons Ratio (y) = 0.01763 -0.32565
# Poissons Ratio (z) = 0.95111 0.49300
#
# Static dielectric constant tensor:
#      x y z
#    x 1.658530 0.000000 0.000000 
#    y 0.000000 1.637120 0.000000 
#    z 0.000000 0.000000 1.669240 
# 
# From -- ./inp_files/18628.got.cif
#   From: 2010.05.17/outbox.ucp.g08.bks.cvg/sg51_10_cif.got.tgz:18628.got - 2010.06.11 16:27:58.
