data_PCOD9407039
_publ_section_title
;
Structure prediction by ZEFSAII (Michael W. Deem and Ramdas Pophale) SiO2 
 PCOD9407039
Probable space group: P M M A
;
_chemical_formula_sum "Si O2"
_cell_formula_units_Z 52
_cell_length_a 9.854799
_cell_length_b 17.472656
_cell_length_c 18.728793
_cell_angle_alpha 90.000000
_cell_angle_beta 90.000000
_cell_angle_gamma 90.000000
_cell_volume 3224.901743
_symmetry_space_group_name_H-M "P M M A"
_symmetry_group_IT_number 51
_symmetry_cell_setting 'orthorhombic'
loop_
_space_group_symop_operation_xyz
x,y,z
1/2-x,-y,z
1/2+x,-y,-z
-x,y,-z
-x,-y,-z
1/2+x,y,-z
1/2-x,y,z
x,-y,z
loop_
_atom_site_type_symbol
_atom_site_label
_atom_site_fract_x
_atom_site_fract_y
_atom_site_fract_z
Si Si1 0.250000 0.406093 0.924058
Si Si2 0.587021 0.829210 0.427576
Si Si3 0.409878 0.237014 0.717603
Si Si4 0.750000 0.589793 0.908018
Si Si5 0.085536 0.839823 0.072359
Si Si6 0.003686 0.679389 0.146680
Si Si7 0.906144 0.913814 0.188245
Si Si8 0.091721 0.000000 0.569640
O O1 0.250000 0.500000 0.916450
O O2 0.376053 0.363673 0.887512
O O3 0.250000 0.386501 0.008493
O O4 0.500000 0.820969 0.500000
O O5 0.750000 0.820765 0.440772
O O6 0.545016 0.771939 0.364189
O O7 0.567291 0.916346 0.397592
O O8 0.250000 0.255414 0.717085
O O9 0.480347 0.295368 0.771738
O O10 0.422552 0.153489 0.754490
O O11 0.750000 0.500000 0.909835
O O12 0.623270 0.621335 0.866054
O O13 0.250000 0.845372 0.064912
O O14 0.044499 0.756541 0.103908
O O15 0.019791 0.899341 0.128440
O O16 0.000000 0.849572 0.000000
O O17 0.750000 0.905458 0.159665
O O18 0.916589 0.000000 0.217253
O O19 0.000000 0.000000 0.500000
O O20 0.250000 0.000000 0.549644
#
# Coordination Sequence:
#
# PCOD9407039 Si02
#       8
#     4   8   8   4   8   8   8   4
#     4  11  22  36  58  82 108 140 173 208 252 308
#     4   9  17  30  48  74 101 132 171 213 255 306
#     4   9  18  33  53  73 102 139 174 212 254 305
#     4  11  22  36  54  82 112 138 167 208 256 306
#     4  11  22  34  52  71  93 132 172 216 267 308
#     4  11  21  36  53  77 107 139 172 209 252 310
#     4   9  19  34  51  71  94 127 175 222 263 305
#     4   8  14  24  42  66  98 130 161 203 254 298
#
# _framework density 16.124521999999999
#
# number of rings (size 3 to 8) (size 9 to 14) (size 15 to 20)
#    0.000    2.154    1.538    2.308    3.231    1.846 
#    1.385    0.000    0.000    0.000    0.000    0.000 
#    0.000    3.692    0.000    0.000    0.000    0.000 
#
# Total GULP energy -289530.351114 kJ/mol
# GULP energy per Si atom -5567.891368 kJ/mol
# Density = 1.608782 g / cm^3
# Si number density = 16.124522 Si / 1000 Ang^3
#
#
#
# Elastic Constant Matrix: (Units=GPa)
#
#
# Indices 1 2 3 4 5 6 
#
# 1 107.4476 31.7646 54.2057 0.0000 0.0000 0.0000
# 2 31.7646 53.4555 35.2377 0.0000 0.0000 0.0000
# 3 54.2057 35.2377 113.5962 0.0000 0.0000 0.0000
# 4 0.0000 0.0000 0.0000 22.2754 0.0000 0.0000
# 5 0.0000 0.0000 0.0000 0.0000 18.6888 0.0000
# 6 0.0000 0.0000 0.0000 0.0000 0.0000 28.3259
#
#
#
# Elastic Compliance Matrix: (Units=1/GPa)
#
#
# Indices 1 2 3 4 5 6 
#
# 1 0.013102 -0.004606 -0.004823 0.000000 0.000000 0.000000
# 2 -0.004606 0.025135 -0.005599 0.000000 0.000000 0.000000
# 3 -0.004823 -0.005599 0.012841 0.000000 0.000000 0.000000
# 4 0.000000 0.000000 0.000000 0.044893 0.000000 0.000000
# 5 0.000000 0.000000 0.000000 0.000000 0.053508 0.000000
# 6 0.000000 0.000000 0.000000 0.000000 0.000000 0.035303
#
#
# Mechanical properties :
#
#
# Convention : Reuss Voigt Hill
#
# Bulk Modulus (GPa) = 47.56941 57.43504 52.50222
# Shear Modulus (GPa) = 22.53821 24.07744 23.30782
#
# Velocity S-wave (km/s) = 3.74272 3.86841 3.80608
# Velocity P-wave (km/s) = 6.94569 7.45988 7.20737
#
# Compressibility (1/GPa) = 0.02102191
#
# Stress axis : x y z
#
# Youngs Moduli (GPa) = 76.32609 39.78515 77.87309
#
# Poissons Ratio (x) = 0.18325 0.37559
# Poissons Ratio (y) = 0.35156 0.43602
# Poissons Ratio (z) = 0.36813 0.22276
#
# Static dielectric constant tensor:
#      x y z
#    x 1.520970 0.000000 0.000000 
#    y 0.000000 1.549550 0.000000 
#    z 0.000000 0.000000 1.536010 
# 
# From -- ./inp_files/28009.got.cif
#   From: 2010.05.17/outbox.cif.g08.bks.cpg/sg51_15_cif.got.tgz:28009.got - 2010.06.03 11:52:47.
