data_PCOD9407134
_publ_section_title
;
Structure prediction by ZEFSAII (Michael W. Deem and Ramdas Pophale) SiO2 
 PCOD9407134
Probable space group: P M M A
;
_chemical_formula_sum "Si O2"
_cell_formula_units_Z 48
_cell_length_a 13.935188
_cell_length_b 8.940348
_cell_length_c 19.166584
_cell_angle_alpha 90.000000
_cell_angle_beta 90.000000
_cell_angle_gamma 90.000000
_cell_volume 2387.877112
_symmetry_space_group_name_H-M "P M M A"
_symmetry_group_IT_number 51
_symmetry_cell_setting 'orthorhombic'
loop_
_space_group_symop_operation_xyz
x,y,z
1/2-x,-y,z
1/2+x,-y,-z
-x,y,-z
-x,-y,-z
1/2+x,y,-z
1/2-x,y,z
x,-y,z
loop_
_atom_site_type_symbol
_atom_site_label
_atom_site_fract_x
_atom_site_fract_y
_atom_site_fract_z
Si Si1 0.547479 0.677986 0.747999
Si Si2 0.641220 0.320182 0.182806
Si Si3 0.865508 0.174455 0.883329
Si Si4 0.644128 0.818139 0.457571
Si Si5 0.633391 0.826102 0.037691
Si Si6 0.442527 0.180079 0.394897
O O1 0.552118 0.500000 0.742040
O O2 0.436348 0.725787 0.759875
O O3 0.598872 0.730946 0.818395
O O4 0.587894 0.752035 0.678393
O O5 0.750000 0.266229 0.195478
O O6 0.643030 0.500000 0.180592
O O7 0.607015 0.262521 0.107108
O O8 0.750000 0.178599 0.883872
O O9 0.893733 0.000000 0.874896
O O10 0.898814 0.225160 0.960715
O O11 0.750000 0.765258 0.436324
O O12 0.621379 0.778005 0.538092
O O13 0.551794 0.770193 0.413005
O O14 0.644284 0.000000 0.454947
O O15 0.750000 0.820301 0.036020
O O16 0.606423 0.000000 0.045257
O O17 0.441429 0.000000 0.390355
#
# Coordination Sequence:
#
# PCOD9407134 Si02
#       6
#     8   8   8   8   8   8
#     4  11  23  35  49  74 108 141 172 209 251 298
#     4   9  19  35  51  68  97 139 179 212 254 307
#     4   9  19  36  55  74  99 133 172 214 262 312
#     4   8  15  31  56  81 101 125 161 204 248 295
#     4   8  15  30  52  75  96 122 166 223 269 303
#     4   9  18  33  53  77 103 130 164 204 245 296
#
# _framework density 20.101535999999999
#
# number of rings (size 3 to 8) (size 9 to 14) (size 15 to 20)
#    0.000    3.000    0.000    2.500    0.000    4.333 
#    0.000    8.333    0.000    1.000    0.000    0.000 
#    0.000    0.000    0.000    0.000    0.000    0.000 
#
# Total GULP energy -267713.639266 kJ/mol
# GULP energy per Si atom -5577.367485 kJ/mol
# Density = 2.005578 g / cm^3
# Si number density = 20.101536 Si / 1000 Ang^3
#
#
#
# Elastic Constant Matrix: (Units=GPa)
#
#
# Indices 1 2 3 4 5 6 
#
# 1 32.2659 -1.7692 -14.9133 0.0000 0.0000 0.0000
# 2 -1.7692 7.2932 9.3226 0.0000 0.0000 0.0000
# 3 -14.9133 9.3226 68.4142 0.0000 0.0000 0.0000
# 4 0.0000 0.0000 0.0000 114.9324 0.0000 0.0000
# 5 0.0000 0.0000 0.0000 0.0000 12.6811 0.0000
# 6 0.0000 0.0000 0.0000 0.0000 0.0000 14.8628
#
#
#
# Elastic Compliance Matrix: (Units=1/GPa)
#
#
# Indices 1 2 3 4 5 6 
#
# 1 0.034478 -0.001506 0.007721 0.000000 0.000000 0.000000
# 2 -0.001506 0.166100 -0.022962 0.000000 0.000000 0.000000
# 3 0.007721 -0.022962 0.019429 0.000000 0.000000 0.000000
# 4 0.000000 0.000000 0.000000 0.008701 0.000000 0.000000
# 5 0.000000 0.000000 0.000000 0.000000 0.078858 0.000000
# 6 0.000000 0.000000 0.000000 0.000000 0.000000 0.067282
#
#
# Mechanical properties :
#
#
# Convention : Reuss Voigt Hill
#
# Bulk Modulus (GPa) = 5.36154 10.36153 7.86154
# Shear Modulus (GPa) = 10.62670 36.18415 23.40543
#
# Velocity S-wave (km/s) = 2.30174 4.24732 3.41597
# Velocity P-wave (km/s) = 3.12042 5.40544 4.41338
#
# Compressibility (1/GPa) = 0.18651351
#
# Stress axis : x y z
#
# Youngs Moduli (GPa) = 29.00359 6.02047 51.46974
#
# Poissons Ratio (x) = 0.00907 -0.39740
# Poissons Ratio (y) = 0.04367 1.18186
# Poissons Ratio (z) = -0.22394 0.13824
#
# Static dielectric constant tensor:
#      x y z
#    x 1.787750 0.000000 0.000000 
#    y 0.000000 1.662920 0.000000 
#    z 0.000000 0.000000 1.681000 
# 
# From -- ./inp_files/29403.got.cif
#   From: 2010.05.17/outbox.cif.g08.bks.cpg/sg51_15_cif.got.tgz:29403.got - 2010.06.03 11:52:47.
