data_PCOD9407257
_publ_section_title
;
Structure prediction by ZEFSAII (Michael W. Deem and Ramdas Pophale) SiO2 
 PCOD9407257
Probable space group: P M M A
;
_chemical_formula_sum "Si O2"
_cell_formula_units_Z 48
_cell_length_a 14.373732
_cell_length_b 7.585220
_cell_length_c 21.314808
_cell_angle_alpha 90.000000
_cell_angle_beta 90.000000
_cell_angle_gamma 90.000000
_cell_volume 2323.909170
_symmetry_space_group_name_H-M "P M M A"
_symmetry_group_IT_number 51
_symmetry_cell_setting 'orthorhombic'
loop_
_space_group_symop_operation_xyz
x,y,z
1/2-x,-y,z
1/2+x,-y,-z
-x,y,-z
-x,-y,-z
1/2+x,y,-z
1/2-x,y,z
x,-y,z
loop_
_atom_site_type_symbol
_atom_site_label
_atom_site_fract_x
_atom_site_fract_y
_atom_site_fract_z
Si Si1 0.555634 0.211726 0.147994
Si Si2 0.389925 0.300807 0.986625
Si Si3 0.849176 0.201623 0.879029
Si Si4 0.643044 0.215812 0.278646
Si Si5 0.460638 0.214939 0.596755
Si Si6 0.355230 0.784885 0.470181
O O1 0.616670 0.249367 0.085931
O O2 0.449291 0.280938 0.140059
O O3 0.602446 0.274308 0.211872
O O4 0.548584 0.000000 0.150507
O O5 0.357568 0.500000 0.993848
O O6 0.500000 0.292799 0.000000
O O7 0.349332 0.196721 0.045028
O O8 0.750000 0.282907 0.859286
O O9 0.849425 0.000000 0.856008
O O10 0.750000 0.269890 0.286566
O O11 0.580307 0.274003 0.337133
O O12 0.642197 0.000000 0.278395
O O13 0.565285 0.271066 0.579009
O O14 0.393651 0.266211 0.538921
O O15 0.461110 0.000000 0.597429
O O16 0.250000 0.724289 0.459205
O O17 0.353787 0.000000 0.469326
#
# Coordination Sequence:
#
# PCOD9407257 Si02
#       6
#     8   8   8   8   8   8
#     4   9  17  29  43  60  83 109 138 170 203 245
#     4   9  17  29  45  64  84 105 132 170 212 248
#     4   9  17  29  44  60  80 108 138 167 204 249
#     4   9  16  25  37  52  71  98 132 167 201 239
#     4   8  13  20  30  46  68  95 129 165 196 231
#     4   8  12  18  29  45  67  96 128 161 198 237
#
# _framework density 20.654852000000002
#
# number of rings (size 3 to 8) (size 9 to 14) (size 15 to 20)
#    0.000    3.333    0.000    2.000    0.000    5.000 
#    0.000    2.500    0.000    5.000    0.000    0.000 
#    0.000    0.000    0.000    3.000    0.000    7.667 
#
# Total GULP energy -267432.314317 kJ/mol
# GULP energy per Si atom -5571.506548 kJ/mol
# Density = 2.060784 g / cm^3
# Si number density = 20.654852 Si / 1000 Ang^3
#
#
#
# Elastic Constant Matrix: (Units=GPa)
#
#
# Indices 1 2 3 4 5 6 
#
# 1 151.2579 0.7584 62.6286 0.0000 0.0000 0.0000
# 2 0.7584 44.9447 -2.3567 0.0000 0.0000 0.0000
# 3 62.6286 -2.3567 140.2731 0.0000 0.0000 0.0000
# 4 0.0000 0.0000 0.0000 -27.7148 0.0000 0.0000
# 5 0.0000 0.0000 0.0000 0.0000 64.0471 0.0000
# 6 0.0000 0.0000 0.0000 0.0000 0.0000 -11.6955
#
#
#
# Elastic Compliance Matrix: (Units=1/GPa)
#
#
# Indices 1 2 3 4 5 6 
#
# 1 0.008115 -0.000327 -0.003629 0.000000 0.000000 0.000000
# 2 -0.000327 0.022282 0.000520 0.000000 0.000000 0.000000
# 3 -0.003629 0.000520 0.008758 0.000000 0.000000 0.000000
# 4 0.000000 0.000000 0.000000 -0.036082 0.000000 0.000000
# 5 0.000000 0.000000 0.000000 0.000000 0.015613 0.000000
# 6 0.000000 0.000000 0.000000 0.000000 0.000000 -0.085503
#
#
# Mechanical properties :
#
#
# Convention : Reuss Voigt Hill
#
# Bulk Modulus (GPa) = 30.97465 50.94850 40.96157
# Shear Modulus (GPa) = -101.66174 23.29037 -39.18568
#
# Velocity S-wave (km/s) = -7.02326 3.36162 -4.36037
# Velocity P-wave (km/s) = 7.12316 6.30773 2.34008
#
# Compressibility (1/GPa) = 0.03228447
#
# Stress axis : x y z
#
# Youngs Moduli (GPa) = 123.22274 44.87848 114.18286
#
# Poissons Ratio (x) = 0.01469 0.41435
# Poissons Ratio (y) = 0.04032 -0.05943
# Poissons Ratio (z) = 0.44715 -0.02336
#
# Static dielectric constant tensor:
#      x y z
#    x 1.768370 0.000000 0.000000 
#    y 0.000000 1.775180 0.000000 
#    z 0.000000 0.000000 1.705890 
# 
# From -- ./inp_files/33203.got.cif
#   From: 2010.05.17/outbox.cif.g08.bks.cpg/sg51_17_cif.got.tgz:33203.got - 2010.06.03 11:52:47.
