data_PCOD9407136
_publ_section_title
;
Structure prediction by ZEFSAII (Michael W. Deem and Ramdas Pophale) SiO2 
 PCOD9407136
Probable space group: P M M A
;
_chemical_formula_sum "Si O2"
_cell_formula_units_Z 40
_cell_length_a 18.558758
_cell_length_b 7.346159
_cell_length_c 15.865766
_cell_angle_alpha 90.000000
_cell_angle_beta 90.000000
_cell_angle_gamma 90.000000
_cell_volume 2163.068523
_symmetry_space_group_name_H-M "P M M A"
_symmetry_group_IT_number 51
_symmetry_cell_setting 'orthorhombic'
loop_
_space_group_symop_operation_xyz
x,y,z
1/2-x,-y,z
1/2+x,-y,-z
-x,y,-z
-x,-y,-z
1/2+x,y,-z
1/2-x,y,z
x,-y,z
loop_
_atom_site_type_symbol
_atom_site_label
_atom_site_fract_x
_atom_site_fract_y
_atom_site_fract_z
Si Si1 0.165877 0.000000 0.323686
Si Si2 0.904481 0.282855 0.354674
Si Si3 0.447448 0.717623 0.262914
Si Si4 0.669522 0.278794 0.178673
Si Si5 0.835066 0.000000 0.474747
Si Si6 0.473449 0.721614 0.909158
O O1 0.123052 0.826412 0.288164
O O2 0.250000 0.000000 0.301289
O O3 0.159658 0.000000 0.424868
O O4 0.899281 0.500000 0.367102
O O5 0.013492 0.240617 0.672942
O O6 0.856338 0.232309 0.272972
O O7 0.874785 0.172691 0.433363
O O8 0.437047 0.500000 0.264102
O O9 0.475851 0.770533 0.169766
O O10 0.750000 0.214859 0.161348
O O11 0.670141 0.500000 0.176124
O O12 0.607204 0.218844 0.114991
O O13 0.750000 0.000000 0.452447
O O14 0.472778 0.500000 0.910529
O O15 0.500000 0.784212 0.000000
#
# Coordination Sequence:
#
# PCOD9407136 Si02
#       6
#     4   8   8   8   4   8
#     4  11  25  41  54  73 105 142 182 226 261 303
#     4   9  18  33  54  79 105 133 169 217 271 327
#     4   9  19  37  59  80 104 138 176 216 270 324
#     4   8  13  23  42  69 102 135 162 199 257 312
#     4  11  23  35  51  77 106 140 179 218 263 310
#     4   8  14  27  49  77 106 135 172 213 250 301
#
# _framework density 18.492248
#
# number of rings (size 3 to 8) (size 9 to 14) (size 15 to 20)
#    0.000    3.000    0.000    3.600    0.000    4.000 
#    0.000    5.500    0.000    3.600    0.000    5.600 
#    0.000    0.000    0.000    0.000    0.000    0.000 
#
# Total GULP energy -223212.614563 kJ/mol
# GULP energy per Si atom -5580.315364 kJ/mol
# Density = 1.845016 g / cm^3
# Si number density = 18.492248 Si / 1000 Ang^3
#
#
#
# Elastic Constant Matrix: (Units=GPa)
#
#
# Indices 1 2 3 4 5 6 
#
# 1 183.2995 53.0446 85.2817 0.0000 0.0000 0.0000
# 2 53.0446 81.8156 30.0824 0.0000 0.0000 0.0000
# 3 85.2817 30.0824 78.6000 0.0000 0.0000 0.0000
# 4 0.0000 0.0000 0.0000 25.5640 0.0000 0.0000
# 5 0.0000 0.0000 0.0000 0.0000 21.8805 0.0000
# 6 0.0000 0.0000 0.0000 0.0000 0.0000 14.1309
#
#
#
# Elastic Compliance Matrix: (Units=1/GPa)
#
#
# Indices 1 2 3 4 5 6 
#
# 1 0.011786 -0.003421 -0.011479 0.000000 0.000000 0.000000
# 2 -0.003421 0.015217 -0.002112 0.000000 0.000000 0.000000
# 3 -0.011479 -0.002112 0.025986 0.000000 0.000000 0.000000
# 4 0.000000 0.000000 0.000000 0.039117 0.000000 0.000000
# 5 0.000000 0.000000 0.000000 0.000000 0.045703 0.000000
# 6 0.000000 0.000000 0.000000 0.000000 0.000000 0.070767
#
#
# Mechanical properties :
#
#
# Convention : Reuss Voigt Hill
#
# Bulk Modulus (GPa) = 52.72881 75.61472 64.17176
# Shear Modulus (GPa) = 20.08664 24.00218 22.04441
#
# Velocity S-wave (km/s) = 3.29936 3.60663 3.45641
# Velocity P-wave (km/s) = 6.56432 7.63691 7.12084
#
# Compressibility (1/GPa) = 0.01896497
#
# Stress axis : x y z
#
# Youngs Moduli (GPa) = 84.84572 65.71515 38.48276
#
# Poissons Ratio (x) = 0.22480 0.44173
# Poissons Ratio (y) = 0.29025 0.08129
# Poissons Ratio (z) = 0.97392 0.13881
#
# Static dielectric constant tensor:
#      x y z
#    x 1.620630 0.000000 0.000000 
#    y 0.000000 1.692250 0.000000 
#    z 0.000000 0.000000 1.606650 
# 
# From -- ./inp_files/17951.got.cif
#   From: 2010.05.17/outbox.cif.g08.bks.cpg/sg51_9_cif.got.tgz:17951.got - 2010.06.03 11:52:47.
