data_PCOD9407689
_publ_section_title
;
Structure prediction by ZEFSAII (Michael W. Deem and Ramdas Pophale) SiO2 
 PCOD9407689
Probable space group: P M M A
;
_chemical_formula_sum "Si O2"
_cell_formula_units_Z 64
_cell_length_a 9.000000
_cell_length_b 15.000000
_cell_length_c 24.000000
_cell_angle_alpha 90.000000
_cell_angle_beta 90.000000
_cell_angle_gamma 90.000000
_cell_volume 3240.000000
_symmetry_space_group_name_H-M "P M M A"
_symmetry_group_IT_number 51
_symmetry_cell_setting 'orthorhombic'
loop_
_space_group_symop_operation_xyz
x,y,z
1/2-x,-y,z
1/2+x,-y,-z
-x,y,-z
-x,-y,-z
1/2+x,y,-z
1/2-x,y,z
x,-y,z
loop_
_atom_site_type_symbol
_atom_site_label
_atom_site_fract_x
_atom_site_fract_y
_atom_site_fract_z
Si Si1 0.426894 0.281364 0.556823
Si Si2 0.925681 0.097842 0.283082
Si Si3 0.427103 0.899381 0.403605
Si Si4 0.571486 0.095643 0.061597
Si Si5 0.074526 0.709305 0.754695
Si Si6 0.926810 0.394454 0.653898
Si Si7 0.924516 0.396060 0.850400
Si Si8 0.571192 0.289706 0.060609
O O1 0.500000 0.313419 0.500000
O O2 0.250000 0.280215 0.554459
O O3 0.486985 0.181277 0.567652
O O4 0.484801 0.346454 0.604725
O O5 0.750000 0.101947 0.298888
O O6 0.955952 0.185089 0.247072
O O7 0.022484 0.103719 0.339075
O O8 0.950603 0.000000 0.257328
O O9 0.250000 0.886067 0.408441
O O10 0.462632 0.000000 0.423869
O O11 0.750000 0.095993 0.055453
O O12 0.535773 0.191910 0.087884
O O13 0.530062 0.000000 0.088646
O O14 0.500000 0.094536 0.000000
O O15 0.250000 0.696940 0.743946
O O16 0.979545 0.658153 0.708303
O O17 0.025754 0.663871 0.811115
O O18 0.750000 0.383777 0.645925
O O19 0.958520 0.500000 0.658075
O O20 0.750000 0.374554 0.844959
O O21 0.942542 0.500000 0.837303
O O22 0.986923 0.370456 0.910302
O O23 0.750000 0.300944 0.060005
O O24 0.500000 0.283399 0.000000
#
# Coordination Sequence:
#
# PCOD9407689 Si02
#       8
#     8   8   8   8   8   8   8   8
#     4  12  25  41  61  86 119 159 201 251 303 357
#     4   9  18  34  58  89 123 158 194 233 285 350
#     4  10  20  35  58  88 121 158 199 243 293 352
#     4   8  14  26  47  77 111 146 184 225 271 327
#     4  11  22  38  64  94 121 154 194 242 294 349
#     4  11  24  42  64  89 118 154 196 245 302 362
#     4  11  25  43  61  83 114 154 199 250 303 351
#     4  10  20  36  60  88 119 156 196 240 291 350
#
# _framework density 19.753086
#
# number of rings (size 3 to 8) (size 9 to 14) (size 15 to 20)
#    0.000    1.750    1.250    3.375    0.000    6.000 
#    0.000    0.625    0.000    3.750    0.000    0.000 
#    0.000    0.000    0.000    0.000    0.000    0.000 
#
# Total GULP energy -357043.584054 kJ/mol
# GULP energy per Si atom -5578.806001 kJ/mol
# Density = 1.970813 g / cm^3
# Si number density = 19.753086 Si / 1000 Ang^3
#
#
#
# Elastic Constant Matrix: (Units=GPa)
#
#
# Indices 1 2 3 4 5 6 
#
# 1 68.4766 46.2599 1.4630 0.0000 0.0000 0.0000
# 2 46.2599 90.8168 23.7648 0.0000 0.0000 0.0000
# 3 1.4630 23.7648 33.0617 0.0000 0.0000 0.0000
# 4 0.0000 0.0000 0.0000 68.8247 0.0000 0.0000
# 5 0.0000 0.0000 0.0000 0.0000 23.9023 0.0000
# 6 0.0000 0.0000 0.0000 0.0000 0.0000 57.2595
#
#
#
# Elastic Compliance Matrix: (Units=1/GPa)
#
#
# Indices 1 2 3 4 5 6 
#
# 1 0.024574 -0.015067 0.009743 0.000000 0.000000 0.000000
# 2 -0.015067 0.022800 -0.015722 0.000000 0.000000 0.000000
# 3 0.009743 -0.015722 0.041116 0.000000 0.000000 0.000000
# 4 0.000000 0.000000 0.000000 0.014530 0.000000 0.000000
# 5 0.000000 0.000000 0.000000 0.000000 0.041837 0.000000
# 6 0.000000 0.000000 0.000000 0.000000 0.000000 0.017464
#
#
# Mechanical properties :
#
#
# Convention : Reuss Voigt Hill
#
# Bulk Modulus (GPa) = 21.55267 37.25894 29.40581
# Shear Modulus (GPa) = 22.73977 38.05514 30.39746
#
# Velocity S-wave (km/s) = 3.39662 4.39400 3.92710
# Velocity P-wave (km/s) = 5.13005 6.68179 5.95666
#
# Compressibility (1/GPa) = 0.04639795
#
# Stress axis : x y z
#
# Youngs Moduli (GPa) = 40.69365 43.85980 24.32127
#
# Poissons Ratio (x) = 0.66083 -0.23695
# Poissons Ratio (y) = 0.61312 0.38238
# Poissons Ratio (z) = -0.39646 0.68956
#
# Static dielectric constant tensor:
#      x y z
#    x 1.650910 0.000000 0.000000 
#    y 0.000000 1.727410 0.000000 
#    z 0.000000 0.000000 1.664410 
# 
# From -- ./inp_files/34872.got.cif
#   From: 2010.05.17/outbox.ucp.g08.bks.cvg/sg51_18_cif.got.tgz:34872.got - 2010.06.11 16:27:58.
