data_PCOD9407361
_publ_section_title
;
Structure prediction by ZEFSAII (Michael W. Deem and Ramdas Pophale) SiO2 
 PCOD9407361
Probable space group: P M M A
;
_chemical_formula_sum "Si O2"
_cell_formula_units_Z 48
_cell_length_a 7.601417
_cell_length_b 19.445923
_cell_length_c 13.007231
_cell_angle_alpha 90.000000
_cell_angle_beta 90.000000
_cell_angle_gamma 90.000000
_cell_volume 1922.684267
_symmetry_space_group_name_H-M "P M M A"
_symmetry_group_IT_number 51
_symmetry_cell_setting 'orthorhombic'
loop_
_space_group_symop_operation_xyz
x,y,z
1/2-x,-y,z
1/2+x,-y,-z
-x,y,-z
-x,-y,-z
1/2+x,y,-z
1/2-x,y,z
x,-y,z
loop_
_atom_site_type_symbol
_atom_site_label
_atom_site_fract_x
_atom_site_fract_y
_atom_site_fract_z
Si Si1 0.555586 0.917806 0.887089
Si Si2 0.459523 0.627024 0.610397
Si Si3 0.040247 0.722454 0.888158
Si Si4 0.465903 0.777204 0.669154
Si Si5 0.550248 0.923193 0.340380
Si Si6 0.535022 0.425910 0.170953
O O1 0.750000 0.891469 0.864120
O O2 0.443101 0.911105 0.783694
O O3 0.566497 0.000000 0.898429
O O4 0.500000 0.893398 0.000000
O O5 0.500000 0.596475 0.500000
O O6 0.250000 0.631473 0.620751
O O7 0.525378 0.706175 0.616329
O O8 0.518184 0.584896 0.709830
O O9 0.250000 0.719581 0.877395
O O10 0.980439 0.764530 0.788540
O O11 0.972227 0.643944 0.882192
O O12 0.000000 0.750042 0.000000
O O13 0.250000 0.779977 0.664957
O O14 0.531144 0.850336 0.625333
O O15 0.750000 0.926737 0.379442
O O16 0.471113 0.000000 0.357801
O O17 0.750000 0.426332 0.165960
O O18 0.473286 0.500000 0.132383
#
# Coordination Sequence:
#
# PCOD9407361 Si02
#       6
#     8   8   8   8   8   8
#     4   9  16  25  36  52  77 107 138 174 217 264
#     4   9  17  31  51  71  92 119 149 182 221 268
#     4   9  17  30  47  65  89 123 158 188 218 257
#     4   8  16  31  47  64  89 120 151 182 223 276
#     4   9  16  27  44  62  79 105 144 187 227 267
#     4   8  15  29  48  69  94 124 153 179 216 268
#
# _framework density 24.965097
#
# number of rings (size 3 to 8) (size 9 to 14) (size 15 to 20)
#    0.000    3.333    0.000    2.500    0.000    3.333 
#    0.000    6.667    0.000    1.500    0.000    0.000 
#    0.000    0.000    0.000    0.000    0.000    0.000 
#
# Total GULP energy -267678.730148 kJ/mol
# GULP energy per Si atom -5576.640211 kJ/mol
# Density = 2.490828 g / cm^3
# Si number density = 24.965097 Si / 1000 Ang^3
#
#
#
# Elastic Constant Matrix: (Units=GPa)
#
#
# Indices 1 2 3 4 5 6 
#
# 1 57.6609 5.0060 -10.7882 0.0000 0.0000 0.0000
# 2 5.0060 180.9221 -3.4985 0.0000 0.0000 0.0000
# 3 -10.7882 -3.4985 81.7871 0.0000 0.0000 0.0000
# 4 0.0000 0.0000 0.0000 -20.7845 0.0000 0.0000
# 5 0.0000 0.0000 0.0000 0.0000 9.9925 0.0000
# 6 0.0000 0.0000 0.0000 0.0000 0.0000 -0.9771
#
#
#
# Elastic Compliance Matrix: (Units=1/GPa)
#
#
# Indices 1 2 3 4 5 6 
#
# 1 0.017818 -0.000448 0.002331 0.000000 0.000000 0.000000
# 2 -0.000448 0.005543 0.000178 0.000000 0.000000 0.000000
# 3 0.002331 0.000178 0.012542 0.000000 0.000000 0.000000
# 4 0.000000 0.000000 0.000000 -0.048113 0.000000 0.000000
# 5 0.000000 0.000000 0.000000 0.000000 0.100075 0.000000
# 6 0.000000 0.000000 0.000000 0.000000 0.000000 -1.023482
#
#
# Mechanical properties :
#
#
# Convention : Reuss Voigt Hill
#
# Bulk Modulus (GPa) = 24.98422 33.53429 29.25926
# Shear Modulus (GPa) = -5.39725 19.62290 7.11282
#
# Velocity S-wave (km/s) = -1.47194 2.80663 1.68976
# Velocity P-wave (km/s) = 2.67218 4.89536 3.94367
#
# Compressibility (1/GPa) = 0.04002526
#
# Stress axis : x y z
#
# Youngs Moduli (GPa) = 56.12362 180.40521 79.73233
#
# Poissons Ratio (x) = 0.08081 -0.18586
# Poissons Ratio (y) = 0.02514 -0.01419
# Poissons Ratio (z) = -0.13083 -0.03212
#
# Static dielectric constant tensor:
#      x y z
#    x 1.934200 0.000000 0.000000 
#    y 0.000000 2.016400 0.000000 
#    z 0.000000 0.000000 1.999640 
# 
# From -- ./inp_files/21380.got.cif
#   From: 2010.05.17/outbox.cif.g08.bks.cpg/sg51_11_cif.got.tgz:21380.got - 2010.06.03 11:52:47.
