data_PCOD9407496
_publ_section_title
;
Structure prediction by ZEFSAII (Michael W. Deem and Ramdas Pophale) SiO2 
 PCOD9407496
Probable space group: P M M A
;
_chemical_formula_sum "Si O2"
_cell_formula_units_Z 64
_cell_length_a 21.000000
_cell_length_b 9.000000
_cell_length_c 18.000000
_cell_angle_alpha 90.000000
_cell_angle_beta 90.000000
_cell_angle_gamma 90.000000
_cell_volume 3402.000000
_symmetry_space_group_name_H-M "P M M A"
_symmetry_group_IT_number 51
_symmetry_cell_setting 'orthorhombic'
loop_
_space_group_symop_operation_xyz
x,y,z
1/2-x,-y,z
1/2+x,-y,-z
-x,y,-z
-x,-y,-z
1/2+x,y,-z
1/2-x,y,z
x,-y,z
loop_
_atom_site_type_symbol
_atom_site_label
_atom_site_fract_x
_atom_site_fract_y
_atom_site_fract_z
Si Si1 0.179102 0.676807 0.492851
Si Si2 0.414016 0.678175 0.361988
Si Si3 0.825199 0.820498 0.763443
Si Si4 0.539092 0.177255 0.300330
Si Si5 0.679804 0.178882 0.346226
Si Si6 0.538071 0.822474 0.126805
Si Si7 0.675006 0.180651 0.064161
Si Si8 0.601408 0.820022 0.914633
O O1 0.250000 0.702368 0.458408
O O2 0.175335 0.500000 0.508823
O O3 0.120548 0.716025 0.439717
O O4 0.177296 0.767662 0.568822
O O5 0.416859 0.500000 0.356081
O O6 0.365473 0.743621 0.301141
O O7 0.484413 0.744021 0.348607
O O8 0.750000 0.781133 0.764278
O O9 0.861612 0.780127 0.839494
O O10 0.829001 0.000000 0.755260
O O11 0.612359 0.228576 0.311802
O O12 0.523489 0.199137 0.213631
O O13 0.536648 0.000000 0.315269
O O14 0.750000 0.228688 0.316134
O O15 0.680076 0.000000 0.341283
O O16 0.611550 0.770868 0.111839
O O17 0.473006 0.767301 0.085338
O O18 0.540724 0.000000 0.111231
O O19 0.750000 0.229480 0.076568
O O20 0.678015 0.000000 0.070483
O O21 0.647826 0.221487 0.982571
O O22 0.597253 0.000000 0.917011
#
# Coordination Sequence:
#
# PCOD9407496 Si02
#       8
#     8   8   8   8   8   8   8   8
#     4   9  19  36  55  74 100 134 169 208 256 307
#     4  11  22  35  52  75 105 137 173 215 256 302
#     4  10  19  31  50  75 103 137 172 207 253 307
#     4  10  20  35  53  75 105 138 172 211 257 310
#     4   9  19  35  55  78 102 131 169 213 259 307
#     4   9  16  27  44  64  94 136 170 201 249 306
#     4   9  16  24  38  67 102 131 164 209 257 302
#     4   9  15  26  43  66  98 133 166 203 250 305
#
# _framework density 18.812463000000001
#
# number of rings (size 3 to 8) (size 9 to 14) (size 15 to 20)
#    0.000    2.500    1.250    1.500    0.000    6.250 
#    0.000    6.250    0.000    0.000    0.000    1.750 
#    0.000    1.000    0.000    0.000    0.000    0.000 
#
# Total GULP energy -356298.807707 kJ/mol
# GULP energy per Si atom -5567.168870 kJ/mol
# Density = 1.876965 g / cm^3
# Si number density = 18.812463 Si / 1000 Ang^3
#
#
#
# Elastic Constant Matrix: (Units=GPa)
#
#
# Indices 1 2 3 4 5 6 
#
# 1 175.6059 13.5858 13.3365 0.0000 0.0000 0.0000
# 2 13.5858 2.6731 1.4895 0.0000 0.0000 0.0000
# 3 13.3365 1.4895 14.4138 0.0000 0.0000 0.0000
# 4 0.0000 0.0000 0.0000 -26.9770 0.0000 0.0000
# 5 0.0000 0.0000 0.0000 0.0000 39.1526 0.0000
# 6 0.0000 0.0000 0.0000 0.0000 0.0000 21.0839
#
#
#
# Elastic Compliance Matrix: (Units=1/GPa)
#
#
# Indices 1 2 3 4 5 6 
#
# 1 0.009605 -0.046545 -0.004077 0.000000 0.000000 0.000000
# 2 -0.046545 0.622499 -0.021262 0.000000 0.000000 0.000000
# 3 -0.004077 -0.021262 0.075348 0.000000 0.000000 0.000000
# 4 0.000000 0.000000 0.000000 -0.037069 0.000000 0.000000
# 5 0.000000 0.000000 0.000000 0.000000 0.025541 0.000000
# 6 0.000000 0.000000 0.000000 0.000000 0.000000 0.047429
#
#
# Mechanical properties :
#
#
# Convention : Reuss Voigt Hill
#
# Bulk Modulus (GPa) = 1.77404 27.72404 14.74904
# Shear Modulus (GPa) = 4.65109 17.60398 11.12754
#
# Velocity S-wave (km/s) = 1.57407 3.06234 2.43471
# Velocity P-wave (km/s) = 2.06123 5.22235 3.96999
#
# Compressibility (1/GPa) = 0.56368371
#
# Stress axis : x y z
#
# Youngs Moduli (GPa) = 104.11040 1.60643 13.27179
#
# Poissons Ratio (x) = 0.07477 0.05411
# Poissons Ratio (y) = 4.84582 0.28218
# Poissons Ratio (z) = 0.42450 0.03416
#
# Static dielectric constant tensor:
#      x y z
#    x 1.687960 0.000000 0.000000 
#    y 0.000000 1.623530 0.000000 
#    z 0.000000 0.000000 1.681760 
# 
# From -- ./inp_files/30594.got.cif
#   From: 2010.05.17/outbox.ucp.g08.bks.cvg/sg51_16_cif.got.tgz:30594.got - 2010.06.11 16:27:58.
