data_PCOD9407871
_publ_section_title
;
Structure prediction by ZEFSAII (Michael W. Deem and Ramdas Pophale) SiO2 
 PCOD9407871
Probable space group: P N N A
;
_chemical_formula_sum "Si O2"
_cell_formula_units_Z 48
_cell_length_a 14.158464
_cell_length_b 14.899923
_cell_length_c 11.541380
_cell_angle_alpha 90.000000
_cell_angle_beta 90.000000
_cell_angle_gamma 90.000000
_cell_volume 2434.769795
_symmetry_space_group_name_H-M "P N N A"
_symmetry_group_IT_number 52
_symmetry_cell_setting 'orthorhombic'
loop_
_space_group_symop_operation_xyz
x,y,z
1/2-x,-y,z
x,1/2-y,1/2-z
1/2-x,1/2+y,1/2-z
-x,-y,-z
1/2+x,y,-z
-x,1/2+y,1/2+z
1/2+x,1/2-y,1/2+z
loop_
_atom_site_type_symbol
_atom_site_label
_atom_site_fract_x
_atom_site_fract_y
_atom_site_fract_z
Si Si1 0.306143 0.150555 0.810288
Si Si2 0.058572 0.375959 0.176279
Si Si3 0.005663 0.681310 0.582558
Si Si4 0.714195 0.369163 0.993165
Si Si5 0.618698 0.957840 0.404834
Si Si6 0.620601 0.294949 0.372199
O O1 0.305249 0.250000 0.750000
O O2 0.384305 0.157899 0.909617
O O3 0.342685 0.081207 0.715937
O O4 0.199336 0.130842 0.844772
O O5 0.045328 0.374723 0.314232
O O6 0.012155 0.283797 0.125894
O O7 0.993610 0.450152 0.113059
O O8 0.165921 0.376272 0.132607
O O9 0.961608 0.672666 0.456184
O O10 0.658226 0.444801 0.066746
O O11 0.824648 0.393348 0.003656
O O12 0.681549 0.276909 0.051735
O O13 0.590575 0.250000 0.250000
#
# Coordination Sequence:
#
# PCOD9407871 Si02
#       6
#     8   8   8   8   8   8
#     4  10  15  31  49  66  95 130 166 193 243 305
#     4   9  16  29  45  70  97 125 156 189 248 306
#     4   9  16  28  51  67  94 130 158 192 245 295
#     4  10  18  26  47  75  96 116 163 209 241 281
#     4  10  17  28  46  74  92 128 156 201 253 289
#     4  10  18  30  49  73  96 123 168 211 232 280
#
# _framework density 19.714390000000002
#
# number of rings (size 3 to 8) (size 9 to 14) (size 15 to 20)
#    0.000    2.333    6.667    0.500    0.000    0.000 
#    0.000    0.000   14.667    4.000    8.667    0.000 
#    0.000    0.000    0.000    0.000    0.000    0.000 
#
# Total GULP energy -267301.264521 kJ/mol
# GULP energy per Si atom -5568.776344 kJ/mol
# Density = 1.966952 g / cm^3
# Si number density = 19.714390 Si / 1000 Ang^3
#
#
#
# Elastic Constant Matrix: (Units=GPa)
#
#
# Indices 1 2 3 4 5 6 
#
# 1 83.0658 -22.8521 55.9521 0.0000 0.0000 0.0000
# 2 -22.8521 17.0983 -13.5472 0.0000 0.0000 0.0000
# 3 55.9521 -13.5472 108.6410 0.0000 0.0000 0.0000
# 4 0.0000 0.0000 0.0000 14.0781 0.0000 0.0000
# 5 0.0000 0.0000 0.0000 0.0000 37.9059 0.0000
# 6 0.0000 0.0000 0.0000 0.0000 0.0000 8.8330
#
#
#
# Elastic Compliance Matrix: (Units=1/GPa)
#
#
# Indices 1 2 3 4 5 6 
#
# 1 0.026389 0.027187 -0.010201 0.000000 0.000000 0.000000
# 2 0.027187 0.092907 -0.002417 0.000000 0.000000 0.000000
# 3 -0.010201 -0.002417 0.014157 0.000000 0.000000 0.000000
# 4 0.000000 0.000000 0.000000 0.071033 0.000000 0.000000
# 5 0.000000 0.000000 0.000000 0.000000 0.026381 0.000000
# 6 0.000000 0.000000 0.000000 0.000000 0.000000 0.113212
#
#
# Mechanical properties :
#
#
# Convention : Reuss Voigt Hill
#
# Bulk Modulus (GPa) = 6.15035 27.54563 16.84799
# Shear Modulus (GPa) = 13.54515 24.78022 19.16268
#
# Velocity S-wave (km/s) = 2.62404 3.54921 3.12110
# Velocity P-wave (km/s) = 3.50818 5.54964 4.64251
#
# Compressibility (1/GPa) = 0.16259227
#
# Stress axis : x y z
#
# Youngs Moduli (GPa) = 37.89431 10.76349 70.63726
#
# Poissons Ratio (x) = -0.29263 0.72055
# Poissons Ratio (y) = -1.03024 0.17071
# Poissons Ratio (z) = 0.38655 0.02601
#
# Static dielectric constant tensor:
#      x y z
#    x 1.790840 0.000000 0.000000 
#    y 0.000000 1.729750 0.000000 
#    z 0.000000 0.000000 1.727120 
# 
# From -- ./inp_files/19734.got.cif
#   From: 2010.05.17/outbox.cif.g08.bks.cpg/sg52_10_cif.got.tgz:19734.got - 2010.06.03 12:15:38.
