data_PCOD9407151
_publ_section_title
;
Structure prediction by ZEFSAII (Michael W. Deem and Ramdas Pophale) SiO2 
 PCOD9407151
Probable space group: P M M A
;
_chemical_formula_sum "Si O2"
_cell_formula_units_Z 48
_cell_length_a 8.462961
_cell_length_b 32.579895
_cell_length_c 9.165220
_cell_angle_alpha 90.000000
_cell_angle_beta 90.000000
_cell_angle_gamma 90.000000
_cell_volume 2527.056279
_symmetry_space_group_name_H-M "P M M A"
_symmetry_group_IT_number 51
_symmetry_cell_setting 'orthorhombic'
loop_
_space_group_symop_operation_xyz
x,y,z
1/2-x,-y,z
1/2+x,-y,-z
-x,y,-z
-x,-y,-z
1/2+x,y,-z
1/2-x,y,z
x,-y,z
loop_
_atom_site_type_symbol
_atom_site_label
_atom_site_fract_x
_atom_site_fract_y
_atom_site_fract_z
Si Si1 0.559063 0.088225 0.332614
Si Si2 0.560333 0.420261 0.834893
Si Si3 0.441333 0.000000 0.668093
Si Si4 0.941224 0.822228 0.333509
Si Si5 0.439577 0.661829 0.335202
Si Si6 0.061798 0.500000 0.665014
Si Si7 0.939604 0.258778 0.164358
O O1 0.500000 0.088178 0.500000
O O2 0.750000 0.088108 0.332116
O O3 0.506415 0.044158 0.267652
O O4 0.507759 0.132778 0.273975
O O5 0.750000 0.421382 0.835294
O O6 0.508633 0.378459 0.754442
O O7 0.498325 0.459667 0.748320
O O8 0.500000 0.420841 0.000000
O O9 0.500000 0.000000 0.500000
O O10 0.250000 0.000000 0.667532
O O11 0.750000 0.821668 0.336599
O O12 0.995463 0.783810 0.237897
O O13 0.000000 0.818063 0.500000
O O14 0.500000 0.659432 0.500000
O O15 0.250000 0.662828 0.335729
O O16 0.501793 0.702749 0.258080
O O17 0.250000 0.500000 0.664021
O O18 0.000000 0.500000 0.500000
O O19 0.750000 0.258825 0.164023
O O20 0.000000 0.262183 0.000000
#
# Coordination Sequence:
#
# PCOD9407151 Si02
#       7
#     8   8   4   8   8   4   8
#     4   8  13  22  36  58  88 120 156 197 246 302
#     4  11  24  42  64  91 123 158 195 235 281 330
#     4   8  12  18  32  54  83 118 152 192 242 298
#     4   9  18  31  48  71  99 131 167 210 259 314
#     4  11  24  41  63  89 117 149 185 227 274 326
#     4  12  25  42  65  92 124 160 200 244 287 332
#     4  11  23  38  56  78 106 140 179 224 273 325
#
# _framework density 18.994432
#
# number of rings (size 3 to 8) (size 9 to 14) (size 15 to 20)
#    0.000    2.000    0.000    4.000    0.000    8.000 
#    0.000    0.000    0.000    0.000    0.000    0.583 
#    0.000    0.000    0.000    0.000    0.000    0.000 
#
# Total GULP energy -267829.033948 kJ/mol
# GULP energy per Si atom -5579.771541 kJ/mol
# Density = 1.895120 g / cm^3
# Si number density = 18.994432 Si / 1000 Ang^3
#
#
#
# Elastic Constant Matrix: (Units=GPa)
#
#
# Indices 1 2 3 4 5 6 
#
# 1 37.3733 41.0304 25.6017 0.0000 0.0000 0.0000
# 2 41.0304 237.3507 97.8834 0.0000 0.0000 0.0000
# 3 25.6017 97.8834 128.5448 0.0000 0.0000 0.0000
# 4 0.0000 0.0000 0.0000 -10.8460 0.0000 0.0000
# 5 0.0000 0.0000 0.0000 0.0000 28.2461 0.0000
# 6 0.0000 0.0000 0.0000 0.0000 0.0000 -53.3531
#
#
#
# Elastic Compliance Matrix: (Units=1/GPa)
#
#
# Indices 1 2 3 4 5 6 
#
# 1 0.033984 -0.004495 -0.003346 0.000000 0.000000 0.000000
# 2 -0.004495 0.006736 -0.004234 0.000000 0.000000 0.000000
# 3 -0.003346 -0.004234 0.011670 0.000000 0.000000 0.000000
# 4 0.000000 0.000000 0.000000 -0.092200 0.000000 0.000000
# 5 0.000000 0.000000 0.000000 0.000000 0.035403 0.000000
# 6 0.000000 0.000000 0.000000 0.000000 0.000000 -0.018743
#
#
# Mechanical properties :
#
#
# Convention : Reuss Voigt Hill
#
# Bulk Modulus (GPa) = 35.41035 81.36666 58.38851
# Shear Modulus (GPa) = 480.13390 8.72629 244.43009
#
# Velocity S-wave (km/s) = 15.91618 2.14572 11.35625
# Velocity P-wave (km/s) = 18.87987 7.00492 14.23935
#
# Compressibility (1/GPa) = 0.02824033
#
# Stress axis : x y z
#
# Youngs Moduli (GPa) = 29.42589 148.44551 85.68913
#
# Poissons Ratio (x) = 0.66726 0.28668
# Poissons Ratio (y) = 0.13227 0.36284
# Poissons Ratio (z) = 0.09845 0.62858
#
# Static dielectric constant tensor:
#      x y z
#    x 1.649400 0.000000 0.000000 
#    y 0.000000 1.710020 0.000000 
#    z 0.000000 0.000000 1.600260 
# 
# From -- ./inp_files/6135.got.cif
#   From: 2010.05.17/outbox.cif.g08.bks.cpg/sg51_4_cif.got.tgz:6135.got - 2010.06.03 11:52:47.
