data_PCOD9407609
_publ_section_title
;
Structure prediction by ZEFSAII (Michael W. Deem and Ramdas Pophale) SiO2 
 PCOD9407609
Probable space group: P M M A
;
_chemical_formula_sum "Si O2"
_cell_formula_units_Z 64
_cell_length_a 15.000000
_cell_length_b 9.000000
_cell_length_c 24.000000
_cell_angle_alpha 90.000000
_cell_angle_beta 90.000000
_cell_angle_gamma 90.000000
_cell_volume 3240.000000
_symmetry_space_group_name_H-M "P M M A"
_symmetry_group_IT_number 51
_symmetry_cell_setting 'orthorhombic'
loop_
_space_group_symop_operation_xyz
x,y,z
1/2-x,-y,z
1/2+x,-y,-z
-x,y,-z
-x,-y,-z
1/2+x,y,-z
1/2-x,y,z
x,-y,z
loop_
_atom_site_type_symbol
_atom_site_label
_atom_site_fract_x
_atom_site_fract_y
_atom_site_fract_z
Si Si1 0.846716 0.330385 0.875302
Si Si2 0.044622 0.820724 0.735826
Si Si3 0.531421 0.326453 0.373188
Si Si4 0.350963 0.819919 0.847137
Si Si5 0.851450 0.826837 0.593905
Si Si6 0.854374 0.831963 0.460383
Si Si7 0.998894 0.829330 0.066161
Si Si8 0.154220 0.177486 0.241848
O O1 0.750000 0.317962 0.903333
O O2 0.856652 0.500000 0.855629
O O3 0.925689 0.281661 0.914075
O O4 0.846781 0.222013 0.822708
O O5 0.095796 0.771896 0.791635
O O6 0.079643 0.755958 0.678177
O O7 0.941486 0.769136 0.737612
O O8 0.046620 0.000000 0.734460
O O9 0.530750 0.500000 0.363404
O O10 0.431185 0.265905 0.380663
O O11 0.584640 0.283534 0.428776
O O12 0.250000 0.763319 0.848371
O O13 0.407872 0.786174 0.902374
O O14 0.346596 0.000000 0.844196
O O15 0.750000 0.780237 0.606737
O O16 0.861202 0.821227 0.526996
O O17 0.860511 0.000000 0.611156
O O18 0.750000 0.814498 0.446335
O O19 0.882738 0.000000 0.444571
O O20 0.019111 0.000000 0.084560
O O21 0.000000 0.829264 0.000000
O O22 0.250000 0.233218 0.264507
O O23 0.154294 0.000000 0.248159
#
# Coordination Sequence:
#
# PCOD9407609 Si02
#       8
#     8   8   8   8   8   8   8   8
#     4  10  20  33  52  79 112 147 179 216 269 334
#     4  10  20  36  56  77 105 148 197 239 280 331
#     4  12  25  36  52  84 123 155 186 234 293 351
#     4   9  18  35  58  83 110 142 186 237 285 331
#     4   9  19  38  63  87 112 148 195 242 285 338
#     4   9  19  38  63  86 109 145 196 246 288 336
#     4  10  20  35  58  87 115 144 184 235 285 333
#     4   9  17  32  56  81 102 130 177 233 280 326
#
# _framework density 19.753086
#
# number of rings (size 3 to 8) (size 9 to 14) (size 15 to 20)
#    0.000    2.250    1.250    2.625    0.000    5.500 
#    0.000    5.000    0.000    1.125    0.000    0.000 
#    0.000    0.000    0.000    0.000    0.000    0.000 
#
# Total GULP energy -356862.999906 kJ/mol
# GULP energy per Si atom -5575.984374 kJ/mol
# Density = 1.970813 g / cm^3
# Si number density = 19.753086 Si / 1000 Ang^3
#
#
#
# Elastic Constant Matrix: (Units=GPa)
#
#
# Indices 1 2 3 4 5 6 
#
# 1 101.0975 30.6677 50.7087 0.0000 0.0000 0.0000
# 2 30.6677 5.8710 29.3257 0.0000 0.0000 0.0000
# 3 50.7087 29.3257 87.0235 0.0000 0.0000 0.0000
# 4 0.0000 0.0000 0.0000 -19.0618 0.0000 0.0000
# 5 0.0000 0.0000 0.0000 0.0000 -34.5325 0.0000
# 6 0.0000 0.0000 0.0000 0.0000 0.0000 -48.5008
#
#
#
# Elastic Compliance Matrix: (Units=1/GPa)
#
#
# Indices 1 2 3 4 5 6 
#
# 1 0.008509 0.028806 -0.014666 0.000000 0.000000 0.000000
# 2 0.028806 -0.151776 0.034361 0.000000 0.000000 0.000000
# 3 -0.014666 0.034361 0.008458 0.000000 0.000000 0.000000
# 4 0.000000 0.000000 0.000000 -0.052461 0.000000 0.000000
# 5 0.000000 0.000000 0.000000 0.000000 -0.028958 0.000000
# 6 0.000000 0.000000 0.000000 0.000000 0.000000 -0.020618
#
#
# Mechanical properties :
#
#
# Convention : Reuss Voigt Hill
#
# Bulk Modulus (GPa) = -26.45079 46.15515 9.85218
# Shear Modulus (GPa) = -14.43203 -14.86638 -14.64920
#
# Velocity S-wave (km/s) = -2.70593 -2.74635 -2.72622
# Velocity P-wave (km/s) = 4.81483 3.65516 2.21612
#
# Compressibility (1/GPa) = -0.03780605
#
# Stress axis : x y z
#
# Youngs Moduli (GPa) = 117.52019 -6.58866 118.23782
#
# Poissons Ratio (x) = 0.18979 1.73402
# Poissons Ratio (y) = -3.38528 -4.06279
# Poissons Ratio (z) = 1.72350 0.22639
#
# Static dielectric constant tensor:
#      x y z
#    x 1.716840 0.000000 0.000000 
#    y 0.000000 1.674730 0.000000 
#    z 0.000000 0.000000 1.701630 
# 
# From -- ./inp_files/35735.got.cif
#   From: 2010.05.17/outbox.ucp.g08.bks.cvg/sg51_18_cif.got.tgz:35735.got - 2010.06.11 16:27:58.
