data_PCOD9407149
_publ_section_title
;
Structure prediction by ZEFSAII (Michael W. Deem and Ramdas Pophale) SiO2 
 PCOD9407149
Probable space group: P M M A
;
_chemical_formula_sum "Si O2"
_cell_formula_units_Z 44
_cell_length_a 8.051596
_cell_length_b 30.217746
_cell_length_c 9.290305
_cell_angle_alpha 90.000000
_cell_angle_beta 90.000000
_cell_angle_gamma 90.000000
_cell_volume 2260.341266
_symmetry_space_group_name_H-M "P M M A"
_symmetry_group_IT_number 51
_symmetry_cell_setting 'orthorhombic'
loop_
_space_group_symop_operation_xyz
x,y,z
1/2-x,-y,z
1/2+x,-y,-z
-x,y,-z
-x,-y,-z
1/2+x,y,-z
1/2-x,y,z
x,-y,z
loop_
_atom_site_type_symbol
_atom_site_label
_atom_site_fract_x
_atom_site_fract_y
_atom_site_fract_z
Si Si1 0.451035 0.643893 0.332570
Si Si2 0.450055 0.000000 0.832010
Si Si3 0.552108 0.182388 0.334813
Si Si4 0.451066 0.096295 0.832521
Si Si5 0.052109 0.729971 0.165182
Si Si6 0.450433 0.547488 0.331497
O O1 0.500000 0.648510 0.500000
O O2 0.250000 0.643833 0.327024
O O3 0.514520 0.685538 0.242049
O O4 0.509153 0.595456 0.276867
O O5 0.509306 0.047876 0.776652
O O6 0.250000 0.000000 0.821419
O O7 0.500000 0.000000 0.000000
O O8 0.500000 0.184793 0.500000
O O9 0.750000 0.180071 0.329232
O O10 0.485474 0.137964 0.257888
O O11 0.499997 0.226214 0.250028
O O12 0.250000 0.096259 0.827033
O O13 0.500000 0.100861 0.000000
O O14 0.250000 0.727652 0.170767
O O15 0.000000 0.732401 0.000000
O O16 0.500000 0.547458 0.500000
O O17 0.250000 0.547336 0.322261
O O18 0.510352 0.500000 0.270689
#
# Coordination Sequence:
#
# PCOD9407149 Si02
#       6
#     8   4   8   8   8   8
#     4   9  18  31  49  74 101 129 163 203 248 296
#     4   8  14  28  49  74 102 132 166 204 245 290
#     4  11  23  38  55  77 104 135 170 210 256 304
#     4   9  18  32  53  78 104 134 169 208 249 295
#     4  11  23  38  55  75 100 132 170 211 255 305
#     4   8  13  23  41  66  95 125 157 195 239 287
#
# _framework density 19.466087000000002
#
# number of rings (size 3 to 8) (size 9 to 14) (size 15 to 20)
#    0.000    2.545    0.000    2.182    0.000    5.818 
#    0.000    0.455    0.000    0.545    0.000    0.000 
#    0.000    0.000    0.000    0.000    0.000    0.182 
#
# Total GULP energy -245215.303908 kJ/mol
# GULP energy per Si atom -5573.075089 kJ/mol
# Density = 1.942178 g / cm^3
# Si number density = 19.466087 Si / 1000 Ang^3
#
#
#
# Elastic Constant Matrix: (Units=GPa)
#
#
# Indices 1 2 3 4 5 6 
#
# 1 21.8754 19.0705 4.8743 0.0000 0.0000 0.0000
# 2 19.0705 266.7480 99.6846 0.0000 0.0000 0.0000
# 3 4.8743 99.6846 94.3415 0.0000 0.0000 0.0000
# 4 0.0000 0.0000 0.0000 39.3548 0.0000 0.0000
# 5 0.0000 0.0000 0.0000 0.0000 23.4764 0.0000
# 6 0.0000 0.0000 0.0000 0.0000 0.0000 19.7686
#
#
#
# Elastic Compliance Matrix: (Units=1/GPa)
#
#
# Indices 1 2 3 4 5 6 
#
# 1 0.048964 -0.004222 0.001932 0.000000 0.000000 0.000000
# 2 -0.004222 0.006559 -0.006713 0.000000 0.000000 0.000000
# 3 0.001932 -0.006713 0.017593 0.000000 0.000000 0.000000
# 4 0.000000 0.000000 0.000000 0.025410 0.000000 0.000000
# 5 0.000000 0.000000 0.000000 0.000000 0.042596 0.000000
# 6 0.000000 0.000000 0.000000 0.000000 0.000000 0.050585
#
#
# Mechanical properties :
#
#
# Convention : Reuss Voigt Hill
#
# Bulk Modulus (GPa) = 18.14565 70.02484 44.08524
# Shear Modulus (GPa) = 21.92179 33.80899 27.86539
#
# Velocity S-wave (km/s) = 3.35946 4.17203 3.78760
# Velocity P-wave (km/s) = 4.93861 7.69796 6.46717
#
# Compressibility (1/GPa) = 0.05510964
#
# Stress axis : x y z
#
# Youngs Moduli (GPa) = 20.42309 152.45668 56.84171
#
# Poissons Ratio (x) = 0.64375 -0.10981
# Poissons Ratio (y) = 0.08624 0.38155
# Poissons Ratio (z) = -0.03945 1.02338
#
# Static dielectric constant tensor:
#      x y z
#    x 1.699800 0.000000 0.000000 
#    y 0.000000 1.771590 0.000000 
#    z 0.000000 0.000000 1.622110 
# 
# From -- ./inp_files/5738.got.cif
#   From: 2010.05.17/outbox.cif.g08.bks.cpg/sg51_3_cif.got.tgz:5738.got - 2010.06.03 11:52:47.
