data_PCOD9407085
_publ_section_title
;
Structure prediction by ZEFSAII (Michael W. Deem and Ramdas Pophale) SiO2 
 PCOD9407085
Probable space group: P M M A
;
_chemical_formula_sum "Si O2"
_cell_formula_units_Z 56
_cell_length_a 14.606136
_cell_length_b 8.968438
_cell_length_c 21.792432
_cell_angle_alpha 90.000000
_cell_angle_beta 90.000000
_cell_angle_gamma 90.000000
_cell_volume 2854.682744
_symmetry_space_group_name_H-M "P M M A"
_symmetry_group_IT_number 51
_symmetry_cell_setting 'orthorhombic'
loop_
_space_group_symop_operation_xyz
x,y,z
1/2-x,-y,z
1/2+x,-y,-z
-x,y,-z
-x,-y,-z
1/2+x,y,-z
1/2-x,y,z
x,-y,z
loop_
_atom_site_type_symbol
_atom_site_label
_atom_site_fract_x
_atom_site_fract_y
_atom_site_fract_z
Si Si1 0.531355 0.320755 0.770659
Si Si2 0.356702 0.181236 0.719392
Si Si3 0.353863 0.681796 0.971414
Si Si4 0.960149 0.681000 0.907453
Si Si5 0.099859 0.667236 0.469337
Si Si6 0.144892 0.162801 0.587433
Si Si7 0.859861 0.176485 0.658130
O O1 0.530990 0.500000 0.765903
O O2 0.428216 0.258255 0.764101
O O3 0.565032 0.275530 0.838515
O O4 0.592239 0.253110 0.716179
O O5 0.250000 0.221239 0.730600
O O6 0.391580 0.230341 0.650768
O O7 0.363670 0.000000 0.720841
O O8 0.250000 0.732905 0.958694
O O9 0.352023 0.500000 0.969952
O O10 0.436529 0.728768 0.926242
O O11 0.389671 0.726746 0.039238
O O12 0.961311 0.500000 0.908803
O O13 0.133342 0.500000 0.458259
O O14 0.149236 0.748269 0.525051
O O15 0.104552 0.756596 0.406298
O O16 0.000000 0.659576 0.500000
O O17 0.250000 0.141876 0.605788
O O18 0.102102 0.000000 0.575997
O O19 0.750000 0.199065 0.659662
O O20 0.878420 0.000000 0.659520
#
# Coordination Sequence:
#
# PCOD9407085 Si02
#       7
#     8   8   8   8   8   8   8
#     4  11  22  35  54  82 116 148 180 228 286 334
#     4   9  19  36  56  78 108 149 193 232 274 333
#     4   8  13  25  46  70 102 143 179 212 256 316
#     4   8  16  28  43  72 109 141 176 216 264 324
#     4  11  23  36  53  80 108 132 166 220 285 340
#     4   9  18  33  52  72  94 125 168 214 260 315
#     4  11  25  43  60  78 105 148 199 240 275 327
#
# _framework density 19.616890999999999
#
# number of rings (size 3 to 8) (size 9 to 14) (size 15 to 20)
#    0.000    2.429    0.000    4.286    0.000    8.571 
#    0.000    4.286    0.000    0.000    0.000    8.000 
#    0.000   13.714    0.000    0.000    0.000    0.000 
#
# Total GULP energy -312012.353723 kJ/mol
# GULP energy per Si atom -5571.649174 kJ/mol
# Density = 1.957224 g / cm^3
# Si number density = 19.616891 Si / 1000 Ang^3
#
#
#
# Elastic Constant Matrix: (Units=GPa)
#
#
# Indices 1 2 3 4 5 6 
#
# 1 61.8371 15.2837 4.7210 0.0000 0.0000 0.0000
# 2 15.2837 46.8386 25.3249 0.0000 0.0000 0.0000
# 3 4.7210 25.3249 93.9644 0.0000 0.0000 0.0000
# 4 0.0000 0.0000 0.0000 42.1389 0.0000 0.0000
# 5 0.0000 0.0000 0.0000 0.0000 16.9855 0.0000
# 6 0.0000 0.0000 0.0000 0.0000 0.0000 25.6391
#
#
#
# Elastic Compliance Matrix: (Units=1/GPa)
#
#
# Indices 1 2 3 4 5 6 
#
# 1 0.017639 -0.006177 0.000778 0.000000 0.000000 0.000000
# 2 -0.006177 0.027155 -0.007008 0.000000 0.000000 0.000000
# 3 0.000778 -0.007008 0.012492 0.000000 0.000000 0.000000
# 4 0.000000 0.000000 0.000000 0.023731 0.000000 0.000000
# 5 0.000000 0.000000 0.000000 0.000000 0.058874 0.000000
# 6 0.000000 0.000000 0.000000 0.000000 0.000000 0.039003
#
#
# Mechanical properties :
#
#
# Convention : Reuss Voigt Hill
#
# Bulk Modulus (GPa) = 30.79509 32.58880 31.69194
# Shear Modulus (GPa) = 23.30678 27.44007 25.37343
#
# Velocity S-wave (km/s) = 3.45062 3.74411 3.60036
# Velocity P-wave (km/s) = 5.62210 5.94473 5.78567
#
# Compressibility (1/GPa) = 0.03247271
#
# Stress axis : x y z
#
# Youngs Moduli (GPa) = 56.69359 36.82613 80.05084
#
# Poissons Ratio (x) = 0.22746 -0.06232
# Poissons Ratio (y) = 0.35017 0.56102
# Poissons Ratio (z) = -0.04413 0.25809
#
# Static dielectric constant tensor:
#      x y z
#    x 1.700180 0.000000 0.000000 
#    y 0.000000 1.690580 0.000000 
#    z 0.000000 0.000000 1.694910 
# 
# From -- ./inp_files/33468.got.cif
#   From: 2010.05.17/outbox.cif.g08.bks.cpg/sg51_17_cif.got.tgz:33468.got - 2010.06.03 11:52:47.
