data_PCOD9407480
_publ_section_title
;
Structure prediction by ZEFSAII (Michael W. Deem and Ramdas Pophale) SiO2 
 PCOD9407480
Probable space group: P M M A
;
_chemical_formula_sum "Si O2"
_cell_formula_units_Z 56
_cell_length_a 9.000000
_cell_length_b 21.000000
_cell_length_c 15.000000
_cell_angle_alpha 90.000000
_cell_angle_beta 90.000000
_cell_angle_gamma 90.000000
_cell_volume 2835.000000
_symmetry_space_group_name_H-M "P M M A"
_symmetry_group_IT_number 51
_symmetry_cell_setting 'orthorhombic'
loop_
_space_group_symop_operation_xyz
x,y,z
1/2-x,-y,z
1/2+x,-y,-z
-x,y,-z
-x,-y,-z
1/2+x,y,-z
1/2-x,y,z
x,-y,z
loop_
_atom_site_type_symbol
_atom_site_label
_atom_site_fract_x
_atom_site_fract_y
_atom_site_fract_z
Si Si1 0.569244 0.807091 0.286095
Si Si2 0.926102 0.294822 0.589730
Si Si3 0.918244 0.573008 0.389965
Si Si4 0.928338 0.929293 0.403133
Si Si5 0.418095 0.808491 0.911818
Si Si6 0.580794 0.431211 0.787010
Si Si7 0.079679 0.655388 0.911652
O O1 0.750000 0.798980 0.284517
O O2 0.498829 0.743604 0.328572
O O3 0.529441 0.868558 0.344572
O O4 0.516970 0.820891 0.185620
O O5 0.750000 0.287417 0.589542
O O6 0.000000 0.267122 0.500000
O O7 0.969108 0.369816 0.588089
O O8 0.750000 0.593969 0.408887
O O9 0.934021 0.500000 0.423000
O O10 0.953834 0.565883 0.286545
O O11 0.750000 0.927561 0.411583
O O12 0.000000 0.923669 0.500000
O O13 0.968176 0.000000 0.367088
O O14 0.250000 0.832782 0.913351
O O15 0.413449 0.731435 0.915589
O O16 0.500000 0.831362 0.000000
O O17 0.750000 0.426277 0.751178
O O18 0.575838 0.500000 0.835911
O O19 0.535520 0.369103 0.839299
O O20 0.250000 0.632631 0.900064
O O21 0.000000 0.630916 0.000000
#
# Coordination Sequence:
#
# PCOD9407480 Si02
#       7
#     8   8   8   8   8   8   8
#     4  10  20  36  58  84 116 150 188 235 284 334
#     4  12  25  39  57  82 113 147 185 231 283 339
#     4  10  21  38  58  77 100 135 179 225 274 329
#     4   9  18  33  55  84 118 156 194 231 275 330
#     4   9  19  34  53  77 104 137 177 224 274 326
#     4  10  20  33  49  70  95 124 163 212 267 330
#     4  10  19  31  47  66  91 124 165 215 274 336
#
# _framework density 19.753086
#
# number of rings (size 3 to 8) (size 9 to 14) (size 15 to 20)
#    0.000    2.000    0.000    3.857    0.000    6.286 
#    0.000    0.000    0.000    0.429    0.000    0.000 
#    0.000    0.000    0.000    0.000    0.000    0.000 
#
# Total GULP energy -311780.255906 kJ/mol
# GULP energy per Si atom -5567.504570 kJ/mol
# Density = 1.970813 g / cm^3
# Si number density = 19.753086 Si / 1000 Ang^3
#
#
#
# Elastic Constant Matrix: (Units=GPa)
#
#
# Indices 1 2 3 4 5 6 
#
# 1 64.1215 34.5230 31.5436 0.0000 0.0000 0.0000
# 2 34.5230 54.6182 26.8322 0.0000 0.0000 0.0000
# 3 31.5436 26.8322 85.2082 0.0000 0.0000 0.0000
# 4 0.0000 0.0000 0.0000 85.7729 0.0000 0.0000
# 5 0.0000 0.0000 0.0000 0.0000 24.7228 0.0000
# 6 0.0000 0.0000 0.0000 0.0000 0.0000 13.6197
#
#
#
# Elastic Compliance Matrix: (Units=1/GPa)
#
#
# Indices 1 2 3 4 5 6 
#
# 1 0.025415 -0.013536 -0.005146 0.000000 0.000000 0.000000
# 2 -0.013536 0.028869 -0.004080 0.000000 0.000000 0.000000
# 3 -0.005146 -0.004080 0.014926 0.000000 0.000000 0.000000
# 4 0.000000 0.000000 0.000000 0.011659 0.000000 0.000000
# 5 0.000000 0.000000 0.000000 0.000000 0.040449 0.000000
# 6 0.000000 0.000000 0.000000 0.000000 0.000000 0.073423
#
#
# Mechanical properties :
#
#
# Convention : Reuss Voigt Hill
#
# Bulk Modulus (GPa) = 42.21943 43.30503 42.76223
# Shear Modulus (GPa) = 20.14839 32.22634 26.18736
#
# Velocity S-wave (km/s) = 3.19723 4.04351 3.64501
# Velocity P-wave (km/s) = 5.92028 6.61595 6.27776
#
# Compressibility (1/GPa) = 0.02368578
#
# Stress axis : x y z
#
# Youngs Moduli (GPa) = 39.34747 34.63908 66.99859
#
# Poissons Ratio (x) = 0.46888 0.34476
# Poissons Ratio (y) = 0.53261 0.27335
# Poissons Ratio (z) = 0.20247 0.14133
#
# Static dielectric constant tensor:
#      x y z
#    x 1.668100 0.000000 0.000000 
#    y 0.000000 1.695570 0.000000 
#    z 0.000000 0.000000 1.698550 
# 
# From -- ./inp_files/21822.got.cif
#   From: 2010.05.17/outbox.ucp.g08.bks.cvg/sg51_11_cif.got.tgz:21822.got - 2010.06.11 16:27:58.
