data_PCOD9407000
_publ_section_title
;
Structure prediction by ZEFSAII (Michael W. Deem and Ramdas Pophale) SiO2 
 PCOD9407000
Probable space group: P M M A
;
_chemical_formula_sum "Si O2"
_cell_formula_units_Z 64
_cell_length_a 19.261670
_cell_length_b 14.021798
_cell_length_c 15.427526
_cell_angle_alpha 90.000000
_cell_angle_beta 90.000000
_cell_angle_gamma 90.000000
_cell_volume 4166.716298
_symmetry_space_group_name_H-M "P M M A"
_symmetry_group_IT_number 51
_symmetry_cell_setting 'orthorhombic'
loop_
_space_group_symop_operation_xyz
x,y,z
1/2-x,-y,z
1/2+x,-y,-z
-x,y,-z
-x,-y,-z
1/2+x,y,-z
1/2-x,y,z
x,-y,z
loop_
_atom_site_type_symbol
_atom_site_label
_atom_site_fract_x
_atom_site_fract_y
_atom_site_fract_z
Si Si1 0.168751 0.696594 0.610015
Si Si2 0.666830 0.612334 0.868532
Si Si3 0.448698 0.109429 0.368898
Si Si4 0.606021 0.109716 0.439436
Si Si5 0.074573 0.613990 0.461650
Si Si6 0.930846 0.701655 0.727758
Si Si7 0.419950 0.384705 0.769657
Si Si8 0.829192 0.615592 0.065168
O O1 0.250000 0.676888 0.616351
O O2 0.153847 0.809542 0.601650
O O3 0.134395 0.651444 0.524325
O O4 0.127726 0.651428 0.690734
O O5 0.750000 0.619380 0.858542
O O6 0.648281 0.500000 0.859030
O O7 0.626087 0.672323 0.797736
O O8 0.650441 0.643022 0.967383
O O9 0.529362 0.118672 0.397231
O O10 0.405352 0.126767 0.457555
O O11 0.432634 0.187031 0.296497
O O12 0.436895 0.000000 0.342559
O O13 0.628962 0.000000 0.427999
O O14 0.073922 0.500000 0.462513
O O15 0.082367 0.650225 0.364303
O O16 0.000000 0.647934 0.500000
O O17 0.005337 0.663892 0.760282
O O18 0.426934 0.500000 0.765046
O O19 0.382033 0.357685 0.859338
O O20 0.750000 0.648165 0.082827
O O21 0.826872 0.500000 0.064551
#
# Coordination Sequence:
#
# PCOD9407000 Si02
#       8
#     8   8   8   8   8   8   8   8
#     4  12  23  33  48  74 104 136 173 211 249 300
#     4   9  19  35  53  75 104 137 170 206 253 305
#     4   9  17  32  56  75  93 127 170 212 257 303
#     4   9  17  34  54  71  93 130 174 215 258 298
#     4  11  21  34  48  65 101 146 175 198 239 293
#     4  12  20  32  54  77 102 129 171 217 252 296
#     4  11  21  32  50  76 104 138 173 209 248 295
#     4   8  16  33  52  70 101 139 170 207 253 296
#
# _framework density 15.359817
#
# number of rings (size 3 to 8) (size 9 to 14) (size 15 to 20)
#    0.000    1.875    3.750    3.375    0.000    2.750 
#    0.000    1.875    0.000    0.375    0.000    2.625 
#    0.000    2.000    0.000    0.000    0.000    0.000 
#
# Total GULP energy -357050.759294 kJ/mol
# GULP energy per Si atom -5578.918114 kJ/mol
# Density = 1.532486 g / cm^3
# Si number density = 15.359817 Si / 1000 Ang^3
#
#
#
# Elastic Constant Matrix: (Units=GPa)
#
#
# Indices 1 2 3 4 5 6 
#
# 1 49.6721 26.6102 44.3417 0.0000 0.0000 0.0000
# 2 26.6102 85.6088 45.3109 0.0000 0.0000 0.0000
# 3 44.3417 45.3109 120.1506 0.0000 0.0000 0.0000
# 4 0.0000 0.0000 0.0000 7.0160 0.0000 0.0000
# 5 0.0000 0.0000 0.0000 0.0000 25.4479 0.0000
# 6 0.0000 0.0000 0.0000 0.0000 0.0000 17.6115
#
#
#
# Elastic Compliance Matrix: (Units=1/GPa)
#
#
# Indices 1 2 3 4 5 6 
#
# 1 0.031367 -0.004526 -0.009869 0.000000 0.000000 0.000000
# 2 -0.004526 0.015247 -0.004079 0.000000 0.000000 0.000000
# 3 -0.009869 -0.004079 0.013503 0.000000 0.000000 0.000000
# 4 0.000000 0.000000 0.000000 0.142532 0.000000 0.000000
# 5 0.000000 0.000000 0.000000 0.000000 0.039296 0.000000
# 6 0.000000 0.000000 0.000000 0.000000 0.000000 0.056781
#
#
# Mechanical properties :
#
#
# Convention : Reuss Voigt Hill
#
# Bulk Modulus (GPa) = 43.16354 54.21746 48.69050
# Shear Modulus (GPa) = 14.56031 19.29298 16.92664
#
# Velocity S-wave (km/s) = 3.08222 3.54795 3.32325
# Velocity P-wave (km/s) = 6.38978 7.22211 6.81866
#
# Compressibility (1/GPa) = 0.02316770
#
# Stress axis : x y z
#
# Youngs Moduli (GPa) = 31.88081 65.58578 74.05490
#
# Poissons Ratio (x) = 0.29687 0.73085
# Poissons Ratio (y) = 0.14431 0.30211
# Poissons Ratio (z) = 0.31463 0.26756
#
# Static dielectric constant tensor:
#      x y z
#    x 1.504990 0.000000 0.000000 
#    y 0.000000 1.517340 0.000000 
#    z 0.000000 0.000000 1.497210 
# 
# From -- ./inp_files/25327.got.cif
#   From: 2010.05.17/outbox.cif.g08.bks.cpg/sg51_13_cif.got.tgz:25327.got - 2010.06.03 11:52:47.
