data_PCOD9407334
_publ_section_title
;
Structure prediction by ZEFSAII (Michael W. Deem and Ramdas Pophale) SiO2 
 PCOD9407334
Probable space group: P M M A
;
_chemical_formula_sum "Si O2"
_cell_formula_units_Z 64
_cell_length_a 19.621908
_cell_length_b 7.541755
_cell_length_c 22.548019
_cell_angle_alpha 90.000000
_cell_angle_beta 90.000000
_cell_angle_gamma 90.000000
_cell_volume 3336.737538
_symmetry_space_group_name_H-M "P M M A"
_symmetry_group_IT_number 51
_symmetry_cell_setting 'orthorhombic'
loop_
_space_group_symop_operation_xyz
x,y,z
1/2-x,-y,z
1/2+x,-y,-z
-x,y,-z
-x,-y,-z
1/2+x,y,-z
1/2-x,y,z
x,-y,z
loop_
_atom_site_type_symbol
_atom_site_label
_atom_site_fract_x
_atom_site_fract_y
_atom_site_fract_z
Si Si1 0.907379 0.285300 0.847805
Si Si2 0.677369 0.204703 0.597798
Si Si3 0.027712 0.783034 0.436649
Si Si4 0.013445 0.784120 0.689108
Si Si5 0.672121 0.712906 0.962303
Si Si6 0.827559 0.787449 0.096584
Si Si7 0.562402 0.210926 0.189338
Si Si8 0.360072 0.703236 0.274311
O O1 0.904676 0.500000 0.845953
O O2 0.877065 0.222573 0.910111
O O3 0.860451 0.223043 0.792403
O O4 0.986130 0.237655 0.836383
O O5 0.750000 0.285747 0.579611
O O6 0.605379 0.279686 0.575204
O O7 0.674250 0.206725 0.669498
O O8 0.677808 0.000000 0.578546
O O9 0.000000 0.724638 0.500000
O O10 0.981363 0.732223 0.379804
O O11 0.029232 0.000000 0.436777
O O12 0.063072 0.725181 0.742150
O O13 0.940018 0.712792 0.709252
O O14 0.010366 0.000000 0.690626
O O15 0.750000 0.779135 0.955562
O O16 0.674552 0.500000 0.957044
O O17 0.649323 0.753291 0.029140
O O18 0.750000 0.718881 0.102762
O O19 0.880536 0.716360 0.145023
O O20 0.824408 0.000000 0.103191
O O21 0.572867 0.000000 0.192237
O O22 0.336539 0.500000 0.273364
#
# Coordination Sequence:
#
# PCOD9407334 Si02
#       8
#     8   8   8   8   8   8   8   8
#     4   9  18  30  44  64  88 112 138 172 213 254
#     4   9  17  28  41  59  85 115 145 176 208 244
#     4   8  13  23  42  64  83 108 141 171 200 239
#     4   8  14  26  43  62  84 109 137 168 205 249
#     4   9  18  32  46  59  80 111 143 174 212 260
#     4   9  18  32  47  62  81 107 141 179 218 257
#     4   9  17  29  46  65  85 111 141 176 215 254
#     4   9  16  26  41  61  84 109 137 169 206 246
#
# _framework density 19.180413000000001
#
# number of rings (size 3 to 8) (size 9 to 14) (size 15 to 20)
#    0.000    3.250    0.000    1.125    0.000    2.750 
#    0.000    3.750    0.000    8.250    0.000    5.250 
#    0.000    0.000    0.000    6.250    0.000   10.375 
#
# Total GULP energy -356270.922880 kJ/mol
# GULP energy per Si atom -5566.733170 kJ/mol
# Density = 1.913676 g / cm^3
# Si number density = 19.180413 Si / 1000 Ang^3
#
#
#
# Elastic Constant Matrix: (Units=GPa)
#
#
# Indices 1 2 3 4 5 6 
#
# 1 75.5712 -0.7658 81.8668 0.0000 0.0000 0.0000
# 2 -0.7658 47.2941 2.2782 0.0000 0.0000 0.0000
# 3 81.8668 2.2782 188.7893 0.0000 0.0000 0.0000
# 4 0.0000 0.0000 0.0000 31.1683 0.0000 0.0000
# 5 0.0000 0.0000 0.0000 0.0000 7.5739 0.0000
# 6 0.0000 0.0000 0.0000 0.0000 0.0000 9.1140
#
#
#
# Elastic Compliance Matrix: (Units=1/GPa)
#
#
# Indices 1 2 3 4 5 6 
#
# 1 0.024997 0.000927 -0.010851 0.000000 0.000000 0.000000
# 2 0.000927 0.021191 -0.000658 0.000000 0.000000 0.000000
# 3 -0.010851 -0.000658 0.010010 0.000000 0.000000 0.000000
# 4 0.000000 0.000000 0.000000 0.032084 0.000000 0.000000
# 5 0.000000 0.000000 0.000000 0.000000 0.132032 0.000000
# 6 0.000000 0.000000 0.000000 0.000000 0.000000 0.109722
#
#
# Mechanical properties :
#
#
# Convention : Reuss Voigt Hill
#
# Bulk Modulus (GPa) = 28.54258 53.15700 40.84979
# Shear Modulus (GPa) = 13.77878 24.78960 19.28419
#
# Velocity S-wave (km/s) = 2.68316 3.59896 3.17426
# Velocity P-wave (km/s) = 4.95102 6.71151 5.89733
#
# Compressibility (1/GPa) = 0.03503538
#
# Stress axis : x y z
#
# Youngs Moduli (GPa) = 40.00535 47.18990 99.89823
#
# Poissons Ratio (x) = -0.04377 1.08397
# Poissons Ratio (y) = -0.03710 0.06572
# Poissons Ratio (z) = 0.43409 0.03105
#
# Static dielectric constant tensor:
#      x y z
#    x 1.670550 0.000000 0.000000 
#    y 0.000000 1.753720 0.000000 
#    z 0.000000 0.000000 1.693950 
# 
# From -- ./inp_files/34061.got.cif
#   From: 2010.05.17/outbox.cif.g08.bks.cpg/sg51_18_cif.got.tgz:34061.got - 2010.06.03 11:52:47.
