data_PCOD9407998
_publ_section_title
;
Structure prediction by ZEFSAII (Michael W. Deem and Ramdas Pophale) SiO2 
 PCOD9407998
Probable space group: P N N A
;
_chemical_formula_sum "Si O2"
_cell_formula_units_Z 48
_cell_length_a 8.593332
_cell_length_b 9.235959
_cell_length_c 32.504202
_cell_angle_alpha 90.000000
_cell_angle_beta 90.000000
_cell_angle_gamma 90.000000
_cell_volume 2579.782519
_symmetry_space_group_name_H-M "P N N A"
_symmetry_group_IT_number 52
_symmetry_cell_setting 'orthorhombic'
loop_
_space_group_symop_operation_xyz
x,y,z
1/2-x,-y,z
x,1/2-y,1/2-z
1/2-x,1/2+y,1/2-z
-x,-y,-z
1/2+x,y,-z
-x,1/2+y,1/2+z
1/2+x,1/2-y,1/2+z
loop_
_atom_site_type_symbol
_atom_site_label
_atom_site_fract_x
_atom_site_fract_y
_atom_site_fract_z
Si Si1 0.187090 0.836278 0.871749
Si Si2 0.185706 0.165288 0.957619
Si Si3 0.687805 0.162013 0.709733
Si Si4 0.312195 0.337987 0.790267
Si Si5 0.312910 0.836278 0.128251
Si Si6 0.185707 0.665288 0.457619
O O1 0.253571 0.772724 0.914475
O O2 0.234412 0.743958 0.832061
O O3 0.000000 0.841784 0.874438
O O4 0.250000 0.000000 0.867049
O O5 1.000000 0.162153 0.958504
O O6 0.250000 0.000000 0.957111
O O7 0.250000 0.232151 1.000000
O O8 0.740898 0.250000 0.750000
O O9 0.500000 0.158431 0.710441
O O10 0.734412 0.243958 0.667939
O O11 0.750000 0.000000 0.710645
O O12 0.250000 0.500000 0.789354
O O13 0.259102 0.250000 0.750000
O O14 0.246430 0.772724 0.085525
O O15 0.250000 0.000000 0.132951
O O16 0.250000 0.500000 0.457111
#
# Coordination Sequence:
#
# PCOD9407998 Si02
#       6
#     8   8   8   8   8   8
#     4  10  19  32  51  77 107 138 175 216 259 307
#     4  10  17  27  45  71 103 137 173 213 258 303
#     4  10  22  38  56  79 106 137 174 215 259 310
#     4  10  22  38  56  79 106 137 174 215 259 310
#     4  10  19  32  51  77 107 138 175 216 259 307
#     4  10  17  27  45  71 103 137 173 213 258 303
#
# _framework density 18.60622
#
# number of rings (size 3 to 8) (size 9 to 14) (size 15 to 20)
#    0.000    2.000    0.000    8.000    0.000    3.333 
#    0.000    0.000    0.000    1.000    0.000    7.000 
#    0.000    0.000    0.000    0.000    0.000    0.000 
#
# Total GULP energy -267879.312392 kJ/mol
# GULP energy per Si atom -5580.819008 kJ/mol
# Density = 1.856387 g / cm^3
# Si number density = 18.606220 Si / 1000 Ang^3
#
#
#
# Elastic Constant Matrix: (Units=GPa)
#
#
# Indices 1 2 3 4 5 6 
#
# 1 91.0275 23.1580 64.8983 0.0000 0.0000 0.0000
# 2 23.1580 79.0024 80.8012 0.0000 0.0000 0.0000
# 3 64.8983 80.8012 243.3039 0.0000 0.0000 0.0000
# 4 0.0000 0.0000 0.0000 22.9247 0.0000 0.0000
# 5 0.0000 0.0000 0.0000 0.0000 29.2802 0.0000
# 6 0.0000 0.0000 0.0000 0.0000 0.0000 20.0134
#
#
#
# Elastic Compliance Matrix: (Units=1/GPa)
#
#
# Indices 1 2 3 4 5 6 
#
# 1 0.013575 -0.000418 -0.003482 0.000000 0.000000 0.000000
# 2 -0.000418 0.019182 -0.006259 0.000000 0.000000 0.000000
# 3 -0.003482 -0.006259 0.007117 0.000000 0.000000 0.000000
# 4 0.000000 0.000000 0.000000 0.043621 0.000000 0.000000
# 5 0.000000 0.000000 0.000000 0.000000 0.034153 0.000000
# 6 0.000000 0.000000 0.000000 0.000000 0.000000 0.049966
#
#
# Mechanical properties :
#
#
# Convention : Reuss Voigt Hill
#
# Bulk Modulus (GPa) = 51.13429 83.44985 67.29207
# Shear Modulus (GPa) = 25.71357 30.74209 28.22783
#
# Velocity S-wave (km/s) = 3.72154 4.06919 3.89925
# Velocity P-wave (km/s) = 6.78296 8.18692 7.51779
#
# Compressibility (1/GPa) = 0.01955635
#
# Stress axis : x y z
#
# Youngs Moduli (GPa) = 73.66729 52.13334 140.49996
#
# Poissons Ratio (x) = 0.02178 0.48924
# Poissons Ratio (y) = 0.03077 0.87936
# Poissons Ratio (z) = 0.25652 0.32629
#
# Static dielectric constant tensor:
#      x y z
#    x 1.627040 0.000000 0.000000 
#    y 0.000000 1.611400 0.000000 
#    z 0.000000 0.000000 1.704270 
# 
# From -- ./inp_files/44340.got.cif
#   From: 2010.05.17/outbox.cif.g08.bks.cpg/sg52_23_cif.got.tgz:44340.got - 2010.06.03 12:15:38.
