data_PCOD9407917
_publ_section_title
;
Structure prediction by ZEFSAII (Michael W. Deem and Ramdas Pophale) SiO2 
 PCOD9407917
Probable space group: P N N A
;
_chemical_formula_sum "Si O2"
_cell_formula_units_Z 48
_cell_length_a 5.192531
_cell_length_b 13.734201
_cell_length_c 28.819446
_cell_angle_alpha 90.000000
_cell_angle_beta 90.000000
_cell_angle_gamma 90.000000
_cell_volume 2055.266413
_symmetry_space_group_name_H-M "P N N A"
_symmetry_group_IT_number 52
_symmetry_cell_setting 'orthorhombic'
loop_
_space_group_symop_operation_xyz
x,y,z
1/2-x,-y,z
x,1/2-y,1/2-z
1/2-x,1/2+y,1/2-z
-x,-y,-z
1/2+x,y,-z
-x,1/2+y,1/2+z
1/2+x,1/2-y,1/2+z
loop_
_atom_site_type_symbol
_atom_site_label
_atom_site_fract_x
_atom_site_fract_y
_atom_site_fract_z
Si Si1 0.365502 0.637291 0.976359
Si Si2 0.762974 0.195736 0.886518
Si Si3 0.495676 0.068612 0.705610
Si Si4 0.284124 0.310884 0.880542
Si Si5 0.700457 0.360343 0.514831
Si Si6 0.996605 0.931438 0.807596
O O1 0.338729 0.624297 0.921358
O O2 0.626536 0.597804 0.996022
O O3 0.359835 0.754129 0.990112
O O4 0.543832 0.270206 0.904926
O O5 0.813546 0.136094 0.933080
O O6 0.591269 0.141522 0.847851
O O7 0.036284 0.240553 0.869224
O O8 0.412113 0.139506 0.664236
O O9 0.500493 0.117802 0.756582
O O10 0.750000 0.000000 0.697465
O O11 0.250000 0.000000 0.709615
O O12 0.418718 0.405092 0.517113
O O13 0.250000 0.000000 0.815806
O O14 0.750000 0.000000 0.804162
#
# Coordination Sequence:
#
# PCOD9407917 Si02
#       6
#     8   8   8   8   8   8
#     4  10  16  30  50  84 119 156 181 233 299 375
#     4  12  21  34  63  97 115 150 208 260 294 350
#     4  10  23  44  62  80 119 169 202 243 318 385
#     4  12  21  34  63  97 115 150 208 260 294 350
#     4  10  16  30  50  84 119 156 181 233 299 375
#     4  10  23  44  62  80 119 169 202 243 318 385
#
# _framework density 23.354638000000001
#
# number of rings (size 3 to 8) (size 9 to 14) (size 15 to 20)
#    0.000    1.333    6.667    2.000    0.000    0.667 
#    0.000    1.667    0.000    6.000    0.000    0.000 
#    0.000    0.000    0.000    0.000    0.000    0.000 
#
# Total GULP energy -267233.315663 kJ/mol
# GULP energy per Si atom -5567.360743 kJ/mol
# Density = 2.330148 g / cm^3
# Si number density = 23.354638 Si / 1000 Ang^3
#
#
#
# Elastic Constant Matrix: (Units=GPa)
#
#
# Indices 1 2 3 4 5 6 
#
# 1 204.1586 23.2979 38.3431 0.0000 0.0000 0.0000
# 2 23.2979 45.0939 20.6332 0.0000 0.0000 0.0000
# 3 38.3431 20.6332 144.2730 0.0000 0.0000 0.0000
# 4 0.0000 0.0000 0.0000 -127.5580 0.0000 0.0000
# 5 0.0000 0.0000 0.0000 0.0000 89.7264 0.0000
# 6 0.0000 0.0000 0.0000 0.0000 0.0000 21.7940
#
#
#
# Elastic Compliance Matrix: (Units=1/GPa)
#
#
# Indices 1 2 3 4 5 6 
#
# 1 0.005364 -0.002267 -0.001101 0.000000 0.000000 0.000000
# 2 -0.002267 0.024687 -0.002928 0.000000 0.000000 0.000000
# 3 -0.001101 -0.002928 0.007643 0.000000 0.000000 0.000000
# 4 0.000000 0.000000 0.000000 -0.007840 0.000000 0.000000
# 5 0.000000 0.000000 0.000000 0.000000 0.011145 0.000000
# 6 0.000000 0.000000 0.000000 0.000000 0.000000 0.045884
#
#
# Mechanical properties :
#
#
# Convention : Reuss Voigt Hill
#
# Bulk Modulus (GPa) = 39.84003 62.00821 50.92412
# Shear Modulus (GPa) = 46.36364 17.54258 31.95311
#
# Velocity S-wave (km/s) = 4.46039 2.74367 3.70289
# Velocity P-wave (km/s) = 6.60474 6.05353 6.33513
#
# Compressibility (1/GPa) = 0.02510038
#
# Stress axis : x y z
#
# Youngs Moduli (GPa) = 186.43797 40.50697 130.84329
#
# Poissons Ratio (x) = 0.09184 0.14409
# Poissons Ratio (y) = 0.42271 0.38312
# Poissons Ratio (z) = 0.20531 0.11861
#
# Static dielectric constant tensor:
#      x y z
#    x 1.993810 0.000000 0.000000 
#    y 0.000000 2.109240 0.000000 
#    z 0.000000 0.000000 2.023850 
# 
# From -- ./inp_files/41698.got.cif
#   From: 2010.05.17/outbox.cif.g08.bks.cpg/sg52_21_cif.got.tgz:41698.got - 2010.06.03 12:15:38.
