data_PCOD9407691
_publ_section_title
;
Structure prediction by ZEFSAII (Michael W. Deem and Ramdas Pophale) SiO2 
 PCOD9407691
Probable space group: P M M A
;
_chemical_formula_sum "Si O2"
_cell_formula_units_Z 64
_cell_length_a 9.000000
_cell_length_b 24.000000
_cell_length_c 15.000000
_cell_angle_alpha 90.000000
_cell_angle_beta 90.000000
_cell_angle_gamma 90.000000
_cell_volume 3240.000000
_symmetry_space_group_name_H-M "P M M A"
_symmetry_group_IT_number 51
_symmetry_cell_setting 'orthorhombic'
loop_
_space_group_symop_operation_xyz
x,y,z
1/2-x,-y,z
1/2+x,-y,-z
-x,y,-z
-x,-y,-z
1/2+x,y,-z
1/2-x,y,z
x,-y,z
loop_
_atom_site_type_symbol
_atom_site_label
_atom_site_fract_x
_atom_site_fract_y
_atom_site_fract_z
Si Si1 0.577221 0.668717 0.085681
Si Si2 0.068889 0.140229 0.252520
Si Si3 0.926778 0.733568 0.756740
Si Si4 0.079132 0.438332 0.672856
Si Si5 0.924328 0.678743 0.409451
Si Si6 0.420260 0.564172 0.141027
Si Si7 0.071410 0.935682 0.090874
Si Si8 0.428016 0.061341 0.403969
O O1 0.750000 0.676409 0.082966
O O2 0.505226 0.696783 0.170077
O O3 0.534534 0.603975 0.092301
O O4 0.500000 0.693933 0.000000
O O5 0.250000 0.139808 0.254513
O O6 0.022449 0.202911 0.238185
O O7 0.020910 0.101409 0.172219
O O8 0.017682 0.111330 0.342896
O O9 0.750000 0.730616 0.766184
O O10 0.981606 0.708830 0.665087
O O11 0.250000 0.434357 0.708317
O O12 0.062452 0.500000 0.633248
O O13 0.060642 0.387543 0.606470
O O14 0.965998 0.433212 0.754861
O O15 0.750000 0.692303 0.404450
O O16 0.000000 0.695088 0.500000
O O17 0.250000 0.583262 0.128410
O O18 0.431392 0.500000 0.113666
O O19 0.250000 0.933429 0.085153
O O20 0.028722 0.000000 0.103976
O O21 0.000000 0.915374 0.000000
O O22 0.500000 0.063480 0.500000
O O23 0.250000 0.064950 0.412386
O O24 0.459708 0.000000 0.363472
#
# Coordination Sequence:
#
# PCOD9407691 Si02
#       8
#     8   8   8   8   8   8   8   8
#     4  12  25  42  63  86 114 152 195 240 291 348
#     4   9  19  35  57  82 109 148 191 230 279 337
#     4  11  23  41  61  83 115 151 195 248 293 342
#     4   9  18  34  57  84 115 150 186 230 285 345
#     4  11  23  39  60  85 114 152 195 240 290 348
#     4  10  20  35  59  90 120 150 185 229 286 348
#     4   9  17  32  55  83 115 148 183 224 273 332
#     4   9  17  32  55  83 115 149 186 229 278 334
#
# _framework density 19.753086
#
# number of rings (size 3 to 8) (size 9 to 14) (size 15 to 20)
#    0.000    2.000    1.250    2.625    0.000    4.250 
#    0.000    5.625    0.000    3.000    0.000    0.000 
#    0.000    0.000    0.000    0.000    0.000    0.000 
#
# Total GULP energy -356958.757977 kJ/mol
# GULP energy per Si atom -5577.480593 kJ/mol
# Density = 1.970813 g / cm^3
# Si number density = 19.753086 Si / 1000 Ang^3
#
#
#
# Elastic Constant Matrix: (Units=GPa)
#
#
# Indices 1 2 3 4 5 6 
#
# 1 29.9410 13.8308 20.8595 0.0000 0.0000 0.0000
# 2 13.8308 47.9908 31.5651 0.0000 0.0000 0.0000
# 3 20.8595 31.5651 91.1430 0.0000 0.0000 0.0000
# 4 0.0000 0.0000 0.0000 172.9525 0.0000 0.0000
# 5 0.0000 0.0000 0.0000 0.0000 21.4346 0.0000
# 6 0.0000 0.0000 0.0000 0.0000 0.0000 8.3423
#
#
#
# Elastic Compliance Matrix: (Units=1/GPa)
#
#
# Indices 1 2 3 4 5 6 
#
# 1 0.041685 -0.007431 -0.006967 0.000000 0.000000 0.000000
# 2 -0.007431 0.028309 -0.008103 0.000000 0.000000 0.000000
# 3 -0.006967 -0.008103 0.015373 0.000000 0.000000 0.000000
# 4 0.000000 0.000000 0.000000 0.005782 0.000000 0.000000
# 5 0.000000 0.000000 0.000000 0.000000 0.046654 0.000000
# 6 0.000000 0.000000 0.000000 0.000000 0.000000 0.119871
#
#
# Mechanical properties :
#
#
# Convention : Reuss Voigt Hill
#
# Bulk Modulus (GPa) = 24.77451 33.50954 29.14203
# Shear Modulus (GPa) = 15.81623 47.40051 31.60837
#
# Velocity S-wave (km/s) = 2.83273 4.90394 4.00456
# Velocity P-wave (km/s) = 4.82374 7.00470 6.01391
#
# Compressibility (1/GPa) = 0.04036407
#
# Stress axis : x y z
#
# Youngs Moduli (GPa) = 23.98919 35.32469 65.05098
#
# Poissons Ratio (x) = 0.26251 0.45319
# Poissons Ratio (y) = 0.17827 0.52712
# Poissons Ratio (z) = 0.16713 0.28624
#
# Static dielectric constant tensor:
#      x y z
#    x 1.662720 0.000000 0.000000 
#    y 0.000000 1.704600 0.000000 
#    z 0.000000 0.000000 1.672230 
# 
# From -- ./inp_files/22328.got.cif
#   From: 2010.05.17/outbox.ucp.g08.bks.cvg/sg51_12_cif.got.tgz:22328.got - 2010.06.11 16:27:58.
