data_PCOD9407623
_publ_section_title
;
Structure prediction by ZEFSAII (Michael W. Deem and Ramdas Pophale) SiO2 
 PCOD9407623
Probable space group: P M M A
;
_chemical_formula_sum "Si O2"
_cell_formula_units_Z 48
_cell_length_a 9.000000
_cell_length_b 9.000000
_cell_length_c 30.000000
_cell_angle_alpha 90.000000
_cell_angle_beta 90.000000
_cell_angle_gamma 90.000000
_cell_volume 2430.000000
_symmetry_space_group_name_H-M "P M M A"
_symmetry_group_IT_number 51
_symmetry_cell_setting 'orthorhombic'
loop_
_space_group_symop_operation_xyz
x,y,z
1/2-x,-y,z
1/2+x,-y,-z
-x,y,-z
-x,-y,-z
1/2+x,y,-z
1/2-x,y,z
x,-y,z
loop_
_atom_site_type_symbol
_atom_site_label
_atom_site_fract_x
_atom_site_fract_y
_atom_site_fract_z
Si Si1 0.577040 0.832680 0.123431
Si Si2 0.418640 0.181176 0.365683
Si Si3 0.082744 0.325918 0.199692
Si Si4 0.916955 0.178767 0.277925
Si Si5 0.425670 0.665821 0.047855
Si Si6 0.079220 0.818426 0.545123
O O1 0.750000 0.820631 0.113020
O O2 0.530167 0.720262 0.161541
O O3 0.484891 0.791003 0.080183
O O4 0.546228 0.000000 0.139112
O O5 0.250000 0.231243 0.358005
O O6 0.529962 0.225743 0.326668
O O7 0.483375 0.230033 0.412737
O O8 0.415834 0.000000 0.365879
O O9 0.250000 0.287549 0.185066
O O10 0.076560 0.500000 0.208496
O O11 0.035467 0.238177 0.243246
O O12 0.750000 0.230896 0.267508
O O13 0.915509 0.000000 0.276301
O O14 0.250000 0.674297 0.043338
O O15 0.462579 0.500000 0.066065
O O16 0.500000 0.678063 0.000000
O O17 0.250000 0.770787 0.547813
O O18 0.000000 0.770526 0.500000
O O19 0.080189 0.000000 0.545283
#
# Coordination Sequence:
#
# PCOD9407623 Si02
#       6
#     8   8   8   8   8   8
#     4  11  24  40  59  85 115 147 184 225 270 320
#     4   9  16  26  41  62  90 126 166 208 257 311
#     4  11  24  40  58  81 108 139 177 220 267 320
#     4  10  20  34  53  77 104 135 173 216 263 317
#     4  10  21  38  61  88 117 151 190 229 271 319
#     4   9  15  22  33  52  82 121 164 208 254 307
#
# _framework density 19.753086
#
# number of rings (size 3 to 8) (size 9 to 14) (size 15 to 20)
#    0.000    2.000    0.000    4.000    0.000   13.000 
#    0.000    0.000    0.000    0.000    0.000    0.000 
#    0.000    0.667    0.000    2.500    0.000    5.500 
#
# Total GULP energy -267847.177273 kJ/mol
# GULP energy per Si atom -5580.149527 kJ/mol
# Density = 1.970813 g / cm^3
# Si number density = 19.753086 Si / 1000 Ang^3
#
#
#
# Elastic Constant Matrix: (Units=GPa)
#
#
# Indices 1 2 3 4 5 6 
#
# 1 61.3820 26.2409 6.3287 0.0000 0.0000 0.0000
# 2 26.2409 7.7908 15.2408 0.0000 0.0000 0.0000
# 3 6.3287 15.2408 56.7884 0.0000 0.0000 0.0000
# 4 0.0000 0.0000 0.0000 3.2225 0.0000 0.0000
# 5 0.0000 0.0000 0.0000 0.0000 33.3448 0.0000
# 6 0.0000 0.0000 0.0000 0.0000 0.0000 19.0520
#
#
#
# Elastic Compliance Matrix: (Units=1/GPa)
#
#
# Indices 1 2 3 4 5 6 
#
# 1 -0.009795 0.064961 -0.016343 0.000000 0.000000 0.000000
# 2 0.064961 -0.160605 0.035864 0.000000 0.000000 0.000000
# 3 -0.016343 0.035864 0.009805 0.000000 0.000000 0.000000
# 4 0.000000 0.000000 0.000000 0.310316 0.000000 0.000000
# 5 0.000000 0.000000 0.000000 0.000000 0.029990 0.000000
# 6 0.000000 0.000000 0.000000 0.000000 0.000000 0.052488
#
#
# Mechanical properties :
#
#
# Convention : Reuss Voigt Hill
#
# Bulk Modulus (GPa) = 119.47126 24.62023 72.04575
# Shear Modulus (GPa) = 75.72840 16.33392 46.03116
#
# Velocity S-wave (km/s) = 6.19845 2.87871 4.83258
# Velocity P-wave (km/s) = 10.57550 4.85184 8.22744
#
# Compressibility (1/GPa) = 0.00837021
#
# Stress axis : x y z
#
# Youngs Moduli (GPa) = -102.09634 -6.22647 101.98409
#
# Poissons Ratio (x) = 0.40448 1.66670
# Poissons Ratio (y) = 6.63230 -3.65752
# Poissons Ratio (z) = -1.66853 0.22330
#
# Static dielectric constant tensor:
#      x y z
#    x 1.683550 0.000000 0.000000 
#    y 0.000000 1.700630 0.000000 
#    z 0.000000 0.000000 1.683330 
# 
# From -- ./inp_files/36888.got.cif
#   From: 2010.05.17/outbox.ucp.g08.bks.cvg/sg51_19_cif.got.tgz:36888.got - 2010.06.11 16:27:58.
