data_PCOD9407075
_publ_section_title
;
Structure prediction by ZEFSAII (Michael W. Deem and Ramdas Pophale) SiO2 
 PCOD9407075
Probable space group: P M M A
;
_chemical_formula_sum "Si O2"
_cell_formula_units_Z 64
_cell_length_a 8.812247
_cell_length_b 19.629926
_cell_length_c 24.940717
_cell_angle_alpha 90.000000
_cell_angle_beta 90.000000
_cell_angle_gamma 90.000000
_cell_volume 4314.338917
_symmetry_space_group_name_H-M "P M M A"
_symmetry_group_IT_number 51
_symmetry_cell_setting 'orthorhombic'
loop_
_space_group_symop_operation_xyz
x,y,z
1/2-x,-y,z
1/2+x,-y,-z
-x,y,-z
-x,-y,-z
1/2+x,y,-z
1/2-x,y,z
x,-y,z
loop_
_atom_site_type_symbol
_atom_site_label
_atom_site_fract_x
_atom_site_fract_y
_atom_site_fract_z
Si Si1 0.431323 0.140168 0.278306
Si Si2 0.932896 0.922452 0.608401
Si Si3 0.427153 0.917298 0.944834
Si Si4 0.566707 0.920882 0.172193
Si Si5 0.933753 0.721311 0.663299
Si Si6 0.080267 0.419087 0.552118
Si Si7 0.569005 0.574676 0.666225
Si Si8 0.068868 0.212636 0.558051
O O1 0.250000 0.136768 0.271339
O O2 0.469755 0.091593 0.328893
O O3 0.508821 0.119358 0.223353
O O4 0.472153 0.215885 0.298143
O O5 0.750000 0.913907 0.602883
O O6 0.013878 0.863546 0.574682
O O7 0.972244 0.000000 0.593777
O O8 0.250000 0.900717 0.946979
O O9 0.487843 0.895347 0.886444
O O10 0.439979 0.000000 0.944287
O O11 0.500000 0.892452 0.000000
O O12 0.750000 0.919728 0.170866
O O13 0.519838 0.000000 0.178091
O O14 0.750000 0.721062 0.656398
O O15 0.982079 0.648295 0.687694
O O16 0.006556 0.738643 0.605549
O O17 0.250000 0.391341 0.561486
O O18 0.098682 0.500000 0.542044
O O19 0.000000 0.388977 0.500000
O O20 0.974270 0.416824 0.603838
O O21 0.750000 0.571678 0.672583
O O22 0.507440 0.500000 0.683554
O O23 0.250000 0.215309 0.556379
O O24 0.000000 0.228527 0.500000
#
# Coordination Sequence:
#
# PCOD9407075 Si02
#       8
#     8   8   8   8   8   8   8   8
#     4   9  17  29  44  61  81 106 134 163 198 238
#     4   9  18  33  50  66  85 106 129 164 207 245
#     4   8  14  24  36  52  77 108 140 174 209 237
#     4   9  17  27  39  58  84 111 140 176 210 235
#     4   9  19  35  49  62  83 105 127 161 201 241
#     4   9  16  25  37  54  76  97 115 139 172 212
#     4   9  17  30  48  65  78  96 123 153 188 232
#     4  11  22  35  50  65  81 103 131 160 196 245
#
# _framework density 14.834255000000001
#
# number of rings (size 3 to 8) (size 9 to 14) (size 15 to 20)
#    0.000    2.875    0.000    3.375    0.000    6.250 
#    0.000    1.250    0.000    0.000    0.000    0.000 
#    0.000    0.000    0.000    0.000    0.000    0.625 
#
# Total GULP energy -356367.545428 kJ/mol
# GULP energy per Si atom -5568.242897 kJ/mol
# Density = 1.480049 g / cm^3
# Si number density = 14.834255 Si / 1000 Ang^3
#
#
#
# Elastic Constant Matrix: (Units=GPa)
#
#
# Indices 1 2 3 4 5 6 
#
# 1 20.0713 18.3380 23.7432 0.0000 0.0000 0.0000
# 2 18.3380 99.3805 28.3323 0.0000 0.0000 0.0000
# 3 23.7432 28.3323 89.0443 0.0000 0.0000 0.0000
# 4 0.0000 0.0000 0.0000 -17.3483 0.0000 0.0000
# 5 0.0000 0.0000 0.0000 0.0000 22.5604 0.0000
# 6 0.0000 0.0000 0.0000 0.0000 0.0000 10.4384
#
#
#
# Elastic Compliance Matrix: (Units=1/GPa)
#
#
# Indices 1 2 3 4 5 6 
#
# 1 0.080298 -0.009582 -0.018362 0.000000 0.000000 0.000000
# 2 -0.009582 0.012210 -0.001330 0.000000 0.000000 0.000000
# 3 -0.018362 -0.001330 0.016550 0.000000 0.000000 0.000000
# 4 0.000000 0.000000 0.000000 -0.057643 0.000000 0.000000
# 5 0.000000 0.000000 0.000000 0.000000 0.044325 0.000000
# 6 0.000000 0.000000 0.000000 0.000000 0.000000 0.095800
#
#
# Mechanical properties :
#
#
# Convention : Reuss Voigt Hill
#
# Bulk Modulus (GPa) = 19.79837 38.81369 29.30603
# Shear Modulus (GPa) = 18.73182 12.33561 15.53371
#
# Velocity S-wave (km/s) = 3.55736 2.88681 3.23948
# Velocity P-wave (km/s) = 5.49986 6.11010 5.81299
#
# Compressibility (1/GPa) = 0.05050922
#
# Stress axis : x y z
#
# Youngs Moduli (GPa) = 12.45357 81.90294 60.42409
#
# Poissons Ratio (x) = 0.78480 1.10952
# Poissons Ratio (y) = 0.11933 0.08036
# Poissons Ratio (z) = 0.22868 0.10892
#
# Static dielectric constant tensor:
#      x y z
#    x 1.507670 0.000000 0.000000 
#    y 0.000000 1.541240 0.000000 
#    z 0.000000 0.000000 1.478040 
# 
# From -- ./inp_files/35175.got.cif
#   From: 2010.05.17/outbox.cif.g08.bks.cpg/sg51_18_cif.got.tgz:35175.got - 2010.06.03 11:52:47.
