data_PCOD9407607
_publ_section_title
;
Structure prediction by ZEFSAII (Michael W. Deem and Ramdas Pophale) SiO2 
 PCOD9407607
Probable space group: P M M A
;
_chemical_formula_sum "Si O2"
_cell_formula_units_Z 40
_cell_length_a 9.000000
_cell_length_b 9.000000
_cell_length_c 27.000000
_cell_angle_alpha 90.000000
_cell_angle_beta 90.000000
_cell_angle_gamma 90.000000
_cell_volume 2187.000000
_symmetry_space_group_name_H-M "P M M A"
_symmetry_group_IT_number 51
_symmetry_cell_setting 'orthorhombic'
loop_
_space_group_symop_operation_xyz
x,y,z
1/2-x,-y,z
1/2+x,-y,-z
-x,y,-z
-x,-y,-z
1/2+x,y,-z
1/2-x,y,z
x,-y,z
loop_
_atom_site_type_symbol
_atom_site_label
_atom_site_fract_x
_atom_site_fract_y
_atom_site_fract_z
Si Si1 0.921461 0.320703 0.645129
Si Si2 0.073964 0.176074 0.551041
Si Si3 0.078386 0.820906 0.050663
Si Si4 0.070952 0.325503 0.855065
Si Si5 0.077878 0.681055 0.745688
O O1 0.750000 0.277590 0.640443
O O2 0.931006 0.500000 0.644203
O O3 0.011715 0.256666 0.599207
O O4 0.985702 0.270217 0.698124
O O5 0.250000 0.195549 0.547729
O O6 0.000000 0.229953 0.500000
O O7 0.041513 0.000000 0.555489
O O8 0.250000 0.775307 0.050186
O O9 0.999213 0.760132 0.099381
O O10 0.071660 0.000000 0.051447
O O11 0.000000 0.769955 0.000000
O O12 0.250000 0.313712 0.856504
O O13 0.033217 0.500000 0.859296
O O14 0.023886 0.271427 0.800181
O O15 0.250000 0.725365 0.739663
O O16 0.075660 0.500000 0.746811
#
# Coordination Sequence:
#
# PCOD9407607 Si02
#       5
#     8   8   8   8   8
#     4  10  20  33  52  79 107 135 169 208 250 297
#     4  10  21  37  56  76 100 133 171 210 255 304
#     4  10  21  36  53  73  99 133 171 209 252 301
#     4   9  18  33  54  79 104 131 166 207 251 300
#     4   8  15  30  51  74 102 135 168 204 248 296
#
# _framework density 18.289895000000001
#
# number of rings (size 3 to 8) (size 9 to 14) (size 15 to 20)
#    0.000    2.600    0.000    3.000    0.000    5.600 
#    0.000    3.000    0.000    1.200    0.000    0.000 
#    0.000    0.000    0.000    0.000    0.000    0.000 
#
# Total GULP energy -223107.999222 kJ/mol
# GULP energy per Si atom -5577.699981 kJ/mol
# Density = 1.824827 g / cm^3
# Si number density = 18.289895 Si / 1000 Ang^3
#
#
#
# Elastic Constant Matrix: (Units=GPa)
#
#
# Indices 1 2 3 4 5 6 
#
# 1 25.6064 23.3614 46.6237 0.0000 0.0000 0.0000
# 2 23.3614 2.4074 27.1731 0.0000 0.0000 0.0000
# 3 46.6237 27.1731 170.1360 0.0000 0.0000 0.0000
# 4 0.0000 0.0000 0.0000 56.9025 0.0000 0.0000
# 5 0.0000 0.0000 0.0000 0.0000 39.4136 0.0000
# 6 0.0000 0.0000 0.0000 0.0000 0.0000 22.0564
#
#
#
# Elastic Compliance Matrix: (Units=1/GPa)
#
#
# Indices 1 2 3 4 5 6 
#
# 1 0.006949 0.057232 -0.011045 0.000000 0.000000 0.000000
# 2 0.057232 -0.046137 -0.008315 0.000000 0.000000 0.000000
# 3 -0.011045 -0.008315 0.010232 0.000000 0.000000 0.000000
# 4 0.000000 0.000000 0.000000 0.017574 0.000000 0.000000
# 5 0.000000 0.000000 0.000000 0.000000 0.025372 0.000000
# 6 0.000000 0.000000 0.000000 0.000000 0.000000 0.045338
#
#
# Mechanical properties :
#
#
# Convention : Reuss Voigt Hill
#
# Bulk Modulus (GPa) = 21.37296 43.60737 32.49016
# Shear Modulus (GPa) = -6111.28392 30.40726 -3040.43833
#
# Velocity S-wave (km/s) = -57.86707 4.08182 -40.81628
# Velocity P-wave (km/s) = 66.73145 6.79037 46.94133
#
# Compressibility (1/GPa) = 0.04678810
#
# Stress axis : x y z
#
# Youngs Moduli (GPa) = 143.89736 -21.67457 97.72849
#
# Poissons Ratio (x) = 1.24047 1.07942
# Poissons Ratio (y) = -8.23548 0.81260
# Poissons Ratio (z) = 1.58936 -0.18022
#
# Static dielectric constant tensor:
#      x y z
#    x 1.617220 0.000000 0.000000 
#    y 0.000000 1.619790 0.000000 
#    z 0.000000 0.000000 1.611610 
# 
# From -- ./inp_files/31352.got.cif
#   From: 2010.05.17/outbox.ucp.g08.bks.cvg/sg51_16_cif.got.tgz:31352.got - 2010.06.11 16:27:58.
