data_PCOD9407109
_publ_section_title
;
Structure prediction by ZEFSAII (Michael W. Deem and Ramdas Pophale) SiO2 
 PCOD9407109
Probable space group: P M M A
;
_chemical_formula_sum "Si O2"
_cell_formula_units_Z 40
_cell_length_a 10.150372
_cell_length_b 25.379191
_cell_length_c 9.070847
_cell_angle_alpha 90.000000
_cell_angle_beta 90.000000
_cell_angle_gamma 90.000000
_cell_volume 2336.724838
_symmetry_space_group_name_H-M "P M M A"
_symmetry_group_IT_number 51
_symmetry_cell_setting 'orthorhombic'
loop_
_space_group_symop_operation_xyz
x,y,z
1/2-x,-y,z
1/2+x,-y,-z
-x,y,-z
-x,-y,-z
1/2+x,y,-z
1/2-x,y,z
x,-y,z
loop_
_atom_site_type_symbol
_atom_site_label
_atom_site_fract_x
_atom_site_fract_y
_atom_site_fract_z
Si Si1 0.250000 0.937604 0.329180
Si Si2 0.407356 0.770484 0.144508
Si Si3 0.403539 0.559354 0.362159
Si Si4 0.096517 0.653795 0.138551
Si Si5 0.750000 0.064019 0.321589
Si Si6 0.004731 0.117326 0.178860
O O1 0.250000 0.924496 0.503205
O O2 0.375483 0.915331 0.245021
O O3 0.250000 0.000000 0.320036
O O4 0.250000 0.779751 0.113717
O O5 0.418117 0.711921 0.211924
O O6 0.465763 0.821879 0.223884
O O7 0.500000 0.767015 0.000000
O O8 0.500000 0.564282 0.500000
O O9 0.250000 0.563831 0.407723
O O10 0.579294 0.500000 0.700281
O O11 0.429962 0.605660 0.247266
O O12 0.250000 0.650648 0.090868
O O13 0.000000 0.650521 0.000000
O O14 0.624998 0.091372 0.245858
O O15 0.750000 0.000000 0.302413
O O16 0.000000 0.115496 0.000000
#
# Coordination Sequence:
#
# PCOD9407109 Si02
#       6
#     4   8   8   8   4   8
#     4  11  23  41  59  79 113 149 176 217 278 333
#     4   9  18  33  55  80 108 139 174 222 274 318
#     4   9  18  33  52  74 106 146 184 225 270 314
#     4   9  18  33  53  78 108 139 176 219 268 323
#     4  11  25  41  57  81 115 149 178 219 282 335
#     4  11  22  37  61  86 108 140 186 231 267 324
#
# _framework density 17.117975999999999
#
# number of rings (size 3 to 8) (size 9 to 14) (size 15 to 20)
#    0.000    2.200    1.000    1.800    4.200    5.200 
#    0.000    2.000    0.000    0.000    0.000    0.000 
#    0.000    0.000    0.000    0.000    0.000    0.000 
#
# Total GULP energy -222770.606396 kJ/mol
# GULP energy per Si atom -5569.265160 kJ/mol
# Density = 1.707901 g / cm^3
# Si number density = 17.117976 Si / 1000 Ang^3
#
#
#
# Elastic Constant Matrix: (Units=GPa)
#
#
# Indices 1 2 3 4 5 6 
#
# 1 122.3726 79.6694 52.1064 0.0000 0.0000 0.0000
# 2 79.6694 160.5321 74.4659 0.0000 0.0000 0.0000
# 3 52.1064 74.4659 74.3488 0.0000 0.0000 0.0000
# 4 0.0000 0.0000 0.0000 723.9532 0.0000 0.0000
# 5 0.0000 0.0000 0.0000 0.0000 12.7091 0.0000
# 6 0.0000 0.0000 0.0000 0.0000 0.0000 28.6225
#
#
#
# Elastic Compliance Matrix: (Units=1/GPa)
#
#
# Indices 1 2 3 4 5 6 
#
# 1 0.012976 -0.004149 -0.004938 0.000000 0.000000 0.000000
# 2 -0.004149 0.012961 -0.010074 0.000000 0.000000 0.000000
# 3 -0.004938 -0.010074 0.027001 0.000000 0.000000 0.000000
# 4 0.000000 0.000000 0.000000 0.001381 0.000000 0.000000
# 5 0.000000 0.000000 0.000000 0.000000 0.078684 0.000000
# 6 0.000000 0.000000 0.000000 0.000000 0.000000 0.034938
#
#
# Mechanical properties :
#
#
# Convention : Reuss Voigt Hill
#
# Bulk Modulus (GPa) = 68.42121 85.52630 76.97376
# Shear Modulus (GPa) = 23.68152 163.12442 93.40297
#
# Velocity S-wave (km/s) = 3.72348 9.77247 7.39478
# Velocity P-wave (km/s) = 7.65134 13.31939 10.86161
#
# Compressibility (1/GPa) = 0.01461535
#
# Stress axis : x y z
#
# Youngs Moduli (GPa) = 77.06786 77.15266 37.03544
#
# Poissons Ratio (x) = 0.32009 0.18290
# Poissons Ratio (y) = 0.31974 0.37310
# Poissons Ratio (z) = 0.38060 0.77725
#
# Static dielectric constant tensor:
#      x y z
#    x 1.561670 0.000000 0.000000 
#    y 0.000000 1.618220 0.000000 
#    z 0.000000 0.000000 1.542860 
# 
# From -- ./inp_files/5535.got.cif
#   From: 2010.05.17/outbox.cif.g08.bks.cpg/sg51_3_cif.got.tgz:5535.got - 2010.06.03 11:52:47.
