data_PCOD9407354
_publ_section_title
;
Structure prediction by ZEFSAII (Michael W. Deem and Ramdas Pophale) SiO2 
 PCOD9407354
Probable space group: P M M A
;
_chemical_formula_sum "Si O2"
_cell_formula_units_Z 64
_cell_length_a 14.372287
_cell_length_b 7.717598
_cell_length_c 24.222808
_cell_angle_alpha 90.000000
_cell_angle_beta 90.000000
_cell_angle_gamma 90.000000
_cell_volume 2686.782561
_symmetry_space_group_name_H-M "P M M A"
_symmetry_group_IT_number 51
_symmetry_cell_setting 'orthorhombic'
loop_
_space_group_symop_operation_xyz
x,y,z
1/2-x,-y,z
1/2+x,-y,-z
-x,y,-z
-x,-y,-z
1/2+x,y,-z
1/2-x,y,z
x,-y,z
loop_
_atom_site_type_symbol
_atom_site_label
_atom_site_fract_x
_atom_site_fract_y
_atom_site_fract_z
Si Si1 0.544392 0.212627 0.303896
Si Si2 0.141643 0.705252 0.466028
Si Si3 0.145623 0.797537 0.345171
Si Si4 0.895444 0.701017 0.067362
Si Si5 0.382103 0.706072 0.050825
Si Si6 0.143445 0.791522 0.585393
Si Si7 0.849002 0.800252 0.828697
Si Si8 0.058398 0.792480 0.814500
O O1 0.436733 0.271810 0.307128
O O2 0.593844 0.273136 0.359567
O O3 0.591454 0.263360 0.246129
O O4 0.544212 0.000000 0.305636
O O5 0.250000 0.765158 0.469788
O O6 0.139707 0.500000 0.458408
O O7 0.108936 0.785263 0.408491
O O8 0.099972 0.744556 0.526041
O O9 0.250000 0.720969 0.342195
O O10 0.154344 0.000000 0.332254
O O11 0.870795 0.500000 0.065444
O O12 0.006367 0.719638 0.058155
O O13 0.882125 0.755258 0.130675
O O14 0.855950 0.775731 0.009945
O O15 0.360070 0.500000 0.053848
O O16 0.344187 0.796792 0.104781
O O17 0.250000 0.727467 0.585755
O O18 0.145054 0.000000 0.587620
O O19 0.750000 0.724529 0.808035
O O20 0.951578 0.722824 0.818385
O O21 0.851292 0.000000 0.809274
O O22 0.050560 0.000000 0.814157
#
# Coordination Sequence:
#
# PCOD9407354 Si02
#       8
#     8   8   8   8   8   8   8   8
#     4   9  18  31  47  69  93 119 158 198 225 262
#     4   9  17  30  48  70  96 121 146 184 234 283
#     4   9  17  30  48  68  92 124 157 187 222 267
#     4   8  14  26  43  62  83 106 137 179 220 257
#     4   8  14  25  42  62  82 107 140 176 215 259
#     4   9  17  31  51  70  88 114 149 190 234 277
#     4   9  17  27  40  62  91 118 144 179 222 264
#     4   9  17  29  44  62  86 117 151 184 219 261
#
# _framework density 23.820314
#
# number of rings (size 3 to 8) (size 9 to 14) (size 15 to 20)
#    0.000    3.250    0.000    1.125    0.000    3.250 
#    0.000    9.375    0.000    0.750    0.000    3.500 
#    0.000    0.000    0.000    0.000    0.000    0.000 
#
# Total GULP energy -356615.848932 kJ/mol
# GULP energy per Si atom -5572.122640 kJ/mol
# Density = 2.376610 g / cm^3
# Si number density = 23.820314 Si / 1000 Ang^3
#
#
#
# Elastic Constant Matrix: (Units=GPa)
#
#
# Indices 1 2 3 4 5 6 
#
# 1 42.7302 -0.5208 12.1339 0.0000 0.0000 0.0000
# 2 -0.5208 34.5064 2.8757 0.0000 0.0000 0.0000
# 3 12.1339 2.8757 177.7546 0.0000 0.0000 0.0000
# 4 0.0000 0.0000 0.0000 27.4517 0.0000 0.0000
# 5 0.0000 0.0000 0.0000 0.0000 56.3943 0.0000
# 6 0.0000 0.0000 0.0000 0.0000 0.0000 15.1008
#
#
#
# Elastic Compliance Matrix: (Units=1/GPa)
#
#
# Indices 1 2 3 4 5 6 
#
# 1 0.023874 0.000497 -0.001638 0.000000 0.000000 0.000000
# 2 0.000497 0.029030 -0.000504 0.000000 0.000000 0.000000
# 3 -0.001638 -0.000504 0.005746 0.000000 0.000000 0.000000
# 4 0.000000 0.000000 0.000000 0.036428 0.000000 0.000000
# 5 0.000000 0.000000 0.000000 0.000000 0.017732 0.000000
# 6 0.000000 0.000000 0.000000 0.000000 0.000000 0.066222
#
#
# Mechanical properties :
#
#
# Convention : Reuss Voigt Hill
#
# Bulk Modulus (GPa) = 18.06354 31.55208 24.80781
# Shear Modulus (GPa) = 24.90376 35.82285 30.36331
#
# Velocity S-wave (km/s) = 3.23690 3.88219 3.57414
# Velocity P-wave (km/s) = 4.64433 5.77667 5.24117
#
# Compressibility (1/GPa) = 0.05536014
#
# Stress axis : x y z
#
# Youngs Moduli (GPa) = 41.88701 34.44759 174.04395
#
# Poissons Ratio (x) = -0.01711 0.28503
# Poissons Ratio (y) = -0.02081 0.08764
# Poissons Ratio (z) = 0.06860 0.01735
#
# Static dielectric constant tensor:
#      x y z
#    x 1.952710 0.000000 0.000000 
#    y 0.000000 1.888940 0.000000 
#    z 0.000000 0.000000 1.953570 
# 
# From -- ./inp_files/33916.got.cif
#   From: 2010.05.17/outbox.cif.g08.bks.cpg/sg51_17_cif.got.tgz:33916.got - 2010.06.03 11:52:47.
