data_PCOD9407981
_publ_section_title
;
Structure prediction by ZEFSAII (Michael W. Deem and Ramdas Pophale) SiO2 
 PCOD9407981
Probable space group: P N N A
;
_chemical_formula_sum "Si O2"
_cell_formula_units_Z 56
_cell_length_a 14.824889
_cell_length_b 20.003861
_cell_length_c 9.582005
_cell_angle_alpha 90.000000
_cell_angle_beta 90.000000
_cell_angle_gamma 90.000000
_cell_volume 2841.591674
_symmetry_space_group_name_H-M "P N N A"
_symmetry_group_IT_number 52
_symmetry_cell_setting 'orthorhombic'
loop_
_space_group_symop_operation_xyz
x,y,z
1/2-x,-y,z
x,1/2-y,1/2-z
1/2-x,1/2+y,1/2-z
-x,-y,-z
1/2+x,y,-z
-x,1/2+y,1/2+z
1/2+x,1/2-y,1/2+z
loop_
_atom_site_type_symbol
_atom_site_label
_atom_site_fract_x
_atom_site_fract_y
_atom_site_fract_z
Si Si1 0.350269 0.250000 0.750000
Si Si2 0.008099 0.163996 0.365812
Si Si3 0.411325 0.033656 0.622847
Si Si4 0.730262 0.576304 0.906450
Si Si5 0.250000 0.000000 0.836526
Si Si6 0.306467 0.680498 0.297887
Si Si7 0.104865 0.384740 0.888535
Si Si8 0.792080 0.647273 0.386880
O O1 0.420283 0.209317 0.653157
O O2 0.287097 0.305275 0.675185
O O3 0.093804 0.179058 0.269326
O O4 0.045026 0.165711 0.523140
O O5 0.982062 0.087728 0.326612
O O6 0.362836 0.068746 0.490469
O O7 0.332554 0.020126 0.735661
O O8 0.443566 0.957497 0.603905
O O9 0.750000 0.500000 0.866669
O O10 0.746138 0.622856 0.773611
O O11 0.803347 0.601893 0.021945
O O12 0.268080 0.930851 0.914884
O O13 0.263610 0.750000 0.250000
O O14 0.316864 0.676531 0.463493
O O15 0.133527 0.359315 0.736547
#
# Coordination Sequence:
#
# PCOD9407981 Si02
#       8
#     4   8   8   8   4   8   8   8
#     4  12  24  38  70  88 122 174 204 266 314 380
#     4  11  22  38  61  92 127 160 204 257 324 370
#     4  10  16  36  67  91 119 157 217 254 298 367
#     4   9  17  36  62  89 117 162 209 249 296 370
#     4  10  18  38  64 100 122 158 220 266 290 378
#     4  11  26  40  58  89 133 163 202 260 322 376
#     4   9  19  38  64  91 118 161 207 259 306 373
#     4  11  24  41  68  91 124 170 214 252 321 377
#
# _framework density 19.707266000000001
#
# number of rings (size 3 to 8) (size 9 to 14) (size 15 to 20)
#    0.000    1.714    5.714    0.429    7.000    0.000 
#    0.000    4.286    3.143    0.000    0.000    0.000 
#    0.000    0.000    0.000    0.000    0.000    0.000 
#
# Total GULP energy -312144.502585 kJ/mol
# GULP energy per Si atom -5574.008975 kJ/mol
# Density = 1.966241 g / cm^3
# Si number density = 19.707266 Si / 1000 Ang^3
#
#
#
# Elastic Constant Matrix: (Units=GPa)
#
#
# Indices 1 2 3 4 5 6 
#
# 1 41.8426 40.9840 20.4888 0.0000 0.0000 0.0000
# 2 40.9840 103.6845 67.1225 0.0000 0.0000 0.0000
# 3 20.4888 67.1225 116.6706 0.0000 0.0000 0.0000
# 4 0.0000 0.0000 0.0000 13.5351 0.0000 0.0000
# 5 0.0000 0.0000 0.0000 0.0000 -2.4267 0.0000
# 6 0.0000 0.0000 0.0000 0.0000 0.0000 29.4885
#
#
#
# Elastic Compliance Matrix: (Units=1/GPa)
#
#
# Indices 1 2 3 4 5 6 
#
# 1 0.039771 -0.017846 0.003283 0.000000 0.000000 0.000000
# 2 -0.017846 0.023376 -0.010315 0.000000 0.000000 0.000000
# 3 0.003283 -0.010315 0.013929 0.000000 0.000000 0.000000
# 4 0.000000 0.000000 0.000000 0.073882 0.000000 0.000000
# 5 0.000000 0.000000 0.000000 0.000000 -0.412076 0.000000
# 6 0.000000 0.000000 0.000000 0.000000 0.000000 0.033911
#
#
# Mechanical properties :
#
#
# Convention : Reuss Voigt Hill
#
# Bulk Modulus (GPa) = 36.60246 57.70980 47.15613
# Shear Modulus (GPa) = -29.70107 17.02621 -6.33743
#
# Velocity S-wave (km/s) = -3.88637 2.94250 -1.79521
# Velocity P-wave (km/s) = 1.23493 6.39465 4.43658
#
# Compressibility (1/GPa) = 0.02732056
#
# Stress axis : x y z
#
# Youngs Moduli (GPa) = 25.14386 42.77885 71.79322
#
# Poissons Ratio (x) = 0.76341 -0.23567
# Poissons Ratio (y) = 0.44871 0.74053
# Poissons Ratio (z) = -0.08254 0.44125
#
# Static dielectric constant tensor:
#      x y z
#    x 1.717740 0.000000 0.000000 
#    y 0.000000 2.004670 0.000000 
#    z 0.000000 0.000000 1.698700 
# 
# From -- ./inp_files/10847.got.cif
#   From: 2010.05.17/outbox.cif.g08.bks.cpg/sg52_6_cif.got.tgz:10847.got - 2010.06.03 12:15:38.
