data_PCOD9407427
_publ_section_title
;
Structure prediction by ZEFSAII (Michael W. Deem and Ramdas Pophale) SiO2 
 PCOD9407427
Probable space group: P M M A
;
_chemical_formula_sum "Si O2"
_cell_formula_units_Z 64
_cell_length_a 24.000000
_cell_length_b 9.000000
_cell_length_c 18.000000
_cell_angle_alpha 90.000000
_cell_angle_beta 90.000000
_cell_angle_gamma 90.000000
_cell_volume 3888.000000
_symmetry_space_group_name_H-M "P M M A"
_symmetry_group_IT_number 51
_symmetry_cell_setting 'orthorhombic'
loop_
_space_group_symop_operation_xyz
x,y,z
1/2-x,-y,z
1/2+x,-y,-z
-x,y,-z
-x,-y,-z
1/2+x,y,-z
1/2-x,y,z
x,-y,z
loop_
_atom_site_type_symbol
_atom_site_label
_atom_site_fract_x
_atom_site_fract_y
_atom_site_fract_z
Si Si1 0.430577 0.175467 0.649661
Si Si2 0.403938 0.676537 0.192257
Si Si3 0.004858 0.821169 0.086543
Si Si4 0.313951 0.322839 0.078883
Si Si5 0.185355 0.821550 0.930524
Si Si6 0.435132 0.173755 0.345399
Si Si7 0.398579 0.179948 0.810859
Si Si8 0.432211 0.671241 0.497589
O O1 0.497559 0.189598 0.657057
O O2 0.405856 0.235168 0.727056
O O3 0.412565 0.256685 0.574567
O O4 0.418480 0.000000 0.642183
O O5 0.411394 0.500000 0.198042
O O6 0.446756 0.741707 0.132046
O O7 0.344793 0.710468 0.155046
O O8 0.412129 0.748054 0.272295
O O9 0.949830 0.786551 0.134485
O O10 0.013226 0.000000 0.088466
O O11 0.000000 0.777745 0.000000
O O12 0.250000 0.275685 0.083935
O O13 0.316472 0.500000 0.067087
O O14 0.339393 0.244978 0.006226
O O15 0.250000 0.780754 0.927429
O O16 0.155088 0.769936 0.856205
O O17 0.180538 0.000000 0.934723
O O18 0.415288 0.243876 0.422873
O O19 0.422374 0.000000 0.343677
O O20 0.397308 0.000000 0.804554
O O21 0.500000 0.678316 0.500000
O O22 0.415967 0.500000 0.493145
#
# Coordination Sequence:
#
# PCOD9407427 Si02
#       8
#     8   8   8   8   8   8   8   8
#     4   9  16  28  44  62  89 125 158 183 219 277
#     4  11  21  31  46  68  94 120 152 194 234 270
#     4  10  19  31  46  63  89 127 160 184 222 279
#     4   9  19  35  50  64  88 122 156 191 236 283
#     4   9  17  30  50  72  90 114 156 205 239 263
#     4  10  18  30  47  66  91 124 157 183 222 279
#     4   9  16  28  44  66  94 123 153 187 228 274
#     4   9  17  28  43  65  93 120 150 189 231 265
#
# _framework density 16.460905
#
# number of rings (size 3 to 8) (size 9 to 14) (size 15 to 20)
#    0.000    2.500    1.250    1.875    0.000    4.250 
#    0.000    1.250    0.000    0.000    0.000    0.875 
#    0.000    3.000    0.000    0.000    0.000    0.000 
#
# Total GULP energy -356509.443799 kJ/mol
# GULP energy per Si atom -5570.460059 kJ/mol
# Density = 1.642344 g / cm^3
# Si number density = 16.460905 Si / 1000 Ang^3
#
#
#
# Elastic Constant Matrix: (Units=GPa)
#
#
# Indices 1 2 3 4 5 6 
#
# 1 36.8218 32.6216 49.4613 0.0000 0.0000 0.0000
# 2 32.6216 36.8397 70.3072 0.0000 0.0000 0.0000
# 3 49.4613 70.3072 200.0105 0.0000 0.0000 0.0000
# 4 0.0000 0.0000 0.0000 -96.4932 0.0000 0.0000
# 5 0.0000 0.0000 0.0000 0.0000 13.2326 0.0000
# 6 0.0000 0.0000 0.0000 0.0000 0.0000 8.7225
#
#
#
# Elastic Compliance Matrix: (Units=1/GPa)
#
#
# Indices 1 2 3 4 5 6 
#
# 1 0.183547 -0.230618 0.035676 0.000000 0.000000 0.000000
# 2 -0.230618 0.372232 -0.073816 0.000000 0.000000 0.000000
# 3 0.035676 -0.073816 0.022125 0.000000 0.000000 0.000000
# 4 0.000000 0.000000 0.000000 -0.010363 0.000000 0.000000
# 5 0.000000 0.000000 0.000000 0.000000 0.075571 0.000000
# 6 0.000000 0.000000 0.000000 0.000000 0.000000 0.114646
#
#
# Mechanical properties :
#
#
# Convention : Reuss Voigt Hill
#
# Bulk Modulus (GPa) = 24.75940 64.27245 44.51593
# Shear Modulus (GPa) = 3.82049 -6.82215 -1.50083
#
# Velocity S-wave (km/s) = 1.52512 -2.03800 -0.95590
# Velocity P-wave (km/s) = 4.26325 5.79589 5.08761
#
# Compressibility (1/GPa) = 0.04038869
#
# Stress axis : x y z
#
# Youngs Moduli (GPa) = 5.44820 2.68650 45.19831
#
# Poissons Ratio (x) = 0.61956 -1.61251
# Poissons Ratio (y) = 1.25645 3.33634
# Poissons Ratio (z) = -0.19437 0.19831
#
# Static dielectric constant tensor:
#      x y z
#    x 1.570240 0.000000 0.000000 
#    y 0.000000 1.551530 0.000000 
#    z 0.000000 0.000000 1.554390 
# 
# From -- ./inp_files/30917.got.cif
#   From: 2010.05.17/outbox.ucp.g08.bks.cvg/sg51_16_cif.got.tgz:30917.got - 2010.06.11 16:27:58.
