data_PCOD9407988
_publ_section_title
;
Structure prediction by ZEFSAII (Michael W. Deem and Ramdas Pophale) SiO2 
 PCOD9407988
Probable space group: P N N A
;
_chemical_formula_sum "Si O2"
_cell_formula_units_Z 28
_cell_length_a 5.070726
_cell_length_b 9.221216
_cell_length_c 25.732213
_cell_angle_alpha 90.000000
_cell_angle_beta 90.000000
_cell_angle_gamma 90.000000
_cell_volume 1203.193499
_symmetry_space_group_name_H-M "P N N A"
_symmetry_group_IT_number 52
_symmetry_cell_setting 'orthorhombic'
loop_
_space_group_symop_operation_xyz
x,y,z
1/2-x,-y,z
x,1/2-y,1/2-z
1/2-x,1/2+y,1/2-z
-x,-y,-z
1/2+x,y,-z
-x,1/2+y,1/2+z
1/2+x,1/2-y,1/2+z
loop_
_atom_site_type_symbol
_atom_site_label
_atom_site_fract_x
_atom_site_fract_y
_atom_site_fract_z
Si Si1 0.654268 0.168420 0.304820
Si Si2 0.250000 0.500000 0.051521
Si Si3 0.884275 0.307838 0.528793
Si Si4 0.365791 0.722642 0.128616
O O1 0.635947 0.250000 0.250000
O O2 0.372058 0.178577 0.333226
O O3 0.874169 0.253496 0.338999
O O4 0.750000 0.000000 0.299592
O O5 0.098981 0.631228 0.024902
O O6 0.440070 0.587868 0.091016
O O7 0.672226 0.356174 0.486312
O O8 0.761822 0.331064 0.585860
#
# Coordination Sequence:
#
# PCOD9407988 Si02
#       4
#     8   4   8   8
#     4  12  21  38  53  75 100 138 173 213 257 296
#     4   8  18  26  46  60 114 120 184 168 274 276
#     4  10  17  25  42  67 100 136 162 189 243 310
#     4  10  21  31  49  71 106 135 168 207 255 303
#
# _framework density 23.271401000000001
#
# number of rings (size 3 to 8) (size 9 to 14) (size 15 to 20)
#    1.714    0.000    2.857    3.429    0.000    2.286 
#    0.000    0.000    0.000    0.000    0.000    0.000 
#    0.000   22.857    0.000    0.000    0.000    0.000 
#
# Total GULP energy -156085.161002 kJ/mol
# GULP energy per Si atom -5574.470036 kJ/mol
# Density = 2.321843 g / cm^3
# Si number density = 23.271401 Si / 1000 Ang^3
#
#
#
# Elastic Constant Matrix: (Units=GPa)
#
#
# Indices 1 2 3 4 5 6 
#
# 1 101.7297 21.6402 32.4722 0.0000 0.0000 0.0000
# 2 21.6402 103.4307 29.7791 0.0000 0.0000 0.0000
# 3 32.4722 29.7791 121.9082 0.0000 0.0000 0.0000
# 4 0.0000 0.0000 0.0000 325.9983 0.0000 0.0000
# 5 0.0000 0.0000 0.0000 0.0000 44.7935 0.0000
# 6 0.0000 0.0000 0.0000 0.0000 0.0000 6.8879
#
#
#
# Elastic Compliance Matrix: (Units=1/GPa)
#
#
# Indices 1 2 3 4 5 6 
#
# 1 0.010974 -0.001564 -0.002541 0.000000 0.000000 0.000000
# 2 -0.001564 0.010623 -0.002178 0.000000 0.000000 0.000000
# 3 -0.002541 -0.002178 0.009412 0.000000 0.000000 0.000000
# 4 0.000000 0.000000 0.000000 0.003068 0.000000 0.000000
# 5 0.000000 0.000000 0.000000 0.000000 0.022325 0.000000
# 6 0.000000 0.000000 0.000000 0.000000 0.000000 0.145183
#
#
# Mechanical properties :
#
#
# Convention : Reuss Voigt Hill
#
# Bulk Modulus (GPa) = 54.22594 54.98352 54.60473
# Shear Modulus (GPa) = 22.69661 91.74774 57.22217
#
# Velocity S-wave (km/s) = 3.12637 6.28575 4.96411
# Velocity P-wave (km/s) = 6.03195 8.73838 7.50812
#
# Compressibility (1/GPa) = 0.01844136
#
# Stress axis : x y z
#
# Youngs Moduli (GPa) = 91.12599 94.13762 106.24988
#
# Poissons Ratio (x) = 0.14727 0.26997
# Poissons Ratio (y) = 0.14256 0.23143
# Poissons Ratio (z) = 0.23154 0.20505
#
# Static dielectric constant tensor:
#      x y z
#    x 1.844620 0.000000 0.000000 
#    y 0.000000 2.044550 0.000000 
#    z 0.000000 0.000000 1.896240 
# 
# From -- ./inp_files/38515.got.cif
#   From: 2010.05.17/outbox.cif.g08.bks.cpg/sg52_20_cif.got.tgz:38515.got - 2010.06.03 12:15:38.
