data_PCOD9407919
_publ_section_title
;
Structure prediction by ZEFSAII (Michael W. Deem and Ramdas Pophale) SiO2 
 PCOD9407919
Probable space group: P N N A
;
_chemical_formula_sum "Si O2"
_cell_formula_units_Z 24
_cell_length_a 5.139518
_cell_length_b 17.854628
_cell_length_c 9.670520
_cell_angle_alpha 90.000000
_cell_angle_beta 90.000000
_cell_angle_gamma 90.000000
_cell_volume 887.407357
_symmetry_space_group_name_H-M "P N N A"
_symmetry_group_IT_number 52
_symmetry_cell_setting 'orthorhombic'
loop_
_space_group_symop_operation_xyz
x,y,z
1/2-x,-y,z
x,1/2-y,1/2-z
1/2-x,1/2+y,1/2-z
-x,-y,-z
1/2+x,y,-z
-x,1/2+y,1/2+z
1/2+x,1/2-y,1/2+z
loop_
_atom_site_type_symbol
_atom_site_label
_atom_site_fract_x
_atom_site_fract_y
_atom_site_fract_z
Si Si1 0.362467 0.282529 0.408276
Si Si2 0.992684 0.951252 0.151739
Si Si3 0.931440 0.916275 0.447239
O O1 0.377486 0.250000 0.250000
O O2 0.101452 0.263189 0.490972
O O3 0.392220 0.373795 0.404680
O O4 0.653051 0.077787 0.290614
O O5 0.250000 0.000000 0.192366
O O6 0.750000 0.000000 0.083670
O O7 0.212739 0.880531 0.459135
O O8 0.000000 0.000000 0.500000
#
# Coordination Sequence:
#
# PCOD9407919 Si02
#       3
#     8   8   8
#     4  12  30  56  81 116 162 221 274 329 413 488
#     4  12  23  40  73 114 152 193 258 334 396 469
#     4  10  16  30  51  93 146 181 238 290 368 456
#
# _framework density 27.045076999999999
#
# number of rings (size 3 to 8) (size 9 to 14) (size 15 to 20)
#    0.000    0.667    6.667    3.000    0.000    6.667 
#    0.000    0.000    0.000    0.000    0.000    0.000 
#    0.000    0.000    0.000    0.000    0.000    0.000 
#
# Total GULP energy -134072.636096 kJ/mol
# GULP energy per Si atom -5586.359837 kJ/mol
# Density = 2.698352 g / cm^3
# Si number density = 27.045077 Si / 1000 Ang^3
#
#
#
# Elastic Constant Matrix: (Units=GPa)
#
#
# Indices 1 2 3 4 5 6 
#
# 1 199.9344 27.5795 23.6024 0.0000 0.0000 0.0000
# 2 27.5795 152.1805 17.8211 0.0000 0.0000 0.0000
# 3 23.6024 17.8211 155.6198 0.0000 0.0000 0.0000
# 4 0.0000 0.0000 0.0000 84.0327 0.0000 0.0000
# 5 0.0000 0.0000 0.0000 0.0000 -81.4081 0.0000
# 6 0.0000 0.0000 0.0000 0.0000 0.0000 44.2940
#
#
#
# Elastic Compliance Matrix: (Units=1/GPa)
#
#
# Indices 1 2 3 4 5 6 
#
# 1 0.005202 -0.000862 -0.000690 0.000000 0.000000 0.000000
# 2 -0.000862 0.006803 -0.000648 0.000000 0.000000 0.000000
# 3 -0.000690 -0.000648 0.006605 0.000000 0.000000 0.000000
# 4 0.000000 0.000000 0.000000 0.011900 0.000000 0.000000
# 5 0.000000 0.000000 0.000000 0.000000 -0.012284 0.000000
# 6 0.000000 0.000000 0.000000 0.000000 0.000000 0.022576
#
#
# Mechanical properties :
#
#
# Convention : Reuss Voigt Hill
#
# Bulk Modulus (GPa) = 70.37773 71.74896 71.06335
# Shear Modulus (GPa) = 100.11939 38.63250 69.37595
#
# Velocity S-wave (km/s) = 6.09096 3.78358 5.07027
# Velocity P-wave (km/s) = 8.69168 6.75828 7.78523
#
# Compressibility (1/GPa) = 0.01420904
#
# Stress axis : x y z
#
# Youngs Moduli (GPa) = 192.23291 146.98802 151.40375
#
# Poissons Ratio (x) = 0.12669 0.10451
# Poissons Ratio (y) = 0.16569 0.09816
# Poissons Ratio (z) = 0.13269 0.09530
#
# Static dielectric constant tensor:
#      x y z
#    x 2.485090 0.000000 0.000000 
#    y 0.000000 2.504020 0.000000 
#    z 0.000000 0.000000 2.076300 
# 
# From -- ./inp_files/23384.got.cif
#   From: 2010.05.17/outbox.cif.g08.bks.cpg/sg52_12_cif.got.tgz:23384.got - 2010.06.03 12:15:38.
