data_PCOD9407522
_publ_section_title
;
Structure prediction by ZEFSAII (Michael W. Deem and Ramdas Pophale) SiO2 
 PCOD9407522
Probable space group: P M M A
;
_chemical_formula_sum "Si O2"
_cell_formula_units_Z 40
_cell_length_a 21.000000
_cell_length_b 9.000000
_cell_length_c 12.000000
_cell_angle_alpha 90.000000
_cell_angle_beta 90.000000
_cell_angle_gamma 90.000000
_cell_volume 2268.000000
_symmetry_space_group_name_H-M "P M M A"
_symmetry_group_IT_number 51
_symmetry_cell_setting 'orthorhombic'
loop_
_space_group_symop_operation_xyz
x,y,z
1/2-x,-y,z
1/2+x,-y,-z
-x,y,-z
-x,-y,-z
1/2+x,y,-z
1/2-x,y,z
x,-y,z
loop_
_atom_site_type_symbol
_atom_site_label
_atom_site_fract_x
_atom_site_fract_y
_atom_site_fract_z
Si Si1 0.101794 0.825902 0.801240
Si Si2 0.073311 0.171011 0.458556
Si Si3 0.423115 0.667670 0.014474
Si Si4 0.966105 0.674120 0.753693
Si Si5 0.324125 0.676834 0.617673
O O1 0.155939 0.732409 0.739868
O O2 0.031813 0.766579 0.763285
O O3 0.106639 0.000000 0.777345
O O4 0.104432 0.787489 0.931448
O O5 0.071143 0.279796 0.354814
O O6 0.125496 0.233340 0.542952
O O7 0.000000 0.174058 0.500000
O O8 0.087536 0.000000 0.430352
O O9 0.400622 0.500000 0.989058
O O10 0.418908 0.702753 0.143621
O O11 0.500000 0.665300 0.000000
O O12 0.983554 0.500000 0.755313
O O13 0.250000 0.708589 0.593719
O O14 0.334244 0.500000 0.606999
#
# Coordination Sequence:
#
# PCOD9407522 Si02
#       5
#     8   8   8   8   8
#     4  11  20  31  51  79 110 142 176 221 277 327
#     4  11  22  35  55  84 113 144 182 228 283 333
#     4   8  16  30  48  74 106 140 176 214 261 314
#     4  10  19  32  53  79 109 145 182 224 269 319
#     4  11  24  40  58  79 106 146 190 229 275 332
#
# _framework density 17.636683999999999
#
# number of rings (size 3 to 8) (size 9 to 14) (size 15 to 20)
#    0.000    1.800    2.000    4.800    0.000    6.800 
#    0.000    0.000    0.000    1.200    0.000    8.400 
#    0.000    0.000    0.000    0.000    0.000    0.000 
#
# Total GULP energy -222880.313741 kJ/mol
# GULP energy per Si atom -5572.007844 kJ/mol
# Density = 1.759654 g / cm^3
# Si number density = 17.636684 Si / 1000 Ang^3
#
#
#
# Elastic Constant Matrix: (Units=GPa)
#
#
# Indices 1 2 3 4 5 6 
#
# 1 57.0822 19.5934 4.4255 0.0000 0.0000 0.0000
# 2 19.5934 26.4461 -1.5105 0.0000 0.0000 0.0000
# 3 4.4255 -1.5105 52.4443 0.0000 0.0000 0.0000
# 4 0.0000 0.0000 0.0000 4.9451 0.0000 0.0000
# 5 0.0000 0.0000 0.0000 0.0000 9.9415 0.0000
# 6 0.0000 0.0000 0.0000 0.0000 0.0000 8.4523
#
#
#
# Elastic Compliance Matrix: (Units=1/GPa)
#
#
# Indices 1 2 3 4 5 6 
#
# 1 0.023822 -0.017793 -0.002523 0.000000 0.000000 0.000000
# 2 -0.017793 0.051165 0.002975 0.000000 0.000000 0.000000
# 3 -0.002523 0.002975 0.019366 0.000000 0.000000 0.000000
# 4 0.000000 0.000000 0.000000 0.202221 0.000000 0.000000
# 5 0.000000 0.000000 0.000000 0.000000 0.100588 0.000000
# 6 0.000000 0.000000 0.000000 0.000000 0.000000 0.118311
#
#
# Mechanical properties :
#
#
# Convention : Reuss Voigt Hill
#
# Bulk Modulus (GPa) = 16.75825 20.10992 18.43409
# Shear Modulus (GPa) = 8.77123 12.23207 10.50165
#
# Velocity S-wave (km/s) = 2.23251 2.63641 2.44282
# Velocity P-wave (km/s) = 4.02095 4.54913 4.29317
#
# Compressibility (1/GPa) = 0.05967211
#
# Stress axis : x y z
#
# Youngs Moduli (GPa) = 41.97872 19.54452 51.63580
#
# Poissons Ratio (x) = 0.34776 0.13026
# Poissons Ratio (y) = 0.74693 -0.15362
# Poissons Ratio (z) = 0.10590 -0.05815
#
# Static dielectric constant tensor:
#      x y z
#    x 1.577020 0.000000 0.000000 
#    y 0.000000 1.575250 0.000000 
#    z 0.000000 0.000000 1.727250 
# 
# From -- ./inp_files/17881.got.cif
#   From: 2010.05.17/outbox.ucp.g08.bks.cvg/sg51_9_cif.got.tgz:17881.got - 2010.06.11 16:27:58.
