data_PCOD9407615
_publ_section_title
;
Structure prediction by ZEFSAII (Michael W. Deem and Ramdas Pophale) SiO2 
 PCOD9407615
Probable space group: P M M A
;
_chemical_formula_sum "Si O2"
_cell_formula_units_Z 52
_cell_length_a 9.000000
_cell_length_b 21.000000
_cell_length_c 15.000000
_cell_angle_alpha 90.000000
_cell_angle_beta 90.000000
_cell_angle_gamma 90.000000
_cell_volume 2835.000000
_symmetry_space_group_name_H-M "P M M A"
_symmetry_group_IT_number 51
_symmetry_cell_setting 'orthorhombic'
loop_
_space_group_symop_operation_xyz
x,y,z
1/2-x,-y,z
1/2+x,-y,-z
-x,y,-z
-x,-y,-z
1/2+x,y,-z
1/2-x,y,z
x,-y,z
loop_
_atom_site_type_symbol
_atom_site_label
_atom_site_fract_x
_atom_site_fract_y
_atom_site_fract_z
Si Si1 0.928550 0.428882 0.728479
Si Si2 0.927828 0.766919 0.093694
Si Si3 0.070813 0.000000 0.900359
Si Si4 0.071127 0.167814 0.402508
Si Si5 0.072103 0.381870 0.905654
Si Si6 0.428632 0.684040 0.404201
Si Si7 0.570622 0.120957 0.225540
O O1 0.750000 0.424218 0.739346
O O2 0.961162 0.500000 0.692476
O O3 0.976432 0.370197 0.665559
O O4 0.005674 0.420524 0.823735
O O5 0.750000 0.770602 0.084646
O O6 0.966520 0.693054 0.110291
O O7 0.971865 0.814938 0.171678
O O8 0.000000 0.786267 0.000000
O O9 0.031823 0.938269 0.839501
O O10 0.250000 0.000000 0.911857
O O11 0.000000 0.000000 0.000000
O O12 0.250000 0.162038 0.407383
O O13 0.033711 0.242421 0.380960
O O14 0.000000 0.154248 0.500000
O O15 0.006162 0.125054 0.322252
O O16 0.250000 0.387705 0.910013
O O17 0.000000 0.400122 0.000000
O O18 0.500000 0.670891 0.500000
O O19 0.250000 0.680955 0.411212
O O20 0.750000 0.119867 0.237586
#
# Coordination Sequence:
#
# PCOD9407615 Si02
#       7
#     8   8   4   8   8   8   8
#     4  10  21  36  52  72 101 136 172 211 256 309
#     4   9  18  31  50  76 104 133 168 214 263 310
#     4  10  22  38  57  82 115 152 185 218 256 304
#     4  10  20  35  57  83 108 137 174 218 266 313
#     4  10  20  34  52  74  99 130 170 216 265 313
#     4   9  19  35  55  80 108 136 169 212 262 313
#     4  10  20  35  54  79 111 144 178 217 260 305
#
# _framework density 18.342151999999999
#
# number of rings (size 3 to 8) (size 9 to 14) (size 15 to 20)
#    0.000    2.308    0.000    2.308    0.000    4.000 
#    0.000    0.385    0.000    0.000    0.000    0.000 
#    0.000    0.000    0.000    0.000    0.000    0.000 
#
# Total GULP energy -290205.632352 kJ/mol
# GULP energy per Si atom -5580.877545 kJ/mol
# Density = 1.830040 g / cm^3
# Si number density = 18.342152 Si / 1000 Ang^3
#
#
#
# Elastic Constant Matrix: (Units=GPa)
#
#
# Indices 1 2 3 4 5 6 
#
# 1 28.4626 27.6236 39.2146 0.0000 0.0000 0.0000
# 2 27.6236 63.7997 62.2213 0.0000 0.0000 0.0000
# 3 39.2146 62.2213 141.1145 0.0000 0.0000 0.0000
# 4 0.0000 0.0000 0.0000 27.1443 0.0000 0.0000
# 5 0.0000 0.0000 0.0000 0.0000 39.6322 0.0000
# 6 0.0000 0.0000 0.0000 0.0000 0.0000 17.6427
#
#
#
# Elastic Compliance Matrix: (Units=1/GPa)
#
#
# Indices 1 2 3 4 5 6 
#
# 1 0.068356 -0.019423 -0.010432 0.000000 0.000000 0.000000
# 2 -0.019423 0.033018 -0.009161 0.000000 0.000000 0.000000
# 3 -0.010432 -0.009161 0.014025 0.000000 0.000000 0.000000
# 4 0.000000 0.000000 0.000000 0.036840 0.000000 0.000000
# 5 0.000000 0.000000 0.000000 0.000000 0.025232 0.000000
# 6 0.000000 0.000000 0.000000 0.000000 0.000000 0.056681
#
#
# Mechanical properties :
#
#
# Convention : Reuss Voigt Hill
#
# Bulk Modulus (GPa) = 26.76095 54.61065 40.68580
# Shear Modulus (GPa) = 15.40170 23.83832 19.62001
#
# Velocity S-wave (km/s) = 2.90088 3.60897 3.27413
# Velocity P-wave (km/s) = 5.08347 6.87053 6.04342
#
# Compressibility (1/GPa) = 0.03736787
#
# Stress axis : x y z
#
# Youngs Moduli (GPa) = 14.62922 30.28634 71.30279
#
# Poissons Ratio (x) = 0.58825 0.74380
# Poissons Ratio (y) = 0.28414 0.65322
# Poissons Ratio (z) = 0.15261 0.27746
#
# Static dielectric constant tensor:
#      x y z
#    x 1.606180 0.000000 0.000000 
#    y 0.000000 1.657500 0.000000 
#    z 0.000000 0.000000 1.602770 
# 
# From -- ./inp_files/21605.got.cif
#   From: 2010.05.17/outbox.ucp.g08.bks.cvg/sg51_11_cif.got.tgz:21605.got - 2010.06.11 16:27:58.
