data_PCOD9407286
_publ_section_title
;
Structure prediction by ZEFSAII (Michael W. Deem and Ramdas Pophale) SiO2 
 PCOD9407286
Probable space group: P M M A
;
_chemical_formula_sum "Si O2"
_cell_formula_units_Z 40
_cell_length_a 9.767489
_cell_length_b 7.357006
_cell_length_c 26.733368
_cell_angle_alpha 90.000000
_cell_angle_beta 90.000000
_cell_angle_gamma 90.000000
_cell_volume 1921.045794
_symmetry_space_group_name_H-M "P M M A"
_symmetry_group_IT_number 51
_symmetry_cell_setting 'orthorhombic'
loop_
_space_group_symop_operation_xyz
x,y,z
1/2-x,-y,z
1/2+x,-y,-z
-x,y,-z
-x,-y,-z
1/2+x,y,-z
1/2-x,y,z
x,-y,z
loop_
_atom_site_type_symbol
_atom_site_label
_atom_site_fract_x
_atom_site_fract_y
_atom_site_fract_z
Si Si1 0.906406 0.284018 0.638610
Si Si2 0.094534 0.217827 0.247992
Si Si3 0.591865 0.221588 0.157342
Si Si4 0.908408 0.778593 0.046034
Si Si5 0.091965 0.278045 0.547422
O O1 0.750000 0.212195 0.633677
O O2 0.896999 0.500000 0.630806
O O3 0.953484 0.255412 0.695600
O O4 0.012799 0.216541 0.597372
O O5 0.250000 0.286995 0.243924
O O6 0.999698 0.285711 0.203300
O O7 0.099675 0.000000 0.243193
O O8 0.750000 0.275840 0.163246
O O9 0.544972 0.276988 0.101692
O O10 0.590028 0.000000 0.157817
O O11 0.750000 0.725101 0.040095
O O12 0.911054 0.000000 0.045517
O O13 0.000000 0.715551 0.000000
O O14 0.250000 0.218717 0.544515
O O15 0.095215 0.500000 0.547583
O O16 0.000000 0.223989 0.500000
#
# Coordination Sequence:
#
# PCOD9407286 Si02
#       5
#     8   8   8   8   8
#     4   9  17  29  44  62  85 110 134 164 202 239
#     4   9  17  28  42  60  81 107 139 170 198 233
#     4   8  14  24  36  51  74 104 135 165 199 240
#     4   8  13  20  30  46  69  97 128 161 197 236
#     4   9  16  26  42  64  87 109 134 165 201 240
#
# _framework density 20.82199
#
# number of rings (size 3 to 8) (size 9 to 14) (size 15 to 20)
#    0.000    3.400    0.000    1.800    0.000    4.000 
#    0.000    4.000    0.000    0.600    0.000    0.000 
#    0.000    0.800    0.000    1.800    0.000    3.600 
#
# Total GULP energy -223140.350682 kJ/mol
# GULP energy per Si atom -5578.508767 kJ/mol
# Density = 2.077460 g / cm^3
# Si number density = 20.821990 Si / 1000 Ang^3
#
#
#
# Elastic Constant Matrix: (Units=GPa)
#
#
# Indices 1 2 3 4 5 6 
#
# 1 131.3782 5.1089 148.1090 0.0000 0.0000 0.0000
# 2 5.1089 76.5967 1.2758 0.0000 0.0000 0.0000
# 3 148.1090 1.2758 251.7122 0.0000 0.0000 0.0000
# 4 0.0000 0.0000 0.0000 13.4908 0.0000 0.0000
# 5 0.0000 0.0000 0.0000 0.0000 40.8345 0.0000
# 6 0.0000 0.0000 0.0000 0.0000 0.0000 -15.7284
#
#
#
# Elastic Compliance Matrix: (Units=1/GPa)
#
#
# Indices 1 2 3 4 5 6 
#
# 1 0.022737 -0.001294 -0.013372 0.000000 0.000000 0.000000
# 2 -0.001294 0.013130 0.000695 0.000000 0.000000 0.000000
# 3 -0.013372 0.000695 0.011837 0.000000 0.000000 0.000000
# 4 0.000000 0.000000 0.000000 0.074125 0.000000 0.000000
# 5 0.000000 0.000000 0.000000 0.000000 0.024489 0.000000
# 6 0.000000 0.000000 0.000000 0.000000 0.000000 -0.063579
#
#
# Mechanical properties :
#
#
# Convention : Reuss Voigt Hill
#
# Bulk Modulus (GPa) = 50.60136 85.40828 68.00482
# Shear Modulus (GPa) = 42.63747 28.06561 35.35154
#
# Velocity S-wave (km/s) = 4.53008 3.67534 4.12490
# Velocity P-wave (km/s) = 7.19144 7.68883 7.44429
#
# Compressibility (1/GPa) = 0.01976232
#
# Stress axis : x y z
#
# Youngs Moduli (GPa) = 43.98192 76.16076 84.47852
#
# Poissons Ratio (x) = 0.09854 1.12963
# Poissons Ratio (y) = 0.05690 -0.05869
# Poissons Ratio (z) = 0.58812 -0.05291
#
# Static dielectric constant tensor:
#      x y z
#    x 1.707020 0.000000 0.000000 
#    y 0.000000 1.838130 0.000000 
#    z 0.000000 0.000000 1.721900 
# 
# From -- ./inp_files/31377.got.cif
#   From: 2010.05.17/outbox.cif.g08.bks.cpg/sg51_16_cif.got.tgz:31377.got - 2010.06.03 11:52:47.
