data_PCOD9407658
_publ_section_title
;
Structure prediction by ZEFSAII (Michael W. Deem and Ramdas Pophale) SiO2 
 PCOD9407658
Probable space group: P M M A
;
_chemical_formula_sum "Si O2"
_cell_formula_units_Z 64
_cell_length_a 18.000000
_cell_length_b 15.000000
_cell_length_c 12.000000
_cell_angle_alpha 90.000000
_cell_angle_beta 90.000000
_cell_angle_gamma 90.000000
_cell_volume 3240.000000
_symmetry_space_group_name_H-M "P M M A"
_symmetry_group_IT_number 51
_symmetry_cell_setting 'orthorhombic'
loop_
_space_group_symop_operation_xyz
x,y,z
1/2-x,-y,z
1/2+x,-y,-z
-x,y,-z
-x,-y,-z
1/2+x,y,-z
1/2-x,y,z
x,-y,z
loop_
_atom_site_type_symbol
_atom_site_label
_atom_site_fract_x
_atom_site_fract_y
_atom_site_fract_z
Si Si1 0.633103 0.101105 0.963572
Si Si2 0.336440 0.397604 0.898044
Si Si3 0.065400 0.717227 0.326570
Si Si4 0.830816 0.705851 0.875878
Si Si5 0.835576 0.605497 0.505394
Si Si6 0.052516 0.094641 0.261747
Si Si7 0.120526 0.097829 0.769618
Si Si8 0.110914 0.288377 0.701325
O O1 0.670931 0.193545 0.926315
O O2 0.567079 0.101683 0.871743
O O3 0.665745 0.000000 0.949308
O O4 0.619082 0.108239 0.095609
O O5 0.250000 0.390715 0.862113
O O6 0.359375 0.500000 0.888822
O O7 0.384496 0.333748 0.821577
O O8 0.338837 0.362531 0.023387
O O9 0.100993 0.692819 0.207365
O O10 0.106983 0.657526 0.416040
O O11 0.084202 0.822831 0.330182
O O12 0.976321 0.712436 0.331758
O O13 0.750000 0.691484 0.820615
O O14 0.750000 0.616870 0.541782
O O15 0.851535 0.500000 0.502117
O O16 0.846017 0.649652 0.384788
O O17 0.964336 0.093840 0.271680
O O18 0.084215 0.000000 0.298647
O O19 0.146833 0.189860 0.714249
O O20 0.154976 0.000000 0.746452
#
# Coordination Sequence:
#
# PCOD9407658 Si02
#       8
#     8   8   8   8   8   8   8   8
#     4   9  15  26  47  77 113 154 194 228 264 318
#     4  10  21  37  56  79 111 153 191 223 276 349
#     4  10  22  37  60  89 115 143 187 243 289 331
#     4  10  20  35  53  78 117 157 189 228 281 342
#     4  11  25  45  66  83 105 145 192 237 293 357
#     4   8  15  28  50  81 117 155 187 218 268 335
#     4   9  16  28  49  81 119 153 185 223 273 331
#     4  11  21  37  61  88 115 144 187 241 288 330
#
# _framework density 19.753086
#
# number of rings (size 3 to 8) (size 9 to 14) (size 15 to 20)
#    0.000    2.250    1.250    1.875    0.000    5.250 
#    0.000    2.500    0.000    6.375    0.000    0.000 
#    0.000    0.000    0.000    0.000    0.000    0.000 
#
# Total GULP energy -356292.307924 kJ/mol
# GULP energy per Si atom -5567.067311 kJ/mol
# Density = 1.970813 g / cm^3
# Si number density = 19.753086 Si / 1000 Ang^3
#
#
#
# Elastic Constant Matrix: (Units=GPa)
#
#
# Indices 1 2 3 4 5 6 
#
# 1 39.3898 20.3839 10.7841 0.0000 0.0000 0.0000
# 2 20.3839 80.4239 47.2375 0.0000 0.0000 0.0000
# 3 10.7841 47.2375 31.8752 0.0000 0.0000 0.0000
# 4 0.0000 0.0000 0.0000 218.1552 0.0000 0.0000
# 5 0.0000 0.0000 0.0000 0.0000 22.8285 0.0000
# 6 0.0000 0.0000 0.0000 0.0000 0.0000 50.2940
#
#
#
# Elastic Compliance Matrix: (Units=1/GPa)
#
#
# Indices 1 2 3 4 5 6 
#
# 1 0.029515 -0.012470 0.008494 0.000000 0.000000 0.000000
# 2 -0.012470 0.101236 -0.145808 0.000000 0.000000 0.000000
# 3 0.008494 -0.145808 0.244579 0.000000 0.000000 0.000000
# 4 0.000000 0.000000 0.000000 0.004584 0.000000 0.000000
# 5 0.000000 0.000000 0.000000 0.000000 0.043805 0.000000
# 6 0.000000 0.000000 0.000000 0.000000 0.000000 0.019883
#
#
# Mechanical properties :
#
#
# Convention : Reuss Voigt Hill
#
# Bulk Modulus (GPa) = 13.19917 34.27778 23.73847
# Shear Modulus (GPa) = 6.50682 63.14109 34.82396
#
# Velocity S-wave (km/s) = 1.81693 5.65991 4.20332
# Velocity P-wave (km/s) = 3.33140 7.75265 5.96665
#
# Compressibility (1/GPa) = 0.07576236
#
# Stress axis : x y z
#
# Youngs Moduli (GPa) = 33.88128 9.87791 4.08865
#
# Poissons Ratio (x) = 0.12317 -0.03473
# Poissons Ratio (y) = 0.42249 0.59616
# Poissons Ratio (z) = -0.28778 1.44028
#
# Static dielectric constant tensor:
#      x y z
#    x 1.701860 0.000000 0.000000 
#    y 0.000000 1.733210 0.000000 
#    z 0.000000 0.000000 1.683280 
# 
# From -- ./inp_files/17533.got.cif
#   From: 2010.05.17/outbox.ucp.g08.bks.cvg/sg51_9_cif.got.tgz:17533.got - 2010.06.11 16:27:58.
