data_PCOD9407173
_publ_section_title
;
Structure prediction by ZEFSAII (Michael W. Deem and Ramdas Pophale) SiO2 
 PCOD9407173
Probable space group: P M M A
;
_chemical_formula_sum "Si O2"
_cell_formula_units_Z 40
_cell_length_a 18.469051
_cell_length_b 14.630944
_cell_length_c 7.661214
_cell_angle_alpha 90.000000
_cell_angle_beta 90.000000
_cell_angle_gamma 90.000000
_cell_volume 2070.210573
_symmetry_space_group_name_H-M "P M M A"
_symmetry_group_IT_number 51
_symmetry_cell_setting 'orthorhombic'
loop_
_space_group_symop_operation_xyz
x,y,z
1/2-x,-y,z
1/2+x,-y,-z
-x,y,-z
-x,-y,-z
1/2+x,y,-z
1/2-x,y,z
x,-y,z
loop_
_atom_site_type_symbol
_atom_site_label
_atom_site_fract_x
_atom_site_fract_y
_atom_site_fract_z
Si Si1 0.836580 0.203641 0.224591
Si Si2 0.664595 0.603955 0.681887
Si Si3 0.920182 0.107943 0.919818
Si Si4 0.836578 0.400559 0.101010
Si Si5 0.082497 0.781117 0.438658
O O1 0.750000 0.203500 0.234592
O O2 0.872004 0.173057 0.405334
O O3 0.863534 0.144366 0.062224
O O4 0.863435 0.308161 0.189441
O O5 0.750000 0.620972 0.646579
O O6 0.648558 0.500000 0.625617
O O7 0.654470 0.607637 0.891863
O O8 0.616811 0.681688 0.596244
O O9 0.912511 0.162260 0.739798
O O10 0.911928 0.000000 0.891356
O O11 0.000000 0.124626 0.000000
O O12 0.750000 0.402967 0.132263
O O13 0.866290 0.500000 0.156084
O O14 0.000000 0.774701 0.500000
#
# Coordination Sequence:
#
# PCOD9407173 Si02
#       5
#     8   8   8   8   8
#     4  11  23  40  66  99 131 165 214 270 319 379
#     4   9  18  35  60  90 129 175 216 257 311 376
#     4  11  25  47  70  89 121 170 215 263 333 401
#     4   8  15  31  58  88 121 165 209 249 304 372
#     4  12  24  39  65  98 131 169 217 267 320 386
#
# _framework density 19.321707
#
# number of rings (size 3 to 8) (size 9 to 14) (size 15 to 20)
#    0.000    1.800    4.000    1.800    0.000    3.600 
#    0.000    2.000    0.000    3.600    0.000    0.000 
#    0.000    0.000    0.000    0.000    0.000    0.000 
#
# Total GULP energy -223414.475434 kJ/mol
# GULP energy per Si atom -5585.361886 kJ/mol
# Density = 1.927773 g / cm^3
# Si number density = 19.321707 Si / 1000 Ang^3
#
#
#
# Elastic Constant Matrix: (Units=GPa)
#
#
# Indices 1 2 3 4 5 6 
#
# 1 91.2251 52.4161 63.9329 0.0000 0.0000 0.0000
# 2 52.4161 89.0898 70.5848 0.0000 0.0000 0.0000
# 3 63.9329 70.5848 141.0171 0.0000 0.0000 0.0000
# 4 0.0000 0.0000 0.0000 -7.1334 0.0000 0.0000
# 5 0.0000 0.0000 0.0000 0.0000 77.3936 0.0000
# 6 0.0000 0.0000 0.0000 0.0000 0.0000 18.2177
#
#
#
# Elastic Compliance Matrix: (Units=1/GPa)
#
#
# Indices 1 2 3 4 5 6 
#
# 1 0.018353 -0.006970 -0.004832 0.000000 0.000000 0.000000
# 2 -0.006970 0.021248 -0.007476 0.000000 0.000000 0.000000
# 3 -0.004832 -0.007476 0.013024 0.000000 0.000000 0.000000
# 4 0.000000 0.000000 0.000000 -0.140186 0.000000 0.000000
# 5 0.000000 0.000000 0.000000 0.000000 0.012921 0.000000
# 6 0.000000 0.000000 0.000000 0.000000 0.000000 0.054892
#
#
# Mechanical properties :
#
#
# Convention : Reuss Voigt Hill
#
# Bulk Modulus (GPa) = 71.07223 77.24440 74.15832
# Shear Modulus (GPa) = 212.79720 26.65547 119.72633
#
# Velocity S-wave (km/s) = 10.50585 3.71827 7.88030
# Velocity P-wave (km/s) = 13.56566 7.64846 11.01195
#
# Compressibility (1/GPa) = 0.01407019
#
# Stress axis : x y z
#
# Youngs Moduli (GPa) = 54.48721 47.06297 76.78121
#
# Poissons Ratio (x) = 0.32801 0.37102
# Poissons Ratio (y) = 0.37975 0.57400
# Poissons Ratio (z) = 0.26329 0.35183
#
# Static dielectric constant tensor:
#      x y z
#    x 1.650060 0.000000 0.000000 
#    y 0.000000 1.680210 0.000000 
#    z 0.000000 0.000000 1.689710 
# 
# From -- ./inp_files/9425.got.cif
#   From: 2010.05.17/outbox.cif.g08.bks.cpg/sg51_5_cif.got.tgz:9425.got - 2010.06.03 11:52:47.
