data_PCOD9407678
_publ_section_title
;
Structure prediction by ZEFSAII (Michael W. Deem and Ramdas Pophale) SiO2 
 PCOD9407678
Probable space group: P M M A
;
_chemical_formula_sum "Si O2"
_cell_formula_units_Z 56
_cell_length_a 15.000000
_cell_length_b 9.000000
_cell_length_c 21.000000
_cell_angle_alpha 90.000000
_cell_angle_beta 90.000000
_cell_angle_gamma 90.000000
_cell_volume 2835.000000
_symmetry_space_group_name_H-M "P M M A"
_symmetry_group_IT_number 51
_symmetry_cell_setting 'orthorhombic'
loop_
_space_group_symop_operation_xyz
x,y,z
1/2-x,-y,z
1/2+x,-y,-z
-x,y,-z
-x,-y,-z
1/2+x,y,-z
1/2-x,y,z
x,-y,z
loop_
_atom_site_type_symbol
_atom_site_label
_atom_site_fract_x
_atom_site_fract_y
_atom_site_fract_z
Si Si1 0.645408 0.327329 0.762460
Si Si2 0.348791 0.676895 0.878278
Si Si3 0.030728 0.174414 0.132669
Si Si4 0.350336 0.323420 0.030465
Si Si5 0.849012 0.822705 0.384589
Si Si6 0.474636 0.325107 0.361053
Si Si7 0.851621 0.677396 0.523301
O O1 0.750000 0.300631 0.755508
O O2 0.633448 0.500000 0.783067
O O3 0.600567 0.221777 0.813618
O O4 0.594933 0.308999 0.695944
O O5 0.250000 0.726534 0.856911
O O6 0.354922 0.500000 0.867620
O O7 0.434882 0.756209 0.850725
O O8 0.353478 0.700971 0.954747
O O9 0.072301 0.241654 0.068101
O O10 0.022161 0.000000 0.126619
O O11 0.250000 0.279738 0.052372
O O12 0.359400 0.500000 0.041188
O O13 0.750000 0.776502 0.361812
O O14 0.858714 0.760607 0.456475
O O15 0.933463 0.758162 0.347954
O O16 0.852357 0.000000 0.385231
O O17 0.494361 0.500000 0.368668
O O18 0.424914 0.274164 0.425526
O O19 0.750000 0.699264 0.547723
O O20 0.862528 0.500000 0.512789
#
# Coordination Sequence:
#
# PCOD9407678 Si02
#       7
#     8   8   8   8   8   8   8
#     4  10  22  41  62  81 104 138 181 226 268 315
#     4   9  19  37  60  83 107 140 184 228 268 316
#     4  12  24  35  52  81 115 148 180 218 269 325
#     4   9  18  34  57  83 110 143 183 225 268 316
#     4  10  21  35  51  76 111 147 179 211 255 316
#     4  10  20  35  57  82 104 133 178 227 272 314
#     4   9  17  31  53  81 111 139 170 215 268 317
#
# _framework density 19.753086
#
# number of rings (size 3 to 8) (size 9 to 14) (size 15 to 20)
#    0.000    2.143    0.000    4.286    0.000   10.286 
#    0.000    2.143    0.000    3.429    0.000    0.000 
#    0.000    0.000    0.000    0.000    0.000    0.000 
#
# Total GULP energy -312759.902872 kJ/mol
# GULP energy per Si atom -5584.998266 kJ/mol
# Density = 1.970813 g / cm^3
# Si number density = 19.753086 Si / 1000 Ang^3
#
#
#
# Elastic Constant Matrix: (Units=GPa)
#
#
# Indices 1 2 3 4 5 6 
#
# 1 134.5108 42.8419 6.2880 0.0000 0.0000 0.0000
# 2 42.8419 28.3612 4.6477 0.0000 0.0000 0.0000
# 3 6.2880 4.6477 2.5163 0.0000 0.0000 0.0000
# 4 0.0000 0.0000 0.0000 85.4191 0.0000 0.0000
# 5 0.0000 0.0000 0.0000 0.0000 17.0242 0.0000
# 6 0.0000 0.0000 0.0000 0.0000 0.0000 -3.7075
#
#
#
# Elastic Compliance Matrix: (Units=1/GPa)
#
#
# Indices 1 2 3 4 5 6 
#
# 1 0.014391 -0.022723 0.006010 0.000000 0.000000 0.000000
# 2 -0.022723 0.086445 -0.102884 0.000000 0.000000 0.000000
# 3 0.006010 -0.102884 0.572415 0.000000 0.000000 0.000000
# 4 0.000000 0.000000 0.000000 0.011707 0.000000 0.000000
# 5 0.000000 0.000000 0.000000 0.000000 0.058740 0.000000
# 6 0.000000 0.000000 0.000000 0.000000 0.000000 -0.269725
#
#
# Mechanical properties :
#
#
# Convention : Reuss Voigt Hill
#
# Bulk Modulus (GPa) = 2.30385 30.32708 16.31546
# Shear Modulus (GPa) = 5.82850 27.18789 16.50820
#
# Velocity S-wave (km/s) = 1.71962 3.71399 2.89403
# Velocity P-wave (km/s) = 2.26089 5.81189 4.40963
#
# Compressibility (1/GPa) = 0.43405678
#
# Stress axis : x y z
#
# Youngs Moduli (GPa) = 69.48857 11.56802 1.74698
#
# Poissons Ratio (x) = 0.26286 -0.01050
# Poissons Ratio (y) = 1.57902 0.17974
# Poissons Ratio (z) = -0.41761 1.19016
#
# Static dielectric constant tensor:
#      x y z
#    x 1.719150 0.000000 0.000000 
#    y 0.000000 1.660800 0.000000 
#    z 0.000000 0.000000 1.696630 
# 
# From -- ./inp_files/33416.got.cif
#   From: 2010.05.17/outbox.ucp.g08.bks.cvg/sg51_17_cif.got.tgz:33416.got - 2010.06.11 16:27:58.
