data_PCOD9407107
_publ_section_title
;
Structure prediction by ZEFSAII (Michael W. Deem and Ramdas Pophale) SiO2 
 PCOD9407107
Probable space group: P M M A
;
_chemical_formula_sum "Si O2"
_cell_formula_units_Z 56
_cell_length_a 22.828814
_cell_length_b 8.657272
_cell_length_c 14.723327
_cell_angle_alpha 90.000000
_cell_angle_beta 90.000000
_cell_angle_gamma 90.000000
_cell_volume 2909.848445
_symmetry_space_group_name_H-M "P M M A"
_symmetry_group_IT_number 51
_symmetry_cell_setting 'orthorhombic'
loop_
_space_group_symop_operation_xyz
x,y,z
1/2-x,-y,z
1/2+x,-y,-z
-x,y,-z
-x,-y,-z
1/2+x,y,-z
1/2-x,y,z
x,-y,z
loop_
_atom_site_type_symbol
_atom_site_label
_atom_site_fract_x
_atom_site_fract_y
_atom_site_fract_z
Si Si1 0.180107 0.321723 0.440153
Si Si2 0.183957 0.685124 0.804965
Si Si3 0.552220 0.683729 0.889569
Si Si4 0.396271 0.182436 0.287571
Si Si5 0.994323 0.319865 0.390908
Si Si6 0.133084 0.183623 0.625587
Si Si7 0.572551 0.815841 0.089107
O O1 0.250000 0.318502 0.443058
O O2 0.159783 0.500000 0.447937
O O3 0.156233 0.251098 0.347055
O O4 0.155041 0.228448 0.525539
O O5 0.250000 0.727440 0.834662
O O6 0.178701 0.500000 0.808301
O O7 0.174142 0.742028 0.702050
O O8 0.131876 0.758840 0.863735
O O9 0.552118 0.500000 0.900876
O O10 0.594311 0.735902 0.808754
O O11 0.485944 0.740015 0.868086
O O12 0.570369 0.763141 0.984108
O O13 0.454272 0.222461 0.345635
O O14 0.390324 0.000000 0.275889
O O15 0.000007 0.500000 0.364375
O O16 0.931450 0.254676 0.363032
O O17 0.000000 0.310474 0.500000
O O18 0.131317 0.000000 0.636511
O O19 0.567709 0.000000 0.095927
#
# Coordination Sequence:
#
# PCOD9407107 Si02
#       7
#     8   8   8   8   8   8   8
#     4  11  24  42  61  82 114 158 204 246 292 353
#     4  11  24  42  63  88 122 165 209 250 299 364
#     4  11  22  40  66  93 124 160 200 242 298 366
#     4  12  24  39  61  90 123 155 197 249 301 351
#     4  11  22  37  59  85 119 159 200 244 297 356
#     4  12  24  38  60  89 122 158 201 251 303 356
#     4  11  22  40  65  95 127 155 195 250 306 358
#
# _framework density 19.244987999999999
#
# number of rings (size 3 to 8) (size 9 to 14) (size 15 to 20)
#    0.000    0.714    1.429    8.571    0.000    4.571 
#    0.000    0.714    0.000    4.286    0.000    0.000 
#    0.000    0.000    0.000    0.000    0.000    0.000 
#
# Total GULP energy -313465.559958 kJ/mol
# GULP energy per Si atom -5597.599285 kJ/mol
# Density = 1.920119 g / cm^3
# Si number density = 19.244988 Si / 1000 Ang^3
#
#
#
# Elastic Constant Matrix: (Units=GPa)
#
#
# Indices 1 2 3 4 5 6 
#
# 1 58.7904 14.4213 6.3113 0.0000 0.0000 0.0000
# 2 14.4213 95.7506 -0.2466 0.0000 0.0000 0.0000
# 3 6.3113 -0.2466 56.6085 0.0000 0.0000 0.0000
# 4 0.0000 0.0000 0.0000 42.7425 0.0000 0.0000
# 5 0.0000 0.0000 0.0000 0.0000 25.5100 0.0000
# 6 0.0000 0.0000 0.0000 0.0000 0.0000 92.1489
#
#
#
# Elastic Compliance Matrix: (Units=1/GPa)
#
#
# Indices 1 2 3 4 5 6 
#
# 1 0.017887 -0.002699 -0.002006 0.000000 0.000000 0.000000
# 2 -0.002699 0.010851 0.000348 0.000000 0.000000 0.000000
# 3 -0.002006 0.000348 0.017890 0.000000 0.000000 0.000000
# 4 0.000000 0.000000 0.000000 0.023396 0.000000 0.000000
# 5 0.000000 0.000000 0.000000 0.000000 0.039200 0.000000
# 6 0.000000 0.000000 0.000000 0.000000 0.000000 0.010852
#
#
# Mechanical properties :
#
#
# Convention : Reuss Voigt Hill
#
# Bulk Modulus (GPa) = 26.37500 28.01349 27.19424
# Shear Modulus (GPa) = 35.35341 44.79119 40.07230
#
# Velocity S-wave (km/s) = 4.29070 4.82957 4.56809
# Velocity P-wave (km/s) = 6.18719 6.75925 6.47954
#
# Compressibility (1/GPa) = 0.03791470
#
# Stress axis : x y z
#
# Youngs Moduli (GPa) = 55.90640 92.15543 55.89598
#
# Poissons Ratio (x) = 0.24875 0.11213
# Poissons Ratio (y) = 0.15090 -0.01946
# Poissons Ratio (z) = 0.11215 -0.03209
#
# Static dielectric constant tensor:
#      x y z
#    x 1.662400 0.000000 0.000000 
#    y 0.000000 1.643650 0.000000 
#    z 0.000000 0.000000 1.668620 
# 
# From -- ./inp_files/25742.got.cif
#   From: 2010.05.17/outbox.cif.g08.bks.cpg/sg51_13_cif.got.tgz:25742.got - 2010.06.03 11:52:47.
