data_PCOD9407485
_publ_section_title
;
Structure prediction by ZEFSAII (Michael W. Deem and Ramdas Pophale) SiO2 
 PCOD9407485
Probable space group: P M M A
;
_chemical_formula_sum "Si O2"
_cell_formula_units_Z 56
_cell_length_a 21.000000
_cell_length_b 9.000000
_cell_length_c 18.000000
_cell_angle_alpha 90.000000
_cell_angle_beta 90.000000
_cell_angle_gamma 90.000000
_cell_volume 3402.000000
_symmetry_space_group_name_H-M "P M M A"
_symmetry_group_IT_number 51
_symmetry_cell_setting 'orthorhombic'
loop_
_space_group_symop_operation_xyz
x,y,z
1/2-x,-y,z
1/2+x,-y,-z
-x,y,-z
-x,-y,-z
1/2+x,y,-z
1/2-x,y,z
x,-y,z
loop_
_atom_site_type_symbol
_atom_site_label
_atom_site_fract_x
_atom_site_fract_y
_atom_site_fract_z
Si Si1 0.400580 0.321745 0.277514
Si Si2 0.823614 0.320777 0.576696
Si Si3 0.463890 0.821030 0.694962
Si Si4 0.825887 0.180771 0.022076
Si Si5 0.563665 0.179594 0.136674
Si Si6 0.084095 0.820130 0.118427
Si Si7 0.070699 0.178627 0.530176
O O1 0.402714 0.500000 0.269931
O O2 0.348290 0.283252 0.340023
O O3 0.468192 0.260311 0.306852
O O4 0.392773 0.248132 0.196547
O O5 0.750000 0.274308 0.565745
O O6 0.826245 0.500000 0.570298
O O7 0.873390 0.252341 0.517905
O O8 0.433150 0.782398 0.775239
O O9 0.427234 0.785723 0.618490
O O10 0.474439 0.000000 0.695503
O O11 0.750000 0.228307 0.024052
O O12 0.866717 0.220809 0.947648
O O13 0.823600 0.000000 0.024324
O O14 0.874536 0.229735 0.088897
O O15 0.491580 0.224245 0.109099
O O16 0.563995 0.000000 0.131235
O O17 0.083891 0.000000 0.123381
O O18 0.000000 0.221157 0.500000
O O19 0.075615 0.000000 0.522201
#
# Coordination Sequence:
#
# PCOD9407485 Si02
#       7
#     8   8   8   8   8   8   8
#     4  10  19  31  49  72  96 125 163 203 243 289
#     4  10  22  37  50  69 101 138 172 204 244 299
#     4   9  17  31  51  75  99 124 157 200 250 298
#     4   9  16  26  43  69  95 120 157 200 237 280
#     4   8  14  26  45  67  93 123 154 190 237 286
#     4   9  17  29  47  69  95 124 155 194 243 292
#     4  10  19  32  53  78 103 128 163 211 257 299
#
# _framework density 16.460905
#
# number of rings (size 3 to 8) (size 9 to 14) (size 15 to 20)
#    0.000    2.714    1.429    1.714    0.000    4.000 
#    0.000    0.714    0.000    9.429    0.000    0.000 
#    0.000    0.000    0.000    0.000    0.000    0.000 
#
# Total GULP energy -311800.127997 kJ/mol
# GULP energy per Si atom -5567.859429 kJ/mol
# Density = 1.642344 g / cm^3
# Si number density = 16.460905 Si / 1000 Ang^3
#
#
#
# Elastic Constant Matrix: (Units=GPa)
#
#
# Indices 1 2 3 4 5 6 
#
# 1 159.7112 22.7190 95.1946 0.0000 0.0000 0.0000
# 2 22.7190 13.5443 24.2920 0.0000 0.0000 0.0000
# 3 95.1946 24.2920 143.4502 0.0000 0.0000 0.0000
# 4 0.0000 0.0000 0.0000 19.5548 0.0000 0.0000
# 5 0.0000 0.0000 0.0000 0.0000 30.5245 0.0000
# 6 0.0000 0.0000 0.0000 0.0000 0.0000 19.9032
#
#
#
# Elastic Compliance Matrix: (Units=1/GPa)
#
#
# Indices 1 2 3 4 5 6 
#
# 1 0.010879 -0.007612 -0.005930 0.000000 0.000000 0.000000
# 2 -0.007612 0.111363 -0.013807 0.000000 0.000000 0.000000
# 3 -0.005930 -0.013807 0.013244 0.000000 0.000000 0.000000
# 4 0.000000 0.000000 0.000000 0.051138 0.000000 0.000000
# 5 0.000000 0.000000 0.000000 0.000000 0.032761 0.000000
# 6 0.000000 0.000000 0.000000 0.000000 0.000000 0.050243
#
#
# Mechanical properties :
#
#
# Convention : Reuss Voigt Hill
#
# Bulk Modulus (GPa) = 12.37811 66.79077 39.58444
# Shear Modulus (GPa) = 14.23465 25.62982 19.93224
#
# Velocity S-wave (km/s) = 2.94386 3.95018 3.48355
# Velocity P-wave (km/s) = 4.36934 7.84020 6.34665
#
# Compressibility (1/GPa) = 0.08078776
#
# Stress axis : x y z
#
# Youngs Moduli (GPa) = 91.92221 8.97968 75.50316
#
# Poissons Ratio (x) = 0.06835 0.44775
# Poissons Ratio (y) = 0.69970 1.04247
# Poissons Ratio (z) = 0.54512 0.12398
#
# Static dielectric constant tensor:
#      x y z
#    x 1.548030 0.000000 0.000000 
#    y 0.000000 1.543660 0.000000 
#    z 0.000000 0.000000 1.581960 
# 
# From -- ./inp_files/30370.got.cif
#   From: 2010.05.17/outbox.ucp.g08.bks.cvg/sg51_16_cif.got.tgz:30370.got - 2010.06.11 16:27:58.
