data_PCOD9407385
_publ_section_title
;
Structure prediction by ZEFSAII (Michael W. Deem and Ramdas Pophale) SiO2 
 PCOD9407385
Probable space group: P M M A
;
_chemical_formula_sum "Si O2"
_cell_formula_units_Z 56
_cell_length_a 29.708140
_cell_length_b 7.431163
_cell_length_c 14.031482
_cell_angle_alpha 90.000000
_cell_angle_beta 90.000000
_cell_angle_gamma 90.000000
_cell_volume 3097.674587
_symmetry_space_group_name_H-M "P M M A"
_symmetry_group_IT_number 51
_symmetry_cell_setting 'orthorhombic'
loop_
_space_group_symop_operation_xyz
x,y,z
1/2-x,-y,z
1/2+x,-y,-z
-x,y,-z
-x,-y,-z
1/2+x,y,-z
1/2-x,y,z
x,-y,z
loop_
_atom_site_type_symbol
_atom_site_label
_atom_site_fract_x
_atom_site_fract_y
_atom_site_fract_z
Si Si1 0.521629 0.789152 0.904331
Si Si2 0.800096 0.785192 0.727132
Si Si3 0.551824 0.289622 0.596423
Si Si4 0.531880 0.282108 0.285862
Si Si5 0.300185 0.283919 0.497270
Si Si6 0.391956 0.720372 0.584150
Si Si7 0.894372 0.218300 0.788270
O O1 0.486763 0.775869 0.816362
O O2 0.569536 0.715768 0.866310
O O3 0.529870 0.000000 0.923002
O O4 0.500000 0.710691 0.000000
O O5 0.750000 0.713236 0.748166
O O6 0.808961 0.754382 0.614515
O O7 0.842764 0.718316 0.787439
O O8 0.798421 0.000000 0.740486
O O9 0.544084 0.500000 0.576056
O O10 0.504427 0.217319 0.635038
O O11 0.577001 0.217373 0.504240
O O12 0.584794 0.271481 0.686462
O O13 0.530149 0.500000 0.285515
O O14 0.581399 0.227272 0.320399
O O15 0.250000 0.215371 0.519749
O O16 0.299049 0.500000 0.506075
O O17 0.341355 0.218391 0.562107
O O18 0.390956 0.500000 0.582323
O O19 0.894248 0.000000 0.791726
#
# Coordination Sequence:
#
# PCOD9407385 Si02
#       7
#     8   8   8   8   8   8   8
#     4   9  18  32  46  59  78 102 129 165 208 249
#     4   9  16  25  37  55  80 106 131 160 193 229
#     4   9  15  24  38  56  80 109 135 157 187 225
#     4   9  17  27  41  60  80 103 133 164 193 232
#     4   9  16  25  38  56  79 109 142 167 187 220
#     4   9  15  24  38  57  82 109 135 162 191 223
#     4   9  16  26  40  58  79 104 132 161 196 237
#
# _framework density 18.078078000000001
#
# number of rings (size 3 to 8) (size 9 to 14) (size 15 to 20)
#    0.000    3.000    1.429    0.429    0.000    2.000 
#    0.000    1.429    0.000    3.429    0.000    1.000 
#    0.000    1.143    0.000    0.000    0.000    0.000 
#
# Total GULP energy -311978.532491 kJ/mol
# GULP energy per Si atom -5571.045223 kJ/mol
# Density = 1.803693 g / cm^3
# Si number density = 18.078078 Si / 1000 Ang^3
#
#
#
# Elastic Constant Matrix: (Units=GPa)
#
#
# Indices 1 2 3 4 5 6 
#
# 1 177.3126 2.6205 73.9197 0.0000 0.0000 0.0000
# 2 2.6205 57.3287 -4.2459 0.0000 0.0000 0.0000
# 3 73.9197 -4.2459 56.7432 0.0000 0.0000 0.0000
# 4 0.0000 0.0000 0.0000 7.9803 0.0000 0.0000
# 5 0.0000 0.0000 0.0000 0.0000 21.3606 0.0000
# 6 0.0000 0.0000 0.0000 0.0000 0.0000 5.5940
#
#
#
# Elastic Compliance Matrix: (Units=1/GPa)
#
#
# Indices 1 2 3 4 5 6 
#
# 1 0.012523 -0.001791 -0.016448 0.000000 0.000000 0.000000
# 2 -0.001791 0.017796 0.003664 0.000000 0.000000 0.000000
# 3 -0.016448 0.003664 0.039324 0.000000 0.000000 0.000000
# 4 0.000000 0.000000 0.000000 0.125308 0.000000 0.000000
# 5 0.000000 0.000000 0.000000 0.000000 0.046815 0.000000
# 6 0.000000 0.000000 0.000000 0.000000 0.000000 0.178764
#
#
# Mechanical properties :
#
#
# Convention : Reuss Voigt Hill
#
# Bulk Modulus (GPa) = 24.69419 48.44144 36.56781
# Shear Modulus (GPa) = 10.79498 21.59299 16.19399
#
# Velocity S-wave (km/s) = 2.44628 3.45980 2.99621
# Velocity P-wave (km/s) = 4.65494 6.54325 5.67814
#
# Compressibility (1/GPa) = 0.04049536
#
# Stress axis : x y z
#
# Youngs Moduli (GPa) = 79.85155 56.19083 25.42950
#
# Poissons Ratio (x) = 0.10062 0.41827
# Poissons Ratio (y) = 0.14298 -0.09318
# Poissons Ratio (z) = 1.31340 -0.20590
#
# Static dielectric constant tensor:
#      x y z
#    x 1.682140 0.000000 0.000000 
#    y 0.000000 1.678640 0.000000 
#    z 0.000000 0.000000 1.585770 
# 
# From -- ./inp_files/19179.got.cif
#   From: 2010.05.17/outbox.cif.g08.bks.cpg/sg51_10_cif.got.tgz:19179.got - 2010.06.03 11:52:47.
