data_PCOD9407804
_publ_section_title
;
Structure prediction by ZEFSAII (Michael W. Deem and Ramdas Pophale) SiO2 
 PCOD9407804
Probable space group: P M M A
;
_chemical_formula_sum "Si O2"
_cell_formula_units_Z 48
_cell_length_a 30.000000
_cell_length_b 9.000000
_cell_length_c 9.000000
_cell_angle_alpha 90.000000
_cell_angle_beta 90.000000
_cell_angle_gamma 90.000000
_cell_volume 2430.000000
_symmetry_space_group_name_H-M "P M M A"
_symmetry_group_IT_number 51
_symmetry_cell_setting 'orthorhombic'
loop_
_space_group_symop_operation_xyz
x,y,z
1/2-x,-y,z
1/2+x,-y,-z
-x,y,-z
-x,-y,-z
1/2+x,y,-z
1/2-x,y,z
x,-y,z
loop_
_atom_site_type_symbol
_atom_site_label
_atom_site_fract_x
_atom_site_fract_y
_atom_site_fract_z
Si Si1 0.377806 0.822008 0.115891
Si Si2 0.302568 0.323182 0.307284
Si Si3 0.558339 0.175582 0.359841
Si Si4 0.303022 0.168131 0.617535
Si Si5 0.536958 0.174529 0.708587
Si Si6 0.367145 0.326674 0.809507
O O1 0.334232 0.745016 0.183319
O O2 0.422174 0.763942 0.198277
O O3 0.374468 0.000000 0.133870
O O4 0.380997 0.774071 0.946917
O O5 0.250000 0.296002 0.278660
O O6 0.308789 0.500000 0.321029
O O7 0.315090 0.241652 0.460591
O O8 0.549189 0.182768 0.535173
O O9 0.513467 0.230352 0.276719
O O10 0.598758 0.280416 0.319141
O O11 0.566072 0.000000 0.324995
O O12 0.250000 0.159918 0.621218
O O13 0.319929 0.271333 0.749279
O O14 0.321250 0.000000 0.628901
O O15 0.534058 0.000000 0.747125
O O16 0.367840 0.500000 0.843755
#
# Coordination Sequence:
#
# PCOD9407804 Si02
#       6
#     8   8   8   8   8   8
#     4  11  22  37  57  82 113 152 195 233 274 329
#     4  10  21  38  60  87 118 149 181 224 280 335
#     4   9  17  36  62  85 109 140 184 233 281 336
#     4  10  21  39  63  87 109 141 188 234 275 329
#     4   8  17  34  60  87 108 138 183 235 282 328
#     4  12  25  38  53  80 117 153 187 230 288 339
#
# _framework density 19.753086
#
# number of rings (size 3 to 8) (size 9 to 14) (size 15 to 20)
#    0.000    2.000    0.000    5.000    0.000    4.667 
#    0.000    7.500    0.000    0.000    0.000    0.000 
#    0.000    0.000    0.000    0.000    0.000    0.000 
#
# Total GULP energy -267777.120172 kJ/mol
# GULP energy per Si atom -5578.690004 kJ/mol
# Density = 1.970813 g / cm^3
# Si number density = 19.753086 Si / 1000 Ang^3
#
#
#
# Elastic Constant Matrix: (Units=GPa)
#
#
# Indices 1 2 3 4 5 6 
#
# 1 47.0696 21.0604 6.6901 0.0000 0.0000 0.0000
# 2 21.0604 44.8568 -1.2705 0.0000 0.0000 0.0000
# 3 6.6901 -1.2705 -2.7188 0.0000 0.0000 0.0000
# 4 0.0000 0.0000 0.0000 -0.8114 0.0000 0.0000
# 5 0.0000 0.0000 0.0000 0.0000 -67.8385 0.0000
# 6 0.0000 0.0000 0.0000 0.0000 0.0000 16.5909
#
#
#
# Elastic Compliance Matrix: (Units=1/GPa)
#
#
# Indices 1 2 3 4 5 6 
#
# 1 0.017713 -0.006989 0.046852 0.000000 0.000000 0.000000
# 2 -0.006989 0.024760 -0.028769 0.000000 0.000000 0.000000
# 3 0.046852 -0.028769 -0.239076 0.000000 0.000000 0.000000
# 4 0.000000 0.000000 0.000000 -1.232491 0.000000 0.000000
# 5 0.000000 0.000000 0.000000 0.000000 -0.014741 0.000000
# 6 0.000000 0.000000 0.000000 0.000000 0.000000 0.060274
#
#
# Mechanical properties :
#
#
# Convention : Reuss Voigt Hill
#
# Bulk Modulus (GPa) = -5.73346 15.79640 5.03147
# Shear Modulus (GPa) = -3.41556 -6.22994 -4.82275
#
# Velocity S-wave (km/s) = -1.31639 -1.77785 -1.56423
# Velocity P-wave (km/s) = 2.28459 1.94935 0.84245
#
# Compressibility (1/GPa) = -0.17441482
#
# Stress axis : x y z
#
# Youngs Moduli (GPa) = 56.45489 40.38785 -4.18276
#
# Poissons Ratio (x) = 0.28229 0.19597
# Poissons Ratio (y) = 0.39459 -0.12033
# Poissons Ratio (z) = -2.64504 1.16190
#
# Static dielectric constant tensor:
#      x y z
#    x 1.734750 0.000000 0.000000 
#    y 0.000000 1.661880 0.000000 
#    z 0.000000 0.000000 1.713710 
# 
# From -- ./inp_files/12789.got.cif
#   From: 2010.05.17/outbox.ucp.g08.bks.cvg/sg51_7_cif.got.tgz:12789.got - 2010.06.11 16:27:58.
