data_PCOD9407355
_publ_section_title
;
Structure prediction by ZEFSAII (Michael W. Deem and Ramdas Pophale) SiO2 
 PCOD9407355
Probable space group: P M M A
;
_chemical_formula_sum "Si O2"
_cell_formula_units_Z 44
_cell_length_a 7.441325
_cell_length_b 30.803537
_cell_length_c 9.300891
_cell_angle_alpha 90.000000
_cell_angle_beta 90.000000
_cell_angle_gamma 90.000000
_cell_volume 2131.942143
_symmetry_space_group_name_H-M "P M M A"
_symmetry_group_IT_number 51
_symmetry_cell_setting 'orthorhombic'
loop_
_space_group_symop_operation_xyz
x,y,z
1/2-x,-y,z
1/2+x,-y,-z
-x,y,-z
-x,-y,-z
1/2+x,y,-z
1/2-x,y,z
x,-y,z
loop_
_atom_site_type_symbol
_atom_site_label
_atom_site_fract_x
_atom_site_fract_y
_atom_site_fract_z
Si Si1 0.034532 0.405871 0.170220
Si Si2 0.465173 0.952335 0.169631
Si Si3 0.035168 0.226641 0.328406
Si Si4 0.964821 0.500000 0.828428
Si Si5 0.965453 0.132564 0.670145
Si Si6 0.965466 0.679226 0.670218
O O1 0.250000 0.406574 0.189918
O O2 0.965955 0.453113 0.223122
O O3 0.963537 0.363322 0.249998
O O4 0.000000 0.402499 0.000000
O O5 0.250000 0.953016 0.190658
O O6 0.536728 0.910170 0.251346
O O7 0.533815 0.000000 0.215870
O O8 0.500000 0.948175 0.000000
O O9 0.250000 0.226649 0.306774
O O10 0.965961 0.179771 0.276591
O O11 0.965947 0.273531 0.276903
O O12 0.000000 0.226622 0.500000
O O13 0.750000 0.500000 0.806725
O O14 0.000000 0.500000 0.000000
O O15 0.750000 0.133271 0.690125
O O16 0.000000 0.129390 0.500000
O O17 0.750000 0.679928 0.689925
O O18 0.000000 0.675853 0.500000
#
# Coordination Sequence:
#
# PCOD9407355 Si02
#       6
#     8   8   8   4   8   8
#     4   9  17  29  45  64  85 110 141 176 212 250
#     4   9  18  32  47  63  86 116 146 174 208 252
#     4   8  14  26  43  61  83 111 140 170 206 248
#     4   8  14  26  43  60  80 108 140 172 207 248
#     4   9  17  29  46  67  88 110 140 178 214 248
#     4   9  17  29  45  64  86 113 143 173 208 251
#
# _framework density 20.638459000000001
#
# number of rings (size 3 to 8) (size 9 to 14) (size 15 to 20)
#    0.000    3.273    0.000    0.000    0.000    1.818 
#    0.000    1.364    0.000    0.000    0.000    0.000 
#    0.000    0.000    0.000    0.000    0.000    0.000 
#
# Total GULP energy -244997.181331 kJ/mol
# GULP energy per Si atom -5568.117758 kJ/mol
# Density = 2.059148 g / cm^3
# Si number density = 20.638459 Si / 1000 Ang^3
#
#
#
# Elastic Constant Matrix: (Units=GPa)
#
#
# Indices 1 2 3 4 5 6 
#
# 1 70.4765 16.5119 -5.1161 0.0000 0.0000 0.0000
# 2 16.5119 314.9657 75.2368 0.0000 0.0000 0.0000
# 3 -5.1161 75.2368 29.5627 0.0000 0.0000 0.0000
# 4 0.0000 0.0000 0.0000 10.8851 0.0000 0.0000
# 5 0.0000 0.0000 0.0000 0.0000 14.8937 0.0000
# 6 0.0000 0.0000 0.0000 0.0000 0.0000 -35.5814
#
#
#
# Elastic Compliance Matrix: (Units=1/GPa)
#
#
# Indices 1 2 3 4 5 6 
#
# 1 0.015993 -0.003825 0.012501 0.000000 0.000000 0.000000
# 2 -0.003825 0.009013 -0.023599 0.000000 0.000000 0.000000
# 3 0.012501 -0.023599 0.096049 0.000000 0.000000 0.000000
# 4 0.000000 0.000000 0.000000 0.091869 0.000000 0.000000
# 5 0.000000 0.000000 0.000000 0.000000 0.067142 0.000000
# 6 0.000000 0.000000 0.000000 0.000000 0.000000 -0.028105
#
#
# Mechanical properties :
#
#
# Convention : Reuss Voigt Hill
#
# Bulk Modulus (GPa) = 10.96371 65.36333 38.16352
# Shear Modulus (GPa) = 16.01497 19.93098 17.97297
#
# Velocity S-wave (km/s) = 2.78866 3.11098 2.95422
# Velocity P-wave (km/s) = 3.96139 6.68159 5.49255
#
# Compressibility (1/GPa) = 0.09120998
#
# Stress axis : x y z
#
# Youngs Moduli (GPa) = 62.52837 110.95603 10.41138
#
# Poissons Ratio (x) = 0.42437 -0.13016
# Poissons Ratio (y) = 0.23915 0.24570
# Poissons Ratio (z) = -0.78170 2.61843
#
# Static dielectric constant tensor:
#      x y z
#    x 1.742320 0.000000 0.000000 
#    y 0.000000 1.842320 0.000000 
#    z 0.000000 0.000000 1.654910 
# 
# From -- ./inp_files/5709.got.cif
#   From: 2010.05.17/outbox.cif.g08.bks.cpg/sg51_3_cif.got.tgz:5709.got - 2010.06.03 11:52:47.
