data_PCOD9407120
_publ_section_title
;
Structure prediction by ZEFSAII (Michael W. Deem and Ramdas Pophale) SiO2 
 PCOD9407120
Probable space group: P M M A
;
_chemical_formula_sum "Si O2"
_cell_formula_units_Z 32
_cell_length_a 14.283488
_cell_length_b 18.083070
_cell_length_c 6.590851
_cell_angle_alpha 90.000000
_cell_angle_beta 90.000000
_cell_angle_gamma 90.000000
_cell_volume 1702.346379
_symmetry_space_group_name_H-M "P M M A"
_symmetry_group_IT_number 51
_symmetry_cell_setting 'orthorhombic'
loop_
_space_group_symop_operation_xyz
x,y,z
1/2-x,-y,z
1/2+x,-y,-z
-x,y,-z
-x,-y,-z
1/2+x,y,-z
1/2-x,y,z
x,-y,z
loop_
_atom_site_type_symbol
_atom_site_label
_atom_site_fract_x
_atom_site_fract_y
_atom_site_fract_z
Si Si1 0.250000 0.500000 0.858132
Si Si2 0.250000 0.602294 0.241078
Si Si3 0.750000 0.145520 0.260163
Si Si4 0.555819 0.000000 0.790969
Si Si5 0.250000 0.773653 0.143748
Si Si6 0.112821 0.500000 0.485303
Si Si7 0.250000 0.000000 0.008292
Si Si8 0.089059 0.845837 0.409363
O O1 0.160793 0.500000 0.707814
O O2 0.250000 0.568232 0.014713
O O3 0.250000 0.689624 0.218792
O O4 0.159930 0.569153 0.362620
O O5 0.660239 0.143689 0.404677
O O6 0.750000 0.212115 0.097665
O O7 0.750000 0.071813 0.128580
O O8 0.545345 0.922127 0.677771
O O9 0.663295 0.000000 0.846752
O O10 0.500000 0.000000 0.000000
O O11 0.155720 0.810789 0.236718
O O12 0.000000 0.500000 0.500000
O O13 0.000000 0.801926 0.500000
#
# Coordination Sequence:
#
# PCOD9407120 Si02
#       8
#     2   4   4   4   4   4   2   8
#     4   8  18  38  62  90 128 156 196 238 290 340
#     4   9  21  38  60  95 126 162 199 240 294 363
#     4  11  22  39  60  79 120 157 204 264 318 373
#     4  12  22  38  64  84 113 152 212 276 321 359
#     4  11  24  41  59  85 127 167 203 243 313 377
#     4   9  19  39  70  96 126 153 201 247 286 352
#     4  12  18  36  60  78 104 154 200 254 320 364
#     4  11  24  40  58  87 115 158 211 265 316 370
#
# _framework density 18.797584000000001
#
# number of rings (size 3 to 8) (size 9 to 14) (size 15 to 20)
#    0.000    1.750    2.500    3.375    0.000    7.000 
#    0.000    2.500    0.000    0.000    0.000    0.000 
#    0.000    0.000    0.000    0.000    0.000    0.000 
#
# Total GULP energy -178381.757383 kJ/mol
# GULP energy per Si atom -5574.429918 kJ/mol
# Density = 1.875480 g / cm^3
# Si number density = 18.797584 Si / 1000 Ang^3
#
#
#
# Elastic Constant Matrix: (Units=GPa)
#
#
# Indices 1 2 3 4 5 6 
#
# 1 141.8729 12.9395 44.5094 0.0000 0.0000 0.0000
# 2 12.9395 105.4263 29.8768 0.0000 0.0000 0.0000
# 3 44.5094 29.8768 122.1064 0.0000 0.0000 0.0000
# 4 0.0000 0.0000 0.0000 4.4160 0.0000 0.0000
# 5 0.0000 0.0000 0.0000 0.0000 162.9166 0.0000
# 6 0.0000 0.0000 0.0000 0.0000 0.0000 4.4103
#
#
#
# Elastic Compliance Matrix: (Units=1/GPa)
#
#
# Indices 1 2 3 4 5 6 
#
# 1 0.007961 -0.000166 -0.002861 0.000000 0.000000 0.000000
# 2 -0.000166 0.010195 -0.002434 0.000000 0.000000 0.000000
# 3 -0.002861 -0.002434 0.009828 0.000000 0.000000 0.000000
# 4 0.000000 0.000000 0.000000 0.226447 0.000000 0.000000
# 5 0.000000 0.000000 0.000000 0.000000 0.006138 0.000000
# 6 0.000000 0.000000 0.000000 0.000000 0.000000 0.226744
#
#
# Mechanical properties :
#
#
# Convention : Reuss Voigt Hill
#
# Bulk Modulus (GPa) = 58.61059 60.45078 59.53068
# Shear Modulus (GPa) = 9.92210 53.15391 31.53801
#
# Velocity S-wave (km/s) = 2.29997 5.32338 4.10050
# Velocity P-wave (km/s) = 6.18875 8.36738 7.35914
#
# Compressibility (1/GPa) = 0.01706176
#
# Stress axis : x y z
#
# Youngs Moduli (GPa) = 125.60584 98.08274 101.74875
#
# Poissons Ratio (x) = 0.01631 0.29114
# Poissons Ratio (y) = 0.02088 0.24766
# Poissons Ratio (z) = 0.35940 0.23873
#
# Static dielectric constant tensor:
#      x y z
#    x 1.722750 0.000000 0.000000 
#    y 0.000000 1.617420 0.000000 
#    z 0.000000 0.000000 1.345150 
# 
# From -- ./inp_files/1364.got.cif
#   From: 2010.05.17/outbox.cif.g08.bks.cpg/sg51_1_cif.got.tgz:1364.got - 2010.06.03 11:52:47.
