data_PCOD9407518
_publ_section_title
;
Structure prediction by ZEFSAII (Michael W. Deem and Ramdas Pophale) SiO2 
 PCOD9407518
Probable space group: P M M A
;
_chemical_formula_sum "Si O2"
_cell_formula_units_Z 64
_cell_length_a 18.000000
_cell_length_b 9.000000
_cell_length_c 21.000000
_cell_angle_alpha 90.000000
_cell_angle_beta 90.000000
_cell_angle_gamma 90.000000
_cell_volume 3402.000000
_symmetry_space_group_name_H-M "P M M A"
_symmetry_group_IT_number 51
_symmetry_cell_setting 'orthorhombic'
loop_
_space_group_symop_operation_xyz
x,y,z
1/2-x,-y,z
1/2+x,-y,-z
-x,y,-z
-x,-y,-z
1/2+x,y,-z
1/2-x,y,z
x,-y,z
loop_
_atom_site_type_symbol
_atom_site_label
_atom_site_fract_x
_atom_site_fract_y
_atom_site_fract_z
Si Si1 0.894606 0.824605 0.311663
Si Si2 0.335685 0.181630 0.949676
Si Si3 0.553476 0.323142 0.661987
Si Si4 0.570671 0.177420 0.171594
Si Si5 0.412921 0.324225 0.200138
Si Si6 0.335176 0.662733 0.572752
Si Si7 0.838441 0.832749 0.912675
Si Si8 0.080092 0.829144 0.466719
O O1 0.883607 0.798941 0.236730
O O2 0.843719 0.728163 0.357010
O O3 0.977479 0.769224 0.329291
O O4 0.887744 0.000000 0.324650
O O5 0.250000 0.228340 0.940855
O O6 0.385992 0.228091 0.890834
O O7 0.335445 0.000000 0.951191
O O8 0.365014 0.229365 0.019162
O O9 0.538390 0.500000 0.661932
O O10 0.600640 0.288235 0.725522
O O11 0.587058 0.272723 0.595313
O O12 0.492850 0.258105 0.181271
O O13 0.557664 0.000000 0.166975
O O14 0.415153 0.500000 0.194686
O O15 0.356743 0.258905 0.149379
O O16 0.250000 0.646215 0.558080
O O17 0.372638 0.500000 0.568165
O O18 0.366741 0.777145 0.522408
O O19 0.750000 0.842420 0.920123
O O20 0.868557 0.000000 0.904589
O O21 0.000000 0.813898 0.500000
O O22 0.090659 0.000000 0.448244
#
# Coordination Sequence:
#
# PCOD9407518 Si02
#       8
#     8   8   8   8   8   8   8   8
#     4  10  19  32  52  79 107 138 177 220 266 312
#     4   8  15  30  52  77 103 135 180 226 266 316
#     4  10  20  35  56  79 105 140 178 215 259 316
#     4   9  18  32  53  79 108 141 177 220 266 312
#     4  10  21  35  52  78 110 141 175 218 265 316
#     4  11  24  39  55  78 110 148 184 217 260 318
#     4   9  18  34  56  78 101 135 180 226 271 321
#     4  11  22  36  59  87 108 134 176 224 270 314
#
# _framework density 18.812463000000001
#
# number of rings (size 3 to 8) (size 9 to 14) (size 15 to 20)
#    0.000    2.250    1.250    2.625    0.000    4.750 
#    0.000    5.000    0.000    1.875    0.000    0.000 
#    0.000    0.000    0.000    0.000    0.000    0.000 
#
# Total GULP energy -356650.288347 kJ/mol
# GULP energy per Si atom -5572.660755 kJ/mol
# Density = 1.876965 g / cm^3
# Si number density = 18.812463 Si / 1000 Ang^3
#
#
#
# Elastic Constant Matrix: (Units=GPa)
#
#
# Indices 1 2 3 4 5 6 
#
# 1 20.0443 6.1105 20.7342 0.0000 0.0000 0.0000
# 2 6.1105 21.6829 38.4035 0.0000 0.0000 0.0000
# 3 20.7342 38.4035 100.3768 0.0000 0.0000 0.0000
# 4 0.0000 0.0000 0.0000 9.2720 0.0000 0.0000
# 5 0.0000 0.0000 0.0000 0.0000 28.2514 0.0000
# 6 0.0000 0.0000 0.0000 0.0000 0.0000 -1.4313
#
#
#
# Elastic Compliance Matrix: (Units=1/GPa)
#
#
# Indices 1 2 3 4 5 6 
#
# 1 0.065418 0.017055 -0.020038 0.000000 0.000000 0.000000
# 2 0.017055 0.147508 -0.059959 0.000000 0.000000 0.000000
# 3 -0.020038 -0.059959 0.037041 0.000000 0.000000 0.000000
# 4 0.000000 0.000000 0.000000 0.107852 0.000000 0.000000
# 5 0.000000 0.000000 0.000000 0.000000 0.035396 0.000000
# 6 0.000000 0.000000 0.000000 0.000000 0.000000 -0.698642
#
#
# Mechanical properties :
#
#
# Convention : Reuss Voigt Hill
#
# Bulk Modulus (GPa) = 8.05907 30.28893 19.17400
# Shear Modulus (GPa) = -36.18450 12.34214 -11.92118
#
# Velocity S-wave (km/s) = -4.39045 2.56415 -2.52004
# Velocity P-wave (km/s) = 4.62690 4.99018 1.32168
#
# Compressibility (1/GPa) = 0.12408374
#
# Stress axis : x y z
#
# Youngs Moduli (GPa) = 15.28632 6.77928 26.99689
#
# Poissons Ratio (x) = -0.11562 0.54096
# Poissons Ratio (y) = -0.26070 1.61869
# Poissons Ratio (z) = 0.30631 0.40648
#
# Static dielectric constant tensor:
#      x y z
#    x 1.636380 0.000000 0.000000 
#    y 0.000000 1.653400 0.000000 
#    z 0.000000 0.000000 1.640590 
# 
# From -- ./inp_files/33961.got.cif
#   From: 2010.05.17/outbox.ucp.g08.bks.cvg/sg51_17_cif.got.tgz:33961.got - 2010.06.11 16:27:58.
