data_PCOD9407554
_publ_section_title
;
Structure prediction by ZEFSAII (Michael W. Deem and Ramdas Pophale) SiO2 
 PCOD9407554
Probable space group: P M M A
;
_chemical_formula_sum "Si O2"
_cell_formula_units_Z 52
_cell_length_a 9.000000
_cell_length_b 21.000000
_cell_length_c 15.000000
_cell_angle_alpha 90.000000
_cell_angle_beta 90.000000
_cell_angle_gamma 90.000000
_cell_volume 2835.000000
_symmetry_space_group_name_H-M "P M M A"
_symmetry_group_IT_number 51
_symmetry_cell_setting 'orthorhombic'
loop_
_space_group_symop_operation_xyz
x,y,z
1/2-x,-y,z
1/2+x,-y,-z
-x,y,-z
-x,-y,-z
1/2+x,y,-z
1/2-x,y,z
x,-y,z
loop_
_atom_site_type_symbol
_atom_site_label
_atom_site_fract_x
_atom_site_fract_y
_atom_site_fract_z
Si Si1 0.427234 0.884766 0.776843
Si Si2 0.576161 0.216811 0.903090
Si Si3 0.572895 0.425115 0.910315
Si Si4 0.073221 0.725051 0.408718
Si Si5 0.924776 0.000000 0.094153
Si Si6 0.425428 0.333568 0.225816
Si Si7 0.574282 0.877930 0.591922
O O1 0.250000 0.876822 0.767499
O O2 0.500372 0.824939 0.825728
O O3 0.496853 0.901693 0.681612
O O4 0.461638 0.939771 0.846718
O O5 0.750000 0.199617 0.912134
O O6 0.565724 0.285920 0.858244
O O7 0.500000 0.211437 0.000000
O O8 0.750000 0.413607 0.914834
O O9 0.548504 0.500000 0.909763
O O10 0.512425 0.397079 0.817790
O O11 0.500000 0.398349 0.000000
O O12 0.250000 0.715521 0.414804
O O13 0.012230 0.693738 0.317910
O O14 0.051308 0.801272 0.403183
O O15 0.000000 0.701922 0.500000
O O16 0.750000 0.000000 0.078795
O O17 0.000000 0.000000 0.000000
O O18 0.250000 0.341950 0.244639
O O19 0.500000 0.900558 0.500000
O O20 0.750000 0.890750 0.591836
#
# Coordination Sequence:
#
# PCOD9407554 Si02
#       7
#     8   8   8   8   4   8   8
#     4  11  22  38  57  79 105 137 175 216 259 312
#     4  11  21  34  50  74 105 136 168 212 265 313
#     4   9  17  30  49  71  97 134 175 211 250 299
#     4   9  17  31  49  72 101 133 165 204 252 304
#     4  10  24  42  59  78 103 138 179 218 258 308
#     4   9  17  31  49  71 103 134 166 209 257 307
#     4  10  19  34  56  82 109 139 171 212 261 313
#
# _framework density 18.342151999999999
#
# number of rings (size 3 to 8) (size 9 to 14) (size 15 to 20)
#    0.000    2.154    1.538    2.308    0.000    3.077 
#    0.000    1.923    0.000    0.462    0.000    0.000 
#    0.000    0.000    0.000    0.000    0.000    0.000 
#
# Total GULP energy -289643.314342 kJ/mol
# GULP energy per Si atom -5570.063737 kJ/mol
# Density = 1.830040 g / cm^3
# Si number density = 18.342152 Si / 1000 Ang^3
#
#
#
# Elastic Constant Matrix: (Units=GPa)
#
#
# Indices 1 2 3 4 5 6 
#
# 1 23.3150 23.4439 54.2122 0.0000 0.0000 0.0000
# 2 23.4439 27.4172 24.8776 0.0000 0.0000 0.0000
# 3 54.2122 24.8776 164.9035 0.0000 0.0000 0.0000
# 4 0.0000 0.0000 0.0000 40.7188 0.0000 0.0000
# 5 0.0000 0.0000 0.0000 0.0000 36.8685 0.0000
# 6 0.0000 0.0000 0.0000 0.0000 0.0000 9.9031
#
#
#
# Elastic Compliance Matrix: (Units=1/GPa)
#
#
# Indices 1 2 3 4 5 6 
#
# 1 -0.229637 0.148134 0.053145 0.000000 0.000000 0.000000
# 2 0.148134 -0.053301 -0.040658 0.000000 0.000000 0.000000
# 3 0.053145 -0.040658 -0.005274 0.000000 0.000000 0.000000
# 4 0.000000 0.000000 0.000000 0.024559 0.000000 0.000000
# 5 0.000000 0.000000 0.000000 0.000000 0.027123 0.000000
# 6 0.000000 0.000000 0.000000 0.000000 0.000000 0.100978
#
#
# Mechanical properties :
#
#
# Convention : Reuss Voigt Hill
#
# Bulk Modulus (GPa) = 30.27365 46.74478 38.50921
# Shear Modulus (GPa) = -11.21621 25.03823 6.91101
#
# Velocity S-wave (km/s) = -2.47553 3.69869 1.94320
# Velocity P-wave (km/s) = 2.89305 6.61669 5.10639
#
# Compressibility (1/GPa) = 0.03303203
#
# Stress axis : x y z
#
# Youngs Moduli (GPa) = -4.35471 -18.76145 -189.62092
#
# Poissons Ratio (x) = 2.77922 10.07749
# Poissons Ratio (y) = 0.64508 -7.70966
# Poissons Ratio (z) = 0.23143 -0.76281
#
# Static dielectric constant tensor:
#      x y z
#    x 1.630070 0.000000 0.000000 
#    y 0.000000 1.970270 0.000000 
#    z 0.000000 0.000000 1.683640 
# 
# From -- ./inp_files/21651.got.cif
#   From: 2010.05.17/outbox.ucp.g08.bks.cvg/sg51_11_cif.got.tgz:21651.got - 2010.06.11 16:27:58.
