data_PCOD9407732
_publ_section_title
;
Structure prediction by ZEFSAII (Michael W. Deem and Ramdas Pophale) SiO2 
 PCOD9407732
Probable space group: P M M A
;
_chemical_formula_sum "Si O2"
_cell_formula_units_Z 56
_cell_length_a 21.000000
_cell_length_b 9.000000
_cell_length_c 15.000000
_cell_angle_alpha 90.000000
_cell_angle_beta 90.000000
_cell_angle_gamma 90.000000
_cell_volume 2835.000000
_symmetry_space_group_name_H-M "P M M A"
_symmetry_group_IT_number 51
_symmetry_cell_setting 'orthorhombic'
loop_
_space_group_symop_operation_xyz
x,y,z
1/2-x,-y,z
1/2+x,-y,-z
-x,y,-z
-x,-y,-z
1/2+x,y,-z
1/2-x,y,z
x,-y,z
loop_
_atom_site_type_symbol
_atom_site_label
_atom_site_fract_x
_atom_site_fract_y
_atom_site_fract_z
Si Si1 0.821196 0.822504 0.012539
Si Si2 0.179871 0.177251 0.683060
Si Si3 0.549091 0.326856 0.271200
Si Si4 0.678890 0.323352 0.509737
Si Si5 0.447961 0.326538 0.930758
Si Si6 0.582568 0.681018 0.662173
Si Si7 0.322895 0.323374 0.180548
O O1 0.750000 0.775949 0.042886
O O2 0.828464 0.765166 0.911245
O O3 0.823826 0.000000 0.016090
O O4 0.880596 0.754880 0.064316
O O5 0.250000 0.225294 0.718648
O O6 0.116240 0.245158 0.724044
O O7 0.177742 0.231487 0.580811
O O8 0.177438 0.000000 0.689454
O O9 0.560303 0.500000 0.294077
O O10 0.525731 0.320091 0.169164
O O11 0.490482 0.268120 0.330540
O O12 0.750000 0.306461 0.550305
O O13 0.671484 0.500000 0.490311
O O14 0.622696 0.276361 0.575467
O O15 0.436802 0.500000 0.953308
O O16 0.500000 0.266483 0.000000
O O17 0.580503 0.500000 0.663288
O O18 0.625240 0.724623 0.747202
O O19 0.250000 0.305078 0.213750
O O20 0.331693 0.500000 0.163006
#
# Coordination Sequence:
#
# PCOD9407732 Si02
#       7
#     8   8   8   8   8   8   8
#     4  10  21  35  51  75 107 141 178 221 269 320
#     4  10  22  40  58  76 104 141 179 221 267 312
#     4  10  21  36  56  81 107 137 173 216 265 315
#     4   9  17  32  57  85 110 139 176 214 253 304
#     4  10  21  38  59  81 106 138 178 223 270 321
#     4   9  17  31  53  82 112 139 172 215 262 311
#     4   9  16  29  52  79 108 143 180 217 259 310
#
# _framework density 19.753086
#
# number of rings (size 3 to 8) (size 9 to 14) (size 15 to 20)
#    0.000    2.429    0.000    2.143    0.000    7.714 
#    0.000    9.286    0.000    3.429    0.000    0.000 
#    0.000    0.000    0.000    0.000    0.000    0.000 
#
# Total GULP energy -312396.739340 kJ/mol
# GULP energy per Si atom -5578.513203 kJ/mol
# Density = 1.970813 g / cm^3
# Si number density = 19.753086 Si / 1000 Ang^3
#
#
#
# Elastic Constant Matrix: (Units=GPa)
#
#
# Indices 1 2 3 4 5 6 
#
# 1 135.5984 30.7612 38.0712 0.0000 0.0000 0.0000
# 2 30.7612 27.8345 7.0635 0.0000 0.0000 0.0000
# 3 38.0712 7.0635 45.3624 0.0000 0.0000 0.0000
# 4 0.0000 0.0000 0.0000 -45.0269 0.0000 0.0000
# 5 0.0000 0.0000 0.0000 0.0000 34.5267 0.0000
# 6 0.0000 0.0000 0.0000 0.0000 0.0000 17.4116
#
#
#
# Elastic Compliance Matrix: (Units=1/GPa)
#
#
# Indices 1 2 3 4 5 6 
#
# 1 0.012410 -0.011527 -0.008620 0.000000 0.000000 0.000000
# 2 -0.011527 0.048112 0.002183 0.000000 0.000000 0.000000
# 3 -0.008620 0.002183 0.028940 0.000000 0.000000 0.000000
# 4 0.000000 0.000000 0.000000 -0.022209 0.000000 0.000000
# 5 0.000000 0.000000 0.000000 0.000000 0.028963 0.000000
# 6 0.000000 0.000000 0.000000 0.000000 0.000000 0.057433
#
#
# Mechanical properties :
#
#
# Convention : Reuss Voigt Hill
#
# Bulk Modulus (GPa) = 18.68041 40.06523 29.37282
# Shear Modulus (GPa) = 24.10539 10.24225 17.17382
#
# Velocity S-wave (km/s) = 3.49712 2.27956 2.95180
# Velocity P-wave (km/s) = 5.07779 5.22069 5.14973
#
# Compressibility (1/GPa) = 0.05353202
#
# Stress axis : x y z
#
# Youngs Moduli (GPa) = 80.57982 20.78480 34.55470
#
# Poissons Ratio (x) = 0.23959 0.29788
# Poissons Ratio (y) = 0.92887 -0.07543
# Poissons Ratio (z) = 0.69463 -0.04537
#
# Static dielectric constant tensor:
#      x y z
#    x 1.717980 0.000000 0.000000 
#    y 0.000000 1.661340 0.000000 
#    z 0.000000 0.000000 1.708910 
# 
# From -- ./inp_files/25636.got.cif
#   From: 2010.05.17/outbox.ucp.g08.bks.cvg/sg51_13_cif.got.tgz:25636.got - 2010.06.11 16:27:58.
