data_PCOD9407506
_publ_section_title
;
Structure prediction by ZEFSAII (Michael W. Deem and Ramdas Pophale) SiO2 
 PCOD9407506
Probable space group: P M M A
;
_chemical_formula_sum "Si O2"
_cell_formula_units_Z 48
_cell_length_a 24.000000
_cell_length_b 9.000000
_cell_length_c 12.000000
_cell_angle_alpha 90.000000
_cell_angle_beta 90.000000
_cell_angle_gamma 90.000000
_cell_volume 2592.000000
_symmetry_space_group_name_H-M "P M M A"
_symmetry_group_IT_number 51
_symmetry_cell_setting 'orthorhombic'
loop_
_space_group_symop_operation_xyz
x,y,z
1/2-x,-y,z
1/2+x,-y,-z
-x,y,-z
-x,-y,-z
1/2+x,y,-z
1/2-x,y,z
x,-y,z
loop_
_atom_site_type_symbol
_atom_site_label
_atom_site_fract_x
_atom_site_fract_y
_atom_site_fract_z
Si Si1 0.904591 0.827271 0.340113
Si Si2 0.813546 0.837459 0.157120
Si Si3 0.372402 0.669734 0.022282
Si Si4 0.472586 0.671251 0.845524
Si Si5 0.062175 0.676359 0.451691
Si Si6 0.422118 0.827706 0.214435
O O1 0.849061 0.818236 0.267857
O O2 0.944447 0.716168 0.271311
O O3 0.899012 0.766823 0.463690
O O4 0.924271 0.000000 0.338648
O O5 0.750000 0.838995 0.187204
O O6 0.830406 0.000000 0.110092
O O7 0.825041 0.717312 0.063259
O O8 0.368826 0.500000 0.057553
O O9 0.374879 0.771448 0.130722
O O10 0.427083 0.684285 0.942422
O O11 0.492484 0.500000 0.843603
O O12 0.522102 0.787252 0.854375
O O13 0.070685 0.500000 0.456680
O O14 0.071896 0.735078 0.327713
O O15 0.000000 0.707803 0.500000
O O16 0.418343 0.000000 0.239561
#
# Coordination Sequence:
#
# PCOD9407506 Si02
#       6
#     8   8   8   8   8   8
#     4  10  19  32  53  80 107 138 179 222 262 310
#     4   9  19  37  60  84 109 136 170 218 273 321
#     4  10  21  35  52  76 107 139 176 219 264 316
#     4  10  19  32  49  72 105 143 177 214 259 309
#     4  11  22  35  52  73 106 148 183 219 264 314
#     4  12  23  33  50  74 105 143 182 219 260 314
#
# _framework density 18.518519000000001
#
# number of rings (size 3 to 8) (size 9 to 14) (size 15 to 20)
#    0.000    1.667    1.667    4.000    0.000    5.667 
#    0.000    0.000    0.000    1.000    0.000    2.333 
#    0.000    0.000    0.000    0.000    0.000    0.000 
#
# Total GULP energy -267560.949337 kJ/mol
# GULP energy per Si atom -5574.186445 kJ/mol
# Density = 1.847637 g / cm^3
# Si number density = 18.518519 Si / 1000 Ang^3
#
#
#
# Elastic Constant Matrix: (Units=GPa)
#
#
# Indices 1 2 3 4 5 6 
#
# 1 32.2683 11.3298 13.1172 0.0000 0.0000 0.0000
# 2 11.3298 69.4494 35.6362 0.0000 0.0000 0.0000
# 3 13.1172 35.6362 69.3623 0.0000 0.0000 0.0000
# 4 0.0000 0.0000 0.0000 54.7330 0.0000 0.0000
# 5 0.0000 0.0000 0.0000 0.0000 -1.3980 0.0000
# 6 0.0000 0.0000 0.0000 0.0000 0.0000 18.6382
#
#
#
# Elastic Compliance Matrix: (Units=1/GPa)
#
#
# Indices 1 2 3 4 5 6 
#
# 1 0.034042 -0.003056 -0.004868 0.000000 0.000000 0.000000
# 2 -0.003056 0.019828 -0.009609 0.000000 0.000000 0.000000
# 3 -0.004868 -0.009609 0.020275 0.000000 0.000000 0.000000
# 4 0.000000 0.000000 0.000000 0.018271 0.000000 0.000000
# 5 0.000000 0.000000 0.000000 0.000000 -0.715291 0.000000
# 6 0.000000 0.000000 0.000000 0.000000 0.000000 0.053653
#
#
# Mechanical properties :
#
#
# Convention : Reuss Voigt Hill
#
# Bulk Modulus (GPa) = 25.58914 32.36072 28.97493
# Shear Modulus (GPa) = -9.59452 21.79444 6.09996
#
# Velocity S-wave (km/s) = -2.27866 3.43432 1.81690
# Velocity P-wave (km/s) = 2.63156 5.76531 4.48129
#
# Compressibility (1/GPa) = 0.03907908
#
# Stress axis : x y z
#
# Youngs Moduli (GPa) = 29.37568 50.43319 49.32301
#
# Poissons Ratio (x) = 0.15411 0.24009
# Poissons Ratio (y) = 0.08976 0.47396
# Poissons Ratio (z) = 0.14299 0.48462
#
# Static dielectric constant tensor:
#      x y z
#    x 1.585390 0.000000 0.000000 
#    y 0.000000 1.645760 0.000000 
#    z 0.000000 0.000000 1.658780 
# 
# From -- ./inp_files/18530.got.cif
#   From: 2010.05.17/outbox.ucp.g08.bks.cvg/sg51_10_cif.got.tgz:18530.got - 2010.06.11 16:27:58.
