data_PCOD9407941
_publ_section_title
;
Structure prediction by ZEFSAII (Michael W. Deem and Ramdas Pophale) SiO2 
 PCOD9407941
Probable space group: P N N A
;
_chemical_formula_sum "Si O2"
_cell_formula_units_Z 52
_cell_length_a 13.944571
_cell_length_b 13.824471
_cell_length_c 10.849745
_cell_angle_alpha 90.000000
_cell_angle_beta 90.000000
_cell_angle_gamma 90.000000
_cell_volume 2091.573886
_symmetry_space_group_name_H-M "P N N A"
_symmetry_group_IT_number 52
_symmetry_cell_setting 'orthorhombic'
loop_
_space_group_symop_operation_xyz
x,y,z
1/2-x,-y,z
x,1/2-y,1/2-z
1/2-x,1/2+y,1/2-z
-x,-y,-z
1/2+x,y,-z
-x,1/2+y,1/2+z
1/2+x,1/2-y,1/2+z
loop_
_atom_site_type_symbol
_atom_site_label
_atom_site_fract_x
_atom_site_fract_y
_atom_site_fract_z
Si Si1 0.340303 0.381187 0.860427
Si Si2 0.906229 0.557477 0.753587
Si Si3 0.146219 0.361566 0.004506
Si Si4 0.437945 0.582873 0.767036
Si Si5 0.261915 0.808256 0.140088
Si Si6 0.475683 0.250000 0.750000
Si Si7 0.265694 0.887692 0.890540
O O1 0.255305 0.382897 0.959624
O O2 0.386799 0.485832 0.828512
O O3 0.417668 0.295997 0.866822
O O4 0.286638 0.357410 0.733008
O O5 0.807451 0.593304 0.693538
O O6 0.958674 0.456720 0.726179
O O7 0.973441 0.648509 0.714279
O O8 0.892829 0.558394 0.901555
O O9 0.078941 0.348262 0.885025
O O10 0.156834 0.269381 0.094911
O O11 0.377242 0.619514 0.650016
O O12 0.210318 0.750000 0.250000
O O13 0.222456 0.834947 0.007706
O O14 0.250000 0.000000 0.911073
#
# Coordination Sequence:
#
# PCOD9407941 Si02
#       7
#     8   8   8   8   8   4   8
#     4   9  18  30  55  82 106 133 190 235 277 319
#     4  10  19  33  49  76 112 150 178 217 281 348
#     4  10  17  32  51  80 109 136 178 236 279 323
#     4   9  19  32  54  79 109 135 185 233 282 325
#     4  10  20  33  51  75 108 145 186 219 282 340
#     4  10  16  32  50  76 106 150 182 226 270 326
#     4   9  18  35  53  80 104 140 184 234 267 330
#
# _framework density 24.861659
#
# number of rings (size 3 to 8) (size 9 to 14) (size 15 to 20)
#    0.000    2.462    2.308    2.769    0.000    2.462 
#    0.000    6.154    0.000    1.846    0.000   17.231 
#    0.000    0.000    0.000    0.000    0.000    0.000 
#
# Total GULP energy -289547.770072 kJ/mol
# GULP energy per Si atom -5568.226348 kJ/mol
# Density = 2.480507 g / cm^3
# Si number density = 24.861659 Si / 1000 Ang^3
#
#
#
# Elastic Constant Matrix: (Units=GPa)
#
#
# Indices 1 2 3 4 5 6 
#
# 1 17.7032 2.1017 4.9527 0.0000 0.0000 0.0000
# 2 2.1017 84.4753 11.5029 0.0000 0.0000 0.0000
# 3 4.9527 11.5029 111.9499 0.0000 0.0000 0.0000
# 4 0.0000 0.0000 0.0000 30.7429 0.0000 0.0000
# 5 0.0000 0.0000 0.0000 0.0000 15.2813 0.0000
# 6 0.0000 0.0000 0.0000 0.0000 0.0000 25.9325
#
#
#
# Elastic Compliance Matrix: (Units=1/GPa)
#
#
# Indices 1 2 3 4 5 6 
#
# 1 0.057295 -0.001096 -0.002422 0.000000 0.000000 0.000000
# 2 -0.001096 0.012027 -0.001187 0.000000 0.000000 0.000000
# 3 -0.002422 -0.001187 0.009162 0.000000 0.000000 0.000000
# 4 0.000000 0.000000 0.000000 0.032528 0.000000 0.000000
# 5 0.000000 0.000000 0.000000 0.000000 0.065440 0.000000
# 6 0.000000 0.000000 0.000000 0.000000 0.000000 0.038562
#
#
# Mechanical properties :
#
#
# Convention : Reuss Voigt Hill
#
# Bulk Modulus (GPa) = 14.47747 27.91590 21.19668
# Shear Modulus (GPa) = 20.20638 27.42940 23.81789
#
# Velocity S-wave (km/s) = 2.85397 3.32517 3.09854
# Velocity P-wave (km/s) = 4.08608 5.09855 4.62014
#
# Compressibility (1/GPa) = 0.06907283
#
# Stress axis : x y z
#
# Youngs Moduli (GPa) = 17.45366 83.14822 109.14983
#
# Poissons Ratio (x) = 0.09110 0.26438
# Poissons Ratio (y) = 0.01912 0.12959
# Poissons Ratio (z) = 0.04228 0.09872
#
# Static dielectric constant tensor:
#      x y z
#    x 2.347780 0.000000 0.000000 
#    y 0.000000 2.084460 0.000000 
#    z 0.000000 0.000000 1.960330 
# 
# From -- ./inp_files/12371.got.cif
#   From: 2010.05.17/outbox.cif.g08.bks.cpg/sg52_7_cif.got.tgz:12371.got - 2010.06.03 12:15:38.
