data_PCOD9407291
_publ_section_title
;
Structure prediction by ZEFSAII (Michael W. Deem and Ramdas Pophale) SiO2 
 PCOD9407291
Probable space group: P M M A
;
_chemical_formula_sum "Si O2"
_cell_formula_units_Z 40
_cell_length_a 9.773557
_cell_length_b 7.364738
_cell_length_c 26.681627
_cell_angle_alpha 90.000000
_cell_angle_beta 90.000000
_cell_angle_gamma 90.000000
_cell_volume 1920.535150
_symmetry_space_group_name_H-M "P M M A"
_symmetry_group_IT_number 51
_symmetry_cell_setting 'orthorhombic'
loop_
_space_group_symop_operation_xyz
x,y,z
1/2-x,-y,z
1/2+x,-y,-z
-x,y,-z
-x,-y,-z
1/2+x,y,-z
1/2-x,y,z
x,-y,z
loop_
_atom_site_type_symbol
_atom_site_label
_atom_site_fract_x
_atom_site_fract_y
_atom_site_fract_z
Si Si1 0.594469 0.217178 0.156486
Si Si2 0.091949 0.778336 0.547358
Si Si3 0.092985 0.778660 0.246846
Si Si4 0.092237 0.221091 0.359930
Si Si5 0.905567 0.716661 0.044583
O O1 0.750000 0.287660 0.158359
O O2 0.503587 0.285716 0.202256
O O3 0.539246 0.252149 0.100650
O O4 0.601069 0.000000 0.161830
O O5 0.250000 0.719847 0.544444
O O6 0.000000 0.722732 0.500000
O O7 0.013815 0.720046 0.597797
O O8 0.093860 0.000000 0.547287
O O9 0.250000 0.724940 0.238262
O O10 0.054705 0.722926 0.303359
O O11 0.090207 0.000000 0.246671
O O12 0.250000 0.276053 0.370108
O O13 0.092690 0.000000 0.360567
O O14 0.750000 0.788445 0.042640
O O15 0.897049 0.500000 0.038232
O O16 0.000000 0.787896 0.000000
#
# Coordination Sequence:
#
# PCOD9407291 Si02
#       5
#     8   8   8   8   8
#     4   9  17  28  42  61  83 104 129 164 201 235
#     4   9  15  20  26  37  54  79 114 155 195 232
#     4   8  14  24  37  53  73  97 124 155 194 238
#     4   8  13  21  31  42  59  84 114 149 188 229
#     4   9  18  32  47  62  82 108 135 162 195 236
#
# _framework density 20.827527
#
# number of rings (size 3 to 8) (size 9 to 14) (size 15 to 20)
#    0.000    3.400    0.000    1.800    0.000    4.400 
#    0.000    4.000    0.000    0.000    0.000    0.000 
#    0.000    0.000    0.000    0.000    0.000    1.000 
#
# Total GULP energy -223150.048704 kJ/mol
# GULP energy per Si atom -5578.751218 kJ/mol
# Density = 2.078012 g / cm^3
# Si number density = 20.827527 Si / 1000 Ang^3
#
#
#
# Elastic Constant Matrix: (Units=GPa)
#
#
# Indices 1 2 3 4 5 6 
#
# 1 137.7355 4.3621 145.3181 0.0000 0.0000 0.0000
# 2 4.3621 76.2255 2.2451 0.0000 0.0000 0.0000
# 3 145.3181 2.2451 234.7727 0.0000 0.0000 0.0000
# 4 0.0000 0.0000 0.0000 42.3200 0.0000 0.0000
# 5 0.0000 0.0000 0.0000 0.0000 39.8360 0.0000
# 6 0.0000 0.0000 0.0000 0.0000 0.0000 -16.9160
#
#
#
# Elastic Compliance Matrix: (Units=1/GPa)
#
#
# Indices 1 2 3 4 5 6 
#
# 1 0.020977 -0.000818 -0.012976 0.000000 0.000000 0.000000
# 2 -0.000818 0.013155 0.000381 0.000000 0.000000 0.000000
# 3 -0.012976 0.000381 0.012288 0.000000 0.000000 0.000000
# 4 0.000000 0.000000 0.000000 0.023630 0.000000 0.000000
# 5 0.000000 0.000000 0.000000 0.000000 0.025103 0.000000
# 6 0.000000 0.000000 0.000000 0.000000 0.000000 -0.059116
#
#
# Mechanical properties :
#
#
# Convention : Reuss Voigt Hill
#
# Bulk Modulus (GPa) = 51.04255 83.62048 67.33151
# Shear Modulus (GPa) = 72.05191 32.83522 52.44357
#
# Velocity S-wave (km/s) = 5.88809 3.97486 5.02340
# Velocity P-wave (km/s) = 8.41348 7.82957 8.12677
#
# Compressibility (1/GPa) = 0.01959150
#
# Stress axis : x y z
#
# Youngs Moduli (GPa) = 47.67145 76.01917 81.38149
#
# Poissons Ratio (x) = 0.06220 1.05603
# Poissons Ratio (y) = 0.03901 -0.03098
# Poissons Ratio (z) = 0.61860 -0.02894
#
# Static dielectric constant tensor:
#      x y z
#    x 1.712760 0.000000 0.000000 
#    y 0.000000 1.799780 0.000000 
#    z 0.000000 0.000000 1.721060 
# 
# From -- ./inp_files/32793.got.cif
#   From: 2010.05.17/outbox.cif.g08.bks.cpg/sg51_17_cif.got.tgz:32793.got - 2010.06.03 11:52:47.
