data_PCOD9407246
_publ_section_title
;
Structure prediction by ZEFSAII (Michael W. Deem and Ramdas Pophale) SiO2 
 PCOD9407246
Probable space group: P M M A
;
_chemical_formula_sum "Si O2"
_cell_formula_units_Z 40
_cell_length_a 10.073421
_cell_length_b 7.452387
_cell_length_c 27.119706
_cell_angle_alpha 90.000000
_cell_angle_beta 90.000000
_cell_angle_gamma 90.000000
_cell_volume 2035.904309
_symmetry_space_group_name_H-M "P M M A"
_symmetry_group_IT_number 51
_symmetry_cell_setting 'orthorhombic'
loop_
_space_group_symop_operation_xyz
x,y,z
1/2-x,-y,z
1/2+x,-y,-z
-x,y,-z
-x,-y,-z
1/2+x,y,-z
1/2-x,y,z
x,-y,z
loop_
_atom_site_type_symbol
_atom_site_label
_atom_site_fract_x
_atom_site_fract_y
_atom_site_fract_z
Si Si1 0.596864 0.218864 0.043040
Si Si2 0.099824 0.714480 0.241775
Si Si3 0.596497 0.719819 0.543774
Si Si4 0.400050 0.784950 0.846580
Si Si5 0.911569 0.292656 0.651725
O O1 0.750000 0.270392 0.034551
O O2 0.559392 0.277149 0.098526
O O3 0.593227 0.000000 0.042520
O O4 0.500000 0.281831 0.000000
O O5 0.250000 0.781120 0.232160
O O6 0.109632 0.500000 0.248079
O O7 0.050330 0.785815 0.295065
O O8 0.002103 0.744363 0.196604
O O9 0.500000 0.776591 0.500000
O O10 0.750000 0.772401 0.535768
O O11 0.595616 0.500000 0.545078
O O12 0.551965 0.783452 0.598279
O O13 0.250000 0.719276 0.836450
O O14 0.392790 0.000000 0.849519
O O15 0.750000 0.292620 0.652246
O O16 0.956731 0.500000 0.651039
#
# Coordination Sequence:
#
# PCOD9407246 Si02
#       5
#     8   8   8   8   8
#     4   8  14  25  41  61  84 108 134 166 205 248
#     4   9  17  29  45  64  85 112 148 183 210 244
#     4   8  12  18  29  45  67  96 127 159 197 239
#     4   9  18  31  45  64  91 117 139 169 212 257
#     4   7  11  21  35  50  72 103 134 164 202 244
#
# _framework density 19.647290999999999
#
# number of rings (size 3 to 8) (size 9 to 14) (size 15 to 20)
#    0.000    3.800    0.000    3.600    0.000    1.600 
#    0.000    3.000    0.000    4.200    0.000    0.000 
#    0.000    0.800    0.000    1.800    0.000    5.200 
#
# Total GULP energy -222695.708985 kJ/mol
# GULP energy per Si atom -5567.392725 kJ/mol
# Density = 1.960257 g / cm^3
# Si number density = 19.647291 Si / 1000 Ang^3
#
#
#
# Elastic Constant Matrix: (Units=GPa)
#
#
# Indices 1 2 3 4 5 6 
#
# 1 90.5106 3.4272 127.1867 0.0000 0.0000 0.0000
# 2 3.4272 56.9676 8.5439 0.0000 0.0000 0.0000
# 3 127.1867 8.5439 257.9656 0.0000 0.0000 0.0000
# 4 0.0000 0.0000 0.0000 15.0737 0.0000 0.0000
# 5 0.0000 0.0000 0.0000 0.0000 40.6482 0.0000
# 6 0.0000 0.0000 0.0000 0.0000 0.0000 7.5297
#
#
#
# Elastic Compliance Matrix: (Units=1/GPa)
#
#
# Indices 1 2 3 4 5 6 
#
# 1 0.035982 0.000498 -0.017757 0.000000 0.000000 0.000000
# 2 0.000498 0.017648 -0.000830 0.000000 0.000000 0.000000
# 3 -0.017757 -0.000830 0.012659 0.000000 0.000000 0.000000
# 4 0.000000 0.000000 0.000000 0.066341 0.000000 0.000000
# 5 0.000000 0.000000 0.000000 0.000000 0.024601 0.000000
# 6 0.000000 0.000000 0.000000 0.000000 0.000000 0.132808
#
#
# Mechanical properties :
#
#
# Convention : Reuss Voigt Hill
#
# Bulk Modulus (GPa) = 33.20991 75.97328 54.59160
# Shear Modulus (GPa) = 14.86975 30.40273 22.63624
#
# Velocity S-wave (km/s) = 2.75405 3.93800 3.39799
# Velocity P-wave (km/s) = 5.20123 7.70906 6.57581
#
# Compressibility (1/GPa) = 0.03011149
#
# Stress axis : x y z
#
# Youngs Moduli (GPa) = 27.79194 56.66245 78.99669
#
# Poissons Ratio (x) = -0.02824 1.40273
# Poissons Ratio (y) = -0.01385 0.06559
# Poissons Ratio (z) = 0.49350 0.04704
#
# Static dielectric constant tensor:
#      x y z
#    x 1.651290 0.000000 0.000000 
#    y 0.000000 1.813510 0.000000 
#    z 0.000000 0.000000 1.725070 
# 
# From -- ./inp_files/32785.got.cif
#   From: 2010.05.17/outbox.cif.g08.bks.cpg/sg51_17_cif.got.tgz:32785.got - 2010.06.03 11:52:47.
