data_PCOD9407177
_publ_section_title
;
Structure prediction by ZEFSAII (Michael W. Deem and Ramdas Pophale) SiO2 
 PCOD9407177
Probable space group: P M M A
;
_chemical_formula_sum "Si O2"
_cell_formula_units_Z 48
_cell_length_a 9.609526
_cell_length_b 29.392770
_cell_length_c 9.470936
_cell_angle_alpha 90.000000
_cell_angle_beta 90.000000
_cell_angle_gamma 90.000000
_cell_volume 2675.071438
_symmetry_space_group_name_H-M "P M M A"
_symmetry_group_IT_number 51
_symmetry_cell_setting 'orthorhombic'
loop_
_space_group_symop_operation_xyz
x,y,z
1/2-x,-y,z
1/2+x,-y,-z
-x,y,-z
-x,-y,-z
1/2+x,y,-z
1/2-x,y,z
x,-y,z
loop_
_atom_site_type_symbol
_atom_site_label
_atom_site_fract_x
_atom_site_fract_y
_atom_site_fract_z
Si Si1 0.750000 0.055919 0.321793
Si Si2 0.583829 0.451177 0.146769
Si Si3 0.987028 0.905945 0.837267
Si Si4 0.085792 0.350982 0.855193
Si Si5 0.250000 0.946594 0.352404
Si Si6 0.918811 0.733679 0.352819
Si Si7 0.918673 0.201092 0.856403
O O1 0.624449 0.079699 0.242358
O O2 0.750000 0.069881 0.486467
O O3 0.750000 0.000000 0.310335
O O4 0.750000 0.451476 0.120562
O O5 0.551038 0.500000 0.219215
O O6 0.552580 0.401260 0.208494
O O7 0.500000 0.451522 0.000000
O O8 0.876252 0.931021 0.741995
O O9 0.946264 0.852783 0.839875
O O10 0.000000 0.920693 0.000000
O O11 0.250000 0.350206 0.891351
O O12 0.062149 0.311338 0.743012
O O13 0.000000 0.344635 0.000000
O O14 0.250000 0.000000 0.366153
O O15 0.750000 0.741613 0.367710
O O16 0.000000 0.728078 0.500000
O O17 0.000785 0.773241 0.268791
O O18 0.750000 0.209283 0.861843
O O19 0.000000 0.215270 0.000000
#
# Coordination Sequence:
#
# PCOD9407177 Si02
#       7
#     4   8   8   8   4   8   8
#     4  11  25  41  63  93 127 167 203 245 296 355
#     4   8  13  23  42  70 104 139 179 229 283 340
#     4  11  24  41  65  93 122 157 201 249 299 353
#     4   9  18  32  52  80 110 146 189 235 291 348
#     4  11  23  43  63  89 127 163 201 243 296 355
#     4  11  24  40  59  84 116 153 196 244 293 352
#     4  11  24  43  66  91 119 152 192 242 299 356
#
# _framework density 17.943448
#
# number of rings (size 3 to 8) (size 9 to 14) (size 15 to 20)
#    0.000    1.833    0.833    3.000    4.667    7.333 
#    0.000    0.000    0.000    0.500    0.000    0.000 
#    0.000    0.000    0.000    0.000    0.000    0.167 
#
# Total GULP energy -267276.626273 kJ/mol
# GULP energy per Si atom -5568.263047 kJ/mol
# Density = 1.790261 g / cm^3
# Si number density = 17.943448 Si / 1000 Ang^3
#
#
#
# Elastic Constant Matrix: (Units=GPa)
#
#
# Indices 1 2 3 4 5 6 
#
# 1 147.4318 35.2897 73.0015 0.0000 0.0000 0.0000
# 2 35.2897 35.7839 48.6752 0.0000 0.0000 0.0000
# 3 73.0015 48.6752 147.9856 0.0000 0.0000 0.0000
# 4 0.0000 0.0000 0.0000 -3.0778 0.0000 0.0000
# 5 0.0000 0.0000 0.0000 0.0000 36.3730 0.0000
# 6 0.0000 0.0000 0.0000 0.0000 0.0000 24.7534
#
#
#
# Elastic Compliance Matrix: (Units=1/GPa)
#
#
# Indices 1 2 3 4 5 6 
#
# 1 0.009525 -0.005433 -0.002912 0.000000 0.000000 0.000000
# 2 -0.005433 0.053671 -0.014973 0.000000 0.000000 0.000000
# 3 -0.002912 -0.014973 0.013119 0.000000 0.000000 0.000000
# 4 0.000000 0.000000 0.000000 -0.324908 0.000000 0.000000
# 5 0.000000 0.000000 0.000000 0.000000 0.027493 0.000000
# 6 0.000000 0.000000 0.000000 0.000000 0.000000 0.040398
#
#
# Mechanical properties :
#
#
# Convention : Reuss Voigt Hill
#
# Bulk Modulus (GPa) = 33.69399 71.68156 52.68777
# Shear Modulus (GPa) = -40.26602 23.22540 -8.52031
#
# Velocity S-wave (km/s) = -4.74228 3.60163 -2.18145
# Velocity P-wave (km/s) = 3.34171 7.57172 4.80437
#
# Compressibility (1/GPa) = 0.02967889
#
# Stress axis : x y z
#
# Youngs Moduli (GPa) = 104.98752 18.63216 76.22649
#
# Poissons Ratio (x) = 0.10122 0.22195
# Poissons Ratio (y) = 0.57036 1.14136
# Poissons Ratio (z) = 0.30570 0.27899
#
# Static dielectric constant tensor:
#      x y z
#    x 1.572670 0.000000 0.000000 
#    y 0.000000 1.671900 0.000000 
#    z 0.000000 0.000000 1.585130 
# 
# From -- ./inp_files/6228.got.cif
#   From: 2010.05.17/outbox.cif.g08.bks.cpg/sg51_4_cif.got.tgz:6228.got - 2010.06.03 11:52:47.
