data_PCOD9407964
_publ_section_title
;
Structure prediction by ZEFSAII (Michael W. Deem and Ramdas Pophale) SiO2 
 PCOD9407964
Probable space group: P N N A
;
_chemical_formula_sum "Si O2"
_cell_formula_units_Z 52
_cell_length_a 7.267075
_cell_length_b 17.078608
_cell_length_c 16.769850
_cell_angle_alpha 90.000000
_cell_angle_beta 90.000000
_cell_angle_gamma 90.000000
_cell_volume 2081.331661
_symmetry_space_group_name_H-M "P N N A"
_symmetry_group_IT_number 52
_symmetry_cell_setting 'orthorhombic'
loop_
_space_group_symop_operation_xyz
x,y,z
1/2-x,-y,z
x,1/2-y,1/2-z
1/2-x,1/2+y,1/2-z
-x,-y,-z
1/2+x,y,-z
-x,1/2+y,1/2+z
1/2+x,1/2-y,1/2+z
loop_
_atom_site_type_symbol
_atom_site_label
_atom_site_fract_x
_atom_site_fract_y
_atom_site_fract_z
Si Si1 0.052888 0.143246 0.111703
Si Si2 0.948278 0.250000 0.750000
Si Si3 0.641267 0.111753 0.054110
Si Si4 0.515993 0.430723 0.773176
Si Si5 0.986884 0.715921 0.085322
Si Si6 0.938932 0.180010 0.411453
Si Si7 0.909949 0.580340 0.282940
O O1 0.110927 0.115597 0.199832
O O2 0.039352 0.237697 0.108526
O O3 0.159859 0.099526 0.040108
O O4 0.843627 0.122544 0.089153
O O5 0.886532 0.283175 0.836326
O O6 0.052634 0.327669 0.720749
O O7 0.532890 0.194152 0.056588
O O8 0.560346 0.056668 0.123575
O O9 0.523962 0.388277 0.857566
O O10 0.299232 0.426095 0.747461
O O11 0.541244 0.524300 0.769099
O O12 0.779199 0.689546 0.107611
O O13 0.050527 0.669667 0.007103
#
# Coordination Sequence:
#
# PCOD9407964 Si02
#       7
#     8   4   8   8   8   8   8
#     4   9  17  29  51  76 107 138 172 218 264 317
#     4  10  16  34  56  72  96 142 174 212 262 312
#     4   8  16  29  47  77 104 132 177 217 264 307
#     4  10  18  29  50  76 104 133 183 211 260 312
#     4   9  18  30  56  76 103 134 180 215 263 310
#     4  10  18  32  53  79 105 138 173 222 258 318
#     4   9  18  29  50  77  97 136 181 221 246 317
#
# _framework density 24.984003999999999
#
# number of rings (size 3 to 8) (size 9 to 14) (size 15 to 20)
#    0.000    2.769    1.538    1.385    0.000    0.615 
#    0.000    0.769   16.923    0.000    0.000    0.000 
#    0.000    0.000    0.000    0.000    0.000    0.000 
#
# Total GULP energy -289848.654711 kJ/mol
# GULP energy per Si atom -5574.012591 kJ/mol
# Density = 2.492714 g / cm^3
# Si number density = 24.984004 Si / 1000 Ang^3
#
#
#
# Elastic Constant Matrix: (Units=GPa)
#
#
# Indices 1 2 3 4 5 6 
#
# 1 46.1331 -3.7818 31.1925 0.0000 0.0000 0.0000
# 2 -3.7818 95.8618 44.3747 0.0000 0.0000 0.0000
# 3 31.1925 44.3747 215.7435 0.0000 0.0000 0.0000
# 4 0.0000 0.0000 0.0000 30.9738 0.0000 0.0000
# 5 0.0000 0.0000 0.0000 0.0000 28.6035 0.0000
# 6 0.0000 0.0000 0.0000 0.0000 0.0000 10.9771
#
#
#
# Elastic Compliance Matrix: (Units=1/GPa)
#
#
# Indices 1 2 3 4 5 6 
#
# 1 0.024738 0.002908 -0.004175 0.000000 0.000000 0.000000
# 2 0.002908 0.011871 -0.002862 0.000000 0.000000 0.000000
# 3 -0.004175 -0.002862 0.005827 0.000000 0.000000 0.000000
# 4 0.000000 0.000000 0.000000 0.032285 0.000000 0.000000
# 5 0.000000 0.000000 0.000000 0.000000 0.034961 0.000000
# 6 0.000000 0.000000 0.000000 0.000000 0.000000 0.091099
#
#
# Mechanical properties :
#
#
# Convention : Reuss Voigt Hill
#
# Bulk Modulus (GPa) = 29.25760 55.70101 42.47930
# Shear Modulus (GPa) = 22.68277 33.17440 27.92859
#
# Velocity S-wave (km/s) = 3.01639 3.64789 3.34707
# Velocity P-wave (km/s) = 4.88543 6.33134 5.65479
#
# Compressibility (1/GPa) = 0.03417916
#
# Stress axis : x y z
#
# Youngs Moduli (GPa) = 40.42436 84.23633 171.60181
#
# Poissons Ratio (x) = -0.24500 0.71640
# Poissons Ratio (y) = -0.11757 0.49117
# Poissons Ratio (z) = 0.16876 0.24110
#
# Static dielectric constant tensor:
#      x y z
#    x 2.090170 0.000000 0.000000 
#    y 0.000000 2.016490 0.000000 
#    z 0.000000 0.000000 2.123990 
# 
# From -- ./inp_files/26277.got.cif
#   From: 2010.05.17/outbox.cif.g08.bks.cpg/sg52_14_cif.got.tgz:26277.got - 2010.06.03 12:15:38.
