data_PCOD9407598
_publ_section_title
;
Structure prediction by ZEFSAII (Michael W. Deem and Ramdas Pophale) SiO2 
 PCOD9407598
Probable space group: P M M A
;
_chemical_formula_sum "Si O2"
_cell_formula_units_Z 64
_cell_length_a 9.000000
_cell_length_b 21.000000
_cell_length_c 18.000000
_cell_angle_alpha 90.000000
_cell_angle_beta 90.000000
_cell_angle_gamma 90.000000
_cell_volume 3402.000000
_symmetry_space_group_name_H-M "P M M A"
_symmetry_group_IT_number 51
_symmetry_cell_setting 'orthorhombic'
loop_
_space_group_symop_operation_xyz
x,y,z
1/2-x,-y,z
1/2+x,-y,-z
-x,y,-z
-x,-y,-z
1/2+x,y,-z
1/2-x,y,z
x,-y,z
loop_
_atom_site_type_symbol
_atom_site_label
_atom_site_fract_x
_atom_site_fract_y
_atom_site_fract_z
Si Si1 0.575593 0.689598 0.814991
Si Si2 0.428691 0.431212 0.580872
Si Si3 0.928975 0.928260 0.131301
Si Si4 0.430367 0.070580 0.696180
Si Si5 0.077678 0.196443 0.071022
Si Si6 0.571044 0.572925 0.919176
Si Si7 0.928584 0.304228 0.341770
Si Si8 0.929908 0.824112 0.421030
O O1 0.750000 0.680119 0.797827
O O2 0.561918 0.753155 0.863521
O O3 0.524344 0.627576 0.861392
O O4 0.485696 0.701421 0.740901
O O5 0.500000 0.428676 0.500000
O O6 0.250000 0.427544 0.573728
O O7 0.465373 0.500000 0.614935
O O8 0.482187 0.371350 0.626811
O O9 0.750000 0.924342 0.126775
O O10 0.972786 0.920379 0.218025
O O11 0.001349 0.870697 0.087858
O O12 0.972222 0.000000 0.107921
O O13 0.250000 0.071049 0.695716
O O14 0.479678 0.125339 0.640986
O O15 0.478879 0.000000 0.672397
O O16 0.250000 0.185742 0.056165
O O17 0.000000 0.226386 0.000000
O O18 0.750000 0.577058 0.926214
O O19 0.534029 0.500000 0.896285
O O20 0.500000 0.583786 0.000000
O O21 0.750000 0.303773 0.341564
O O22 0.976443 0.245747 0.393305
O O23 0.750000 0.825941 0.425863
O O24 0.000000 0.838819 0.500000
#
# Coordination Sequence:
#
# PCOD9407598 Si02
#       8
#     8   8   8   8   8   8   8   8
#     4  10  22  37  53  77 106 135 171 215 260 306
#     4   9  18  33  52  75 103 134 170 211 255 306
#     4   9  18  35  59  82 104 135 174 213 255 305
#     4   8  15  30  52  75  99 129 164 201 243 294
#     4  11  23  37  54  77 106 138 172 213 258 306
#     4   9  18  34  55  78 105 136 170 209 253 303
#     4  10  21  35  52  74 100 133 171 211 255 304
#     4  10  20  33  50  73 100 130 166 206 247 294
#
# _framework density 18.812463000000001
#
# number of rings (size 3 to 8) (size 9 to 14) (size 15 to 20)
#    0.000    2.500    0.000    2.625    0.000    4.750 
#    0.000    0.625    0.000    0.750    0.000    0.000 
#    0.000    0.000    0.000    0.000    0.000    0.000 
#
# Total GULP energy -356915.104180 kJ/mol
# GULP energy per Si atom -5576.798503 kJ/mol
# Density = 1.876965 g / cm^3
# Si number density = 18.812463 Si / 1000 Ang^3
#
#
#
# Elastic Constant Matrix: (Units=GPa)
#
#
# Indices 1 2 3 4 5 6 
#
# 1 0.0239 24.7116 12.5041 0.0000 0.0000 0.0000
# 2 24.7116 54.8447 4.3692 0.0000 0.0000 0.0000
# 3 12.5041 4.3692 30.1594 0.0000 0.0000 0.0000
# 4 0.0000 0.0000 0.0000 59.4947 0.0000 0.0000
# 5 0.0000 0.0000 0.0000 0.0000 30.8135 0.0000
# 6 0.0000 0.0000 0.0000 0.0000 0.0000 -9.3611
#
#
#
# Elastic Compliance Matrix: (Units=1/GPa)
#
#
# Indices 1 2 3 4 5 6 
#
# 1 -0.067414 0.028477 0.023824 0.000000 0.000000 0.000000
# 2 0.028477 0.006417 -0.012736 0.000000 0.000000 0.000000
# 3 0.023824 -0.012736 0.025125 0.000000 0.000000 0.000000
# 4 0.000000 0.000000 0.000000 0.016808 0.000000 0.000000
# 5 0.000000 0.000000 0.000000 0.000000 0.032453 0.000000
# 6 0.000000 0.000000 0.000000 0.000000 0.000000 -0.106825
#
#
# Mechanical properties :
#
#
# Convention : Reuss Voigt Hill
#
# Bulk Modulus (GPa) = 23.11706 18.68864 20.90285
# Shear Modulus (GPa) = -31.61632 19.08563 -6.26535
#
# Velocity S-wave (km/s) = -4.10397 3.18861 -1.82692
# Velocity P-wave (km/s) = 3.18463 4.84892 2.58555
#
# Compressibility (1/GPa) = 0.04325810
#
# Stress axis : x y z
#
# Youngs Moduli (GPa) = -14.83378 155.83718 39.80149
#
# Poissons Ratio (x) = -4.43776 -0.94824
# Poissons Ratio (y) = 0.42242 0.50692
# Poissons Ratio (z) = 0.35340 1.98477
#
# Static dielectric constant tensor:
#      x y z
#    x 1.628900 0.000000 0.000000 
#    y 0.000000 1.670090 0.000000 
#    z 0.000000 0.000000 1.631220 
# 
# From -- ./inp_files/28475.got.cif
#   From: 2010.05.17/outbox.ucp.g08.bks.cvg/sg51_15_cif.got.tgz:28475.got - 2010.06.11 16:27:58.
