data_PCOD9407076
_publ_section_title
;
Structure prediction by ZEFSAII (Michael W. Deem and Ramdas Pophale) SiO2 
 PCOD9407076
Probable space group: P M M A
;
_chemical_formula_sum "Si O2"
_cell_formula_units_Z 48
_cell_length_a 7.837618
_cell_length_b 14.109024
_cell_length_c 25.074714
_cell_angle_alpha 90.000000
_cell_angle_beta 90.000000
_cell_angle_gamma 90.000000
_cell_volume 2772.790471
_symmetry_space_group_name_H-M "P M M A"
_symmetry_group_IT_number 51
_symmetry_cell_setting 'orthorhombic'
loop_
_space_group_symop_operation_xyz
x,y,z
1/2-x,-y,z
1/2+x,-y,-z
-x,y,-z
-x,-y,-z
1/2+x,y,-z
1/2-x,y,z
x,-y,z
loop_
_atom_site_type_symbol
_atom_site_label
_atom_site_fract_x
_atom_site_fract_y
_atom_site_fract_z
Si Si1 0.458132 0.610985 0.326952
Si Si2 0.954707 0.609373 0.556920
Si Si3 0.947856 0.802848 0.059866
Si Si4 0.543528 0.606056 0.891808
Si Si5 0.050371 0.104576 0.167393
Si Si6 0.959008 0.296496 0.782159
O O1 0.250000 0.613735 0.325999
O O2 0.505099 0.500000 0.322641
O O3 0.512964 0.647720 0.385520
O O4 0.518175 0.667116 0.275112
O O5 0.750000 0.606179 0.558815
O O6 0.018208 0.500000 0.555397
O O7 0.000000 0.654499 0.500000
O O8 0.750000 0.822519 0.067030
O O9 0.980513 0.691390 0.071190
O O10 0.041133 0.861321 0.106067
O O11 0.000000 0.826528 0.000000
O O12 0.750000 0.607157 0.894127
O O13 0.484930 0.500000 0.905257
O O14 0.494234 0.634312 0.831178
O O15 0.250000 0.098695 0.181407
O O16 0.978601 0.191749 0.201822
O O17 0.974381 0.000000 0.173959
O O18 0.750000 0.295244 0.781601
#
# Coordination Sequence:
#
# PCOD9407076 Si02
#       6
#     8   8   8   8   8   8
#     4   8  12  18  32  56  82 107 137 170 200 234
#     4   8  13  20  30  46  71 104 139 171 200 230
#     4  11  22  35  50  67  88 112 140 173 206 245
#     4   9  17  30  48  68  90 116 143 171 206 247
#     4   9  18  33  51  69  88 108 131 165 212 261
#     4   8  13  23  41  64  86 107 134 168 205 247
#
# _framework density 17.31108
#
# number of rings (size 3 to 8) (size 9 to 14) (size 15 to 20)
#    0.000    3.167    0.000    4.000    0.000    3.333 
#    0.000    0.000    0.000    4.000    0.000    4.667 
#    0.000    0.667    0.000    0.500    0.000    1.000 
#
# Total GULP energy -267288.175949 kJ/mol
# GULP energy per Si atom -5568.503666 kJ/mol
# Density = 1.727168 g / cm^3
# Si number density = 17.311080 Si / 1000 Ang^3
#
#
#
# Elastic Constant Matrix: (Units=GPa)
#
#
# Indices 1 2 3 4 5 6 
#
# 1 19.9711 -4.0361 -6.3676 0.0000 0.0000 0.0000
# 2 -4.0361 61.0104 16.4781 0.0000 0.0000 0.0000
# 3 -6.3676 16.4781 116.6708 0.0000 0.0000 0.0000
# 4 0.0000 0.0000 0.0000 30.0160 0.0000 0.0000
# 5 0.0000 0.0000 0.0000 0.0000 13.2581 0.0000
# 6 0.0000 0.0000 0.0000 0.0000 0.0000 5.3791
#
#
#
# Elastic Compliance Matrix: (Units=1/GPa)
#
#
# Indices 1 2 3 4 5 6 
#
# 1 0.051398 0.002747 0.002417 0.000000 0.000000 0.000000
# 2 0.002747 0.017188 -0.002278 0.000000 0.000000 0.000000
# 3 0.002417 -0.002278 0.009025 0.000000 0.000000 0.000000
# 4 0.000000 0.000000 0.000000 0.033316 0.000000 0.000000
# 5 0.000000 0.000000 0.000000 0.000000 0.075425 0.000000
# 6 0.000000 0.000000 0.000000 0.000000 0.000000 0.185905
#
#
# Mechanical properties :
#
#
# Convention : Reuss Voigt Hill
#
# Bulk Modulus (GPa) = 11.99265 23.31125 17.65195
# Shear Modulus (GPa) = 12.68144 22.50250 17.59197
#
# Velocity S-wave (km/s) = 2.70952 3.60931 3.19129
# Velocity P-wave (km/s) = 4.09041 5.55561 4.87833
#
# Compressibility (1/GPa) = 0.08338441
#
# Stress axis : x y z
#
# Youngs Moduli (GPa) = 19.45593 58.18164 110.80680
#
# Poissons Ratio (x) = -0.15985 -0.26783
# Poissons Ratio (y) = -0.05345 0.25237
# Poissons Ratio (z) = -0.04703 0.13251
#
# Static dielectric constant tensor:
#      x y z
#    x 1.641360 0.000000 0.000000 
#    y 0.000000 1.587670 0.000000 
#    z 0.000000 0.000000 1.626420 
# 
# From -- ./inp_files/34632.got.cif
#   From: 2010.05.17/outbox.cif.g08.bks.cpg/sg51_18_cif.got.tgz:34632.got - 2010.06.03 11:52:47.
