data_PCOD9407513
_publ_section_title
;
Structure prediction by ZEFSAII (Michael W. Deem and Ramdas Pophale) SiO2 
 PCOD9407513
Probable space group: P M M A
;
_chemical_formula_sum "Si O2"
_cell_formula_units_Z 56
_cell_length_a 15.000000
_cell_length_b 9.000000
_cell_length_c 21.000000
_cell_angle_alpha 90.000000
_cell_angle_beta 90.000000
_cell_angle_gamma 90.000000
_cell_volume 2835.000000
_symmetry_space_group_name_H-M "P M M A"
_symmetry_group_IT_number 51
_symmetry_cell_setting 'orthorhombic'
loop_
_space_group_symop_operation_xyz
x,y,z
1/2-x,-y,z
1/2+x,-y,-z
-x,y,-z
-x,-y,-z
1/2+x,y,-z
1/2-x,y,z
x,-y,z
loop_
_atom_site_type_symbol
_atom_site_label
_atom_site_fract_x
_atom_site_fract_y
_atom_site_fract_z
Si Si1 0.649373 0.822315 0.229064
Si Si2 0.353925 0.661529 0.895811
Si Si3 0.532265 0.820429 0.719630
Si Si4 0.352427 0.680066 0.535361
Si Si5 0.352192 0.180715 0.160576
Si Si6 0.541966 0.321308 0.591567
Si Si7 0.602818 0.167925 0.980933
O O1 0.750000 0.768490 0.243285
O O2 0.616535 0.774779 0.158626
O O3 0.570959 0.771039 0.274920
O O4 0.652575 0.000000 0.230311
O O5 0.250000 0.645350 0.881414
O O6 0.397878 0.500000 0.891052
O O7 0.358145 0.726246 0.965921
O O8 0.585234 0.770153 0.782167
O O9 0.572189 0.751865 0.656577
O O10 0.534439 0.000000 0.717252
O O11 0.250000 0.732887 0.547573
O O12 0.349229 0.500000 0.540165
O O13 0.389100 0.716818 0.464749
O O14 0.439266 0.728007 0.576654
O O15 0.250000 0.226597 0.169578
O O16 0.384599 0.224940 0.090395
O O17 0.354808 0.000000 0.160710
O O18 0.540082 0.500000 0.595601
O O19 0.640591 0.000000 0.985049
O O20 0.500000 0.158536 0.000000
#
# Coordination Sequence:
#
# PCOD9407513 Si02
#       7
#     8   8   8   8   8   8   8
#     4   9  18  33  51  69  93 130 172 209 249 302
#     4  10  20  32  47  70  98 124 154 201 261 313
#     4  10  20  34  51  72 101 133 165 204 247 291
#     4   8  15  31  54  77 103 134 166 200 236 281
#     4   9  18  32  49  69  95 130 169 204 241 294
#     4   9  18  32  52  78 102 129 168 204 238 286
#     4  10  19  32  52  73  91 120 167 214 254 302
#
# _framework density 19.753086
#
# number of rings (size 3 to 8) (size 9 to 14) (size 15 to 20)
#    0.000    2.714    0.000    2.571    0.000    5.714 
#    0.000    2.143    0.000    1.714    0.000    0.000 
#    0.000    0.000    0.000    0.000    0.000    0.000 
#
# Total GULP energy -311754.145756 kJ/mol
# GULP energy per Si atom -5567.038317 kJ/mol
# Density = 1.970813 g / cm^3
# Si number density = 19.753086 Si / 1000 Ang^3
#
#
#
# Elastic Constant Matrix: (Units=GPa)
#
#
# Indices 1 2 3 4 5 6 
#
# 1 71.0239 3.1435 6.1194 0.0000 0.0000 0.0000
# 2 3.1435 -9.1186 -3.6120 0.0000 0.0000 0.0000
# 3 6.1194 -3.6120 72.9891 0.0000 0.0000 0.0000
# 4 0.0000 0.0000 0.0000 55.6796 0.0000 0.0000
# 5 0.0000 0.0000 0.0000 0.0000 8.9836 0.0000
# 6 0.0000 0.0000 0.0000 0.0000 0.0000 10.8229
#
#
#
# Elastic Compliance Matrix: (Units=1/GPa)
#
#
# Indices 1 2 3 4 5 6 
#
# 1 0.013930 0.005163 -0.000912 0.000000 0.000000 0.000000
# 2 0.005163 -0.105644 -0.005661 0.000000 0.000000 0.000000
# 3 -0.000912 -0.005661 0.013497 0.000000 0.000000 0.000000
# 4 0.000000 0.000000 0.000000 0.017960 0.000000 0.000000
# 5 0.000000 0.000000 0.000000 0.000000 0.111313 0.000000
# 6 0.000000 0.000000 0.000000 0.000000 0.000000 0.092397
#
#
# Mechanical properties :
#
#
# Convention : Reuss Voigt Hill
#
# Bulk Modulus (GPa) = -12.34008 16.24403 1.95197
# Shear Modulus (GPa) = 41.92528 23.71347 32.81937
#
# Velocity S-wave (km/s) = 4.61202 3.46857 4.08055
# Velocity P-wave (km/s) = 4.70109 4.92775 4.81576
#
# Compressibility (1/GPa) = -0.08103674
#
# Stress axis : x y z
#
# Youngs Moduli (GPa) = 71.78832 -9.46574 74.09035
#
# Poissons Ratio (x) = 0.04888 0.06760
# Poissons Ratio (y) = -0.37068 0.41941
# Poissons Ratio (z) = 0.06550 -0.05358
#
# Static dielectric constant tensor:
#      x y z
#    x 1.713360 0.000000 0.000000 
#    y 0.000000 1.703780 0.000000 
#    z 0.000000 0.000000 1.686810 
# 
# From -- ./inp_files/33295.got.cif
#   From: 2010.05.17/outbox.ucp.g08.bks.cvg/sg51_17_cif.got.tgz:33295.got - 2010.06.11 16:27:58.
