data_PCOD9407717
_publ_section_title
;
Structure prediction by ZEFSAII (Michael W. Deem and Ramdas Pophale) SiO2 
 PCOD9407717
Probable space group: P M M A
;
_chemical_formula_sum "Si O2"
_cell_formula_units_Z 48
_cell_length_a 18.000000
_cell_length_b 15.000000
_cell_length_c 9.000000
_cell_angle_alpha 90.000000
_cell_angle_beta 90.000000
_cell_angle_gamma 90.000000
_cell_volume 2430.000000
_symmetry_space_group_name_H-M "P M M A"
_symmetry_group_IT_number 51
_symmetry_cell_setting 'orthorhombic'
loop_
_space_group_symop_operation_xyz
x,y,z
1/2-x,-y,z
1/2+x,-y,-z
-x,y,-z
-x,-y,-z
1/2+x,y,-z
1/2-x,y,z
x,-y,z
loop_
_atom_site_type_symbol
_atom_site_label
_atom_site_fract_x
_atom_site_fract_y
_atom_site_fract_z
Si Si1 0.924965 0.096525 0.402331
Si Si2 0.664497 0.393100 0.372069
Si Si3 0.572489 0.736681 0.191044
Si Si4 0.904489 0.252577 0.865247
Si Si5 0.333875 0.898785 0.313101
Si Si6 0.837733 0.401577 0.693222
O O1 0.921937 0.182047 0.302400
O O2 0.856371 0.099911 0.515445
O O3 0.000000 0.098973 0.500000
O O4 0.924806 0.000000 0.323979
O O5 0.750000 0.363929 0.357409
O O6 0.662932 0.500000 0.367827
O O7 0.616334 0.347997 0.247736
O O8 0.633234 0.366673 0.534622
O O9 0.486763 0.713644 0.168745
O O10 0.603373 0.769676 0.035435
O O11 0.888785 0.166363 0.769150
O O12 0.851289 0.331975 0.819997
O O13 0.250000 0.866941 0.292592
O O14 0.340190 0.000000 0.258354
O O15 0.750000 0.410057 0.669098
O O16 0.868044 0.500000 0.724374
#
# Coordination Sequence:
#
# PCOD9407717 Si02
#       6
#     8   8   8   8   8   8
#     4  10  20  38  62  85 111 147 192 239 285 335
#     4   9  20  39  61  85 112 146 193 245 290 336
#     4  11  24  36  55  85 117 152 190 231 288 346
#     4  11  23  37  52  82 121 152 185 232 283 345
#     4  10  21  38  61  86 112 148 193 237 282 337
#     4   9  19  37  60  82 106 144 191 234 281 338
#
# _framework density 19.753086
#
# number of rings (size 3 to 8) (size 9 to 14) (size 15 to 20)
#    0.000    2.000    1.667    2.500    0.000    5.333 
#    0.000    6.667    0.000    2.000    0.000    0.000 
#    0.000    0.000    0.000    0.000    0.000    0.000 
#
# Total GULP energy -267434.828797 kJ/mol
# GULP energy per Si atom -5571.558933 kJ/mol
# Density = 1.970813 g / cm^3
# Si number density = 19.753086 Si / 1000 Ang^3
#
#
#
# Elastic Constant Matrix: (Units=GPa)
#
#
# Indices 1 2 3 4 5 6 
#
# 1 30.9865 22.3231 30.1095 0.0000 0.0000 0.0000
# 2 22.3231 24.7259 27.0010 0.0000 0.0000 0.0000
# 3 30.1095 27.0010 31.4042 0.0000 0.0000 0.0000
# 4 0.0000 0.0000 0.0000 -59.2433 0.0000 0.0000
# 5 0.0000 0.0000 0.0000 0.0000 34.6379 0.0000
# 6 0.0000 0.0000 0.0000 0.0000 0.0000 37.1939
#
#
#
# Elastic Compliance Matrix: (Units=1/GPa)
#
#
# Indices 1 2 3 4 5 6 
#
# 1 -0.158888 -0.374939 0.474707 0.000000 0.000000 0.000000
# 2 -0.374939 -0.222797 0.551041 0.000000 0.000000 0.000000
# 3 0.474707 0.551041 -0.897074 0.000000 0.000000 0.000000
# 4 0.000000 0.000000 0.000000 -0.016880 0.000000 0.000000
# 5 0.000000 0.000000 0.000000 0.000000 0.028870 0.000000
# 6 0.000000 0.000000 0.000000 0.000000 0.000000 0.026886
#
#
# Mechanical properties :
#
#
# Convention : Reuss Voigt Hill
#
# Bulk Modulus (GPa) = 43.74732 27.33154 35.53943
# Shear Modulus (GPa) = -1.97326 3.02988 0.52831
#
# Velocity S-wave (km/s) = -1.00057 1.23984 0.51772
# Velocity P-wave (km/s) = 4.56731 3.98952 4.28816
#
# Compressibility (1/GPa) = 0.02285854
#
# Stress axis : x y z
#
# Youngs Moduli (GPa) = -6.29376 -4.48839 -1.11474
#
# Poissons Ratio (x) = -1.68287 0.52917
# Poissons Ratio (y) = -2.35978 0.61427
# Poissons Ratio (z) = 2.98769 2.47329
#
# Static dielectric constant tensor:
#      x y z
#    x 1.713320 0.000000 0.000000 
#    y 0.000000 1.674960 0.000000 
#    z 0.000000 0.000000 1.709390 
# 
# From -- ./inp_files/9594.got.cif
#   From: 2010.05.17/outbox.ucp.g08.bks.cvg/sg51_5_cif.got.tgz:9594.got - 2010.06.11 16:27:58.
