data_PCOD9407798
_publ_section_title
;
Structure prediction by ZEFSAII (Michael W. Deem and Ramdas Pophale) SiO2 
 PCOD9407798
Probable space group: P M M A
;
_chemical_formula_sum "Si O2"
_cell_formula_units_Z 48
_cell_length_a 9.000000
_cell_length_b 9.000000
_cell_length_c 30.000000
_cell_angle_alpha 90.000000
_cell_angle_beta 90.000000
_cell_angle_gamma 90.000000
_cell_volume 2430.000000
_symmetry_space_group_name_H-M "P M M A"
_symmetry_group_IT_number 51
_symmetry_cell_setting 'orthorhombic'
loop_
_space_group_symop_operation_xyz
x,y,z
1/2-x,-y,z
1/2+x,-y,-z
-x,y,-z
-x,-y,-z
1/2+x,y,-z
1/2-x,y,z
x,-y,z
loop_
_atom_site_type_symbol
_atom_site_label
_atom_site_fract_x
_atom_site_fract_y
_atom_site_fract_z
Si Si1 0.750000 0.836034 0.973964
Si Si2 0.571277 0.829078 0.640777
Si Si3 0.982429 0.169680 0.895286
Si Si4 0.750000 0.670160 0.065561
Si Si5 0.917155 0.678572 0.278282
Si Si6 0.086507 0.327402 0.193277
Si Si7 0.421379 0.181436 0.455416
O O1 0.615062 0.822260 0.939930
O O2 0.750000 0.000000 0.994028
O O3 0.750000 0.732836 0.015861
O O4 0.750000 0.829401 0.638282
O O5 0.518817 0.736020 0.682353
O O6 0.515708 0.772097 0.592610
O O7 0.522883 0.000000 0.646523
O O8 0.909613 0.228436 0.850545
O O9 0.114008 0.276876 0.905798
O O10 0.028742 0.000000 0.889655
O O11 0.750000 0.500000 0.060166
O O12 0.750000 0.727709 0.286720
O O13 0.922740 0.500000 0.277044
O O14 0.971553 0.728630 0.229728
O O15 0.250000 0.325116 0.214611
O O16 0.055298 0.500000 0.181250
O O17 0.500000 0.233474 0.500000
O O18 0.250000 0.225119 0.457877
O O19 0.426391 0.000000 0.454817
#
# Coordination Sequence:
#
# PCOD9407798 Si02
#       7
#     4   8   8   4   8   8   8
#     4  10  22  42  64  88 120 154 190 232 281 338
#     4   9  18  33  53  79 110 144 186 233 279 333
#     4  11  23  41  63  89 119 153 189 230 284 338
#     4  12  26  40  60  90 122 156 194 236 277 322
#     4  10  22  38  56  81 113 147 184 228 280 333
#     4  10  21  38  60  84 111 145 187 231 276 335
#     4   8  14  25  43  70 104 140 178 224 278 332
#
# _framework density 19.753086
#
# number of rings (size 3 to 8) (size 9 to 14) (size 15 to 20)
#    0.000    2.167    0.833    3.250    1.167    6.000 
#    0.000    1.667    0.000    0.500    0.000    0.000 
#    0.000    0.000    0.000    0.000    0.000    0.000 
#
# Total GULP energy -267345.166690 kJ/mol
# GULP energy per Si atom -5569.690973 kJ/mol
# Density = 1.970813 g / cm^3
# Si number density = 19.753086 Si / 1000 Ang^3
#
#
#
# Elastic Constant Matrix: (Units=GPa)
#
#
# Indices 1 2 3 4 5 6 
#
# 1 27.4818 48.9281 33.0403 0.0000 0.0000 0.0000
# 2 48.9281 -9.0022 34.7064 0.0000 0.0000 0.0000
# 3 33.0403 34.7064 109.6654 0.0000 0.0000 0.0000
# 4 0.0000 0.0000 0.0000 21.5577 0.0000 0.0000
# 5 0.0000 0.0000 0.0000 0.0000 78.3562 0.0000
# 6 0.0000 0.0000 0.0000 0.0000 0.0000 14.2918
#
#
#
# Elastic Compliance Matrix: (Units=1/GPa)
#
#
# Indices 1 2 3 4 5 6 
#
# 1 0.010919 0.021019 -0.009942 0.000000 0.000000 0.000000
# 2 0.021019 -0.009576 -0.003302 0.000000 0.000000 0.000000
# 3 -0.009942 -0.003302 0.013159 0.000000 0.000000 0.000000
# 4 0.000000 0.000000 0.000000 0.046387 0.000000 0.000000
# 5 0.000000 0.000000 0.000000 0.000000 0.012762 0.000000
# 6 0.000000 0.000000 0.000000 0.000000 0.000000 0.069970
#
#
# Mechanical properties :
#
#
# Convention : Reuss Voigt Hill
#
# Bulk Modulus (GPa) = 33.27564 40.16607 36.72085
# Shear Modulus (GPa) = 36.20847 23.60581 29.90714
#
# Velocity S-wave (km/s) = 4.28606 3.46069 3.89530
# Velocity P-wave (km/s) = 6.43243 6.02882 6.23389
#
# Compressibility (1/GPa) = 0.03005202
#
# Stress axis : x y z
#
# Youngs Moduli (GPa) = 91.58290 -104.42937 75.99434
#
# Poissons Ratio (x) = 2.19495 0.75550
# Poissons Ratio (y) = -1.92494 0.25093
# Poissons Ratio (z) = 0.91048 -0.34483
#
# Static dielectric constant tensor:
#      x y z
#    x 1.740260 0.000000 0.000000 
#    y 0.000000 1.673650 0.000000 
#    z 0.000000 0.000000 1.651310 
# 
# From -- ./inp_files/37132.got.cif
#   From: 2010.05.17/outbox.ucp.g08.bks.cvg/sg51_19_cif.got.tgz:37132.got - 2010.06.11 16:27:58.
