data_PCOD9407290
_publ_section_title
;
Structure prediction by ZEFSAII (Michael W. Deem and Ramdas Pophale) SiO2 
 PCOD9407290
Probable space group: P M M A
;
_chemical_formula_sum "Si O2"
_cell_formula_units_Z 48
_cell_length_a 9.626132
_cell_length_b 7.333047
_cell_length_c 32.101067
_cell_angle_alpha 90.000000
_cell_angle_beta 90.000000
_cell_angle_gamma 90.000000
_cell_volume 2265.978314
_symmetry_space_group_name_H-M "P M M A"
_symmetry_group_IT_number 51
_symmetry_cell_setting 'orthorhombic'
loop_
_space_group_symop_operation_xyz
x,y,z
1/2-x,-y,z
1/2+x,-y,-z
-x,y,-z
-x,-y,-z
1/2+x,y,-z
1/2-x,y,z
x,-y,z
loop_
_atom_site_type_symbol
_atom_site_label
_atom_site_fract_x
_atom_site_fract_y
_atom_site_fract_z
Si Si1 0.089911 0.722603 0.960051
Si Si2 0.589907 0.277837 0.788074
Si Si3 0.410007 0.777298 0.459949
Si Si4 0.592286 0.718277 0.288840
Si Si5 0.589214 0.721988 0.881296
Si Si6 0.091220 0.216711 0.617596
O O1 0.250000 0.780836 0.962272
O O2 0.090762 0.500000 0.960009
O O3 0.012238 0.781576 0.917954
O O4 0.000000 0.778942 0.000000
O O5 0.750000 0.224318 0.782595
O O6 0.586702 0.500000 0.787872
O O7 0.498018 0.213245 0.749631
O O8 0.546028 0.221767 0.834650
O O9 0.500000 0.722456 0.500000
O O10 0.250000 0.718236 0.462105
O O11 0.488999 0.715449 0.418205
O O12 0.407736 0.000000 0.459762
O O13 0.750000 0.788381 0.287088
O O14 0.598073 0.500000 0.284698
O O15 0.538517 0.754381 0.335394
O O16 0.750000 0.776804 0.888260
O O17 0.589232 0.500000 0.881746
O O18 0.250000 0.288794 0.614730
O O19 0.101008 0.000000 0.611460
#
# Coordination Sequence:
#
# PCOD9407290 Si02
#       6
#     8   8   8   8   8   8
#     4   9  15  20  26  37  54  78 109 146 188 231
#     4   8  14  24  37  52  70  94 124 158 196 236
#     4   9  16  26  42  64  87 109 134 165 199 234
#     4   9  17  28  42  60  81 105 134 168 202 235
#     4   8  13  21  31  42  58  81 111 148 187 226
#     4   9  17  29  44  62  85 111 136 163 198 238
#
# _framework density 21.182905999999999
#
# number of rings (size 3 to 8) (size 9 to 14) (size 15 to 20)
#    0.000    3.333    0.000    2.000    0.000    5.333 
#    0.000    3.333    0.000    0.500    0.000    0.000 
#    0.000    0.000    0.000    0.000    0.000    0.833 
#
# Total GULP energy -267890.148681 kJ/mol
# GULP energy per Si atom -5581.044764 kJ/mol
# Density = 2.113469 g / cm^3
# Si number density = 21.182906 Si / 1000 Ang^3
#
#
#
# Elastic Constant Matrix: (Units=GPa)
#
#
# Indices 1 2 3 4 5 6 
#
# 1 154.7985 5.4011 154.4556 0.0000 0.0000 0.0000
# 2 5.4011 82.3211 2.7364 0.0000 0.0000 0.0000
# 3 154.4556 2.7364 256.9203 0.0000 0.0000 0.0000
# 4 0.0000 0.0000 0.0000 9.7735 0.0000 0.0000
# 5 0.0000 0.0000 0.0000 0.0000 41.5307 0.0000
# 6 0.0000 0.0000 0.0000 0.0000 0.0000 -19.5637
#
#
#
# Elastic Compliance Matrix: (Units=1/GPa)
#
#
# Indices 1 2 3 4 5 6 
#
# 1 0.016189 -0.000739 -0.009724 0.000000 0.000000 0.000000
# 2 -0.000739 0.012186 0.000314 0.000000 0.000000 0.000000
# 3 -0.009724 0.000314 0.009735 0.000000 0.000000 0.000000
# 4 0.000000 0.000000 0.000000 0.102318 0.000000 0.000000
# 5 0.000000 0.000000 0.000000 0.000000 0.024079 0.000000
# 6 0.000000 0.000000 0.000000 0.000000 0.000000 -0.051115
#
#
# Mechanical properties :
#
#
# Convention : Reuss Voigt Hill
#
# Bulk Modulus (GPa) = 56.14355 91.02512 73.58433
# Shear Modulus (GPa) = 35.80997 28.44455 32.12726
#
# Velocity S-wave (km/s) = 4.11605 3.66841 3.89866
# Velocity P-wave (km/s) = 7.01076 7.81072 7.42153
#
# Compressibility (1/GPa) = 0.01781149
#
# Stress axis : x y z
#
# Youngs Moduli (GPa) = 61.77131 82.06418 102.72118
#
# Poissons Ratio (x) = 0.06064 0.99891
# Poissons Ratio (y) = 0.04564 -0.03230
# Poissons Ratio (z) = 0.60069 -0.02580
#
# Static dielectric constant tensor:
#      x y z
#    x 1.716730 0.000000 0.000000 
#    y 0.000000 1.877510 0.000000 
#    z 0.000000 0.000000 1.733610 
# 
# From -- ./inp_files/36133.got.cif
#   From: 2010.05.17/outbox.cif.g08.bks.cpg/sg51_19_cif.got.tgz:36133.got - 2010.06.03 11:52:47.
