data_PCOD9407857
_publ_section_title
;
Structure prediction by ZEFSAII (Michael W. Deem and Ramdas Pophale) SiO2 
 PCOD9407857
Probable space group: P N N A
;
_chemical_formula_sum "Si O2"
_cell_formula_units_Z 36
_cell_length_a 15.891212
_cell_length_b 12.625550
_cell_length_c 7.175969
_cell_angle_alpha 90.000000
_cell_angle_beta 90.000000
_cell_angle_gamma 90.000000
_cell_volume 1439.752633
_symmetry_space_group_name_H-M "P N N A"
_symmetry_group_IT_number 52
_symmetry_cell_setting 'orthorhombic'
loop_
_space_group_symop_operation_xyz
x,y,z
1/2-x,-y,z
x,1/2-y,1/2-z
1/2-x,1/2+y,1/2-z
-x,-y,-z
1/2+x,y,-z
-x,1/2+y,1/2+z
1/2+x,1/2-y,1/2+z
loop_
_atom_site_type_symbol
_atom_site_label
_atom_site_fract_x
_atom_site_fract_y
_atom_site_fract_z
Si Si1 0.429361 0.016208 0.248990
Si Si2 0.802554 0.766587 0.974910
Si Si3 0.630930 0.809420 0.543115
Si Si4 0.019625 0.328226 0.474033
Si Si5 0.250000 0.500000 0.452010
O O1 0.411402 0.074931 0.441866
O O2 0.335310 0.023674 0.161182
O O3 0.455338 0.897031 0.206532
O O4 0.496356 0.087930 0.136799
O O5 0.805140 0.750000 0.750000
O O6 0.725670 0.690922 0.032370
O O7 0.773180 0.885196 0.035754
O O8 0.899581 0.759176 0.032331
O O9 0.633458 0.750000 0.750000
O O10 0.564955 0.734997 0.443474
#
# Coordination Sequence:
#
# PCOD9407857 Si02
#       5
#     8   8   8   8   4
#     4   9  16  27  46  76  99 123 163 218 262 308
#     4  10  17  27  46  73  96 131 168 213 256 301
#     4   9  15  30  45  71 104 123 162 221 261 302
#     4   9  17  26  46  75  98 124 168 212 260 318
#     4  10  14  26  48  68  94 118 160 210 256 284
#
# _framework density 25.004294999999999
#
# number of rings (size 3 to 8) (size 9 to 14) (size 15 to 20)
#    0.000    2.667    6.667    0.000    0.000    0.000 
#    0.000    0.000    0.000    9.333    0.000    0.000 
#    0.000    0.000    0.000    0.000    0.000    0.000 
#
# Total GULP energy -200568.786967 kJ/mol
# GULP energy per Si atom -5571.355194 kJ/mol
# Density = 2.494738 g / cm^3
# Si number density = 25.004295 Si / 1000 Ang^3
#
#
#
# Elastic Constant Matrix: (Units=GPa)
#
#
# Indices 1 2 3 4 5 6 
#
# 1 190.1494 34.2800 25.9044 0.0000 0.0000 0.0000
# 2 34.2800 72.0991 23.6997 0.0000 0.0000 0.0000
# 3 25.9044 23.6997 55.7061 0.0000 0.0000 0.0000
# 4 0.0000 0.0000 0.0000 16.8914 0.0000 0.0000
# 5 0.0000 0.0000 0.0000 0.0000 2.0080 0.0000
# 6 0.0000 0.0000 0.0000 0.0000 0.0000 40.5898
#
#
#
# Elastic Compliance Matrix: (Units=1/GPa)
#
#
# Indices 1 2 3 4 5 6 
#
# 1 0.005904 -0.002214 -0.001803 0.000000 0.000000 0.000000
# 2 -0.002214 0.016955 -0.006184 0.000000 0.000000 0.000000
# 3 -0.001803 -0.006184 0.021421 0.000000 0.000000 0.000000
# 4 0.000000 0.000000 0.000000 0.059202 0.000000 0.000000
# 5 0.000000 0.000000 0.000000 0.000000 0.498015 0.000000
# 6 0.000000 0.000000 0.000000 0.000000 0.000000 0.024637
#
#
# Mechanical properties :
#
#
# Convention : Reuss Voigt Hill
#
# Bulk Modulus (GPa) = 41.88117 53.96921 47.92519
# Shear Modulus (GPa) = 7.63947 27.50253 17.57100
#
# Velocity S-wave (km/s) = 1.74983 3.32009 2.65376
# Velocity P-wave (km/s) = 4.56820 6.02729 5.34774
#
# Compressibility (1/GPa) = 0.02387708
#
# Stress axis : x y z
#
# Youngs Moduli (GPa) = 169.37997 58.97882 46.68360
#
# Poissons Ratio (x) = 0.13059 0.08419
# Poissons Ratio (y) = 0.37505 0.28868
# Poissons Ratio (z) = 0.30546 0.36471
#
# Static dielectric constant tensor:
#      x y z
#    x 1.955040 0.000000 0.000000 
#    y 0.000000 2.040430 0.000000 
#    z 0.000000 0.000000 2.038820 
# 
# From -- ./inp_files/17946.got.cif
#   From: 2010.05.17/outbox.cif.g08.bks.cpg/sg52_9_cif.got.tgz:17946.got - 2010.06.03 12:15:38.
