data_PCOD9408702
_publ_section_title
;
Structure prediction by ZEFSAII (Michael W. Deem and Ramdas Pophale) SiO2 
 PCOD9408702
Probable space group: P N N A
;
_chemical_formula_sum "Si O2"
_cell_formula_units_Z 32
_cell_length_a 9.716236
_cell_length_b 17.388427
_cell_length_c 7.733269
_cell_angle_alpha 90.000000
_cell_angle_beta 90.000000
_cell_angle_gamma 90.000000
_cell_volume 1306.536265
_symmetry_space_group_name_H-M "P N N A"
_symmetry_group_IT_number 52
_symmetry_cell_setting 'orthorhombic'
loop_
_space_group_symop_operation_xyz
x,y,z
1/2-x,-y,z
x,1/2-y,1/2-z
1/2-x,1/2+y,1/2-z
-x,-y,-z
1/2+x,y,-z
-x,1/2+y,1/2+z
1/2+x,1/2-y,1/2+z
loop_
_atom_site_type_symbol
_atom_site_label
_atom_site_fract_x
_atom_site_fract_y
_atom_site_fract_z
Si Si1 0.695562 0.118147 0.199503
Si Si2 0.960410 0.042624 0.203488
Si Si3 0.750000 0.500000 0.713597
Si Si4 0.983131 0.750000 0.250000
Si Si5 0.133541 0.874071 0.475561
O O1 0.607794 0.040939 0.229768
O O2 0.606217 0.188999 0.137731
O O3 0.745596 0.145502 0.390001
O O4 0.840713 0.093668 0.111194
O O5 0.112287 0.035035 0.124748
O O6 0.029288 0.917157 0.608385
O O7 0.811721 0.434103 0.835722
O O8 0.072119 0.801828 0.378564
#
# Coordination Sequence:
#
# PCOD9408702 Si02
#       5
#     8   8   4   4   8
#     4   9  19  33  52  84 117 142 183 234 288 335
#     4   9  18  31  55  80 115 138 180 246 279 330
#     4  12  14  28  54  82 106 140 180 236 290 324
#     4  12  20  32  54  90 116 156 176 238 304 326
#     4  10  19  30  52  84 118 141 182 236 286 332
#
# _framework density 24.492238
#
# number of rings (size 3 to 8) (size 9 to 14) (size 15 to 20)
#    1.500    0.500    5.000    2.250    0.000    0.000 
#    0.000    1.250    0.000    0.000    0.000   12.250 
#    0.000    0.000    0.000    0.000    0.000    0.000 
#
# Total GULP energy -178712.488787 kJ/mol
# GULP energy per Si atom -5584.765275 kJ/mol
# Density = 2.443649 g / cm^3
# Si number density = 24.492238 Si / 1000 Ang^3
#
#
#
# Elastic Constant Matrix: (Units=GPa)
#
#
# Indices 1 2 3 4 5 6 
#
# 1 182.9551 59.8294 42.3284 0.0000 0.0000 0.0000
# 2 59.8294 170.7747 52.4522 0.0000 0.0000 0.0000
# 3 42.3284 52.4522 87.6720 0.0000 0.0000 0.0000
# 4 0.0000 0.0000 0.0000 28.0106 0.0000 0.0000
# 5 0.0000 0.0000 0.0000 0.0000 10.0761 0.0000
# 6 0.0000 0.0000 0.0000 0.0000 0.0000 65.5698
#
#
#
# Elastic Compliance Matrix: (Units=1/GPa)
#
#
# Indices 1 2 3 4 5 6 
#
# 1 0.006494 -0.001608 -0.002174 0.000000 0.000000 0.000000
# 2 -0.001608 0.007572 -0.003754 0.000000 0.000000 0.000000
# 3 -0.002174 -0.003754 0.014702 0.000000 0.000000 0.000000
# 4 0.000000 0.000000 0.000000 0.035701 0.000000 0.000000
# 5 0.000000 0.000000 0.000000 0.000000 0.099245 0.000000
# 6 0.000000 0.000000 0.000000 0.000000 0.000000 0.015251
#
#
# Mechanical properties :
#
#
# Convention : Reuss Voigt Hill
#
# Bulk Modulus (GPa) = 73.00717 83.40243 78.20480
# Shear Modulus (GPa) = 25.17613 39.85074 32.51343
#
# Velocity S-wave (km/s) = 3.20960 4.03808 3.64744
# Velocity P-wave (km/s) = 6.60366 7.47449 7.05253
#
# Compressibility (1/GPa) = 0.01369729
#
# Stress axis : x y z
#
# Youngs Moduli (GPa) = 153.97734 132.06766 68.02013
#
# Poissons Ratio (x) = 0.21232 0.14786
# Poissons Ratio (y) = 0.24754 0.25534
# Poissons Ratio (z) = 0.33471 0.49577
#
# Static dielectric constant tensor:
#      x y z
#    x 2.063490 0.000000 0.000000 
#    y 0.000000 1.940940 0.000000 
#    z 0.000000 0.000000 1.945450 
# 
# From -- ./inp_files/18097.got.cif
#   From: 2010.05.17/outbox.cif.g08.bks.cpg/sg52_10_cif.got.tgz:18097.got - 2010.06.03 12:15:38.
