data_PCOD9408468
_publ_section_title
;
Structure prediction by ZEFSAII (Michael W. Deem and Ramdas Pophale) SiO2 
 PCOD9408468
Probable space group: P N N A
;
_chemical_formula_sum "Si O2"
_cell_formula_units_Z 48
_cell_length_a 13.631467
_cell_length_b 13.886361
_cell_length_c 12.158130
_cell_angle_alpha 90.000000
_cell_angle_beta 90.000000
_cell_angle_gamma 90.000000
_cell_volume 2301.430321
_symmetry_space_group_name_H-M "P N N A"
_symmetry_group_IT_number 52
_symmetry_cell_setting 'orthorhombic'
loop_
_space_group_symop_operation_xyz
x,y,z
1/2-x,-y,z
x,1/2-y,1/2-z
1/2-x,1/2+y,1/2-z
-x,-y,-z
1/2+x,y,-z
-x,1/2+y,1/2+z
1/2+x,1/2-y,1/2+z
loop_
_atom_site_type_symbol
_atom_site_label
_atom_site_fract_x
_atom_site_fract_y
_atom_site_fract_z
Si Si1 0.919356 0.250000 0.250000
Si Si2 0.970243 0.774024 0.375269
Si Si3 0.489118 0.951503 0.312605
Si Si4 0.546526 0.059258 0.096520
Si Si5 0.250000 0.500000 0.689101
Si Si6 0.755883 0.338654 0.124779
Si Si7 0.114797 0.563426 0.028024
O O1 0.840915 0.258988 0.148525
O O2 0.987284 0.155075 0.265706
O O3 0.998727 0.750000 0.250000
O O4 0.970166 0.670223 0.431545
O O5 0.856227 0.806246 0.374331
O O6 0.043213 0.850826 0.428850
O O7 0.568495 0.969359 0.410584
O O8 0.501070 0.025922 0.213297
O O9 0.391790 0.980235 0.380524
O O10 0.659480 0.031588 0.114967
O O11 0.500000 0.000000 0.000000
O O12 0.231359 0.588541 0.772294
O O13 0.783571 0.391110 0.011525
#
# Coordination Sequence:
#
# PCOD9408468 Si02
#       7
#     4   8   8   8   4   8   8
#     4  10  18  34  60  90 132 168 216 276 336 384
#     4  12  23  41  66 105 135 173 230 277 347 409
#     4  10  21  39  60  98 131 178 223 282 340 410
#     4  12  26  40  67 101 138 179 217 285 353 418
#     4  12  20  44  68  96 132 168 238 282 330 404
#     4  11  22  38  71 101 129 177 233 295 324 408
#     4  10  22  40  68  98 136 171 233 293 343 392
#
# _framework density 20.856594999999999
#
# number of rings (size 3 to 8) (size 9 to 14) (size 15 to 20)
#    0.000    1.000    7.500    0.000    7.000    0.000 
#    0.000    0.000    3.667    0.000    0.000    0.000 
#    0.000    0.000    0.000    0.000    0.000    0.000 
#
# Total GULP energy -267832.595442 kJ/mol
# GULP energy per Si atom -5579.845738 kJ/mol
# Density = 2.080912 g / cm^3
# Si number density = 20.856595 Si / 1000 Ang^3
#
#
#
# Elastic Constant Matrix: (Units=GPa)
#
#
# Indices 1 2 3 4 5 6 
#
# 1 64.4485 36.5613 44.2418 0.0000 0.0000 0.0000
# 2 36.5613 143.9447 32.1154 0.0000 0.0000 0.0000
# 3 44.2418 32.1154 93.1979 0.0000 0.0000 0.0000
# 4 0.0000 0.0000 0.0000 24.4253 0.0000 0.0000
# 5 0.0000 0.0000 0.0000 0.0000 37.5142 0.0000
# 6 0.0000 0.0000 0.0000 0.0000 0.0000 26.0135
#
#
#
# Elastic Compliance Matrix: (Units=1/GPa)
#
#
# Indices 1 2 3 4 5 6 
#
# 1 0.024983 -0.004008 -0.010479 0.000000 0.000000 0.000000
# 2 -0.004008 0.008169 -0.000912 0.000000 0.000000 0.000000
# 3 -0.010479 -0.000912 0.016019 0.000000 0.000000 0.000000
# 4 0.000000 0.000000 0.000000 0.040941 0.000000 0.000000
# 5 0.000000 0.000000 0.000000 0.000000 0.026657 0.000000
# 6 0.000000 0.000000 0.000000 0.000000 0.000000 0.038442
#
#
# Mechanical properties :
#
#
# Convention : Reuss Voigt Hill
#
# Bulk Modulus (GPa) = 54.42827 58.60315 56.51571
# Shear Modulus (GPa) = 26.02389 30.16877 28.09633
#
# Velocity S-wave (km/s) = 3.53619 3.80740 3.67429
# Velocity P-wave (km/s) = 6.54415 6.89112 6.71987
#
# Compressibility (1/GPa) = 0.01837281
#
# Stress axis : x y z
#
# Youngs Moduli (GPa) = 40.02711 122.41988 62.42766
#
# Poissons Ratio (x) = 0.49062 0.65416
# Poissons Ratio (y) = 0.16042 0.05696
# Poissons Ratio (z) = 0.41943 0.11169
#
# Static dielectric constant tensor:
#      x y z
#    x 1.834490 0.000000 0.000000 
#    y 0.000000 1.878920 0.000000 
#    z 0.000000 0.000000 1.737520 
# 
# From -- ./inp_files/19559.got.cif
#   From: 2010.05.17/outbox.cif.g08.bks.cpg/sg52_10_cif.got.tgz:19559.got - 2010.06.03 12:15:38.
