data_PCOD9408318
_publ_section_title
;
Structure prediction by ZEFSAII (Michael W. Deem and Ramdas Pophale) SiO2 
 PCOD9408318
Probable space group: P N N A
;
_chemical_formula_sum "Si O2"
_cell_formula_units_Z 48
_cell_length_a 12.729821
_cell_length_b 15.466192
_cell_length_c 11.316936
_cell_angle_alpha 90.000000
_cell_angle_beta 90.000000
_cell_angle_gamma 90.000000
_cell_volume 2228.099361
_symmetry_space_group_name_H-M "P N N A"
_symmetry_group_IT_number 52
_symmetry_cell_setting 'orthorhombic'
loop_
_space_group_symop_operation_xyz
x,y,z
1/2-x,-y,z
x,1/2-y,1/2-z
1/2-x,1/2+y,1/2-z
-x,-y,-z
1/2+x,y,-z
-x,1/2+y,1/2+z
1/2+x,1/2-y,1/2+z
loop_
_atom_site_type_symbol
_atom_site_label
_atom_site_fract_x
_atom_site_fract_y
_atom_site_fract_z
Si Si1 0.892610 0.383790 0.517219
Si Si2 0.510427 0.422809 0.096662
Si Si3 0.008003 0.271284 0.070867
Si Si4 0.085008 0.131331 0.230228
Si Si5 0.445370 0.980345 0.840702
Si Si6 0.188593 0.852717 0.262372
O O1 0.006736 0.404726 0.578521
O O2 0.815433 0.385702 0.627095
O O3 0.909380 0.288416 0.463623
O O4 0.873013 0.455941 0.417576
O O5 0.581953 0.448865 0.209524
O O6 0.397534 0.398190 0.155779
O O7 0.500000 0.500000 0.000000
O O8 0.543537 0.333534 0.033906
O O9 0.089881 0.202931 0.127399
O O10 0.993491 0.336283 0.181161
O O11 0.047336 0.041788 0.179943
O O12 0.192861 0.128704 0.300975
O O13 0.167369 0.750000 0.250000
#
# Coordination Sequence:
#
# PCOD9408318 Si02
#       6
#     8   8   8   8   8   8
#     4   9  19  33  54  82 111 146 191 237 273 345
#     4  11  21  33  53  87 116 148 188 238 285 346
#     4  10  18  32  52  81 113 146 182 239 288 338
#     4  10  20  35  56  86 115 143 193 245 292 329
#     4   9  19  35  54  84 110 151 190 234 285 331
#     4  11  20  35  58  90 112 145 200 243 285 343
#
# _framework density 21.543025
#
# number of rings (size 3 to 8) (size 9 to 14) (size 15 to 20)
#    0.000    2.000    5.000    0.000    0.000    2.667 
#    0.000    0.000    0.000    0.000   52.000    0.000 
#    0.000    0.000    0.000    0.000    0.000    0.000 
#
# Total GULP energy -267265.745579 kJ/mol
# GULP energy per Si atom -5568.036366 kJ/mol
# Density = 2.149399 g / cm^3
# Si number density = 21.543025 Si / 1000 Ang^3
#
#
#
# Elastic Constant Matrix: (Units=GPa)
#
#
# Indices 1 2 3 4 5 6 
#
# 1 25.5593 7.0315 7.2673 0.0000 0.0000 0.0000
# 2 7.0315 82.1272 35.4203 0.0000 0.0000 0.0000
# 3 7.2673 35.4203 128.1283 0.0000 0.0000 0.0000
# 4 0.0000 0.0000 0.0000 63.4128 0.0000 0.0000
# 5 0.0000 0.0000 0.0000 0.0000 18.2047 0.0000
# 6 0.0000 0.0000 0.0000 0.0000 0.0000 18.6260
#
#
#
# Elastic Compliance Matrix: (Units=1/GPa)
#
#
# Indices 1 2 3 4 5 6 
#
# 1 0.040325 -0.002800 -0.001513 0.000000 0.000000 0.000000
# 2 -0.002800 0.014019 -0.003717 0.000000 0.000000 0.000000
# 3 -0.001513 -0.003717 0.008918 0.000000 0.000000 0.000000
# 4 0.000000 0.000000 0.000000 0.015770 0.000000 0.000000
# 5 0.000000 0.000000 0.000000 0.000000 0.054931 0.000000
# 6 0.000000 0.000000 0.000000 0.000000 0.000000 0.053689
#
#
# Mechanical properties :
#
#
# Convention : Reuss Voigt Hill
#
# Bulk Modulus (GPa) = 21.18526 37.25031 29.21779
# Shear Modulus (GPa) = 22.78477 32.45508 27.61993
#
# Velocity S-wave (km/s) = 3.25567 3.88561 3.58450
# Velocity P-wave (km/s) = 4.89773 6.12040 5.54288
#
# Compressibility (1/GPa) = 0.04720264
#
# Stress axis : x y z
#
# Youngs Moduli (GPa) = 24.79835 71.33235 112.13357
#
# Poissons Ratio (x) = 0.19973 0.16968
# Poissons Ratio (y) = 0.06943 0.41676
# Poissons Ratio (z) = 0.03752 0.26512
#
# Static dielectric constant tensor:
#      x y z
#    x 1.734180 0.000000 0.000000 
#    y 0.000000 1.836980 0.000000 
#    z 0.000000 0.000000 1.865260 
# 
# From -- ./inp_files/19731.got.cif
#   From: 2010.05.17/outbox.cif.g08.bks.cpg/sg52_10_cif.got.tgz:19731.got - 2010.06.03 12:15:38.
