data_PCOD9408723
_publ_section_title
;
Structure prediction by ZEFSAII (Michael W. Deem and Ramdas Pophale) SiO2 
 PCOD9408723
Probable space group: P N N A
;
_chemical_formula_sum "Si O2"
_cell_formula_units_Z 32
_cell_length_a 15.412390
_cell_length_b 5.599103
_cell_length_c 13.135757
_cell_angle_alpha 90.000000
_cell_angle_beta 90.000000
_cell_angle_gamma 90.000000
_cell_volume 1133.557494
_symmetry_space_group_name_H-M "P N N A"
_symmetry_group_IT_number 52
_symmetry_cell_setting 'orthorhombic'
loop_
_space_group_symop_operation_xyz
x,y,z
1/2-x,-y,z
x,1/2-y,1/2-z
1/2-x,1/2+y,1/2-z
-x,-y,-z
1/2+x,y,-z
-x,1/2+y,1/2+z
1/2+x,1/2-y,1/2+z
loop_
_atom_site_type_symbol
_atom_site_label
_atom_site_fract_x
_atom_site_fract_y
_atom_site_fract_z
Si Si1 0.875451 0.001768 0.705784
Si Si2 0.717175 0.246833 0.132978
Si Si3 0.534288 0.471294 0.346703
Si Si4 0.578165 0.819596 0.506815
O O1 0.844982 0.750000 0.750000
O O2 0.840312 0.250000 0.750000
O O3 0.861781 0.032447 0.585107
O O4 0.978552 0.004286 0.742745
O O5 0.750000 0.500000 0.091054
O O6 0.750479 0.250000 0.250000
O O7 0.613231 0.217848 0.142530
O O8 0.750000 0.000000 0.081592
O O9 0.582917 0.702683 0.394999
O O10 0.454832 0.399998 0.421795
O O11 0.500000 0.000000 0.500000
#
# Coordination Sequence:
#
# PCOD9408723 Si02
#       4
#     8   8   8   8
#     4  10  19  31  48  72 105 143 179 225 279 342
#     4  10  22  36  52  74 102 147 199 232 270 332
#     4  10  21  34  51  76 111 149 187 237 283 341
#     4  10  19  31  51  77 103 149 186 224 290 349
#
# _framework density 28.229713
#
# number of rings (size 3 to 8) (size 9 to 14) (size 15 to 20)
#    0.000    2.000    2.500    2.250    3.500    3.000 
#    0.000    0.000    0.000    0.000    0.000    0.000 
#    0.000    0.000  170.000    0.000    2.500    0.000 
#
# Total GULP energy -178235.107939 kJ/mol
# GULP energy per Si atom -5569.847123 kJ/mol
# Density = 2.816546 g / cm^3
# Si number density = 28.229713 Si / 1000 Ang^3
#
#
#
# Elastic Constant Matrix: (Units=GPa)
#
#
# Indices 1 2 3 4 5 6 
#
# 1 149.1199 52.0503 42.1643 0.0000 0.0000 0.0000
# 2 52.0503 228.3949 29.7795 0.0000 0.0000 0.0000
# 3 42.1643 29.7795 139.1835 0.0000 0.0000 0.0000
# 4 0.0000 0.0000 0.0000 41.3384 0.0000 0.0000
# 5 0.0000 0.0000 0.0000 0.0000 19.7655 0.0000
# 6 0.0000 0.0000 0.0000 0.0000 0.0000 -36.8867
#
#
#
# Elastic Compliance Matrix: (Units=1/GPa)
#
#
# Indices 1 2 3 4 5 6 
#
# 1 0.007812 -0.001514 -0.002043 0.000000 0.000000 0.000000
# 2 -0.001514 0.004797 -0.000568 0.000000 0.000000 0.000000
# 3 -0.002043 -0.000568 0.007925 0.000000 0.000000 0.000000
# 4 0.000000 0.000000 0.000000 0.024191 0.000000 0.000000
# 5 0.000000 0.000000 0.000000 0.000000 0.050593 0.000000
# 6 0.000000 0.000000 0.000000 0.000000 0.000000 -0.027110
#
#
# Mechanical properties :
#
#
# Convention : Reuss Voigt Hill
#
# Bulk Modulus (GPa) = 81.39589 84.96517 83.18053
# Shear Modulus (GPa) = 62.07141 31.02372 46.54756
#
# Velocity S-wave (km/s) = 4.69422 3.31867 4.06505
# Velocity P-wave (km/s) = 7.63393 6.69686 7.18070
#
# Compressibility (1/GPa) = 0.01228563
#
# Stress axis : x y z
#
# Youngs Moduli (GPa) = 128.00742 208.44399 126.18218
#
# Poissons Ratio (x) = 0.31558 0.25775
# Poissons Ratio (y) = 0.19380 0.07165
# Poissons Ratio (z) = 0.26147 0.11836
#
# Static dielectric constant tensor:
#      x y z
#    x 2.274980 0.000000 0.000000 
#    y 0.000000 2.362020 0.000000 
#    z 0.000000 0.000000 2.375040 
# 
# From -- ./inp_files/27584.got.cif
#   From: 2010.05.17/outbox.cif.g08.bks.cpg/sg52_14_cif.got.tgz:27584.got - 2010.06.03 12:15:38.
