data_PCOD9408711
_publ_section_title
;
Structure prediction by ZEFSAII (Michael W. Deem and Ramdas Pophale) SiO2 
 PCOD9408711
Probable space group: P N N A
;
_chemical_formula_sum "Si O2"
_cell_formula_units_Z 48
_cell_length_a 14.264407
_cell_length_b 5.712292
_cell_length_c 19.972783
_cell_angle_alpha 90.000000
_cell_angle_beta 90.000000
_cell_angle_gamma 90.000000
_cell_volume 1627.431452
_symmetry_space_group_name_H-M "P N N A"
_symmetry_group_IT_number 52
_symmetry_cell_setting 'orthorhombic'
loop_
_space_group_symop_operation_xyz
x,y,z
1/2-x,-y,z
x,1/2-y,1/2-z
1/2-x,1/2+y,1/2-z
-x,-y,-z
1/2+x,y,-z
-x,1/2+y,1/2+z
1/2+x,1/2-y,1/2+z
loop_
_atom_site_type_symbol
_atom_site_label
_atom_site_fract_x
_atom_site_fract_y
_atom_site_fract_z
Si Si1 0.111676 0.562358 0.669047
Si Si2 0.388392 0.934047 0.675031
Si Si3 0.612560 0.620435 0.839201
Si Si4 0.883870 0.880623 0.842803
Si Si5 0.149270 0.613579 0.001605
Si Si6 0.397619 0.884197 0.001003
O O1 0.144809 0.309922 0.641991
O O2 0.132542 0.496473 0.746910
O O3 0.998314 0.596076 0.662639
O O4 0.145332 0.818289 0.646035
O O5 0.501009 0.900973 0.674471
O O6 0.649347 0.870993 0.815193
O O7 0.648809 0.368895 0.815711
O O8 0.624988 0.636453 0.919444
O O9 0.863479 0.861931 0.922122
O O10 0.250000 0.500000 0.995148
O O11 0.153621 0.880573 0.974916
O O12 0.089519 0.386007 0.976714
O O13 0.500000 0.000000 0.000000
#
# Coordination Sequence:
#
# PCOD9408711 Si02
#       6
#     8   8   8   8   8   8
#     4   8  12  18  29  46  66  90 121 157 193 235
#     4   8  12  18  29  46  66  90 121 158 191 229
#     4   8  14  23  35  52  72  96 127 162 196 237
#     4   8  14  23  35  52  72  96 126 163 203 243
#     4  10  19  31  46  64  85 111 141 177 216 256
#     4  10  19  31  46  64  84 107 138 179 218 256
#
# _framework density 29.494327999999999
#
# number of rings (size 3 to 8) (size 9 to 14) (size 15 to 20)
#    0.000    3.333    0.000    1.000    0.000    0.000 
#    0.000    0.000    0.000    0.000    0.000   42.000 
#    0.000    0.000    0.000    0.000    0.000    0.000 
#
# Total GULP energy -267847.529690 kJ/mol
# GULP energy per Si atom -5580.156869 kJ/mol
# Density = 2.942720 g / cm^3
# Si number density = 29.494328 Si / 1000 Ang^3
#
#
#
# Elastic Constant Matrix: (Units=GPa)
#
#
# Indices 1 2 3 4 5 6 
#
# 1 89.4648 35.0779 -19.9681 0.0000 0.0000 0.0000
# 2 35.0779 471.3968 53.9378 0.0000 0.0000 0.0000
# 3 -19.9681 53.9378 95.3174 0.0000 0.0000 0.0000
# 4 0.0000 0.0000 0.0000 53.7771 0.0000 0.0000
# 5 0.0000 0.0000 0.0000 0.0000 -40.1032 0.0000
# 6 0.0000 0.0000 0.0000 0.0000 0.0000 25.9835
#
#
#
# Elastic Compliance Matrix: (Units=1/GPa)
#
#
# Indices 1 2 3 4 5 6 
#
# 1 0.012437 -0.001308 0.003346 0.000000 0.000000 0.000000
# 2 -0.001308 0.002406 -0.001635 0.000000 0.000000 0.000000
# 3 0.003346 -0.001635 0.012118 0.000000 0.000000 0.000000
# 4 0.000000 0.000000 0.000000 0.018595 0.000000 0.000000
# 5 0.000000 0.000000 0.000000 0.000000 -0.024936 0.000000
# 6 0.000000 0.000000 0.000000 0.000000 0.000000 0.038486
#
#
# Mechanical properties :
#
#
# Convention : Reuss Voigt Hill
#
# Bulk Modulus (GPa) = 36.01666 88.25268 62.13467
# Shear Modulus (GPa) = 74.01114 47.07356 60.54235
#
# Velocity S-wave (km/s) = 5.01476 3.99936 4.53556
# Velocity P-wave (km/s) = 6.76523 7.16333 6.96713
#
# Compressibility (1/GPa) = 0.02776493
#
# Stress axis : x y z
#
# Youngs Moduli (GPa) = 80.40307 415.65405 82.52407
#
# Poissons Ratio (x) = 0.54381 -0.27611
# Poissons Ratio (y) = 0.10519 0.13497
# Poissons Ratio (z) = -0.26902 0.67980
#
# Static dielectric constant tensor:
#      x y z
#    x 2.306240 0.000000 0.000000 
#    y 0.000000 2.464130 0.000000 
#    z 0.000000 0.000000 2.689070 
# 
# From -- ./inp_files/42996.got.cif
#   From: 2010.05.17/outbox.cif.g08.bks.cpg/sg52_22_cif.got.tgz:42996.got - 2010.06.03 12:15:38.
