data_PCOD9408030
_publ_section_title
;
Structure prediction by ZEFSAII (Michael W. Deem and Ramdas Pophale) SiO2 
 PCOD9408030
Probable space group: P N N A
;
_chemical_formula_sum "Si O2"
_cell_formula_units_Z 32
_cell_length_a 9.581221
_cell_length_b 15.511163
_cell_length_c 7.830891
_cell_angle_alpha 90.000000
_cell_angle_beta 90.000000
_cell_angle_gamma 90.000000
_cell_volume 1163.794762
_symmetry_space_group_name_H-M "P N N A"
_symmetry_group_IT_number 52
_symmetry_cell_setting 'orthorhombic'
loop_
_space_group_symop_operation_xyz
x,y,z
1/2-x,-y,z
x,1/2-y,1/2-z
1/2-x,1/2+y,1/2-z
-x,-y,-z
1/2+x,y,-z
-x,1/2+y,1/2+z
1/2+x,1/2-y,1/2+z
loop_
_atom_site_type_symbol
_atom_site_label
_atom_site_fract_x
_atom_site_fract_y
_atom_site_fract_z
Si Si1 0.414246 0.523570 0.826009
Si Si2 0.148548 0.795101 0.062850
Si Si3 0.849203 0.924976 0.790207
Si Si4 0.389137 0.801639 0.528983
O O1 0.250000 0.500000 0.825850
O O2 0.502417 0.472558 0.682993
O O3 0.500000 0.500000 0.000000
O O4 0.428756 0.627315 0.829541
O O5 0.153604 0.750000 0.250000
O O6 0.240548 0.881453 0.076410
O O7 0.234685 0.731464 0.941147
O O8 0.990159 0.780207 0.009373
O O9 0.883459 0.853084 0.648783
O O10 0.750000 0.000000 0.713955
#
# Coordination Sequence:
#
# PCOD9408030 Si02
#       4
#     8   8   8   8
#     4  10  17  29  55  89 118 153 203 257 304 360
#     4  10  21  37  58  88 123 159 205 260 315 370
#     4  10  20  37  60  89 124 164 211 264 316 374
#     4  10  18  35  60  86 119 162 204 253 309 370
#
# _framework density 27.496255999999999
#
# number of rings (size 3 to 8) (size 9 to 14) (size 15 to 20)
#    0.000    2.000    0.000    9.000    0.000    0.000 
#    0.000   10.000    0.000    0.000    0.000    0.000 
#    0.000    0.000    0.000    0.000    0.000    0.000 
#
# Total GULP energy -178606.719239 kJ/mol
# GULP energy per Si atom -5581.459976 kJ/mol
# Density = 2.743367 g / cm^3
# Si number density = 27.496256 Si / 1000 Ang^3
#
#
#
# Elastic Constant Matrix: (Units=GPa)
#
#
# Indices 1 2 3 4 5 6 
#
# 1 225.9831 68.9859 17.0770 0.0000 0.0000 0.0000
# 2 68.9859 93.3432 42.8304 0.0000 0.0000 0.0000
# 3 17.0770 42.8304 84.5736 0.0000 0.0000 0.0000
# 4 0.0000 0.0000 0.0000 20.1403 0.0000 0.0000
# 5 0.0000 0.0000 0.0000 0.0000 45.1885 0.0000
# 6 0.0000 0.0000 0.0000 0.0000 0.0000 74.8364
#
#
#
# Elastic Compliance Matrix: (Units=1/GPa)
#
#
# Indices 1 2 3 4 5 6 
#
# 1 0.005823 -0.004904 0.001308 0.000000 0.000000 0.000000
# 2 -0.004904 0.018085 -0.008169 0.000000 0.000000 0.000000
# 3 0.001308 -0.008169 0.015697 0.000000 0.000000 0.000000
# 4 0.000000 0.000000 0.000000 0.049652 0.000000 0.000000
# 5 0.000000 0.000000 0.000000 0.000000 0.022130 0.000000
# 6 0.000000 0.000000 0.000000 0.000000 0.000000 0.013362
#
#
# Mechanical properties :
#
#
# Convention : Reuss Voigt Hill
#
# Bulk Modulus (GPa) = 62.20564 73.52070 67.86317
# Shear Modulus (GPa) = 32.54405 46.36681 39.45543
#
# Velocity S-wave (km/s) = 3.44405 4.11091 3.79217
# Velocity P-wave (km/s) = 6.20385 7.02348 6.62635
#
# Compressibility (1/GPa) = 0.01607571
#
# Stress axis : x y z
#
# Youngs Moduli (GPa) = 171.72553 55.29293 63.70670
#
# Poissons Ratio (x) = 0.27114 -0.08330
# Poissons Ratio (y) = 0.84208 0.52041
# Poissons Ratio (z) = -0.22454 0.45168
#
# Static dielectric constant tensor:
#      x y z
#    x 2.110490 0.000000 0.000000 
#    y 0.000000 2.184360 0.000000 
#    z 0.000000 0.000000 2.206160 
# 
# From -- ./inp_files/16422.got.cif
#   From: 2010.05.17/outbox.cif.g08.bks.cpg/sg52_9_cif.got.tgz:16422.got - 2010.06.03 12:15:38.
