data_PCOD9408948
_publ_section_title
;
Structure prediction by ZEFSAII (Michael W. Deem and Ramdas Pophale) SiO2 
 PCOD9408948
Probable space group: P N N A
;
_chemical_formula_sum "Si O2"
_cell_formula_units_Z 48
_cell_length_a 12.864336
_cell_length_b 18.859739
_cell_length_c 11.550705
_cell_angle_alpha 90.000000
_cell_angle_beta 90.000000
_cell_angle_gamma 90.000000
_cell_volume 2802.409169
_symmetry_space_group_name_H-M "P N N A"
_symmetry_group_IT_number 52
_symmetry_cell_setting 'orthorhombic'
loop_
_space_group_symop_operation_xyz
x,y,z
1/2-x,-y,z
x,1/2-y,1/2-z
1/2-x,1/2+y,1/2-z
-x,-y,-z
1/2+x,y,-z
-x,1/2+y,1/2+z
1/2+x,1/2-y,1/2+z
loop_
_atom_site_type_symbol
_atom_site_label
_atom_site_fract_x
_atom_site_fract_y
_atom_site_fract_z
Si Si1 0.646567 0.951065 0.081161
Si Si2 0.539300 0.554623 0.659370
Si Si3 0.815184 0.166192 0.277717
Si Si4 0.981300 0.118290 0.467756
Si Si5 0.924159 0.673709 0.191441
Si Si6 0.130964 0.004187 0.384580
O O1 0.665446 0.884968 0.167166
O O2 0.750000 0.000000 0.072491
O O3 0.554052 0.000424 0.130349
O O4 0.604236 0.927312 0.955497
O O5 0.485684 0.620389 0.724263
O O6 0.613748 0.517205 0.752000
O O7 0.822204 0.250000 0.250000
O O8 0.900098 0.148160 0.375456
O O9 0.696789 0.151314 0.318638
O O10 0.022755 0.171752 0.565421
O O11 0.078717 0.080135 0.406519
O O12 0.926616 0.054756 0.538416
O O13 0.926737 0.750000 0.250000
O O14 0.250000 0.000000 0.417101
#
# Coordination Sequence:
#
# PCOD9408948 Si02
#       6
#     8   8   8   8   8   8
#     4  11  21  37  61  84 118 152 198 246 286 356
#     4  10  21  36  57  87 112 156 191 239 296 340
#     4  11  23  39  60  87 117 156 196 239 298 357
#     4  10  21  36  59  85 110 155 189 241 295 346
#     4  10  22  39  59  83 120 154 199 242 293 354
#     4  10  19  34  58  85 114 140 192 246 285 345
#
# _framework density 17.128119999999999
#
# number of rings (size 3 to 8) (size 9 to 14) (size 15 to 20)
#    0.000    1.667    3.333    1.500    2.333    0.667 
#    0.000    0.000    0.000    2.000    0.000    0.000 
#    0.000    0.000    0.000    0.000    0.000    0.000 
#
# Total GULP energy -267755.393538 kJ/mol
# GULP energy per Si atom -5578.237365 kJ/mol
# Density = 1.708914 g / cm^3
# Si number density = 17.128120 Si / 1000 Ang^3
#
#
#
# Elastic Constant Matrix: (Units=GPa)
#
#
# Indices 1 2 3 4 5 6 
#
# 1 105.4259 37.4952 54.2472 0.0000 0.0000 0.0000
# 2 37.4952 68.1752 48.8846 0.0000 0.0000 0.0000
# 3 54.2472 48.8846 121.8438 0.0000 0.0000 0.0000
# 4 0.0000 0.0000 0.0000 14.6005 0.0000 0.0000
# 5 0.0000 0.0000 0.0000 0.0000 8.6271 0.0000
# 6 0.0000 0.0000 0.0000 0.0000 0.0000 26.5902
#
#
#
# Elastic Compliance Matrix: (Units=1/GPa)
#
#
# Indices 1 2 3 4 5 6 
#
# 1 0.013127 -0.004252 -0.004138 0.000000 0.000000 0.000000
# 2 -0.004252 0.021970 -0.006921 0.000000 0.000000 0.000000
# 3 -0.004138 -0.006921 0.012827 0.000000 0.000000 0.000000
# 4 0.000000 0.000000 0.000000 0.068491 0.000000 0.000000
# 5 0.000000 0.000000 0.000000 0.000000 0.115914 0.000000
# 6 0.000000 0.000000 0.000000 0.000000 0.000000 0.037608
#
#
# Mechanical properties :
#
#
# Convention : Reuss Voigt Hill
#
# Bulk Modulus (GPa) = 57.80497 64.07764 60.94131
# Shear Modulus (GPa) = 16.32249 20.28475 18.30362
#
# Velocity S-wave (km/s) = 3.09036 3.44509 3.27254
# Velocity P-wave (km/s) = 6.82317 7.30184 7.06656
#
# Compressibility (1/GPa) = 0.01729955
#
# Stress axis : x y z
#
# Youngs Moduli (GPa) = 76.17826 45.51764 77.96337
#
# Poissons Ratio (x) = 0.19355 0.32264
# Poissons Ratio (y) = 0.32393 0.53959
# Poissons Ratio (z) = 0.31526 0.31503
#
# Static dielectric constant tensor:
#      x y z
#    x 1.571770 0.000000 0.000000 
#    y 0.000000 1.553320 0.000000 
#    z 0.000000 0.000000 1.577200 
# 
# From -- ./inp_files/18215.got.cif
#   From: 2010.05.17/outbox.cif.g08.bks.cpg/sg52_10_cif.got.tgz:18215.got - 2010.06.03 12:15:38.
