data_PCOD9408714
_publ_section_title
;
Structure prediction by ZEFSAII (Michael W. Deem and Ramdas Pophale) SiO2 
 PCOD9408714
Probable space group: P N N A
;
_chemical_formula_sum "Si O2"
_cell_formula_units_Z 64
_cell_length_a 15.604950
_cell_length_b 29.981346
_cell_length_c 5.731525
_cell_angle_alpha 90.000000
_cell_angle_beta 90.000000
_cell_angle_gamma 90.000000
_cell_volume 2681.536415
_symmetry_space_group_name_H-M "P N N A"
_symmetry_group_IT_number 52
_symmetry_cell_setting 'orthorhombic'
loop_
_space_group_symop_operation_xyz
x,y,z
1/2-x,-y,z
x,1/2-y,1/2-z
1/2-x,1/2+y,1/2-z
-x,-y,-z
1/2+x,y,-z
-x,1/2+y,1/2+z
1/2+x,1/2-y,1/2+z
loop_
_atom_site_type_symbol
_atom_site_label
_atom_site_fract_x
_atom_site_fract_y
_atom_site_fract_z
Si Si1 0.148684 0.246560 0.502184
Si Si2 0.771911 0.132834 0.053357
Si Si3 0.915317 0.854512 0.521134
Si Si4 0.718531 0.619422 0.954662
Si Si5 0.873280 0.030044 0.433682
Si Si6 0.073228 0.339201 0.525272
Si Si7 0.800362 0.537218 0.459241
Si Si8 0.963272 0.532906 0.692422
O O1 0.197567 0.250000 0.750000
O O2 0.110665 0.197272 0.496046
O O3 0.074887 0.284903 0.514538
O O4 0.194554 0.250000 0.250000
O O5 0.809656 0.144715 0.307235
O O6 0.760243 0.079136 0.079198
O O7 0.809201 0.139964 0.794643
O O8 0.676521 0.152970 0.036776
O O9 0.823466 0.880412 0.531377
O O10 0.958766 0.857457 0.775668
O O11 0.959632 0.861517 0.267663
O O12 0.685393 0.568724 0.963073
O O13 0.954373 0.054410 0.309848
O O14 0.832479 0.994236 0.253446
O O15 0.916188 0.998556 0.623607
O O16 0.750000 0.500000 0.609032
O O17 0.885561 0.557986 0.570115
O O18 0.000000 0.500000 0.500000
#
# Coordination Sequence:
#
# PCOD9408714 Si02
#       8
#     8   8   8   8   8   8   8   8
#     4   8  12  20  35  53  78 118 152 170 211 277
#     4  10  20  30  44  70  96 121 159 196 242 284
#     4   8  14  23  37  58  84 115 154 178 221 276
#     4  10  19  31  46  68  95 124 156 198 242 286
#     4  10  20  34  49  65  90 126 166 208 248 291
#     4   8  14  24  36  55  87 119 148 177 224 277
#     4  11  20  31  49  71  91 122 163 207 248 288
#     4   9  21  36  49  65  88 121 168 205 245 295
#
# _framework density 23.866913
#
# number of rings (size 3 to 8) (size 9 to 14) (size 15 to 20)
#    0.000    2.750    1.250    0.750    3.500    0.500 
#    0.000    0.000    0.000    0.000    0.000    0.000 
#    0.000    0.000    0.000   28.125  128.750    0.500 
#
# Total GULP energy -356316.744433 kJ/mol
# GULP energy per Si atom -5567.449132 kJ/mol
# Density = 2.381259 g / cm^3
# Si number density = 23.866913 Si / 1000 Ang^3
#
#
#
# Elastic Constant Matrix: (Units=GPa)
#
#
# Indices 1 2 3 4 5 6 
#
# 1 42.5787 5.1960 23.9428 0.0000 0.0000 0.0000
# 2 5.1960 64.5970 14.1436 0.0000 0.0000 0.0000
# 3 23.9428 14.1436 237.7952 0.0000 0.0000 0.0000
# 4 0.0000 0.0000 0.0000 23.2848 0.0000 0.0000
# 5 0.0000 0.0000 0.0000 0.0000 8.3405 0.0000
# 6 0.0000 0.0000 0.0000 0.0000 0.0000 8.1736
#
#
#
# Elastic Compliance Matrix: (Units=1/GPa)
#
#
# Indices 1 2 3 4 5 6 
#
# 1 0.025035 -0.001481 -0.002433 0.000000 0.000000 0.000000
# 2 -0.001481 0.015772 -0.000789 0.000000 0.000000 0.000000
# 3 -0.002433 -0.000789 0.004497 0.000000 0.000000 0.000000
# 4 0.000000 0.000000 0.000000 0.042946 0.000000 0.000000
# 5 0.000000 0.000000 0.000000 0.000000 0.119897 0.000000
# 6 0.000000 0.000000 0.000000 0.000000 0.000000 0.122346
#
#
# Mechanical properties :
#
#
# Convention : Reuss Voigt Hill
#
# Bulk Modulus (GPa) = 27.85601 47.94842 37.90221
# Shear Modulus (GPa) = 14.21002 28.07235 21.14118
#
# Velocity S-wave (km/s) = 2.44270 3.43330 2.97946
# Velocity P-wave (km/s) = 4.43311 5.98751 5.26796
#
# Compressibility (1/GPa) = 0.03589890
#
# Stress axis : x y z
#
# Youngs Moduli (GPa) = 39.94481 63.40154 222.36291
#
# Poissons Ratio (x) = 0.09390 0.54091
# Poissons Ratio (y) = 0.05916 0.17544
# Poissons Ratio (z) = 0.09717 0.05002
#
# Static dielectric constant tensor:
#      x y z
#    x 2.323780 0.000000 0.000000 
#    y 0.000000 1.920510 0.000000 
#    z 0.000000 0.000000 2.175300 
# 
# From -- ./inp_files/3672.got.cif
#   From: 2010.05.17/outbox.cif.g08.bks.cpg/sg52_2_cif.got.tgz:3672.got - 2010.06.03 12:15:38.
