data_PCOD9408228
_publ_section_title
;
Structure prediction by ZEFSAII (Michael W. Deem and Ramdas Pophale) SiO2 
 PCOD9408228
Probable space group: P N N A
;
_chemical_formula_sum "Si O2"
_cell_formula_units_Z 64
_cell_length_a 18.039097
_cell_length_b 15.453379
_cell_length_c 10.152919
_cell_angle_alpha 90.000000
_cell_angle_beta 90.000000
_cell_angle_gamma 90.000000
_cell_volume 2830.278493
_symmetry_space_group_name_H-M "P N N A"
_symmetry_group_IT_number 52
_symmetry_cell_setting 'orthorhombic'
loop_
_space_group_symop_operation_xyz
x,y,z
1/2-x,-y,z
x,1/2-y,1/2-z
1/2-x,1/2+y,1/2-z
-x,-y,-z
1/2+x,y,-z
-x,1/2+y,1/2+z
1/2+x,1/2-y,1/2+z
loop_
_atom_site_type_symbol
_atom_site_label
_atom_site_fract_x
_atom_site_fract_y
_atom_site_fract_z
Si Si1 0.313542 0.065678 0.162409
Si Si2 0.217148 0.402665 0.678636
Si Si3 0.912157 0.665610 0.156773
Si Si4 0.983324 0.053630 0.809478
Si Si5 0.843707 0.299483 0.419881
Si Si6 0.504136 0.628546 0.396743
Si Si7 0.639492 0.291898 0.552164
Si Si8 0.288876 0.300698 0.133905
O O1 0.396019 0.034725 0.196187
O O2 0.328902 0.130489 0.039464
O O3 0.281656 0.108353 0.296173
O O4 0.250000 0.000000 0.120129
O O5 0.250000 0.500000 0.671803
O O6 0.160172 0.388720 0.798701
O O7 0.285419 0.335068 0.685450
O O8 0.169558 0.364352 0.553183
O O9 0.915484 0.750000 0.250000
O O10 0.900426 0.710439 0.017543
O O11 0.983648 0.608422 0.189820
O O12 0.022506 0.961422 0.825888
O O13 0.998981 0.105675 0.945941
O O14 0.826931 0.209675 0.493255
O O15 0.927791 0.307700 0.377711
O O16 0.423453 0.663999 0.360652
O O17 0.712366 0.251191 0.615541
O O18 0.334157 0.250000 0.250000
#
# Coordination Sequence:
#
# PCOD9408228 Si02
#       8
#     8   8   8   8   8   8   8   8
#     4  10  21  32  52  80 113 148 185 240 289 344
#     4  10  18  30  52  80 115 146 185 229 284 343
#     4  10  19  34  53  82 116 158 184 231 291 359
#     4  10  20  29  52  85 122 141 183 232 299 354
#     4   9  19  30  53  82 114 143 183 238 289 340
#     4  10  19  31  51  88 119 146 182 239 297 351
#     4  10  21  35  58  79 117 152 195 238 298 344
#     4   9  20  36  54  80 106 150 199 236 288 344
#
# _framework density 22.612617
#
# number of rings (size 3 to 8) (size 9 to 14) (size 15 to 20)
#    0.000    2.250    2.500    1.125   10.500    0.500 
#    0.000    0.625    0.000    4.500    0.000    0.000 
#    0.000    0.000    0.000    0.000    0.000    0.000 
#
# Total GULP energy -356956.280320 kJ/mol
# GULP energy per Si atom -5577.441880 kJ/mol
# Density = 2.256115 g / cm^3
# Si number density = 22.612617 Si / 1000 Ang^3
#
#
#
# Elastic Constant Matrix: (Units=GPa)
#
#
# Indices 1 2 3 4 5 6 
#
# 1 112.2249 23.9888 2.4843 0.0000 0.0000 0.0000
# 2 23.9888 82.6043 34.4013 0.0000 0.0000 0.0000
# 3 2.4843 34.4013 38.1411 0.0000 0.0000 0.0000
# 4 0.0000 0.0000 0.0000 27.8087 0.0000 0.0000
# 5 0.0000 0.0000 0.0000 0.0000 6.3267 0.0000
# 6 0.0000 0.0000 0.0000 0.0000 0.0000 -26.9283
#
#
#
# Elastic Compliance Matrix: (Units=1/GPa)
#
#
# Indices 1 2 3 4 5 6 
#
# 1 0.009719 -0.004098 0.003063 0.000000 0.000000 0.000000
# 2 -0.004098 0.021117 -0.018779 0.000000 0.000000 0.000000
# 3 0.003063 -0.018779 0.042957 0.000000 0.000000 0.000000
# 4 0.000000 0.000000 0.000000 0.035960 0.000000 0.000000
# 5 0.000000 0.000000 0.000000 0.000000 0.158061 0.000000
# 6 0.000000 0.000000 0.000000 0.000000 0.000000 -0.037136
#
#
# Mechanical properties :
#
#
# Convention : Reuss Voigt Hill
#
# Bulk Modulus (GPa) = 29.27042 39.41325 34.34184
# Shear Modulus (GPa) = 17.74969 12.91447 15.33208
#
# Velocity S-wave (km/s) = 2.80473 2.39240 2.60673
# Velocity P-wave (km/s) = 4.84366 5.00989 4.92748
#
# Compressibility (1/GPa) = 0.03416418
#
# Stress axis : x y z
#
# Youngs Moduli (GPa) = 102.89255 47.35546 23.27911
#
# Poissons Ratio (x) = 0.19407 -0.07131
# Poissons Ratio (y) = 0.42167 0.43717
# Poissons Ratio (z) = -0.31519 0.88931
#
# Static dielectric constant tensor:
#      x y z
#    x 1.862990 0.000000 0.000000 
#    y 0.000000 1.906080 0.000000 
#    z 0.000000 0.000000 1.901020 
# 
# From -- ./inp_files/28362.got.cif
#   From: 2010.05.17/outbox.cif.g08.bks.cpg/sg52_15_cif.got.tgz:28362.got - 2010.06.03 12:15:38.
