data_PCOD9408978
_publ_section_title
;
Structure prediction by ZEFSAII (Michael W. Deem and Ramdas Pophale) SiO2 
 PCOD9408978
Probable space group: P N N A
;
_chemical_formula_sum "Si O2"
_cell_formula_units_Z 52
_cell_length_a 5.332815
_cell_length_b 21.188436
_cell_length_c 20.900073
_cell_angle_alpha 90.000000
_cell_angle_beta 90.000000
_cell_angle_gamma 90.000000
_cell_volume 2361.583044
_symmetry_space_group_name_H-M "P N N A"
_symmetry_group_IT_number 52
_symmetry_cell_setting 'orthorhombic'
loop_
_space_group_symop_operation_xyz
x,y,z
1/2-x,-y,z
x,1/2-y,1/2-z
1/2-x,1/2+y,1/2-z
-x,-y,-z
1/2+x,y,-z
-x,1/2+y,1/2+z
1/2+x,1/2-y,1/2+z
loop_
_atom_site_type_symbol
_atom_site_label
_atom_site_fract_x
_atom_site_fract_y
_atom_site_fract_z
Si Si1 0.818550 0.227933 0.575752
Si Si2 0.179735 0.778009 0.935794
Si Si3 0.750000 0.500000 0.787192
Si Si4 0.581814 0.825078 0.257198
Si Si5 0.435118 0.059375 0.825187
Si Si6 0.440286 0.078796 0.966084
Si Si7 0.076935 0.629259 0.171920
O O1 0.552484 0.250631 0.603327
O O2 0.788057 0.234981 0.499587
O O3 0.880938 0.159750 0.602656
O O4 0.048048 0.273742 0.595822
O O5 0.093737 0.845507 0.961869
O O6 0.583545 0.461040 0.737411
O O7 0.895433 0.446322 0.825859
O O8 0.607262 0.750000 0.250000
O O9 0.635037 0.868406 0.193320
O O10 0.301416 0.840858 0.284071
O O11 0.804363 0.849946 0.303343
O O12 0.546153 0.061736 0.896264
O O13 0.250000 0.000000 0.831234
O O14 0.652857 0.060031 0.017136
#
# Coordination Sequence:
#
# PCOD9408978 Si02
#       7
#     8   8   4   8   8   8   8
#     4  10  19  34  62  90 125 167 194 268 323 388
#     4  10  19  38  57  93 137 156 206 258 345 379
#     4  10  24  50  62  94 128 188 226 268 328 404
#     4  11  25  41  63 100 124 166 221 284 327 390
#     4  11  26  46  68  87 139 180 216 277 330 384
#     4  12  25  41  65  95 124 176 223 267 313 397
#     4  11  23  40  69  89 131 168 226 260 339 393
#
# _framework density 22.019129
#
# number of rings (size 3 to 8) (size 9 to 14) (size 15 to 20)
#    0.000    1.231    4.615    1.385    6.462    0.615 
#    0.000    0.000    0.000    3.692    0.000    0.000 
#    0.000    0.000    0.000    0.000    0.000    0.000 
#
# Total GULP energy -289870.142421 kJ/mol
# GULP energy per Si atom -5574.425816 kJ/mol
# Density = 2.196901 g / cm^3
# Si number density = 22.019129 Si / 1000 Ang^3
#
#
#
# Elastic Constant Matrix: (Units=GPa)
#
#
# Indices 1 2 3 4 5 6 
#
# 1 105.4989 4.3539 -6.5601 0.0000 0.0000 0.0000
# 2 4.3539 125.9427 24.0690 0.0000 0.0000 0.0000
# 3 -6.5601 24.0690 51.4950 0.0000 0.0000 0.0000
# 4 0.0000 0.0000 0.0000 36.9624 0.0000 0.0000
# 5 0.0000 0.0000 0.0000 0.0000 21.0821 0.0000
# 6 0.0000 0.0000 0.0000 0.0000 0.0000 26.8593
#
#
#
# Elastic Compliance Matrix: (Units=1/GPa)
#
#
# Indices 1 2 3 4 5 6 
#
# 1 0.009598 -0.000621 0.001513 0.000000 0.000000 0.000000
# 2 -0.000621 0.008759 -0.004173 0.000000 0.000000 0.000000
# 3 0.001513 -0.004173 0.021563 0.000000 0.000000 0.000000
# 4 0.000000 0.000000 0.000000 0.027054 0.000000 0.000000
# 5 0.000000 0.000000 0.000000 0.000000 0.047434 0.000000
# 6 0.000000 0.000000 0.000000 0.000000 0.000000 0.037231
#
#
# Mechanical properties :
#
#
# Convention : Reuss Voigt Hill
#
# Bulk Modulus (GPa) = 29.97779 36.29581 33.13680
# Shear Modulus (GPa) = 29.52971 34.38569 31.95770
#
# Velocity S-wave (km/s) = 3.66607 3.95603 3.81381
# Velocity P-wave (km/s) = 5.61819 6.11445 5.87156
#
# Compressibility (1/GPa) = 0.03335803
#
# Stress axis : x y z
#
# Youngs Moduli (GPa) = 104.18316 114.16665 46.37646
#
# Poissons Ratio (x) = 0.07090 -0.07017
# Poissons Ratio (y) = 0.06470 0.19354
# Poissons Ratio (z) = -0.15763 0.47644
#
# Static dielectric constant tensor:
#      x y z
#    x 1.809550 0.000000 0.000000 
#    y 0.000000 1.941360 0.000000 
#    z 0.000000 0.000000 1.868010 
# 
# From -- ./inp_files/35197.got.cif
#   From: 2010.05.17/outbox.cif.g08.bks.cpg/sg52_18_cif.got.tgz:35197.got - 2010.06.03 12:15:38.
