data_PCOD9408573
_publ_section_title
;
Structure prediction by ZEFSAII (Michael W. Deem and Ramdas Pophale) SiO2 
 PCOD9408573
Probable space group: P N N A
;
_chemical_formula_sum "Si O2"
_cell_formula_units_Z 40
_cell_length_a 8.089253
_cell_length_b 8.190139
_cell_length_c 24.117097
_cell_angle_alpha 90.000000
_cell_angle_beta 90.000000
_cell_angle_gamma 90.000000
_cell_volume 1597.808478
_symmetry_space_group_name_H-M "P N N A"
_symmetry_group_IT_number 52
_symmetry_cell_setting 'orthorhombic'
loop_
_space_group_symop_operation_xyz
x,y,z
1/2-x,-y,z
x,1/2-y,1/2-z
1/2-x,1/2+y,1/2-z
-x,-y,-z
1/2+x,y,-z
-x,1/2+y,1/2+z
1/2+x,1/2-y,1/2+z
loop_
_atom_site_type_symbol
_atom_site_label
_atom_site_fract_x
_atom_site_fract_y
_atom_site_fract_z
Si Si1 0.988842 0.609767 0.672144
Si Si2 0.565005 0.566214 0.773605
Si Si3 0.821278 0.321561 0.427276
Si Si4 0.641809 0.739708 0.631270
Si Si5 0.506050 0.317675 0.020746
O O1 0.032498 0.562341 0.735430
O O2 0.821700 0.713144 0.659824
O O3 0.950293 0.432199 0.643843
O O4 0.131028 0.693444 0.636811
O O5 0.750000 0.500000 0.762291
O O6 0.544530 0.750000 0.750000
O O7 0.555624 0.605246 0.838502
O O8 0.750000 0.500000 0.436600
O O9 0.677596 0.205171 0.447791
O O10 0.977740 0.294338 0.466985
O O11 0.633933 0.773094 0.566238
O O12 0.500000 0.500000 0.000000
#
# Coordination Sequence:
#
# PCOD9408573 Si02
#       5
#     8   8   8   8   8
#     4  10  20  39  68 105 130 180 244 289 343 428
#     4  10  18  36  64  99 134 168 226 289 342 411
#     4  12  25  43  72  99 137 191 246 291 350 444
#     4  10  21  39  70  98 138 182 231 294 352 420
#     4  12  27  46  67 103 144 184 234 305 372 420
#
# _framework density 25.034288
#
# number of rings (size 3 to 8) (size 9 to 14) (size 15 to 20)
#    0.000    1.200    6.000    2.400    2.800    3.200 
#    0.000    0.000    0.000   12.000    0.000    0.000 
#    0.000    0.000    0.000    0.000    0.000    0.000 
#
# Total GULP energy -223628.306822 kJ/mol
# GULP energy per Si atom -5590.707671 kJ/mol
# Density = 2.497731 g / cm^3
# Si number density = 25.034288 Si / 1000 Ang^3
#
#
#
# Elastic Constant Matrix: (Units=GPa)
#
#
# Indices 1 2 3 4 5 6 
#
# 1 83.3141 19.6177 20.5906 0.0000 0.0000 0.0000
# 2 19.6177 94.9240 35.0601 0.0000 0.0000 0.0000
# 3 20.5906 35.0601 126.0836 0.0000 0.0000 0.0000
# 4 0.0000 0.0000 0.0000 29.5946 0.0000 0.0000
# 5 0.0000 0.0000 0.0000 0.0000 32.0970 0.0000
# 6 0.0000 0.0000 0.0000 0.0000 0.0000 26.9589
#
#
#
# Elastic Compliance Matrix: (Units=1/GPa)
#
#
# Indices 1 2 3 4 5 6 
#
# 1 0.012872 -0.002099 -0.001518 0.000000 0.000000 0.000000
# 2 -0.002099 0.012083 -0.003017 0.000000 0.000000 0.000000
# 3 -0.001518 -0.003017 0.009018 0.000000 0.000000 0.000000
# 4 0.000000 0.000000 0.000000 0.033790 0.000000 0.000000
# 5 0.000000 0.000000 0.000000 0.000000 0.031156 0.000000
# 6 0.000000 0.000000 0.000000 0.000000 0.000000 0.037094
#
#
# Mechanical properties :
#
#
# Convention : Reuss Voigt Hill
#
# Bulk Modulus (GPa) = 48.30053 50.53982 49.42018
# Shear Modulus (GPa) = 32.01360 33.00032 32.50696
#
# Velocity S-wave (km/s) = 3.57990 3.63465 3.60738
# Velocity P-wave (km/s) = 6.03516 6.15193 6.09383
#
# Compressibility (1/GPa) = 0.02070371
#
# Stress axis : x y z
#
# Youngs Moduli (GPa) = 77.68565 82.76102 110.88736
#
# Poissons Ratio (x) = 0.17376 0.16837
# Poissons Ratio (y) = 0.16310 0.33455
# Poissons Ratio (z) = 0.11796 0.24969
#
# Static dielectric constant tensor:
#      x y z
#    x 2.082920 0.000000 0.000000 
#    y 0.000000 1.965130 0.000000 
#    z 0.000000 0.000000 2.037820 
# 
# From -- ./inp_files/39216.got.cif
#   From: 2010.05.17/outbox.cif.g08.bks.cpg/sg52_20_cif.got.tgz:39216.got - 2010.06.03 12:15:38.
