data_PCOD9408720
_publ_section_title
;
Structure prediction by ZEFSAII (Michael W. Deem and Ramdas Pophale) SiO2 
 PCOD9408720
Probable space group: P N N A
;
_chemical_formula_sum "Si O2"
_cell_formula_units_Z 64
_cell_length_a 9.527284
_cell_length_b 18.208649
_cell_length_c 22.785873
_cell_angle_alpha 90.000000
_cell_angle_beta 90.000000
_cell_angle_gamma 90.000000
_cell_volume 3952.869785
_symmetry_space_group_name_H-M "P N N A"
_symmetry_group_IT_number 52
_symmetry_cell_setting 'orthorhombic'
loop_
_space_group_symop_operation_xyz
x,y,z
1/2-x,-y,z
x,1/2-y,1/2-z
1/2-x,1/2+y,1/2-z
-x,-y,-z
1/2+x,y,-z
-x,1/2+y,1/2+z
1/2+x,1/2-y,1/2+z
loop_
_atom_site_type_symbol
_atom_site_label
_atom_site_fract_x
_atom_site_fract_y
_atom_site_fract_z
Si Si1 0.234507 0.588612 0.200493
Si Si2 0.234534 0.921913 0.643350
Si Si3 0.944749 0.572317 0.254074
Si Si4 0.744580 0.589015 0.936960
Si Si5 0.738676 0.308760 0.301899
Si Si6 0.244262 0.224482 0.575607
Si Si7 0.974223 0.402913 0.244106
Si Si8 0.998507 0.821998 0.502690
O O1 0.250000 0.500000 0.201789
O O2 0.233731 0.607798 0.132184
O O3 0.366340 0.619369 0.235588
O O4 0.091270 0.604836 0.233336
O O5 0.344315 0.924251 0.696963
O O6 0.264200 0.858886 0.598635
O O7 0.089398 0.908817 0.677824
O O8 0.250000 0.000000 0.612911
O O9 0.872110 0.624666 0.300781
O O10 0.958715 0.486033 0.269052
O O11 0.750000 0.500000 0.943680
O O12 0.886571 0.627212 0.961867
O O13 0.606510 0.624819 0.967238
O O14 0.702965 0.250000 0.250000
O O15 0.745140 0.272272 0.365339
O O16 0.884033 0.345917 0.281105
O O17 0.392438 0.226370 0.541316
O O18 0.104310 0.229988 0.536088
#
# Coordination Sequence:
#
# PCOD9408720 Si02
#       8
#     8   8   8   8   8   8   8   8
#     4   9  17  29  48  72 104 131 156 201 253 289
#     4   9  16  28  49  69  98 135 172 208 234 276
#     4   9  17  31  50  78 103 128 159 198 253 303
#     4  10  19  31  48  68  94 136 182 214 234 268
#     4  11  20  32  54  77  99 131 168 205 245 303
#     4  11  21  37  50  70  98 135 175 206 250 289
#     4   9  17  31  50  78 103 128 159 198 253 303
#     4  10  23  34  46  64  97 138 178 216 238 282
#
# _framework density 16.190769
#
# number of rings (size 3 to 8) (size 9 to 14) (size 15 to 20)
#    0.000    2.250    2.500    3.000    0.000    5.000 
#    0.000    3.125    0.000    0.000    0.000    3.500 
#    0.000    0.000    0.000    0.000    0.000    0.000 
#
# Total GULP energy -356576.295968 kJ/mol
# GULP energy per Si atom -5571.504624 kJ/mol
# Density = 1.615392 g / cm^3
# Si number density = 16.190769 Si / 1000 Ang^3
#
#
#
# Elastic Constant Matrix: (Units=GPa)
#
#
# Indices 1 2 3 4 5 6 
#
# 1 94.2983 8.6754 25.2115 0.0000 0.0000 0.0000
# 2 8.6754 29.6644 24.8327 0.0000 0.0000 0.0000
# 3 25.2115 24.8327 70.7745 0.0000 0.0000 0.0000
# 4 0.0000 0.0000 0.0000 23.4306 0.0000 0.0000
# 5 0.0000 0.0000 0.0000 0.0000 12.0412 0.0000
# 6 0.0000 0.0000 0.0000 0.0000 0.0000 3.8862
#
#
#
# Elastic Compliance Matrix: (Units=1/GPa)
#
#
# Indices 1 2 3 4 5 6 
#
# 1 0.011721 0.000095 -0.004209 0.000000 0.000000 0.000000
# 2 0.000095 0.047731 -0.016781 0.000000 0.000000 0.000000
# 3 -0.004209 -0.016781 0.021517 0.000000 0.000000 0.000000
# 4 0.000000 0.000000 0.000000 0.042679 0.000000 0.000000
# 5 0.000000 0.000000 0.000000 0.000000 0.083048 0.000000
# 6 0.000000 0.000000 0.000000 0.000000 0.000000 0.257321
#
#
# Mechanical properties :
#
#
# Convention : Reuss Voigt Hill
#
# Bulk Modulus (GPa) = 25.52383 34.68627 30.10505
# Shear Modulus (GPa) = 9.63640 16.93945 13.28792
#
# Velocity S-wave (km/s) = 2.44228 3.23807 2.86791
# Velocity P-wave (km/s) = 4.87356 5.95400 5.44067
#
# Compressibility (1/GPa) = 0.03917907
#
# Stress axis : x y z
#
# Youngs Moduli (GPa) = 85.31597 20.95095 46.47548
#
# Poissons Ratio (x) = -0.00200 0.19561
# Poissons Ratio (y) = -0.00814 0.77992
# Poissons Ratio (z) = 0.35908 0.35158
#
# Static dielectric constant tensor:
#      x y z
#    x 1.831090 0.000000 0.000000 
#    y 0.000000 1.627820 0.000000 
#    z 0.000000 0.000000 1.548010 
# 
# From -- ./inp_files/39739.got.cif
#   From: 2010.05.17/outbox.cif.g08.bks.cpg/sg52_20_cif.got.tgz:39739.got - 2010.06.03 12:15:38.
