data_PCOD9408955
_publ_section_title
;
Structure prediction by ZEFSAII (Michael W. Deem and Ramdas Pophale) SiO2 
 PCOD9408955
Probable space group: P N N A
;
_chemical_formula_sum "Si O2"
_cell_formula_units_Z 60
_cell_length_a 16.071130
_cell_length_b 16.286094
_cell_length_c 11.596109
_cell_angle_alpha 90.000000
_cell_angle_beta 90.000000
_cell_angle_gamma 90.000000
_cell_volume 3035.118418
_symmetry_space_group_name_H-M "P N N A"
_symmetry_group_IT_number 52
_symmetry_cell_setting 'orthorhombic'
loop_
_space_group_symop_operation_xyz
x,y,z
1/2-x,-y,z
x,1/2-y,1/2-z
1/2-x,1/2+y,1/2-z
-x,-y,-z
1/2+x,y,-z
-x,1/2+y,1/2+z
1/2+x,1/2-y,1/2+z
loop_
_atom_site_type_symbol
_atom_site_label
_atom_site_fract_x
_atom_site_fract_y
_atom_site_fract_z
Si Si1 0.313932 0.304084 0.061405
Si Si2 0.678595 0.250000 0.750000
Si Si3 0.235864 0.294730 0.641421
Si Si4 0.937354 0.904896 0.798839
Si Si5 0.379621 0.412181 0.647643
Si Si6 0.662221 0.955123 0.695022
Si Si7 0.584887 0.653560 0.607849
Si Si8 0.904694 0.909819 0.065059
O O1 0.238333 0.280013 0.147165
O O2 0.332483 0.400019 0.080176
O O3 0.393125 0.249544 0.101013
O O4 0.284812 0.270739 0.937664
O O5 0.619310 0.174711 0.784037
O O6 0.195407 0.250000 0.750000
O O7 0.300264 0.362629 0.690112
O O8 0.168260 0.343444 0.567278
O O9 0.035205 0.888206 0.788441
O O10 0.906582 0.974507 0.710899
O O11 0.924091 0.934431 0.932046
O O12 0.387473 0.382140 0.515359
O O13 0.377001 0.510448 0.637037
O O14 0.640414 0.889610 0.794943
O O15 0.750000 0.000000 0.715506
O O16 0.488501 0.629331 0.617863
#
# Coordination Sequence:
#
# PCOD9408955 Si02
#       8
#     8   4   8   8   8   8   8   8
#     4  11  22  37  58  93 126 155 194 250 319 364
#     4  12  20  34  62  96 120 158 188 254 326 376
#     4  11  26  43  59  82 119 171 215 249 294 363
#     4  11  21  35  61  96 126 149 197 250 320 375
#     4  10  21  37  61  89 115 159 202 255 299 359
#     4  12  20  32  59  94 127 155 183 248 322 377
#     4  10  19  34  58  95 127 148 194 250 313 365
#     4  11  20  38  64  89 117 160 208 258 296 360
#
# _framework density 19.768585999999999
#
# number of rings (size 3 to 8) (size 9 to 14) (size 15 to 20)
#    0.000    1.067    6.667    1.200    2.800    1.067 
#    0.000    1.333    0.000    0.800    0.000    0.000 
#    0.000    0.000    0.000    0.000    0.000    0.000 
#
# Total GULP energy -334919.904486 kJ/mol
# GULP energy per Si atom -5581.998408 kJ/mol
# Density = 1.972359 g / cm^3
# Si number density = 19.768586 Si / 1000 Ang^3
#
#
#
# Elastic Constant Matrix: (Units=GPa)
#
#
# Indices 1 2 3 4 5 6 
#
# 1 70.3197 35.4077 10.8321 0.0000 0.0000 0.0000
# 2 35.4077 94.0779 22.3401 0.0000 0.0000 0.0000
# 3 10.8321 22.3401 29.4993 0.0000 0.0000 0.0000
# 4 0.0000 0.0000 0.0000 24.8558 0.0000 0.0000
# 5 0.0000 0.0000 0.0000 0.0000 17.8781 0.0000
# 6 0.0000 0.0000 0.0000 0.0000 0.0000 24.9565
#
#
#
# Elastic Compliance Matrix: (Units=1/GPa)
#
#
# Indices 1 2 3 4 5 6 
#
# 1 0.017621 -0.006213 -0.001765 0.000000 0.000000 0.000000
# 2 -0.006213 0.015151 -0.009192 0.000000 0.000000 0.000000
# 3 -0.001765 -0.009192 0.041509 0.000000 0.000000 0.000000
# 4 0.000000 0.000000 0.000000 0.040232 0.000000 0.000000
# 5 0.000000 0.000000 0.000000 0.000000 0.055934 0.000000
# 6 0.000000 0.000000 0.000000 0.000000 0.000000 0.040070
#
#
# Mechanical properties :
#
#
# Convention : Reuss Voigt Hill
#
# Bulk Modulus (GPa) = 25.03797 36.78407 30.91102
# Shear Modulus (GPa) = 19.36703 21.89256 20.62980
#
# Velocity S-wave (km/s) = 3.13339 3.33143 3.23393
# Velocity P-wave (km/s) = 5.07778 5.78322 5.44195
#
# Compressibility (1/GPa) = 0.03993935
#
# Stress axis : x y z
#
# Youngs Moduli (GPa) = 56.75057 66.00400 24.09125
#
# Poissons Ratio (x) = 0.41006 0.04253
# Poissons Ratio (y) = 0.35257 0.22146
# Poissons Ratio (z) = 0.10019 0.60673
#
# Static dielectric constant tensor:
#      x y z
#    x 1.692860 0.000000 0.000000 
#    y 0.000000 1.713580 0.000000 
#    z 0.000000 0.000000 1.677880 
# 
# From -- ./inp_files/20849.got.cif
#   From: 2010.05.17/outbox.cif.g08.bks.cpg/sg52_11_cif.got.tgz:20849.got - 2010.06.03 12:15:38.
