data_PCOD9408074
_publ_section_title
;
Structure prediction by ZEFSAII (Michael W. Deem and Ramdas Pophale) SiO2 
 PCOD9408074
Probable space group: P N N A
;
_chemical_formula_sum "Si O2"
_cell_formula_units_Z 32
_cell_length_a 8.275316
_cell_length_b 8.460941
_cell_length_c 19.710453
_cell_angle_alpha 90.000000
_cell_angle_beta 90.000000
_cell_angle_gamma 90.000000
_cell_volume 1380.066008
_symmetry_space_group_name_H-M "P N N A"
_symmetry_group_IT_number 52
_symmetry_cell_setting 'orthorhombic'
loop_
_space_group_symop_operation_xyz
x,y,z
1/2-x,-y,z
x,1/2-y,1/2-z
1/2-x,1/2+y,1/2-z
-x,-y,-z
1/2+x,y,-z
-x,1/2+y,1/2+z
1/2+x,1/2-y,1/2+z
loop_
_atom_site_type_symbol
_atom_site_label
_atom_site_fract_x
_atom_site_fract_y
_atom_site_fract_z
Si Si1 0.574033 0.410409 0.158682
Si Si2 0.035414 0.875425 0.939257
Si Si3 0.664487 0.161689 0.478807
Si Si4 0.062507 0.456471 0.700012
O O1 0.750000 0.500000 0.153418
O O2 0.534176 0.385095 0.079502
O O3 0.490699 0.491433 0.224657
O O4 0.566964 0.228282 0.182231
O O5 0.212208 0.794265 0.947432
O O6 0.912977 0.735689 0.955217
O O7 0.003933 0.949370 0.865924
O O8 0.000000 0.000000 0.000000
O O9 0.750000 0.000000 0.494459
O O10 0.250000 0.500000 0.706542
#
# Coordination Sequence:
#
# PCOD9408074 Si02
#       4
#     8   8   8   8
#     4   9  18  31  53  82 118 155 202 260 313 358
#     4  12  21  37  59  90 126 165 209 260 319 383
#     4  11  23  39  58  89 130 168 208 265 322 375
#     4  10  17  32  53  84 117 154 203 260 313 363
#
# _framework density 23.187294999999999
#
# number of rings (size 3 to 8) (size 9 to 14) (size 15 to 20)
#    0.000    1.500    5.000    1.500    0.000    0.000 
#    0.000    0.000    0.000    0.000    0.000   52.500 
#    0.000    0.000    0.000    0.000    0.000    0.000 
#
# Total GULP energy -178163.634384 kJ/mol
# GULP energy per Si atom -5567.613575 kJ/mol
# Density = 2.313452 g / cm^3
# Si number density = 23.187295 Si / 1000 Ang^3
#
#
#
# Elastic Constant Matrix: (Units=GPa)
#
#
# Indices 1 2 3 4 5 6 
#
# 1 16.1622 16.4275 35.6321 0.0000 0.0000 0.0000
# 2 16.4275 97.7443 64.9286 0.0000 0.0000 0.0000
# 3 35.6321 64.9286 179.7882 0.0000 0.0000 0.0000
# 4 0.0000 0.0000 0.0000 39.2075 0.0000 0.0000
# 5 0.0000 0.0000 0.0000 0.0000 12.4336 0.0000
# 6 0.0000 0.0000 0.0000 0.0000 0.0000 25.0183
#
#
#
# Elastic Compliance Matrix: (Units=1/GPa)
#
#
# Indices 1 2 3 4 5 6 
#
# 1 0.111984 -0.005365 -0.020257 0.000000 0.000000 0.000000
# 2 -0.005365 0.013717 -0.003890 0.000000 0.000000 0.000000
# 3 -0.020257 -0.003890 0.010982 0.000000 0.000000 0.000000
# 4 0.000000 0.000000 0.000000 0.025505 0.000000 0.000000
# 5 0.000000 0.000000 0.000000 0.000000 0.080427 0.000000
# 6 0.000000 0.000000 0.000000 0.000000 0.000000 0.039971
#
#
# Mechanical properties :
#
#
# Convention : Reuss Voigt Hill
#
# Bulk Modulus (GPa) = 12.87680 58.63013 35.75347
# Shear Modulus (GPa) = 13.60558 27.11232 20.35895
#
# Velocity S-wave (km/s) = 2.42496 3.42318 2.96636
# Velocity P-wave (km/s) = 3.66142 6.40035 5.21395
#
# Compressibility (1/GPa) = 0.07765904
#
# Stress axis : x y z
#
# Youngs Moduli (GPa) = 8.92981 72.90388 91.06056
#
# Poissons Ratio (x) = 0.39112 1.84458
# Poissons Ratio (y) = 0.04791 0.35426
# Poissons Ratio (z) = 0.18089 0.28362
#
# Static dielectric constant tensor:
#      x y z
#    x 2.096500 0.000000 0.000000 
#    y 0.000000 2.093130 0.000000 
#    z 0.000000 0.000000 1.983120 
# 
# From -- ./inp_files/35448.got.cif
#   From: 2010.05.17/outbox.cif.g08.bks.cpg/sg52_18_cif.got.tgz:35448.got - 2010.06.03 12:15:38.
