data_PCOD9408631
_publ_section_title
;
Structure prediction by ZEFSAII (Michael W. Deem and Ramdas Pophale) SiO2 
 PCOD9408631
Probable space group: P N N A
;
_chemical_formula_sum "Si O2"
_cell_formula_units_Z 56
_cell_length_a 8.525431
_cell_length_b 20.364610
_cell_length_c 14.337648
_cell_angle_alpha 90.000000
_cell_angle_beta 90.000000
_cell_angle_gamma 90.000000
_cell_volume 2489.260543
_symmetry_space_group_name_H-M "P N N A"
_symmetry_group_IT_number 52
_symmetry_cell_setting 'orthorhombic'
loop_
_space_group_symop_operation_xyz
x,y,z
1/2-x,-y,z
x,1/2-y,1/2-z
1/2-x,1/2+y,1/2-z
-x,-y,-z
1/2+x,y,-z
-x,1/2+y,1/2+z
1/2+x,1/2-y,1/2+z
loop_
_atom_site_type_symbol
_atom_site_label
_atom_site_fract_x
_atom_site_fract_y
_atom_site_fract_z
Si Si1 0.455445 0.250000 0.750000
Si Si2 0.250817 0.924455 0.781877
Si Si3 0.242634 0.838990 0.424905
Si Si4 0.250000 0.500000 0.433900
Si Si5 0.976046 0.087339 0.065708
Si Si6 0.039625 0.672541 0.261421
Si Si7 0.189042 0.193517 0.096952
Si Si8 0.595883 0.633166 0.118906
O O1 0.574325 0.210746 0.817067
O O2 0.368483 0.300361 0.819774
O O3 0.144260 0.888027 0.857698
O O4 0.408876 0.883211 0.773377
O O5 0.162067 0.923478 0.683814
O O6 0.250000 0.000000 0.814617
O O7 0.131316 0.841824 0.335017
O O8 0.269164 0.762152 0.449570
O O9 0.410145 0.867410 0.395611
O O10 0.173308 0.869022 0.518141
O O11 0.386405 0.542718 0.386130
O O12 0.134719 0.547546 0.494770
O O13 0.086927 0.146307 0.030653
O O14 0.990754 0.750000 0.250000
O O15 0.156468 0.667685 0.350385
#
# Coordination Sequence:
#
# PCOD9408631 Si02
#       8
#     4   8   8   4   8   8   8   8
#     4  10  18  38  64  92 132 164 220 268 336 406
#     4  12  26  42  65 100 135 184 234 268 343 423
#     4  10  21  41  67 101 131 172 226 287 344 398
#     4  10  26  44  62  92 134 174 230 280 334 398
#     4  11  23  43  65  93 135 179 219 284 337 408
#     4  10  21  41  70 101 135 176 225 287 343 410
#     4  10  19  40  68  99 134 170 222 277 347 401
#     4  11  22  42  64  93 137 175 219 286 335 399
#
# _framework density 22.496641
#
# number of rings (size 3 to 8) (size 9 to 14) (size 15 to 20)
#    0.000    1.429    5.714    0.857    3.000    2.286 
#    0.000    4.286    0.000    0.000    0.000    0.000 
#    0.000    0.000    0.000    0.000    0.000    0.000 
#
# Total GULP energy -312513.242810 kJ/mol
# GULP energy per Si atom -5580.593622 kJ/mol
# Density = 2.244544 g / cm^3
# Si number density = 22.496641 Si / 1000 Ang^3
#
#
#
# Elastic Constant Matrix: (Units=GPa)
#
#
# Indices 1 2 3 4 5 6 
#
# 1 97.9327 45.9186 14.1832 0.0000 0.0000 0.0000
# 2 45.9186 56.9318 -2.2120 0.0000 0.0000 0.0000
# 3 14.1832 -2.2120 40.1194 0.0000 0.0000 0.0000
# 4 0.0000 0.0000 0.0000 28.1297 0.0000 0.0000
# 5 0.0000 0.0000 0.0000 0.0000 13.5994 0.0000
# 6 0.0000 0.0000 0.0000 0.0000 0.0000 41.0908
#
#
#
# Elastic Compliance Matrix: (Units=1/GPa)
#
#
# Indices 1 2 3 4 5 6 
#
# 1 0.018339 -0.015076 -0.007315 0.000000 0.000000 0.000000
# 2 -0.015076 0.029996 0.006983 0.000000 0.000000 0.000000
# 3 -0.007315 0.006983 0.027897 0.000000 0.000000 0.000000
# 4 0.000000 0.000000 0.000000 0.035550 0.000000 0.000000
# 5 0.000000 0.000000 0.000000 0.000000 0.073533 0.000000
# 6 0.000000 0.000000 0.000000 0.000000 0.000000 0.024336
#
#
# Mechanical properties :
#
#
# Convention : Reuss Voigt Hill
#
# Bulk Modulus (GPa) = 22.01788 34.52930 28.27359
# Shear Modulus (GPa) = 19.56159 25.70355 22.63257
#
# Velocity S-wave (km/s) = 2.95198 3.38383 3.17526
# Velocity P-wave (km/s) = 4.62897 5.53616 5.10277
#
# Compressibility (1/GPa) = 0.04541763
#
# Stress axis : x y z
#
# Youngs Moduli (GPa) = 54.52822 33.33821 35.84675
#
# Poissons Ratio (x) = 0.50260 0.26220
# Poissons Ratio (y) = 0.82205 -0.25033
# Poissons Ratio (z) = 0.39885 -0.23282
#
# Static dielectric constant tensor:
#      x y z
#    x 1.836690 0.000000 0.000000 
#    y 0.000000 1.973110 0.000000 
#    z 0.000000 0.000000 1.786290 
# 
# From -- ./inp_files/25010.got.cif
#   From: 2010.05.17/outbox.cif.g08.bks.cpg/sg52_13_cif.got.tgz:25010.got - 2010.06.03 12:15:38.
