data_PCOD9408560
_publ_section_title
;
Structure prediction by ZEFSAII (Michael W. Deem and Ramdas Pophale) SiO2 
 PCOD9408560
Probable space group: P N N A
;
_chemical_formula_sum "Si O2"
_cell_formula_units_Z 64
_cell_length_a 22.244210
_cell_length_b 14.823365
_cell_length_c 9.134982
_cell_angle_alpha 90.000000
_cell_angle_beta 90.000000
_cell_angle_gamma 90.000000
_cell_volume 3012.114556
_symmetry_space_group_name_H-M "P N N A"
_symmetry_group_IT_number 52
_symmetry_cell_setting 'orthorhombic'
loop_
_space_group_symop_operation_xyz
x,y,z
1/2-x,-y,z
x,1/2-y,1/2-z
1/2-x,1/2+y,1/2-z
-x,-y,-z
1/2+x,y,-z
-x,1/2+y,1/2+z
1/2+x,1/2-y,1/2+z
loop_
_atom_site_type_symbol
_atom_site_label
_atom_site_fract_x
_atom_site_fract_y
_atom_site_fract_z
Si Si1 0.892541 0.661639 0.589806
Si Si2 0.043233 0.985818 0.139031
Si Si3 0.456067 0.847033 0.770738
Si Si4 0.140222 0.344648 0.983607
Si Si5 0.240147 0.396011 0.483250
Si Si6 0.262839 0.156834 0.691932
Si Si7 0.144180 0.653701 0.315955
Si Si8 0.683899 0.535592 0.954452
O O1 0.929084 0.583799 0.677137
O O2 0.923902 0.650966 0.429022
O O3 0.885020 0.770967 0.598183
O O4 0.823349 0.631558 0.583752
O O5 0.095227 0.911312 0.106055
O O6 0.000517 0.931146 0.250536
O O7 0.000000 0.000000 0.000000
O O8 0.487951 0.750000 0.750000
O O9 0.403586 0.845586 0.653521
O O10 0.206982 0.321421 0.918392
O O11 0.144461 0.446591 0.036063
O O12 0.250000 0.500000 0.445703
O O13 0.237972 0.387764 0.659558
O O14 0.296348 0.340331 0.417546
O O15 0.290563 0.250000 0.750000
O O16 0.307258 0.090581 0.605715
O O17 0.125482 0.750000 0.250000
O O18 0.161860 0.599161 0.171594
O O19 0.750000 0.500000 0.917301
#
# Coordination Sequence:
#
# PCOD9408560 Si02
#       8
#     8   8   8   8   8   8   8   8
#     4  10  19  34  57  93 121 159 208 266 312 372
#     4  10  22  39  62  89 120 164 227 268 305 365
#     4   9  17  34  61  88 117 158 215 271 311 355
#     4  10  18  36  61  85 123 159 209 258 319 365
#     4  12  21  35  60  89 125 161 209 260 314 383
#     4  11  19  34  59  90 122 161 210 254 302 378
#     4  12  26  42  60  90 132 172 200 257 337 395
#     4  10  24  39  57  93 133 168 199 245 323 402
#
# _framework density 21.247533000000001
#
# number of rings (size 3 to 8) (size 9 to 14) (size 15 to 20)
#    0.000    1.500    3.750    3.000    1.750    0.000 
#    0.000    1.250    0.000    1.500    0.000    0.000 
#    0.000    0.000    0.000    0.000    0.000    0.000 
#
# Total GULP energy -357027.754019 kJ/mol
# GULP energy per Si atom -5578.558657 kJ/mol
# Density = 2.119917 g / cm^3
# Si number density = 21.247533 Si / 1000 Ang^3
#
#
#
# Elastic Constant Matrix: (Units=GPa)
#
#
# Indices 1 2 3 4 5 6 
#
# 1 79.3705 45.2373 10.8540 0.0000 0.0000 0.0000
# 2 45.2373 177.4303 35.3326 0.0000 0.0000 0.0000
# 3 10.8540 35.3326 53.1096 0.0000 0.0000 0.0000
# 4 0.0000 0.0000 0.0000 36.4022 0.0000 0.0000
# 5 0.0000 0.0000 0.0000 0.0000 1.7714 0.0000
# 6 0.0000 0.0000 0.0000 0.0000 0.0000 29.0139
#
#
#
# Elastic Compliance Matrix: (Units=1/GPa)
#
#
# Indices 1 2 3 4 5 6 
#
# 1 0.014757 -0.003645 -0.000591 0.000000 0.000000 0.000000
# 2 -0.003645 0.007397 -0.004176 0.000000 0.000000 0.000000
# 3 -0.000591 -0.004176 0.021728 0.000000 0.000000 0.000000
# 4 0.000000 0.000000 0.000000 0.027471 0.000000 0.000000
# 5 0.000000 0.000000 0.000000 0.000000 0.564517 0.000000
# 6 0.000000 0.000000 0.000000 0.000000 0.000000 0.034466
#
#
# Mechanical properties :
#
#
# Convention : Reuss Voigt Hill
#
# Bulk Modulus (GPa) = 36.95738 54.75090 45.85414
# Shear Modulus (GPa) = 7.18206 28.00326 17.59266
#
# Velocity S-wave (km/s) = 1.84052 3.63430 2.88060
# Velocity P-wave (km/s) = 4.68489 6.59052 5.71765
#
# Compressibility (1/GPa) = 0.02705820
#
# Stress axis : x y z
#
# Youngs Moduli (GPa) = 67.76291 135.19193 46.02345
#
# Poissons Ratio (x) = 0.49274 0.02721
# Poissons Ratio (y) = 0.24698 0.19220
# Poissons Ratio (z) = 0.04006 0.56457
#
# Static dielectric constant tensor:
#      x y z
#    x 1.772090 0.000000 0.000000 
#    y 0.000000 1.896710 0.000000 
#    z 0.000000 0.000000 1.804560 
# 
# From -- ./inp_files/14511.got.cif
#   From: 2010.05.17/outbox.cif.g08.bks.cpg/sg52_8_cif.got.tgz:14511.got - 2010.06.03 12:15:38.
