data_PCOD9408664
_publ_section_title
;
Structure prediction by ZEFSAII (Michael W. Deem and Ramdas Pophale) SiO2 
 PCOD9408664
Probable space group: P N N A
;
_chemical_formula_sum "Si O2"
_cell_formula_units_Z 52
_cell_length_a 14.153151
_cell_length_b 9.948201
_cell_length_c 19.566134
_cell_angle_alpha 90.000000
_cell_angle_beta 90.000000
_cell_angle_gamma 90.000000
_cell_volume 2754.880184
_symmetry_space_group_name_H-M "P N N A"
_symmetry_group_IT_number 52
_symmetry_cell_setting 'orthorhombic'
loop_
_space_group_symop_operation_xyz
x,y,z
1/2-x,-y,z
x,1/2-y,1/2-z
1/2-x,1/2+y,1/2-z
-x,-y,-z
1/2+x,y,-z
-x,1/2+y,1/2+z
1/2+x,1/2-y,1/2+z
loop_
_atom_site_type_symbol
_atom_site_label
_atom_site_fract_x
_atom_site_fract_y
_atom_site_fract_z
Si Si1 0.856917 0.491969 0.172348
Si Si2 0.589708 0.750000 0.750000
Si Si3 0.988300 0.262462 0.327867
Si Si4 0.857699 0.657482 0.932155
Si Si5 0.429914 0.562338 0.684932
Si Si6 0.351014 0.340960 0.104674
Si Si7 0.941975 0.782496 0.420384
O O1 0.750000 0.500000 0.146898
O O2 0.860589 0.545815 0.250389
O O3 0.922432 0.588998 0.127623
O O4 0.902466 0.344560 0.168266
O O5 0.521646 0.636023 0.717690
O O6 0.645356 0.685379 0.813565
O O7 0.024149 0.250000 0.250000
O O8 0.070461 0.224598 0.379446
O O9 0.953997 0.413450 0.339363
O O10 0.750125 0.705695 0.922749
O O11 0.859224 0.498036 0.915321
O O12 0.894482 0.689369 0.007654
O O13 0.400790 0.657198 0.622378
O O14 0.444415 0.269921 0.074169
#
# Coordination Sequence:
#
# PCOD9408664 Si02
#       7
#     8   4   8   8   8   8   8
#     4  11  22  38  66  92 120 166 213 259 309 377
#     4  10  18  42  64  86 120 172 206 264 314 372
#     4  10  22  39  59  94 127 156 208 270 312 361
#     4  11  23  37  63  94 125 165 210 258 313 380
#     4  10  20  40  64  88 128 165 202 261 325 361
#     4  10  21  38  63  94 118 168 214 252 313 375
#     4  11  22  40  63  88 132 165 204 257 316 380
#
# _framework density 18.875595000000001
#
# number of rings (size 3 to 8) (size 9 to 14) (size 15 to 20)
#    0.000    1.538    4.615    1.385    3.231    4.308 
#    0.000    2.308    0.000    3.692    0.000    0.000 
#    0.000    0.000    0.000    0.000    0.000    0.000 
#
# Total GULP energy -290257.062029 kJ/mol
# GULP energy per Si atom -5581.866577 kJ/mol
# Density = 1.883263 g / cm^3
# Si number density = 18.875595 Si / 1000 Ang^3
#
#
#
# Elastic Constant Matrix: (Units=GPa)
#
#
# Indices 1 2 3 4 5 6 
#
# 1 100.5250 16.3548 51.5978 0.0000 0.0000 0.0000
# 2 16.3548 107.3601 52.3576 0.0000 0.0000 0.0000
# 3 51.5978 52.3576 132.8390 0.0000 0.0000 0.0000
# 4 0.0000 0.0000 0.0000 9.1513 0.0000 0.0000
# 5 0.0000 0.0000 0.0000 0.0000 87.3099 0.0000
# 6 0.0000 0.0000 0.0000 0.0000 0.0000 -0.4073
#
#
#
# Elastic Compliance Matrix: (Units=1/GPa)
#
#
# Indices 1 2 3 4 5 6 
#
# 1 0.012453 0.000572 -0.005063 0.000000 0.000000 0.000000
# 2 0.000572 0.011557 -0.004777 0.000000 0.000000 0.000000
# 3 -0.005063 -0.004777 0.011377 0.000000 0.000000 0.000000
# 4 0.000000 0.000000 0.000000 0.109274 0.000000 0.000000
# 5 0.000000 0.000000 0.000000 0.000000 0.011453 0.000000
# 6 0.000000 0.000000 0.000000 0.000000 0.000000 -2.455032
#
#
# Mechanical properties :
#
#
# Convention : Reuss Voigt Hill
#
# Bulk Modulus (GPa) = 59.34127 64.59386 61.96757
# Shear Modulus (GPa) = -2.19803 33.90502 15.85350
#
# Velocity S-wave (km/s) = -1.08028 4.24280 2.90124
# Velocity P-wave (km/s) = 5.47269 7.63524 6.64256
#
# Compressibility (1/GPa) = 0.01685168
#
# Stress axis : x y z
#
# Youngs Moduli (GPa) = 80.30031 86.52666 87.89477
#
# Poissons Ratio (x) = -0.04948 0.44497
# Poissons Ratio (y) = -0.04592 0.41990
# Poissons Ratio (z) = 0.40652 0.41336
#
# Static dielectric constant tensor:
#      x y z
#    x 1.651390 0.000000 0.000000 
#    y 0.000000 1.653280 0.000000 
#    z 0.000000 0.000000 1.657620 
# 
# From -- ./inp_files/37247.got.cif
#   From: 2010.05.17/outbox.cif.g08.bks.cpg/sg52_19_cif.got.tgz:37247.got - 2010.06.03 12:15:38.
