data_PCOD9408368
_publ_section_title
;
Structure prediction by ZEFSAII (Michael W. Deem and Ramdas Pophale) SiO2 
 PCOD9408368
Probable space group: P N N A
;
_chemical_formula_sum "Si O2"
_cell_formula_units_Z 40
_cell_length_a 21.662907
_cell_length_b 9.740495
_cell_length_c 9.627027
_cell_angle_alpha 90.000000
_cell_angle_beta 90.000000
_cell_angle_gamma 90.000000
_cell_volume 2031.374296
_symmetry_space_group_name_H-M "P N N A"
_symmetry_group_IT_number 52
_symmetry_cell_setting 'orthorhombic'
loop_
_space_group_symop_operation_xyz
x,y,z
1/2-x,-y,z
x,1/2-y,1/2-z
1/2-x,1/2+y,1/2-z
-x,-y,-z
1/2+x,y,-z
-x,1/2+y,1/2+z
1/2+x,1/2-y,1/2+z
loop_
_atom_site_type_symbol
_atom_site_label
_atom_site_fract_x
_atom_site_fract_y
_atom_site_fract_z
Si Si1 0.565429 0.469472 0.426003
Si Si2 0.803638 0.111655 0.666582
Si Si3 0.889538 0.612286 0.696786
Si Si4 0.632513 0.743810 0.101238
Si Si5 0.017751 0.546688 0.847024
O O1 0.500000 0.500000 0.500000
O O2 0.598971 0.368448 0.532312
O O3 0.608754 0.603961 0.432727
O O4 0.548499 0.441840 0.265411
O O5 0.786338 0.250000 0.750000
O O6 0.832176 0.167393 0.522156
O O7 0.750000 0.000000 0.642618
O O8 0.853429 0.024604 0.757445
O O9 0.857780 0.750000 0.750000
O O10 0.955827 0.599732 0.773109
O O11 0.667065 0.750000 0.250000
O O12 0.569780 0.660131 0.130194
O O13 0.000000 0.500000 0.000000
#
# Coordination Sequence:
#
# PCOD9408368 Si02
#       5
#     8   8   8   8   8
#     4   9  18  33  57  91 131 166 200 249 322 392
#     4  12  25  44  68  92 120 171 231 279 325 381
#     4  11  21  38  60  93 135 168 209 267 325 396
#     4  10  20  39  65  92 129 170 213 266 335 395
#     4  10  18  32  61  98 133 170 207 256 330 407
#
# _framework density 19.691102999999998
#
# number of rings (size 3 to 8) (size 9 to 14) (size 15 to 20)
#    0.000    1.600    4.000    3.600    0.000    0.000 
#    0.000    4.000    4.400    0.000    0.000    0.000 
#    0.000    0.000    0.000    0.000    0.000    0.000 
#
# Total GULP energy -222803.688037 kJ/mol
# GULP energy per Si atom -5570.092201 kJ/mol
# Density = 1.964629 g / cm^3
# Si number density = 19.691103 Si / 1000 Ang^3
#
#
#
# Elastic Constant Matrix: (Units=GPa)
#
#
# Indices 1 2 3 4 5 6 
#
# 1 77.3692 29.4392 39.0919 0.0000 0.0000 0.0000
# 2 29.4392 88.4790 49.8598 0.0000 0.0000 0.0000
# 3 39.0919 49.8598 183.7908 0.0000 0.0000 0.0000
# 4 0.0000 0.0000 0.0000 34.2492 0.0000 0.0000
# 5 0.0000 0.0000 0.0000 0.0000 4.6365 0.0000
# 6 0.0000 0.0000 0.0000 0.0000 0.0000 23.6847
#
#
#
# Elastic Compliance Matrix: (Units=1/GPa)
#
#
# Indices 1 2 3 4 5 6 
#
# 1 0.015547 -0.003907 -0.002247 0.000000 0.000000 0.000000
# 2 -0.003907 0.014323 -0.003055 0.000000 0.000000 0.000000
# 3 -0.002247 -0.003055 0.006748 0.000000 0.000000 0.000000
# 4 0.000000 0.000000 0.000000 0.029198 0.000000 0.000000
# 5 0.000000 0.000000 0.000000 0.000000 0.215681 0.000000
# 6 0.000000 0.000000 0.000000 0.000000 0.000000 0.042221
#
#
# Mechanical properties :
#
#
# Convention : Reuss Voigt Hill
#
# Bulk Modulus (GPa) = 54.94179 65.15786 60.04982
# Shear Modulus (GPa) = 14.35951 27.93062 21.14506
#
# Velocity S-wave (km/s) = 2.70337 3.77030 3.28050
# Velocity P-wave (km/s) = 6.14058 7.21910 6.70157
#
# Compressibility (1/GPa) = 0.01820108
#
# Stress axis : x y z
#
# Youngs Moduli (GPa) = 64.32175 69.81583 148.20036
#
# Poissons Ratio (x) = 0.27274 0.33300
# Poissons Ratio (y) = 0.25128 0.45272
# Poissons Ratio (z) = 0.14453 0.21327
#
# Static dielectric constant tensor:
#      x y z
#    x 1.687940 0.000000 0.000000 
#    y 0.000000 1.675810 0.000000 
#    z 0.000000 0.000000 1.768430 
# 
# From -- ./inp_files/13977.got.cif
#   From: 2010.05.17/outbox.cif.g08.bks.cpg/sg52_7_cif.got.tgz:13977.got - 2010.06.03 12:15:38.
