data_PCOD9408456
_publ_section_title
;
Structure prediction by ZEFSAII (Michael W. Deem and Ramdas Pophale) SiO2 
 PCOD9408456
Probable space group: P N N A
;
_chemical_formula_sum "Si O2"
_cell_formula_units_Z 60
_cell_length_a 9.018711
_cell_length_b 14.654683
_cell_length_c 23.969993
_cell_angle_alpha 90.000000
_cell_angle_beta 90.000000
_cell_angle_gamma 90.000000
_cell_volume 3168.026503
_symmetry_space_group_name_H-M "P N N A"
_symmetry_group_IT_number 52
_symmetry_cell_setting 'orthorhombic'
loop_
_space_group_symop_operation_xyz
x,y,z
1/2-x,-y,z
x,1/2-y,1/2-z
1/2-x,1/2+y,1/2-z
-x,-y,-z
1/2+x,y,-z
-x,1/2+y,1/2+z
1/2+x,1/2-y,1/2+z
loop_
_atom_site_type_symbol
_atom_site_label
_atom_site_fract_x
_atom_site_fract_y
_atom_site_fract_z
Si Si1 0.423136 0.975546 0.058313
Si Si2 0.863123 0.576120 0.353440
Si Si3 0.750000 0.000000 0.444423
Si Si4 0.667681 0.677065 0.983707
Si Si5 0.936386 0.634895 0.108918
Si Si6 0.641016 0.278812 0.604183
Si Si7 0.330068 0.233395 0.902168
Si Si8 0.089086 0.770366 0.186440
O O1 0.413592 0.869078 0.072404
O O2 0.250000 0.000000 0.056954
O O3 0.517845 0.026470 0.106353
O O4 0.500000 0.000000 0.000000
O O5 0.750000 0.500000 0.327154
O O6 0.750525 0.638889 0.389080
O O7 0.962164 0.650361 0.318875
O O8 0.703388 0.916918 0.484636
O O9 0.886397 0.967464 0.405288
O O10 0.520401 0.668687 0.946817
O O11 0.793724 0.707505 0.940271
O O12 0.651180 0.752154 0.031621
O O13 0.784147 0.688823 0.115635
O O14 0.034058 0.674275 0.159067
O O15 0.484400 0.247717 0.628825
O O16 0.769287 0.298578 0.648906
O O17 0.126369 0.750000 0.250000
#
# Coordination Sequence:
#
# PCOD9408456 Si02
#       8
#     8   8   4   8   8   8   8   8
#     4  12  24  36  57  94 135 172 200 240 302 385
#     4  11  21  39  61  92 123 156 203 255 309 375
#     4  10  18  34  58  88 120 156 198 242 300 368
#     4  10  20  34  55  86 125 167 193 236 298 370
#     4   9  20  35  58  84 118 152 198 248 300 360
#     4  11  22  36  58  85 123 163 206 243 300 374
#     4  10  19  33  55  88 123 155 193 239 301 371
#     4  10  23  45  64  81 115 161 208 267 321 358
#
# _framework density 18.939235
#
# number of rings (size 3 to 8) (size 9 to 14) (size 15 to 20)
#    0.000    1.600    2.667    3.200    1.867    1.067 
#    1.200    2.667    0.000    9.600    0.000    0.000 
#    0.000    0.000    0.000    0.000    0.000    0.000 
#
# Total GULP energy -334270.427220 kJ/mol
# GULP energy per Si atom -5571.173787 kJ/mol
# Density = 1.889613 g / cm^3
# Si number density = 18.939235 Si / 1000 Ang^3
#
#
#
# Elastic Constant Matrix: (Units=GPa)
#
#
# Indices 1 2 3 4 5 6 
#
# 1 131.4537 33.7615 21.7254 0.0000 0.0000 0.0000
# 2 33.7615 97.5003 32.2137 0.0000 0.0000 0.0000
# 3 21.7254 32.2137 67.8955 0.0000 0.0000 0.0000
# 4 0.0000 0.0000 0.0000 15.4997 0.0000 0.0000
# 5 0.0000 0.0000 0.0000 0.0000 23.5606 0.0000
# 6 0.0000 0.0000 0.0000 0.0000 0.0000 32.4734
#
#
#
# Elastic Compliance Matrix: (Units=1/GPa)
#
#
# Indices 1 2 3 4 5 6 
#
# 1 0.008488 -0.002421 -0.001567 0.000000 0.000000 0.000000
# 2 -0.002421 0.012854 -0.005324 0.000000 0.000000 0.000000
# 3 -0.001567 -0.005324 0.017756 0.000000 0.000000 0.000000
# 4 0.000000 0.000000 0.000000 0.064517 0.000000 0.000000
# 5 0.000000 0.000000 0.000000 0.000000 0.042444 0.000000
# 6 0.000000 0.000000 0.000000 0.000000 0.000000 0.030794
#
#
# Mechanical properties :
#
#
# Convention : Reuss Voigt Hill
#
# Bulk Modulus (GPa) = 48.84469 52.47230 50.65850
# Shear Modulus (GPa) = 24.71544 28.24999 26.48272
#
# Velocity S-wave (km/s) = 3.61638 3.86633 3.74344
# Velocity P-wave (km/s) = 6.57904 6.90631 6.74466
#
# Compressibility (1/GPa) = 0.02047305
#
# Stress axis : x y z
#
# Youngs Moduli (GPa) = 117.81139 77.79803 56.31916
#
# Poissons Ratio (x) = 0.18838 0.08826
# Poissons Ratio (y) = 0.28527 0.29983
# Poissons Ratio (z) = 0.18464 0.41418
#
# Static dielectric constant tensor:
#      x y z
#    x 1.823590 0.000000 0.000000 
#    y 0.000000 1.765080 0.000000 
#    z 0.000000 0.000000 1.631670 
# 
# From -- ./inp_files/39616.got.cif
#   From: 2010.05.17/outbox.cif.g08.bks.cpg/sg52_20_cif.got.tgz:39616.got - 2010.06.03 12:15:38.
