data_PCOD9408385
_publ_section_title
;
Structure prediction by ZEFSAII (Michael W. Deem and Ramdas Pophale) SiO2 
 PCOD9408385
Probable space group: P N N A
;
_chemical_formula_sum "Si O2"
_cell_formula_units_Z 56
_cell_length_a 15.352737
_cell_length_b 22.919449
_cell_length_c 8.926690
_cell_angle_alpha 90.000000
_cell_angle_beta 90.000000
_cell_angle_gamma 90.000000
_cell_volume 3141.090405
_symmetry_space_group_name_H-M "P N N A"
_symmetry_group_IT_number 52
_symmetry_cell_setting 'orthorhombic'
loop_
_space_group_symop_operation_xyz
x,y,z
1/2-x,-y,z
x,1/2-y,1/2-z
1/2-x,1/2+y,1/2-z
-x,-y,-z
1/2+x,y,-z
-x,1/2+y,1/2+z
1/2+x,1/2-y,1/2+z
loop_
_atom_site_type_symbol
_atom_site_label
_atom_site_fract_x
_atom_site_fract_y
_atom_site_fract_z
Si Si1 0.205396 0.884442 0.819652
Si Si2 0.907734 0.345622 0.062099
Si Si3 0.106791 0.398732 0.544373
Si Si4 0.949097 0.810346 0.807273
Si Si5 0.383051 0.285252 0.496295
Si Si6 0.566860 0.621941 0.731718
Si Si7 0.848006 0.022073 0.947796
O O1 0.166959 0.879557 0.653807
O O2 0.306214 0.895181 0.855334
O O3 0.180185 0.823461 0.899519
O O4 0.154876 0.935868 0.907015
O O5 0.990732 0.337153 0.174135
O O6 0.867236 0.283076 0.012618
O O7 0.938422 0.374288 0.908825
O O8 0.109562 0.355788 0.399540
O O9 0.097604 0.464194 0.481198
O O10 0.025662 0.383154 0.648926
O O11 0.906224 0.750000 0.750000
O O12 0.021789 0.791399 0.928279
O O13 0.388373 0.319738 0.339399
O O14 0.619226 0.564583 0.681508
O O15 0.750000 0.000000 0.918557
#
# Coordination Sequence:
#
# PCOD9408385 Si02
#       7
#     8   8   8   8   8   8   8
#     4   9  18  34  54  73  97 139 180 211 250 307
#     4  10  18  33  53  78 107 135 169 214 259 303
#     4  10  19  35  55  76 103 138 177 213 258 314
#     4   8  16  32  53  74 101 135 168 207 253 303
#     4   8  16  33  53  71 102 144 171 191 248 323
#     4  10  19  32  55  82 104 134 173 215 262 308
#     4   9  19  37  55  70  98 143 182 207 250 322
#
# _framework density 17.828203999999999
#
# number of rings (size 3 to 8) (size 9 to 14) (size 15 to 20)
#    0.000    2.857    0.000    3.000    0.000    0.000 
#    0.000   22.143    0.000    0.000    0.000    0.000 
#    0.000    0.000    0.000    0.000    0.000    0.000 
#
# Total GULP energy -311743.806620 kJ/mol
# GULP energy per Si atom -5566.853690 kJ/mol
# Density = 1.778763 g / cm^3
# Si number density = 17.828204 Si / 1000 Ang^3
#
#
#
# Elastic Constant Matrix: (Units=GPa)
#
#
# Indices 1 2 3 4 5 6 
#
# 1 20.0656 21.7492 21.7687 0.0000 0.0000 0.0000
# 2 21.7492 107.4954 49.2973 0.0000 0.0000 0.0000
# 3 21.7687 49.2973 122.9017 0.0000 0.0000 0.0000
# 4 0.0000 0.0000 0.0000 -0.9850 0.0000 0.0000
# 5 0.0000 0.0000 0.0000 0.0000 6.0760 0.0000
# 6 0.0000 0.0000 0.0000 0.0000 0.0000 16.5318
#
#
#
# Elastic Compliance Matrix: (Units=1/GPa)
#
#
# Indices 1 2 3 4 5 6 
#
# 1 0.070037 -0.010393 -0.008236 0.000000 0.000000 0.000000
# 2 -0.010393 0.012942 -0.003350 0.000000 0.000000 0.000000
# 3 -0.008236 -0.003350 0.010939 0.000000 0.000000 0.000000
# 4 0.000000 0.000000 0.000000 -1.015235 0.000000 0.000000
# 5 0.000000 0.000000 0.000000 0.000000 0.164583 0.000000
# 6 0.000000 0.000000 0.000000 0.000000 0.000000 0.060490
#
#
# Mechanical properties :
#
#
# Convention : Reuss Voigt Hill
#
# Bulk Modulus (GPa) = 20.01656 48.45477 34.23567
# Shear Modulus (GPa) = -7.86618 14.83439 3.48410
#
# Velocity S-wave (km/s) = -2.10281 2.88770 1.39947
# Velocity P-wave (km/s) = 2.31433 6.19323 4.67505
#
# Compressibility (1/GPa) = 0.04995862
#
# Stress axis : x y z
#
# Youngs Moduli (GPa) = 14.27818 77.26786 91.41381
#
# Poissons Ratio (x) = 0.80306 0.75291
# Poissons Ratio (y) = 0.14840 0.30627
# Poissons Ratio (z) = 0.11760 0.25887
#
# Static dielectric constant tensor:
#      x y z
#    x 1.619210 0.000000 0.000000 
#    y 0.000000 1.645150 0.000000 
#    z 0.000000 0.000000 1.606550 
# 
# From -- ./inp_files/12530.got.cif
#   From: 2010.05.17/outbox.cif.g08.bks.cpg/sg52_7_cif.got.tgz:12530.got - 2010.06.03 12:15:38.
