data_PCOD9408616
_publ_section_title
;
Structure prediction by ZEFSAII (Michael W. Deem and Ramdas Pophale) SiO2 
 PCOD9408616
Probable space group: P N N A
;
_chemical_formula_sum "Si O2"
_cell_formula_units_Z 60
_cell_length_a 14.502579
_cell_length_b 33.370284
_cell_length_c 5.442778
_cell_angle_alpha 90.000000
_cell_angle_beta 90.000000
_cell_angle_gamma 90.000000
_cell_volume 2634.060606
_symmetry_space_group_name_H-M "P N N A"
_symmetry_group_IT_number 52
_symmetry_cell_setting 'orthorhombic'
loop_
_space_group_symop_operation_xyz
x,y,z
1/2-x,-y,z
x,1/2-y,1/2-z
1/2-x,1/2+y,1/2-z
-x,-y,-z
1/2+x,y,-z
-x,1/2+y,1/2+z
1/2+x,1/2-y,1/2+z
loop_
_atom_site_type_symbol
_atom_site_label
_atom_site_fract_x
_atom_site_fract_y
_atom_site_fract_z
Si Si1 0.750000 0.000000 0.889408
Si Si2 0.868017 0.150373 0.465665
Si Si3 0.509507 0.847143 0.966821
Si Si4 0.043006 0.260947 0.500634
Si Si5 0.251305 0.771748 0.500516
Si Si6 0.827926 0.434569 0.858267
Si Si7 0.493893 0.933394 0.935784
Si Si8 0.916261 0.006536 0.264817
O O1 0.739990 0.042317 0.746907
O O2 0.663111 0.994765 0.062533
O O3 0.936979 0.155607 0.702654
O O4 0.788950 0.183756 0.489736
O O5 0.823827 0.105709 0.485268
O O6 0.922783 0.153799 0.206302
O O7 0.443713 0.808568 0.991802
O O8 0.455221 0.889431 0.977789
O O9 0.991666 0.250000 0.750000
O O10 0.136910 0.234588 0.499924
O O11 0.992629 0.250000 0.250000
O O12 0.221198 0.750000 0.250000
O O13 0.220895 0.750000 0.750000
O O14 0.900868 0.423984 0.645232
O O15 0.873392 0.471518 0.005071
O O16 0.448719 0.960711 0.725030
O O17 0.504109 0.963974 0.161923
#
# Coordination Sequence:
#
# PCOD9408616 Si02
#       8
#     4   8   8   8   8   8   8   8
#     4  10  22  36  54  90 124 170 208 248 316 376
#     4  11  23  39  67  94 124 166 218 263 314 380
#     4  11  22  40  63  98 122 160 217 270 313 381
#     4  10  22  41  61  87 128 163 200 265 325 376
#     4  10  22  42  62  91 125 168 207 255 326 389
#     4  10  20  38  58  89 126 162 213 262 308 383
#     4   9  20  35  61  90 116 159 207 263 317 368
#     4  10  18  38  60  84 125 161 206 255 318 374
#
# _framework density 22.77852
#
# number of rings (size 3 to 8) (size 9 to 14) (size 15 to 20)
#    0.000    1.867    1.333    2.400    0.000    3.200 
#    4.800    4.000    0.000    0.000    0.000    0.000 
#    0.000    0.000    0.000    0.000    0.000    0.000 
#
# Total GULP energy -334487.450579 kJ/mol
# GULP energy per Si atom -5574.790843 kJ/mol
# Density = 2.272667 g / cm^3
# Si number density = 22.778520 Si / 1000 Ang^3
#
#
#
# Elastic Constant Matrix: (Units=GPa)
#
#
# Indices 1 2 3 4 5 6 
#
# 1 49.5026 18.4011 9.7392 0.0000 0.0000 0.0000
# 2 18.4011 157.4333 17.4655 0.0000 0.0000 0.0000
# 3 9.7392 17.4655 139.4838 0.0000 0.0000 0.0000
# 4 0.0000 0.0000 0.0000 18.9738 0.0000 0.0000
# 5 0.0000 0.0000 0.0000 0.0000 73.0871 0.0000
# 6 0.0000 0.0000 0.0000 0.0000 0.0000 37.8041
#
#
#
# Elastic Compliance Matrix: (Units=1/GPa)
#
#
# Indices 1 2 3 4 5 6 
#
# 1 0.021312 -0.002359 -0.001193 0.000000 0.000000 0.000000
# 2 -0.002359 0.006702 -0.000675 0.000000 0.000000 0.000000
# 3 -0.001193 -0.000675 0.007337 0.000000 0.000000 0.000000
# 4 0.000000 0.000000 0.000000 0.052704 0.000000 0.000000
# 5 0.000000 0.000000 0.000000 0.000000 0.013682 0.000000
# 6 0.000000 0.000000 0.000000 0.000000 0.000000 0.026452
#
#
# Mechanical properties :
#
#
# Convention : Reuss Voigt Hill
#
# Bulk Modulus (GPa) = 37.17496 48.62571 42.90033
# Shear Modulus (GPa) = 34.33850 46.02726 40.18288
#
# Velocity S-wave (km/s) = 3.88686 4.50003 4.20464
# Velocity P-wave (km/s) = 6.04145 6.95657 6.51510
#
# Compressibility (1/GPa) = 0.02689983
#
# Stress axis : x y z
#
# Youngs Moduli (GPa) = 46.92102 149.19979 136.29483
#
# Poissons Ratio (x) = 0.35192 0.16257
# Poissons Ratio (y) = 0.11067 0.09194
# Poissons Ratio (z) = 0.05596 0.10064
#
# Static dielectric constant tensor:
#      x y z
#    x 1.898340 0.000000 0.000000 
#    y 0.000000 1.917150 0.000000 
#    z 0.000000 0.000000 1.952640 
# 
# From -- ./inp_files/3655.got.cif
#   From: 2010.05.17/outbox.cif.g08.bks.cpg/sg52_2_cif.got.tgz:3655.got - 2010.06.03 12:15:38.
