data_PCOD9408733
_publ_section_title
;
Structure prediction by ZEFSAII (Michael W. Deem and Ramdas Pophale) SiO2 
 PCOD9408733
Probable space group: P N N A
;
_chemical_formula_sum "Si O2"
_cell_formula_units_Z 40
_cell_length_a 5.312229
_cell_length_b 13.278042
_cell_length_c 27.785843
_cell_angle_alpha 90.000000
_cell_angle_beta 90.000000
_cell_angle_gamma 90.000000
_cell_volume 1959.902216
_symmetry_space_group_name_H-M "P N N A"
_symmetry_group_IT_number 52
_symmetry_cell_setting 'orthorhombic'
loop_
_space_group_symop_operation_xyz
x,y,z
1/2-x,-y,z
x,1/2-y,1/2-z
1/2-x,1/2+y,1/2-z
-x,-y,-z
1/2+x,y,-z
-x,1/2+y,1/2+z
1/2+x,1/2-y,1/2+z
loop_
_atom_site_type_symbol
_atom_site_label
_atom_site_fract_x
_atom_site_fract_y
_atom_site_fract_z
Si Si1 0.834529 0.338508 0.873138
Si Si2 0.954588 0.385950 0.981144
Si Si3 0.327709 0.140878 0.685614
Si Si4 0.655101 0.877745 0.205155
Si Si5 0.656271 0.899265 0.853287
O O1 0.859812 0.379888 0.926866
O O2 0.577091 0.370821 0.846765
O O3 0.845810 0.214441 0.875370
O O4 0.072697 0.380950 0.843333
O O5 0.731394 0.338370 0.013052
O O6 0.000000 0.500000 0.000000
O O7 0.339057 0.095531 0.738789
O O8 0.310138 0.258826 0.697685
O O9 0.374606 0.895068 0.186462
O O10 0.889874 0.916298 0.173098
O O11 0.750000 0.000000 0.882447
#
# Coordination Sequence:
#
# PCOD9408733 Si02
#       5
#     8   8   8   8   8
#     4  10  19  33  56  81  99 140 188 222 277 330
#     4  10  21  38  61  79 102 134 170 232 291 346
#     4   9  17  30  52  78 103 137 186 229 250 326
#     4   9  17  30  49  74 107 148 181 215 269 297
#     4  10  19  31  51  75 112 146 183 218 256 332
#
# _framework density 20.409181
#
# number of rings (size 3 to 8) (size 9 to 14) (size 15 to 20)
#    0.000    2.400    0.000    3.000    0.000    4.800 
#    0.000    0.000   44.000    1.200    0.000    0.000 
#    0.000    0.000    0.000    0.000    0.000    0.000 
#
# Total GULP energy -222822.261143 kJ/mol
# GULP energy per Si atom -5570.556529 kJ/mol
# Density = 2.036273 g / cm^3
# Si number density = 20.409181 Si / 1000 Ang^3
#
#
#
# Elastic Constant Matrix: (Units=GPa)
#
#
# Indices 1 2 3 4 5 6 
#
# 1 165.9816 35.6198 44.6365 0.0000 0.0000 0.0000
# 2 35.6198 76.9818 36.5288 0.0000 0.0000 0.0000
# 3 44.6365 36.5288 113.9826 0.0000 0.0000 0.0000
# 4 0.0000 0.0000 0.0000 48.2313 0.0000 0.0000
# 5 0.0000 0.0000 0.0000 0.0000 21.6582 0.0000
# 6 0.0000 0.0000 0.0000 0.0000 0.0000 6.3336
#
#
#
# Elastic Compliance Matrix: (Units=1/GPa)
#
#
# Indices 1 2 3 4 5 6 
#
# 1 0.007065 -0.002307 -0.002027 0.000000 0.000000 0.000000
# 2 -0.002307 0.016073 -0.004248 0.000000 0.000000 0.000000
# 3 -0.002027 -0.004248 0.010928 0.000000 0.000000 0.000000
# 4 0.000000 0.000000 0.000000 0.020733 0.000000 0.000000
# 5 0.000000 0.000000 0.000000 0.000000 0.046172 0.000000
# 6 0.000000 0.000000 0.000000 0.000000 0.000000 0.157888
#
#
# Mechanical properties :
#
#
# Convention : Reuss Voigt Hill
#
# Bulk Modulus (GPa) = 59.16251 65.61292 62.38771
# Shear Modulus (GPa) = 17.75202 31.25533 24.50367
#
# Velocity S-wave (km/s) = 2.95245 3.91760 3.46876
# Velocity P-wave (km/s) = 6.37759 7.25824 6.83212
#
# Compressibility (1/GPa) = 0.01690260
#
# Stress axis : x y z
#
# Youngs Moduli (GPa) = 141.54154 62.21574 91.50403
#
# Poissons Ratio (x) = 0.14353 0.18551
# Poissons Ratio (y) = 0.32654 0.38867
# Poissons Ratio (z) = 0.28696 0.26427
#
# Static dielectric constant tensor:
#      x y z
#    x 1.786590 0.000000 0.000000 
#    y 0.000000 1.877640 0.000000 
#    z 0.000000 0.000000 1.680870 
# 
# From -- ./inp_files/38665.got.cif
#   From: 2010.05.17/outbox.cif.g08.bks.cpg/sg52_20_cif.got.tgz:38665.got - 2010.06.03 12:15:38.
