data_PCOD9408115
_publ_section_title
;
Structure prediction by ZEFSAII (Michael W. Deem and Ramdas Pophale) SiO2 
 PCOD9408115
Probable space group: P N N A
;
_chemical_formula_sum "Si O2"
_cell_formula_units_Z 64
_cell_length_a 14.330115
_cell_length_b 24.922170
_cell_length_c 7.890978
_cell_angle_alpha 90.000000
_cell_angle_beta 90.000000
_cell_angle_gamma 90.000000
_cell_volume 2818.164646
_symmetry_space_group_name_H-M "P N N A"
_symmetry_group_IT_number 52
_symmetry_cell_setting 'orthorhombic'
loop_
_space_group_symop_operation_xyz
x,y,z
1/2-x,-y,z
x,1/2-y,1/2-z
1/2-x,1/2+y,1/2-z
-x,-y,-z
1/2+x,y,-z
-x,1/2+y,1/2+z
1/2+x,1/2-y,1/2+z
loop_
_atom_site_type_symbol
_atom_site_label
_atom_site_fract_x
_atom_site_fract_y
_atom_site_fract_z
Si Si1 0.078475 0.531696 0.108719
Si Si2 0.189033 0.819623 0.890144
Si Si3 0.440427 0.542361 0.394393
Si Si4 0.922005 0.140582 0.794184
Si Si5 0.295957 0.285439 0.078980
Si Si6 0.595655 0.308117 0.826066
Si Si7 0.933865 0.114776 0.348646
Si Si8 0.384853 0.855326 0.955594
O O1 0.115821 0.487137 0.240992
O O2 0.052673 0.580709 0.234679
O O3 0.119630 0.569647 0.960089
O O4 0.000000 0.500000 0.000000
O O5 0.135295 0.842921 0.732137
O O6 0.297189 0.830773 0.863225
O O7 0.151477 0.854016 0.052083
O O8 0.173940 0.758009 0.940559
O O9 0.500000 0.500000 0.500000
O O10 0.515276 0.580836 0.300690
O O11 0.382829 0.580314 0.520498
O O12 0.871184 0.170639 0.638044
O O13 0.018476 0.163302 0.870135
O O14 0.288434 0.250000 0.250000
O O15 0.188643 0.303801 0.059965
O O16 0.562298 0.250000 0.750000
O O17 0.520683 0.347853 0.912692
O O18 0.623424 0.335678 0.648998
#
# Coordination Sequence:
#
# PCOD9408115 Si02
#       8
#     8   8   8   8   8   8   8   8
#     4  10  22  41  64  89 131 175 218 280 335 390
#     4  11  20  40  66 101 129 164 223 276 321 411
#     4  10  18  38  67  89 120 171 225 272 324 397
#     4  11  20  39  66  93 125 177 219 268 335 397
#     4   9  19  35  63  94 132 164 213 271 314 405
#     4  10  17  35  60  97 128 171 211 266 330 402
#     4  10  22  36  64  93 131 169 212 274 345 388
#     4  11  20  35  70  98 126 170 228 273 327 400
#
# _framework density 22.709816
#
# number of rings (size 3 to 8) (size 9 to 14) (size 15 to 20)
#    0.000    1.750    7.500    0.000    0.000    1.000 
#    2.250    3.750    2.750    2.250    0.000    0.000 
#    0.000    0.000    0.000    0.000    0.000    0.000 
#
# Total GULP energy -356456.851458 kJ/mol
# GULP energy per Si atom -5569.638304 kJ/mol
# Density = 2.265813 g / cm^3
# Si number density = 22.709816 Si / 1000 Ang^3
#
#
#
# Elastic Constant Matrix: (Units=GPa)
#
#
# Indices 1 2 3 4 5 6 
#
# 1 61.5364 12.4169 -1.7164 0.0000 0.0000 0.0000
# 2 12.4169 117.5813 12.4631 0.0000 0.0000 0.0000
# 3 -1.7164 12.4631 63.2661 0.0000 0.0000 0.0000
# 4 0.0000 0.0000 0.0000 53.7010 0.0000 0.0000
# 5 0.0000 0.0000 0.0000 0.0000 13.7586 0.0000
# 6 0.0000 0.0000 0.0000 0.0000 0.0000 10.0422
#
#
#
# Elastic Compliance Matrix: (Units=1/GPa)
#
#
# Indices 1 2 3 4 5 6 
#
# 1 0.016645 -0.001844 0.000815 0.000000 0.000000 0.000000
# 2 -0.001844 0.008890 -0.001801 0.000000 0.000000 0.000000
# 3 0.000815 -0.001801 0.016183 0.000000 0.000000 0.000000
# 4 0.000000 0.000000 0.000000 0.018622 0.000000 0.000000
# 5 0.000000 0.000000 0.000000 0.000000 0.072682 0.000000
# 6 0.000000 0.000000 0.000000 0.000000 0.000000 0.099579
#
#
# Mechanical properties :
#
#
# Convention : Reuss Voigt Hill
#
# Bulk Modulus (GPa) = 27.73335 32.07900 29.90618
# Shear Modulus (GPa) = 19.97742 30.11503 25.04622
#
# Velocity S-wave (km/s) = 2.96916 3.64549 3.32457
# Velocity P-wave (km/s) = 4.89828 5.64586 5.28530
#
# Compressibility (1/GPa) = 0.03605767
#
# Stress axis : x y z
#
# Youngs Moduli (GPa) = 60.07666 112.48033 61.79237
#
# Poissons Ratio (x) = 0.20743 -0.05035
# Poissons Ratio (y) = 0.11079 0.11131
# Poissons Ratio (z) = -0.04895 0.20262
#
# Static dielectric constant tensor:
#      x y z
#    x 1.871590 0.000000 0.000000 
#    y 0.000000 1.904380 0.000000 
#    z 0.000000 0.000000 1.950400 
# 
# From -- ./inp_files/11014.got.cif
#   From: 2010.05.17/outbox.cif.g08.bks.cpg/sg52_6_cif.got.tgz:11014.got - 2010.06.03 12:15:38.
