data_PCOD9408296
_publ_section_title
;
Structure prediction by ZEFSAII (Michael W. Deem and Ramdas Pophale) SiO2 
 PCOD9408296
Probable space group: P N N A
;
_chemical_formula_sum "Si O2"
_cell_formula_units_Z 48
_cell_length_a 14.448261
_cell_length_b 5.294230
_cell_length_c 26.189256
_cell_angle_alpha 90.000000
_cell_angle_beta 90.000000
_cell_angle_gamma 90.000000
_cell_volume 2003.279487
_symmetry_space_group_name_H-M "P N N A"
_symmetry_group_IT_number 52
_symmetry_cell_setting 'orthorhombic'
loop_
_space_group_symop_operation_xyz
x,y,z
1/2-x,-y,z
x,1/2-y,1/2-z
1/2-x,1/2+y,1/2-z
-x,-y,-z
1/2+x,y,-z
-x,1/2+y,1/2+z
1/2+x,1/2-y,1/2+z
loop_
_atom_site_type_symbol
_atom_site_label
_atom_site_fract_x
_atom_site_fract_y
_atom_site_fract_z
Si Si1 0.870408 0.151763 0.807503
Si Si2 0.124590 0.144289 0.361949
Si Si3 0.604707 0.932643 0.017686
Si Si4 0.190359 0.743763 0.615568
Si Si5 0.541805 0.836395 0.192352
Si Si6 0.394708 0.936084 0.479510
O O1 0.849721 0.250000 0.750000
O O2 0.836623 0.624076 0.672777
O O3 0.840544 0.370047 0.846005
O O4 0.982116 0.094871 0.810888
O O5 0.119420 0.171418 0.422565
O O6 0.018994 0.147922 0.341951
O O7 0.612423 0.789907 0.071606
O O8 0.646903 0.718757 0.980708
O O9 0.500000 0.000000 0.000000
O O10 0.645888 0.215272 0.015388
O O11 0.250000 0.500000 0.603825
O O12 0.142724 0.683931 0.669489
O O13 0.250000 0.000000 0.614747
O O14 0.537339 0.750000 0.250000
O O15 0.500000 0.000000 0.500000
#
# Coordination Sequence:
#
# PCOD9408296 Si02
#       6
#     8   8   8   8   8   8
#     4  10  18  32  49  77 107 149 192 238 289 341
#     4  10  19  30  53  82 108 136 194 253 295 334
#     4  10  21  39  60  82 107 146 196 247 306 377
#     4  12  28  42  58  83 118 155 203 265 310 346
#     4  10  22  36  57  74 110 157 212 244 289 340
#     4  10  19  30  54  82 106 133 182 245 304 364
#
# _framework density 23.960708
#
# number of rings (size 3 to 8) (size 9 to 14) (size 15 to 20)
#    1.000    0.667    1.667    4.500    7.000    0.667 
#    0.000    0.000    0.000    0.000    0.000    0.000 
#    0.000    0.000    0.000    0.000    0.000  541.667 
#
# Total GULP energy -267332.339706 kJ/mol
# GULP energy per Si atom -5569.423744 kJ/mol
# Density = 2.390617 g / cm^3
# Si number density = 23.960708 Si / 1000 Ang^3
#
#
#
# Elastic Constant Matrix: (Units=GPa)
#
#
# Indices 1 2 3 4 5 6 
#
# 1 78.7391 29.9751 19.5878 0.0000 0.0000 0.0000
# 2 29.9751 211.8155 47.6354 0.0000 0.0000 0.0000
# 3 19.5878 47.6354 93.8490 0.0000 0.0000 0.0000
# 4 0.0000 0.0000 0.0000 30.5176 0.0000 0.0000
# 5 0.0000 0.0000 0.0000 0.0000 17.1818 0.0000
# 6 0.0000 0.0000 0.0000 0.0000 0.0000 27.6996
#
#
#
# Elastic Compliance Matrix: (Units=1/GPa)
#
#
# Indices 1 2 3 4 5 6 
#
# 1 0.013791 -0.001472 -0.002131 0.000000 0.000000 0.000000
# 2 -0.001472 0.005487 -0.002478 0.000000 0.000000 0.000000
# 3 -0.002131 -0.002478 0.012358 0.000000 0.000000 0.000000
# 4 0.000000 0.000000 0.000000 0.032768 0.000000 0.000000
# 5 0.000000 0.000000 0.000000 0.000000 0.058201 0.000000
# 6 0.000000 0.000000 0.000000 0.000000 0.000000 0.036102
#
#
# Mechanical properties :
#
#
# Convention : Reuss Voigt Hill
#
# Bulk Modulus (GPa) = 51.35243 64.31113 57.83178
# Shear Modulus (GPa) = 28.19143 34.22682 31.20912
#
# Velocity S-wave (km/s) = 3.43384 3.78359 3.61295
# Velocity P-wave (km/s) = 6.09919 6.78129 6.44927
#
# Compressibility (1/GPa) = 0.01947327
#
# Stress axis : x y z
#
# Youngs Moduli (GPa) = 72.51205 182.26103 80.92087
#
# Poissons Ratio (x) = 0.26835 0.17244
# Poissons Ratio (y) = 0.10676 0.20049
# Poissons Ratio (z) = 0.15453 0.45157
#
# Static dielectric constant tensor:
#      x y z
#    x 2.411080 0.000000 0.000000 
#    y 0.000000 2.069310 0.000000 
#    z 0.000000 0.000000 1.929500 
# 
# From -- ./inp_files/40814.got.cif
#   From: 2010.05.17/outbox.cif.g08.bks.cpg/sg52_21_cif.got.tgz:40814.got - 2010.06.03 12:15:38.
