data_PCOD9408908
_publ_section_title
;
Structure prediction by ZEFSAII (Michael W. Deem and Ramdas Pophale) SiO2 
 PCOD9408908
Probable space group: P N N A
;
_chemical_formula_sum "Si O2"
_cell_formula_units_Z 28
_cell_length_a 17.370174
_cell_length_b 13.144024
_cell_length_c 4.823323
_cell_angle_alpha 90.000000
_cell_angle_beta 90.000000
_cell_angle_gamma 90.000000
_cell_volume 1101.232090
_symmetry_space_group_name_H-M "P N N A"
_symmetry_group_IT_number 52
_symmetry_cell_setting 'orthorhombic'
loop_
_space_group_symop_operation_xyz
x,y,z
1/2-x,-y,z
x,1/2-y,1/2-z
1/2-x,1/2+y,1/2-z
-x,-y,-z
1/2+x,y,-z
-x,1/2+y,1/2+z
1/2+x,1/2-y,1/2+z
loop_
_atom_site_type_symbol
_atom_site_label
_atom_site_fract_x
_atom_site_fract_y
_atom_site_fract_z
Si Si1 0.250000 0.000000 0.769547
Si Si2 0.763101 0.364919 0.735198
Si Si3 0.471444 0.637475 0.269478
Si Si4 0.929925 0.414112 0.782165
O O1 0.270039 0.085091 0.539072
O O2 0.213207 0.074208 0.006727
O O3 0.738899 0.250000 0.750000
O O4 0.852461 0.373401 0.643062
O O5 0.436668 0.750000 0.250000
O O6 0.499867 0.611744 0.577035
O O7 0.426250 0.536312 0.169386
O O8 0.546537 0.637508 0.069634
#
# Coordination Sequence:
#
# PCOD9408908 Si02
#       4
#     4   8   8   8
#     4  10  24  38  58  88 112 140 202 250 290 344
#     4  11  21  40  62  84 114 153 194 245 293 343
#     4  10  19  34  53  85 122 150 179 226 273 328
#     4  10  21  34  58  86 112 148 193 223 271 346
#
# _framework density 25.426068999999998
#
# number of rings (size 3 to 8) (size 9 to 14) (size 15 to 20)
#    0.000    1.714    0.000    5.143    0.000    0.000 
#    0.000    8.571    0.000    0.000    0.000    0.000 
#    0.000    0.000    0.000    0.000    0.000    0.000 
#
# Total GULP energy -156029.439736 kJ/mol
# GULP energy per Si atom -5572.479991 kJ/mol
# Density = 2.536820 g / cm^3
# Si number density = 25.426069 Si / 1000 Ang^3
#
#
#
# Elastic Constant Matrix: (Units=GPa)
#
#
# Indices 1 2 3 4 5 6 
#
# 1 63.8143 8.7185 11.9783 0.0000 0.0000 0.0000
# 2 8.7185 231.3615 37.2484 0.0000 0.0000 0.0000
# 3 11.9783 37.2484 160.3804 0.0000 0.0000 0.0000
# 4 0.0000 0.0000 0.0000 30.7082 0.0000 0.0000
# 5 0.0000 0.0000 0.0000 0.0000 19.1123 0.0000
# 6 0.0000 0.0000 0.0000 0.0000 0.0000 16.4242
#
#
#
# Elastic Compliance Matrix: (Units=1/GPa)
#
#
# Indices 1 2 3 4 5 6 
#
# 1 0.015933 -0.000425 -0.001091 0.000000 0.000000 0.000000
# 2 -0.000425 0.004501 -0.001014 0.000000 0.000000 0.000000
# 3 -0.001091 -0.001014 0.006552 0.000000 0.000000 0.000000
# 4 0.000000 0.000000 0.000000 0.032565 0.000000 0.000000
# 5 0.000000 0.000000 0.000000 0.000000 0.052322 0.000000
# 6 0.000000 0.000000 0.000000 0.000000 0.000000 0.060886
#
#
# Mechanical properties :
#
#
# Convention : Reuss Voigt Hill
#
# Bulk Modulus (GPa) = 45.60530 63.49406 54.54968
# Shear Modulus (GPa) = 27.00827 39.75634 33.38230
#
# Velocity S-wave (km/s) = 3.26272 3.95853 3.62735
# Velocity P-wave (km/s) = 5.67179 6.77640 6.24855
#
# Compressibility (1/GPa) = 0.02192728
#
# Stress axis : x y z
#
# Youngs Moduli (GPa) = 62.76143 222.15040 152.62217
#
# Poissons Ratio (x) = 0.09435 0.16657
# Poissons Ratio (y) = 0.02666 0.15472
# Poissons Ratio (z) = 0.06850 0.22520
#
# Static dielectric constant tensor:
#      x y z
#    x 2.063000 0.000000 0.000000 
#    y 0.000000 5.249090 0.000000 
#    z 0.000000 0.000000 1.933320 
# 
# From -- ./inp_files/3807.got.cif
#   From: 2010.05.17/outbox.cif.g08.bks.cpg/sg52_2_cif.got.tgz:3807.got - 2010.06.03 12:15:38.
