data_PCOD9408788
_publ_section_title
;
Structure prediction by ZEFSAII (Michael W. Deem and Ramdas Pophale) SiO2 
 PCOD9408788
Probable space group: P N N A
;
_chemical_formula_sum "Si O2"
_cell_formula_units_Z 36
_cell_length_a 20.371635
_cell_length_b 8.253844
_cell_length_c 10.395187
_cell_angle_alpha 90.000000
_cell_angle_beta 90.000000
_cell_angle_gamma 90.000000
_cell_volume 1747.891414
_symmetry_space_group_name_H-M "P N N A"
_symmetry_group_IT_number 52
_symmetry_cell_setting 'orthorhombic'
loop_
_space_group_symop_operation_xyz
x,y,z
1/2-x,-y,z
x,1/2-y,1/2-z
1/2-x,1/2+y,1/2-z
-x,-y,-z
1/2+x,y,-z
-x,1/2+y,1/2+z
1/2+x,1/2-y,1/2+z
loop_
_atom_site_type_symbol
_atom_site_label
_atom_site_fract_x
_atom_site_fract_y
_atom_site_fract_z
Si Si1 0.824926 0.948051 0.611968
Si Si2 0.058084 0.629820 0.998975
Si Si3 0.824485 0.561415 0.591571
Si Si4 0.439846 0.461679 0.595985
Si Si5 0.493311 0.750000 0.750000
O O1 0.828760 0.756053 0.590400
O O2 0.843504 0.985245 0.761285
O O3 0.750000 0.000000 0.595456
O O4 0.873100 0.040830 0.516378
O O5 0.040949 0.719876 0.131299
O O6 0.056587 0.767063 0.889955
O O7 0.000000 0.500000 0.000000
O O8 0.750000 0.500000 0.572097
O O9 0.873207 0.496406 0.482903
O O10 0.500000 0.500000 0.500000
O O11 0.450190 0.589989 0.712502
#
# Coordination Sequence:
#
# PCOD9408788 Si02
#       5
#     8   8   8   8   4
#     4  10  19  32  54  85 117 146 185 236 293 347
#     4  11  22  36  57  86 116 148 188 238 289 343
#     4  10  20  34  55  83 115 151 187 234 290 345
#     4  10  20  36  56  80 111 149 190 233 284 344
#     4  10  22  38  58  80 114 152 190 234 284 346
#
# _framework density 20.596243999999999
#
# number of rings (size 3 to 8) (size 9 to 14) (size 15 to 20)
#    0.000    1.778    0.000    6.667    0.000    6.222 
#    0.000    0.000    0.000    8.000    0.000    0.000 
#    0.000    0.000    0.000    0.000    0.000    0.000 
#
# Total GULP energy -200893.718248 kJ/mol
# GULP energy per Si atom -5580.381062 kJ/mol
# Density = 2.054937 g / cm^3
# Si number density = 20.596244 Si / 1000 Ang^3
#
#
#
# Elastic Constant Matrix: (Units=GPa)
#
#
# Indices 1 2 3 4 5 6 
#
# 1 84.8098 49.1635 25.9534 0.0000 0.0000 0.0000
# 2 49.1635 148.2235 39.0996 0.0000 0.0000 0.0000
# 3 25.9534 39.0996 70.4019 0.0000 0.0000 0.0000
# 4 0.0000 0.0000 0.0000 35.4996 0.0000 0.0000
# 5 0.0000 0.0000 0.0000 0.0000 26.0091 0.0000
# 6 0.0000 0.0000 0.0000 0.0000 0.0000 43.5155
#
#
#
# Elastic Compliance Matrix: (Units=1/GPa)
#
#
# Indices 1 2 3 4 5 6 
#
# 1 0.015221 -0.004181 -0.003289 0.000000 0.000000 0.000000
# 2 -0.004181 0.009053 -0.003487 0.000000 0.000000 0.000000
# 3 -0.003289 -0.003487 0.017353 0.000000 0.000000 0.000000
# 4 0.000000 0.000000 0.000000 0.028169 0.000000 0.000000
# 5 0.000000 0.000000 0.000000 0.000000 0.038448 0.000000
# 6 0.000000 0.000000 0.000000 0.000000 0.000000 0.022980
#
#
# Mechanical properties :
#
#
# Convention : Reuss Voigt Hill
#
# Bulk Modulus (GPa) = 50.72576 59.09647 54.91111
# Shear Modulus (GPa) = 31.30671 33.61943 32.46307
#
# Velocity S-wave (km/s) = 3.90297 4.04457 3.97440
# Velocity P-wave (km/s) = 6.70769 7.11101 6.91229
#
# Compressibility (1/GPa) = 0.01971385
#
# Stress axis : x y z
#
# Youngs Moduli (GPa) = 65.69708 110.45995 57.62670
#
# Poissons Ratio (x) = 0.46184 0.18955
# Poissons Ratio (y) = 0.27468 0.20092
# Poissons Ratio (z) = 0.21610 0.38512
#
# Static dielectric constant tensor:
#      x y z
#    x 1.693230 0.000000 0.000000 
#    y 0.000000 1.832600 0.000000 
#    z 0.000000 0.000000 1.768470 
# 
# From -- ./inp_files/12924.got.cif
#   From: 2010.05.17/outbox.cif.g08.bks.cpg/sg52_7_cif.got.tgz:12924.got - 2010.06.03 12:15:38.
