data_PCOD9408505
_publ_section_title
;
Structure prediction by ZEFSAII (Michael W. Deem and Ramdas Pophale) SiO2 
 PCOD9408505
Probable space group: P N N A
;
_chemical_formula_sum "Si O2"
_cell_formula_units_Z 60
_cell_length_a 30.870625
_cell_length_b 9.297903
_cell_length_c 10.809821
_cell_angle_alpha 90.000000
_cell_angle_beta 90.000000
_cell_angle_gamma 90.000000
_cell_volume 3102.765371
_symmetry_space_group_name_H-M "P N N A"
_symmetry_group_IT_number 52
_symmetry_cell_setting 'orthorhombic'
loop_
_space_group_symop_operation_xyz
x,y,z
1/2-x,-y,z
x,1/2-y,1/2-z
1/2-x,1/2+y,1/2-z
-x,-y,-z
1/2+x,y,-z
-x,1/2+y,1/2+z
1/2+x,1/2-y,1/2+z
loop_
_atom_site_type_symbol
_atom_site_label
_atom_site_fract_x
_atom_site_fract_y
_atom_site_fract_z
Si Si1 0.905906 0.750000 0.250000
Si Si2 0.886760 0.973712 0.628288
Si Si3 0.380632 0.670206 0.488961
Si Si4 0.521524 0.018750 0.296191
Si Si5 0.706922 0.074565 0.615859
Si Si6 0.457916 0.160713 0.491332
Si Si7 0.291478 0.594424 0.414453
Si Si8 0.440832 0.466897 0.375717
O O1 0.878482 0.735712 0.374833
O O2 0.936399 0.890930 0.260256
O O3 0.883929 0.801418 0.609313
O O4 0.837371 0.013089 0.595919
O O5 0.920178 0.044843 0.534622
O O6 0.906077 0.020824 0.761533
O O7 0.339981 0.564119 0.463885
O O8 0.425208 0.585464 0.471423
O O9 0.497110 0.116587 0.400213
O O10 0.487392 0.004615 0.185282
O O11 0.529270 0.868624 0.367431
O O12 0.709779 0.234619 0.560783
O O13 0.708090 0.083890 0.765492
O O14 0.750000 0.000000 0.571455
O O15 0.442016 0.314428 0.444177
O O16 0.250000 0.500000 0.456931
#
# Coordination Sequence:
#
# PCOD9408505 Si02
#       8
#     4   8   8   8   8   8   8   8
#     4  12  22  42  60  78 114 162 208 244 294 360
#     4  10  18  35  58  84 123 156 189 237 295 370
#     4  11  23  37  61  87 113 159 201 244 299 356
#     4  10  20  38  57  79 120 157 195 244 293 351
#     4   9  17  30  52  87 120 148 177 224 300 364
#     4  10  20  36  56  84 120 156 192 239 301 350
#     4   9  18  35  54  84 119 143 185 236 288 353
#     4  11  21  36  60  88 114 151 203 246 299 348
#
# _framework density 19.337588
#
# number of rings (size 3 to 8) (size 9 to 14) (size 15 to 20)
#    0.000    1.867    4.000    1.600    0.000    1.600 
#    4.800    2.000    0.000    3.200    0.000    0.000 
#    0.000    0.000    0.000    0.000    0.000    0.000 
#
# Total GULP energy -334408.679631 kJ/mol
# GULP energy per Si atom -5573.477994 kJ/mol
# Density = 1.929357 g / cm^3
# Si number density = 19.337588 Si / 1000 Ang^3
#
#
#
# Elastic Constant Matrix: (Units=GPa)
#
#
# Indices 1 2 3 4 5 6 
#
# 1 92.6200 28.8352 18.9915 0.0000 0.0000 0.0000
# 2 28.8352 61.6807 26.0091 0.0000 0.0000 0.0000
# 3 18.9915 26.0091 63.3701 0.0000 0.0000 0.0000
# 4 0.0000 0.0000 0.0000 23.5007 0.0000 0.0000
# 5 0.0000 0.0000 0.0000 0.0000 6.6789 0.0000
# 6 0.0000 0.0000 0.0000 0.0000 0.0000 33.0734
#
#
#
# Elastic Compliance Matrix: (Units=1/GPa)
#
#
# Indices 1 2 3 4 5 6 
#
# 1 0.012780 -0.005272 -0.001666 0.000000 0.000000 0.000000
# 2 -0.005272 0.021780 -0.007359 0.000000 0.000000 0.000000
# 3 -0.001666 -0.007359 0.019300 0.000000 0.000000 0.000000
# 4 0.000000 0.000000 0.000000 0.042552 0.000000 0.000000
# 5 0.000000 0.000000 0.000000 0.000000 0.149725 0.000000
# 6 0.000000 0.000000 0.000000 0.000000 0.000000 0.030236
#
#
# Mechanical properties :
#
#
# Convention : Reuss Voigt Hill
#
# Bulk Modulus (GPa) = 39.57997 40.59359 40.08678
# Shear Modulus (GPa) = 15.95456 22.23959 19.09707
#
# Velocity S-wave (km/s) = 2.87549 3.39495 3.14596
# Velocity P-wave (km/s) = 5.61578 6.03367 5.82847
#
# Compressibility (1/GPa) = 0.02526531
#
# Stress axis : x y z
#
# Youngs Moduli (GPa) = 78.24892 45.91302 51.81292
#
# Poissons Ratio (x) = 0.24204 0.08633
# Poissons Ratio (y) = 0.41251 0.38131
# Poissons Ratio (z) = 0.13038 0.33789
#
# Static dielectric constant tensor:
#      x y z
#    x 1.741880 0.000000 0.000000 
#    y 0.000000 1.702740 0.000000 
#    z 0.000000 0.000000 1.692480 
# 
# From -- ./inp_files/23146.got.cif
#   From: 2010.05.17/outbox.cif.g08.bks.cpg/sg52_12_cif.got.tgz:23146.got - 2010.06.03 12:15:38.
