data_PCOD9408011
_publ_section_title
;
Structure prediction by ZEFSAII (Michael W. Deem and Ramdas Pophale) SiO2 
 PCOD9408011
Probable space group: P N N A
;
_chemical_formula_sum "Si O2"
_cell_formula_units_Z 60
_cell_length_a 22.171828
_cell_length_b 7.112484
_cell_length_c 18.828243
_cell_angle_alpha 90.000000
_cell_angle_beta 90.000000
_cell_angle_gamma 90.000000
_cell_volume 2969.153142
_symmetry_space_group_name_H-M "P N N A"
_symmetry_group_IT_number 52
_symmetry_cell_setting 'orthorhombic'
loop_
_space_group_symop_operation_xyz
x,y,z
1/2-x,-y,z
x,1/2-y,1/2-z
1/2-x,1/2+y,1/2-z
-x,-y,-z
1/2+x,y,-z
-x,1/2+y,1/2+z
1/2+x,1/2-y,1/2+z
loop_
_atom_site_type_symbol
_atom_site_label
_atom_site_fract_x
_atom_site_fract_y
_atom_site_fract_z
Si Si1 0.500577 0.933487 0.338196
Si Si2 0.250000 0.000000 0.968328
Si Si3 0.102696 0.784112 0.331069
Si Si4 0.490532 0.986138 0.823327
Si Si5 0.304036 0.357129 0.047822
Si Si6 0.820251 0.032285 0.273179
Si Si7 0.134552 0.471069 0.624053
Si Si8 0.116843 0.914853 0.585478
O O1 0.523688 0.019016 0.262018
O O2 0.498986 0.708267 0.333666
O O3 0.547202 0.969286 0.402427
O O4 0.434920 0.023694 0.343075
O O5 0.192784 0.078665 0.923174
O O6 0.225210 0.827065 0.013095
O O7 0.122751 0.750000 0.250000
O O8 0.050996 0.626058 0.341454
O O9 0.157190 0.790324 0.385246
O O10 0.435549 0.910209 0.871595
O O11 0.250000 0.500000 0.064714
O O12 0.350089 0.445475 0.988961
O O13 0.831544 0.250000 0.250000
O O14 0.843910 0.930513 0.203772
O O15 0.849702 0.988663 0.348348
O O16 0.750000 0.000000 0.280359
O O17 0.125405 0.692670 0.603559
#
# Coordination Sequence:
#
# PCOD9408011 Si02
#       8
#     8   4   8   8   8   8   8   8
#     4   9  17  34  60  90 123 155 184 238 304 351
#     4  10  22  40  60  88 128 168 198 242 288 360
#     4  10  23  42  62  89 111 143 209 268 306 371
#     4   9  17  34  60  89 122 154 193 246 296 348
#     4  11  25  44  61  83 123 158 198 257 314 365
#     4  10  17  28  46  78 118 159 201 225 257 330
#     4   9  16  31  55  84 121 163 199 227 274 344
#     4   9  18  33  54  85 123 158 191 231 289 357
#
# _framework density 20.207782999999999
#
# number of rings (size 3 to 8) (size 9 to 14) (size 15 to 20)
#    0.000    2.400    2.000    0.400    0.000    2.667 
#    3.600    6.000    0.000    0.000    0.000    0.000 
#    0.000    0.000    0.000    0.000    0.000    0.000 
#
# Total GULP energy -334451.199130 kJ/mol
# GULP energy per Si atom -5574.186652 kJ/mol
# Density = 2.016179 g / cm^3
# Si number density = 20.207783 Si / 1000 Ang^3
#
#
#
# Elastic Constant Matrix: (Units=GPa)
#
#
# Indices 1 2 3 4 5 6 
#
# 1 120.5859 37.8462 97.9894 0.0000 0.0000 0.0000
# 2 37.8462 55.3998 40.0708 0.0000 0.0000 0.0000
# 3 97.9894 40.0708 116.5654 0.0000 0.0000 0.0000
# 4 0.0000 0.0000 0.0000 18.7217 0.0000 0.0000
# 5 0.0000 0.0000 0.0000 0.0000 38.3242 0.0000
# 6 0.0000 0.0000 0.0000 0.0000 0.0000 -0.0131
#
#
#
# Elastic Compliance Matrix: (Units=1/GPa)
#
#
# Indices 1 2 3 4 5 6 
#
# 1 0.026458 -0.002645 -0.021332 0.000000 0.000000 0.000000
# 2 -0.002645 0.024288 -0.006126 0.000000 0.000000 0.000000
# 3 -0.021332 -0.006126 0.028617 0.000000 0.000000 0.000000
# 4 0.000000 0.000000 0.000000 0.053414 0.000000 0.000000
# 5 0.000000 0.000000 0.000000 0.000000 0.026093 0.000000
# 6 0.000000 0.000000 0.000000 0.000000 0.000000-76.117074
#
#
# Mechanical properties :
#
#
# Convention : Reuss Voigt Hill
#
# Bulk Modulus (GPa) = 52.19924 71.59600 61.89762
# Shear Modulus (GPa) = -0.06588 19.18286 9.55849
#
# Velocity S-wave (km/s) = -0.18076 3.08438 2.17724
# Velocity P-wave (km/s) = 5.08368 6.94200 6.08421
#
# Compressibility (1/GPa) = 0.01915737
#
# Stress axis : x y z
#
# Youngs Moduli (GPa) = 37.79624 41.17180 34.94378
#
# Poissons Ratio (x) = 0.10889 0.74542
# Poissons Ratio (y) = 0.09997 0.21407
# Poissons Ratio (z) = 0.80627 0.25222
#
# Static dielectric constant tensor:
#      x y z
#    x 1.714180 0.000000 0.000000 
#    y 0.000000 1.794170 0.000000 
#    z 0.000000 0.000000 1.711510 
# 
# From -- ./inp_files/33780.got.cif
#   From: 2010.05.17/outbox.cif.g08.bks.cpg/sg52_17_cif.got.tgz:33780.got - 2010.06.03 12:15:38.
