data_PCOD9408271
_publ_section_title
;
Structure prediction by ZEFSAII (Michael W. Deem and Ramdas Pophale) SiO2 
 PCOD9408271
Probable space group: P N N A
;
_chemical_formula_sum "Si O2"
_cell_formula_units_Z 52
_cell_length_a 9.626746
_cell_length_b 12.003381
_cell_length_c 24.093770
_cell_angle_alpha 90.000000
_cell_angle_beta 90.000000
_cell_angle_gamma 90.000000
_cell_volume 2784.119452
_symmetry_space_group_name_H-M "P N N A"
_symmetry_group_IT_number 52
_symmetry_cell_setting 'orthorhombic'
loop_
_space_group_symop_operation_xyz
x,y,z
1/2-x,-y,z
x,1/2-y,1/2-z
1/2-x,1/2+y,1/2-z
-x,-y,-z
1/2+x,y,-z
-x,1/2+y,1/2+z
1/2+x,1/2-y,1/2+z
loop_
_atom_site_type_symbol
_atom_site_label
_atom_site_fract_x
_atom_site_fract_y
_atom_site_fract_z
Si Si1 0.295298 0.760109 0.649717
Si Si2 0.781729 0.125417 0.821938
Si Si3 0.502668 0.831711 0.130635
Si Si4 0.491904 0.750000 0.750000
Si Si5 0.534794 0.743804 0.491086
Si Si6 0.204717 0.123760 0.538584
Si Si7 0.999942 0.411962 0.589743
O O1 0.142030 0.711565 0.660387
O O2 0.387668 0.793821 0.702414
O O3 0.283923 0.857894 0.604671
O O4 0.378930 0.660933 0.618186
O O5 0.632506 0.181965 0.830833
O O6 0.899797 0.169599 0.781003
O O7 0.854867 0.124181 0.882162
O O8 0.750000 0.000000 0.805035
O O9 0.487715 0.767263 0.072465
O O10 0.518206 0.960132 0.108843
O O11 0.448305 0.841587 0.520211
O O12 0.693792 0.783401 0.488335
O O13 0.509430 0.630665 0.526309
O O14 0.250000 0.000000 0.523177
#
# Coordination Sequence:
#
# PCOD9408271 Si02
#       7
#     8   8   8   4   8   8   8
#     4   9  20  34  53  75 102 141 179 219 268 311
#     4   9  19  34  54  77 103 135 172 218 270 318
#     4  10  18  31  52  84 110 131 170 216 263 328
#     4  10  20  40  56  70 102 140 178 230 278 316
#     4  10  19  31  53  79 107 143 172 202 261 317
#     4  10  20  35  50  73 105 141 181 216 245 300
#     4   9  17  32  52  79 113 138 161 208 270 331
#
# _framework density 18.67736
#
# number of rings (size 3 to 8) (size 9 to 14) (size 15 to 20)
#    0.000    2.462    0.000    2.308    0.000    0.615 
#    0.000   12.308    0.000    6.462    0.000    0.000 
#    0.000    0.000    0.000    0.000    0.000    0.000 
#
# Total GULP energy -289527.314823 kJ/mol
# GULP energy per Si atom -5567.832977 kJ/mol
# Density = 1.863485 g / cm^3
# Si number density = 18.677360 Si / 1000 Ang^3
#
#
#
# Elastic Constant Matrix: (Units=GPa)
#
#
# Indices 1 2 3 4 5 6 
#
# 1 118.7162 11.0939 38.3369 0.0000 0.0000 0.0000
# 2 11.0939 40.5157 12.3953 0.0000 0.0000 0.0000
# 3 38.3369 12.3953 70.3822 0.0000 0.0000 0.0000
# 4 0.0000 0.0000 0.0000 7.8068 0.0000 0.0000
# 5 0.0000 0.0000 0.0000 0.0000 30.2987 0.0000
# 6 0.0000 0.0000 0.0000 0.0000 0.0000 19.3294
#
#
#
# Elastic Compliance Matrix: (Units=1/GPa)
#
#
# Indices 1 2 3 4 5 6 
#
# 1 0.010273 -0.001164 -0.005391 0.000000 0.000000 0.000000
# 2 -0.001164 0.026219 -0.003984 0.000000 0.000000 0.000000
# 3 -0.005391 -0.003984 0.017846 0.000000 0.000000 0.000000
# 4 0.000000 0.000000 0.000000 0.128093 0.000000 0.000000
# 5 0.000000 0.000000 0.000000 0.000000 0.033005 0.000000
# 6 0.000000 0.000000 0.000000 0.000000 0.000000 0.051735
#
#
# Mechanical properties :
#
#
# Convention : Reuss Voigt Hill
#
# Bulk Modulus (GPa) = 30.06433 39.25180 34.65806
# Shear Modulus (GPa) = 16.70373 22.67285 19.68829
#
# Velocity S-wave (km/s) = 2.99378 3.48792 3.25025
# Velocity P-wave (km/s) = 5.29924 6.10591 5.71682
#
# Compressibility (1/GPa) = 0.03326201
#
# Stress axis : x y z
#
# Youngs Moduli (GPa) = 97.34239 38.13997 56.03484
#
# Poissons Ratio (x) = 0.04438 0.30207
# Poissons Ratio (y) = 0.11328 0.22323
# Poissons Ratio (z) = 0.52475 0.15194
#
# Static dielectric constant tensor:
#      x y z
#    x 1.656650 0.000000 0.000000 
#    y 0.000000 1.651070 0.000000 
#    z 0.000000 0.000000 1.680940 
# 
# From -- ./inp_files/39583.got.cif
#   From: 2010.05.17/outbox.cif.g08.bks.cpg/sg52_20_cif.got.tgz:39583.got - 2010.06.03 12:15:38.
