data_PCOD9408904
_publ_section_title
;
Structure prediction by ZEFSAII (Michael W. Deem and Ramdas Pophale) SiO2 
 PCOD9408904
Probable space group: P N N A
;
_chemical_formula_sum "Si O2"
_cell_formula_units_Z 48
_cell_length_a 29.954495
_cell_length_b 16.261789
_cell_length_c 4.910680
_cell_angle_alpha 90.000000
_cell_angle_beta 90.000000
_cell_angle_gamma 90.000000
_cell_volume 2392.059393
_symmetry_space_group_name_H-M "P N N A"
_symmetry_group_IT_number 52
_symmetry_cell_setting 'orthorhombic'
loop_
_space_group_symop_operation_xyz
x,y,z
1/2-x,-y,z
x,1/2-y,1/2-z
1/2-x,1/2+y,1/2-z
-x,-y,-z
1/2+x,y,-z
-x,1/2+y,1/2+z
1/2+x,1/2-y,1/2+z
loop_
_atom_site_type_symbol
_atom_site_label
_atom_site_fract_x
_atom_site_fract_y
_atom_site_fract_z
Si Si1 0.498868 0.818040 0.487909
Si Si2 0.905400 0.368403 0.854981
Si Si3 0.290377 0.061399 0.898562
Si Si4 0.391844 0.024709 0.842999
Si Si5 0.304153 0.168842 0.404508
Si Si6 0.469318 0.917815 0.008026
O O1 0.491045 0.750000 0.250000
O O2 0.551780 0.818811 0.547675
O O3 0.481169 0.843577 0.792957
O O4 0.478151 0.892409 0.316378
O O5 0.905931 0.450165 0.040572
O O6 0.905030 0.398962 0.543626
O O7 0.858173 0.326126 0.918885
O O8 0.288146 0.141239 0.701211
O O9 0.250000 0.000000 0.849532
O O10 0.338445 0.019197 0.848326
O O11 0.291938 0.093449 0.206619
O O12 0.419331 0.946971 0.943837
O O13 0.287706 0.250000 0.250000
O O14 0.500000 0.000000 0.000000
#
# Coordination Sequence:
#
# PCOD9408904 Si02
#       6
#     8   8   8   8   8   8
#     4  12  24  35  53  83 119 154 190 242 289 337
#     4  10  19  34  52  82 112 143 180 225 292 352
#     4  10  21  38  60  85 116 148 194 242 296 344
#     4  10  20  34  58  82 103 146 194 235 276 337
#     4  10  21  35  58  86 120 148 182 234 300 366
#     4  12  21  37  59  77 111 154 203 229 274 348
#
# _framework density 20.066389999999998
#
# number of rings (size 3 to 8) (size 9 to 14) (size 15 to 20)
#    0.000    1.333    3.333    3.000    0.000    5.333 
#    0.000    0.000    0.000    6.000    0.000    0.000 
#    0.000    0.000    0.000    0.000    0.000    0.000 
#
# Total GULP energy -267400.066223 kJ/mol
# GULP energy per Si atom -5570.834713 kJ/mol
# Density = 2.002072 g / cm^3
# Si number density = 20.066390 Si / 1000 Ang^3
#
#
#
# Elastic Constant Matrix: (Units=GPa)
#
#
# Indices 1 2 3 4 5 6 
#
# 1 68.9297 33.5528 19.6315 0.0000 0.0000 0.0000
# 2 33.5528 36.2385 15.2599 0.0000 0.0000 0.0000
# 3 19.6315 15.2599 121.6846 0.0000 0.0000 0.0000
# 4 0.0000 0.0000 0.0000 27.1844 0.0000 0.0000
# 5 0.0000 0.0000 0.0000 0.0000 17.8644 0.0000
# 6 0.0000 0.0000 0.0000 0.0000 0.0000 6.3828
#
#
#
# Elastic Compliance Matrix: (Units=1/GPa)
#
#
# Indices 1 2 3 4 5 6 
#
# 1 0.026595 -0.024089 -0.001270 0.000000 0.000000 0.000000
# 2 -0.024089 0.050953 -0.002503 0.000000 0.000000 0.000000
# 3 -0.001270 -0.002503 0.008737 0.000000 0.000000 0.000000
# 4 0.000000 0.000000 0.000000 0.036786 0.000000 0.000000
# 5 0.000000 0.000000 0.000000 0.000000 0.055977 0.000000
# 6 0.000000 0.000000 0.000000 0.000000 0.000000 0.156670
#
#
# Mechanical properties :
#
#
# Convention : Reuss Voigt Hill
#
# Bulk Modulus (GPa) = 32.72246 40.41567 36.56906
# Shear Modulus (GPa) = 12.44928 20.84691 16.64809
#
# Velocity S-wave (km/s) = 2.49349 3.22669 2.88349
# Velocity P-wave (km/s) = 4.96312 5.83667 5.41753
#
# Compressibility (1/GPa) = 0.03056005
#
# Stress axis : x y z
#
# Youngs Moduli (GPa) = 37.60095 19.62583 114.45906
#
# Poissons Ratio (x) = 0.47277 0.14532
# Poissons Ratio (y) = 0.90578 0.28654
# Poissons Ratio (z) = 0.04774 0.04913
#
# Static dielectric constant tensor:
#      x y z
#    x 1.688540 0.000000 0.000000 
#    y 0.000000 1.790100 0.000000 
#    z 0.000000 0.000000 1.705530 
# 
# From -- ./inp_files/6371.got.cif
#   From: 2010.05.17/outbox.cif.g08.bks.cpg/sg52_4_cif.got.tgz:6371.got - 2010.06.03 12:15:38.
