data_PCOD9408175
_publ_section_title
;
Structure prediction by ZEFSAII (Michael W. Deem and Ramdas Pophale) SiO2 
 PCOD9408175
Probable space group: P N N A
;
_chemical_formula_sum "Si O2"
_cell_formula_units_Z 52
_cell_length_a 5.753310
_cell_length_b 13.150927
_cell_length_c 26.408719
_cell_angle_alpha 90.000000
_cell_angle_beta 90.000000
_cell_angle_gamma 90.000000
_cell_volume 1998.119591
_symmetry_space_group_name_H-M "P N N A"
_symmetry_group_IT_number 52
_symmetry_cell_setting 'orthorhombic'
loop_
_space_group_symop_operation_xyz
x,y,z
1/2-x,-y,z
x,1/2-y,1/2-z
1/2-x,1/2+y,1/2-z
-x,-y,-z
1/2+x,y,-z
-x,1/2+y,1/2+z
1/2+x,1/2-y,1/2+z
loop_
_atom_site_type_symbol
_atom_site_label
_atom_site_fract_x
_atom_site_fract_y
_atom_site_fract_z
Si Si1 0.873272 0.628443 0.123271
Si Si2 0.601028 0.611496 0.519516
Si Si3 0.347952 0.132172 0.731325
Si Si4 0.750000 0.000000 0.572241
Si Si5 0.657321 0.631623 0.732812
Si Si6 0.508424 0.696003 0.045281
Si Si7 0.807231 0.178780 0.878790
O O1 0.714036 0.619628 0.172392
O O2 0.733058 0.651395 0.072690
O O3 0.043946 0.537577 0.108668
O O4 0.031265 0.726220 0.134165
O O5 0.363017 0.577216 0.493426
O O6 0.592514 0.731178 0.500433
O O7 0.569199 0.608087 0.579632
O O8 0.365137 0.250000 0.750000
O O9 0.611002 0.092074 0.738986
O O10 0.108713 0.094278 0.758690
O O11 0.840810 0.902730 0.540415
O O12 0.640593 0.750000 0.750000
O O13 0.733506 0.625511 0.674075
O O14 0.403328 0.772116 0.088937
#
# Coordination Sequence:
#
# PCOD9408175 Si02
#       7
#     8   8   8   4   8   8   8
#     4  11  19  35  50  66  95 124 162 214 262 305
#     4  10  20  33  50  69  88 124 166 205 252 296
#     4  10  19  29  50  73  91 114 145 197 258 311
#     4  10  24  34  52  68  90 134 174 224 264 292
#     4  10  18  29  45  75  92 111 142 190 259 305
#     4  10  20  35  49  65  90 127 171 210 257 290
#     4  10  19  31  50  69  93 120 154 208 258 302
#
# _framework density 26.024467999999999
#
# number of rings (size 3 to 8) (size 9 to 14) (size 15 to 20)
#    0.000    1.846    4.615    2.308    2.154    0.000 
#    0.000    6.923    0.000    0.000    0.000    0.000 
#    0.000    0.000    0.000    0.000    0.000    0.000 
#
# Total GULP energy -290724.039909 kJ/mol
# GULP energy per Si atom -5590.846921 kJ/mol
# Density = 2.596524 g / cm^3
# Si number density = 26.024468 Si / 1000 Ang^3
#
#
#
# Elastic Constant Matrix: (Units=GPa)
#
#
# Indices 1 2 3 4 5 6 
#
# 1 188.3637 52.1340 48.2943 0.0000 0.0000 0.0000
# 2 52.1340 43.1724 -14.2629 0.0000 0.0000 0.0000
# 3 48.2943 -14.2629 163.3710 0.0000 0.0000 0.0000
# 4 0.0000 0.0000 0.0000 -7.3453 0.0000 0.0000
# 5 0.0000 0.0000 0.0000 0.0000 49.5161 0.0000
# 6 0.0000 0.0000 0.0000 0.0000 0.0000 63.4025
#
#
#
# Elastic Compliance Matrix: (Units=1/GPa)
#
#
# Indices 1 2 3 4 5 6 
#
# 1 0.010168 -0.013665 -0.004199 0.000000 0.000000 0.000000
# 2 -0.013665 0.042217 0.007725 0.000000 0.000000 0.000000
# 3 -0.004199 0.007725 0.008037 0.000000 0.000000 0.000000
# 4 0.000000 0.000000 0.000000 -0.136141 0.000000 0.000000
# 5 0.000000 0.000000 0.000000 0.000000 0.020195 0.000000
# 6 0.000000 0.000000 0.000000 0.000000 0.000000 0.015772
#
#
# Mechanical properties :
#
#
# Convention : Reuss Voigt Hill
#
# Bulk Modulus (GPa) = 24.91035 63.02645 43.96840
# Shear Modulus (GPa) = -820.53144 41.69744 -389.41700
#
# Velocity S-wave (km/s) = -17.77574 4.00714 -12.24581
# Velocity P-wave (km/s) = 20.29063 6.75872 13.52829
#
# Compressibility (1/GPa) = 0.04014395
#
# Stress axis : x y z
#
# Youngs Moduli (GPa) = 98.35244 23.68719 124.43000
#
# Poissons Ratio (x) = 0.32369 0.52244
# Poissons Ratio (y) = 1.34400 -0.96125
# Poissons Ratio (z) = 0.41295 -0.18299
#
# Static dielectric constant tensor:
#      x y z
#    x 2.062370 0.000000 0.000000 
#    y 0.000000 2.209950 0.000000 
#    z 0.000000 0.000000 1.954410 
# 
# From -- ./inp_files/38855.got.cif
#   From: 2010.05.17/outbox.cif.g08.bks.cpg/sg52_20_cif.got.tgz:38855.got - 2010.06.03 12:15:38.
