data_PCOD9408547
_publ_section_title
;
Structure prediction by ZEFSAII (Michael W. Deem and Ramdas Pophale) SiO2 
 PCOD9408547
Probable space group: P N N A
;
_chemical_formula_sum "Si O2"
_cell_formula_units_Z 56
_cell_length_a 9.183314
_cell_length_b 20.154900
_cell_length_c 14.278859
_cell_angle_alpha 90.000000
_cell_angle_beta 90.000000
_cell_angle_gamma 90.000000
_cell_volume 2642.856526
_symmetry_space_group_name_H-M "P N N A"
_symmetry_group_IT_number 52
_symmetry_cell_setting 'orthorhombic'
loop_
_space_group_symop_operation_xyz
x,y,z
1/2-x,-y,z
x,1/2-y,1/2-z
1/2-x,1/2+y,1/2-z
-x,-y,-z
1/2+x,y,-z
-x,1/2+y,1/2+z
1/2+x,1/2-y,1/2+z
loop_
_atom_site_type_symbol
_atom_site_label
_atom_site_fract_x
_atom_site_fract_y
_atom_site_fract_z
Si Si1 0.379061 0.949695 0.033469
Si Si2 0.920544 0.750000 0.250000
Si Si3 0.603505 0.230383 0.581443
Si Si4 0.629486 0.843669 0.628661
Si Si5 0.503833 0.591833 0.046739
Si Si6 0.228681 0.353813 0.322299
Si Si7 0.449267 0.828208 0.911931
Si Si8 0.250000 0.000000 0.516073
O O1 0.372843 0.909289 0.130747
O O2 0.250000 0.000000 0.040379
O O3 0.373883 0.892066 0.956200
O O4 0.500000 0.000000 0.000000
O O5 0.854638 0.800359 0.175374
O O6 0.021744 0.793838 0.318046
O O7 0.759995 0.196196 0.561770
O O8 0.507520 0.163951 0.595524
O O9 0.643836 0.284383 0.660776
O O10 0.548285 0.273621 0.494369
O O11 0.538859 0.892305 0.563252
O O12 0.727051 0.869038 0.715805
O O13 0.639976 0.546190 0.075036
O O14 0.355845 0.548423 0.044513
O O15 0.385719 0.346374 0.377274
#
# Coordination Sequence:
#
# PCOD9408547 Si02
#       8
#     8   4   8   8   8   8   8   4
#     4  11  22  40  64  94 127 169 212 256 316 399
#     4  10  18  36  58  94 118 156 206 270 312 378
#     4  11  18  32  63  96 116 158 212 268 317 376
#     4  11  19  36  62  94 123 159 210 265 312 376
#     4  11  21  39  61  92 125 170 216 266 318 386
#     4  10  21  38  62  98 120 161 217 262 314 394
#     4  10  20  34  63  91 126 155 215 260 324 377
#     4  10  24  38  56  90 128 166 228 250 314 396
#
# _framework density 21.189195999999999
#
# number of rings (size 3 to 8) (size 9 to 14) (size 15 to 20)
#    0.000    1.429    7.143    0.000    0.000    0.000 
#    1.286    0.000    6.286    5.143    7.429    0.000 
#    0.000    0.000    0.000    0.000    0.000    0.000 
#
# Total GULP energy -311756.905504 kJ/mol
# GULP energy per Si atom -5567.087598 kJ/mol
# Density = 2.114097 g / cm^3
# Si number density = 21.189196 Si / 1000 Ang^3
#
#
#
# Elastic Constant Matrix: (Units=GPa)
#
#
# Indices 1 2 3 4 5 6 
#
# 1 32.7531 26.5528 7.9394 0.0000 0.0000 0.0000
# 2 26.5528 144.3340 26.7116 0.0000 0.0000 0.0000
# 3 7.9394 26.7116 86.1449 0.0000 0.0000 0.0000
# 4 0.0000 0.0000 0.0000 24.7091 0.0000 0.0000
# 5 0.0000 0.0000 0.0000 0.0000 28.0581 0.0000
# 6 0.0000 0.0000 0.0000 0.0000 0.0000 41.5211
#
#
#
# Elastic Compliance Matrix: (Units=1/GPa)
#
#
# Indices 1 2 3 4 5 6 
#
# 1 0.036029 -0.006380 -0.001342 0.000000 0.000000 0.000000
# 2 -0.006380 0.008480 -0.002041 0.000000 0.000000 0.000000
# 3 -0.001342 -0.002041 0.012365 0.000000 0.000000 0.000000
# 4 0.000000 0.000000 0.000000 0.040471 0.000000 0.000000
# 5 0.000000 0.000000 0.000000 0.000000 0.035640 0.000000
# 6 0.000000 0.000000 0.000000 0.000000 0.000000 0.024084
#
#
# Mechanical properties :
#
#
# Convention : Reuss Voigt Hill
#
# Bulk Modulus (GPa) = 26.77606 42.84883 34.81244
# Shear Modulus (GPa) = 26.44870 32.32619 29.38744
#
# Velocity S-wave (km/s) = 3.53684 3.91013 3.72816
# Velocity P-wave (km/s) = 5.41693 6.37584 5.91585
#
# Compressibility (1/GPa) = 0.03734680
#
# Stress axis : x y z
#
# Youngs Moduli (GPa) = 27.75551 117.92676 80.87297
#
# Poissons Ratio (x) = 0.75234 0.10856
# Poissons Ratio (y) = 0.17707 0.16510
# Poissons Ratio (z) = 0.03726 0.24074
#
# Static dielectric constant tensor:
#      x y z
#    x 1.829400 0.000000 0.000000 
#    y 0.000000 1.800900 0.000000 
#    z 0.000000 0.000000 1.771840 
# 
# From -- ./inp_files/24981.got.cif
#   From: 2010.05.17/outbox.cif.g08.bks.cpg/sg52_13_cif.got.tgz:24981.got - 2010.06.03 12:15:38.
