data_PCOD9408920
_publ_section_title
;
Structure prediction by ZEFSAII (Michael W. Deem and Ramdas Pophale) SiO2 
 PCOD9408920
Probable space group: P N N A
;
_chemical_formula_sum "Si O2"
_cell_formula_units_Z 48
_cell_length_a 21.422608
_cell_length_b 10.413813
_cell_length_c 8.666842
_cell_angle_alpha 90.000000
_cell_angle_beta 90.000000
_cell_angle_gamma 90.000000
_cell_volume 1933.494741
_symmetry_space_group_name_H-M "P N N A"
_symmetry_group_IT_number 52
_symmetry_cell_setting 'orthorhombic'
loop_
_space_group_symop_operation_xyz
x,y,z
1/2-x,-y,z
x,1/2-y,1/2-z
1/2-x,1/2+y,1/2-z
-x,-y,-z
1/2+x,y,-z
-x,1/2+y,1/2+z
1/2+x,1/2-y,1/2+z
loop_
_atom_site_type_symbol
_atom_site_label
_atom_site_fract_x
_atom_site_fract_y
_atom_site_fract_z
Si Si1 0.041159 0.966587 0.180076
Si Si2 0.824341 0.006245 0.223888
Si Si3 0.875118 0.528137 0.949905
Si Si4 0.618401 0.187676 0.001326
Si Si5 0.567194 0.642352 0.375466
Si Si6 0.771975 0.874757 0.784090
O O1 0.076532 0.953538 0.341029
O O2 0.970896 0.017965 0.190711
O O3 0.075544 0.087569 0.093361
O O4 0.046353 0.852571 0.054920
O O5 0.850766 0.033758 0.394266
O O6 0.854897 0.875162 0.156807
O O7 0.750000 0.000000 0.226539
O O8 0.858767 0.114418 0.122092
O O9 0.812583 0.553553 0.848353
O O10 0.905295 0.666704 0.995949
O O11 0.679592 0.194129 0.895757
O O12 0.552534 0.750000 0.250000
O O13 0.728667 0.750000 0.750000
O O14 0.750000 0.000000 0.875483
#
# Coordination Sequence:
#
# PCOD9408920 Si02
#       6
#     8   8   8   8   8   8
#     4   9  19  38  63  90 117 152 208 264 324 399
#     4  11  23  36  52  83 124 163 212 264 321 395
#     4  10  19  34  55  81 113 151 201 263 321 380
#     4   9  18  34  58  79 107 155 208 259 314 390
#     4  10  21  39  63  89 122 163 203 259 328 397
#     4   9  17  31  51  76 107 148 198 250 309 380
#
# _framework density 24.825513999999998
#
# number of rings (size 3 to 8) (size 9 to 14) (size 15 to 20)
#    0.000    2.333    0.000    4.000    0.000    2.000 
#    0.000   10.000    0.000    0.000    0.000    0.000 
#    0.000    0.000    0.000    0.000    0.000    0.000 
#
# Total GULP energy -267463.811917 kJ/mol
# GULP energy per Si atom -5572.162748 kJ/mol
# Density = 2.476901 g / cm^3
# Si number density = 24.825514 Si / 1000 Ang^3
#
#
#
# Elastic Constant Matrix: (Units=GPa)
#
#
# Indices 1 2 3 4 5 6 
#
# 1 104.5859 9.1502 33.8434 0.0000 0.0000 0.0000
# 2 9.1502 82.8491 17.4900 0.0000 0.0000 0.0000
# 3 33.8434 17.4900 133.1276 0.0000 0.0000 0.0000
# 4 0.0000 0.0000 0.0000 38.4204 0.0000 0.0000
# 5 0.0000 0.0000 0.0000 0.0000 -89.4845 0.0000
# 6 0.0000 0.0000 0.0000 0.0000 0.0000 11.8645
#
#
#
# Elastic Compliance Matrix: (Units=1/GPa)
#
#
# Indices 1 2 3 4 5 6 
#
# 1 0.010448 -0.000610 -0.002576 0.000000 0.000000 0.000000
# 2 -0.000610 0.012450 -0.001481 0.000000 0.000000 0.000000
# 3 -0.002576 -0.001481 0.008361 0.000000 0.000000 0.000000
# 4 0.000000 0.000000 0.000000 0.026028 0.000000 0.000000
# 5 0.000000 0.000000 0.000000 0.000000 -0.011175 0.000000
# 6 0.000000 0.000000 0.000000 0.000000 0.000000 0.084285
#
#
# Mechanical properties :
#
#
# Convention : Reuss Voigt Hill
#
# Bulk Modulus (GPa) = 45.60782 49.05886 47.33334
# Shear Modulus (GPa) = 34.00452 9.49866 21.75159
#
# Velocity S-wave (km/s) = 3.70502 1.95818 2.96324
# Velocity P-wave (km/s) = 6.05922 4.99169 5.55118
#
# Compressibility (1/GPa) = 0.02192607
#
# Stress axis : x y z
#
# Youngs Moduli (GPa) = 95.70757 80.32077 119.60327
#
# Poissons Ratio (x) = 0.04901 0.30810
# Poissons Ratio (y) = 0.05840 0.17708
# Poissons Ratio (z) = 0.24655 0.11892
#
# Static dielectric constant tensor:
#      x y z
#    x 2.022890 0.000000 0.000000 
#    y 0.000000 2.239630 0.000000 
#    z 0.000000 0.000000 2.069370 
# 
# From -- ./inp_files/14244.got.cif
#   From: 2010.05.17/outbox.cif.g08.bks.cpg/sg52_8_cif.got.tgz:14244.got - 2010.06.03 12:15:38.
