data_PCOD9408513
_publ_section_title
;
Structure prediction by ZEFSAII (Michael W. Deem and Ramdas Pophale) SiO2 
 PCOD9408513
Probable space group: P N N A
;
_chemical_formula_sum "Si O2"
_cell_formula_units_Z 60
_cell_length_a 23.689879
_cell_length_b 13.334062
_cell_length_c 8.880395
_cell_angle_alpha 90.000000
_cell_angle_beta 90.000000
_cell_angle_gamma 90.000000
_cell_volume 2805.159734
_symmetry_space_group_name_H-M "P N N A"
_symmetry_group_IT_number 52
_symmetry_cell_setting 'orthorhombic'
loop_
_space_group_symop_operation_xyz
x,y,z
1/2-x,-y,z
x,1/2-y,1/2-z
1/2-x,1/2+y,1/2-z
-x,-y,-z
1/2+x,y,-z
-x,1/2+y,1/2+z
1/2+x,1/2-y,1/2+z
loop_
_atom_site_type_symbol
_atom_site_label
_atom_site_fract_x
_atom_site_fract_y
_atom_site_fract_z
Si Si1 0.133332 0.250000 0.750000
Si Si2 0.646180 0.997035 0.920954
Si Si3 0.087254 0.704808 0.988106
Si Si4 0.960836 0.586052 0.706266
Si Si5 0.915707 0.085922 0.197626
Si Si6 0.300017 0.290053 0.396212
Si Si7 0.278499 0.609244 0.601714
Si Si8 0.961504 0.781820 0.496877
O O1 0.175903 0.340770 0.710426
O O2 0.090058 0.217266 0.618344
O O3 0.679131 0.902053 0.862573
O O4 0.590911 0.014761 0.825438
O O5 0.626426 0.974793 0.093323
O O6 0.688231 0.088660 0.944215
O O7 0.081419 0.806604 0.887868
O O8 0.096319 0.613917 0.870169
O O9 0.143796 0.722996 0.081226
O O10 0.025422 0.699064 0.065330
O O11 0.958742 0.674109 0.580982
O O12 0.022360 0.537140 0.692801
O O13 0.956065 0.637809 0.868559
O O14 0.268048 0.250000 0.250000
O O15 0.267456 0.306854 0.553690
O O16 0.250000 0.500000 0.641371
#
# Coordination Sequence:
#
# PCOD9408513 Si02
#       8
#     4   8   8   8   8   8   8   8
#     4  12  22  40  64  94 118 170 204 262 330 362
#     4  10  18  35  59  84 114 153 204 251 287 363
#     4   8  16  33  54  88 122 155 196 248 301 376
#     4   9  16  33  54  89 122 159 194 238 297 373
#     4   8  15  28  56  86 119 156 192 233 303 368
#     4  10  22  38  59  82 112 164 205 251 306 357
#     4  10  24  41  59  86 118 157 217 261 297 372
#     4   9  19  32  58  91 126 155 198 248 311 376
#
# _framework density 21.389157000000001
#
# number of rings (size 3 to 8) (size 9 to 14) (size 15 to 20)
#    0.000    2.667    1.333    2.000    0.933    4.267 
#    0.000    2.667    0.000    3.200    0.000    0.000 
#    0.000    0.000    0.000    0.000    0.000    0.000 
#
# Total GULP energy -334324.459976 kJ/mol
# GULP energy per Si atom -5572.074333 kJ/mol
# Density = 2.134047 g / cm^3
# Si number density = 21.389157 Si / 1000 Ang^3
#
#
#
# Elastic Constant Matrix: (Units=GPa)
#
#
# Indices 1 2 3 4 5 6 
#
# 1 106.5777 23.9805 41.4003 0.0000 0.0000 0.0000
# 2 23.9805 38.9319 19.9192 0.0000 0.0000 0.0000
# 3 41.4003 19.9192 62.0875 0.0000 0.0000 0.0000
# 4 0.0000 0.0000 0.0000 15.1490 0.0000 0.0000
# 5 0.0000 0.0000 0.0000 0.0000 18.1060 0.0000
# 6 0.0000 0.0000 0.0000 0.0000 0.0000 21.6559
#
#
#
# Elastic Compliance Matrix: (Units=1/GPa)
#
#
# Indices 1 2 3 4 5 6 
#
# 1 0.013253 -0.004357 -0.007439 0.000000 0.000000 0.000000
# 2 -0.004357 0.032163 -0.007413 0.000000 0.000000 0.000000
# 3 -0.007439 -0.007413 0.023445 0.000000 0.000000 0.000000
# 4 0.000000 0.000000 0.000000 0.066011 0.000000 0.000000
# 5 0.000000 0.000000 0.000000 0.000000 0.055230 0.000000
# 6 0.000000 0.000000 0.000000 0.000000 0.000000 0.046177
#
#
# Mechanical properties :
#
#
# Convention : Reuss Voigt Hill
#
# Bulk Modulus (GPa) = 32.84981 42.02190 37.43586
# Shear Modulus (GPa) = 17.55338 19.13532 18.34435
#
# Velocity S-wave (km/s) = 2.86784 2.99428 2.93174
# Velocity P-wave (km/s) = 5.13395 5.62523 5.38520
#
# Compressibility (1/GPa) = 0.03044158
#
# Stress axis : x y z
#
# Youngs Moduli (GPa) = 75.45458 31.09203 42.65259
#
# Poissons Ratio (x) = 0.13547 0.31731
# Poissons Ratio (y) = 0.32876 0.31619
# Poissons Ratio (z) = 0.56133 0.23049
#
# Static dielectric constant tensor:
#      x y z
#    x 1.864570 0.000000 0.000000 
#    y 0.000000 1.799960 0.000000 
#    z 0.000000 0.000000 1.797940 
# 
# From -- ./inp_files/14433.got.cif
#   From: 2010.05.17/outbox.cif.g08.bks.cpg/sg52_8_cif.got.tgz:14433.got - 2010.06.03 12:15:38.
