data_PCOD9408016
_publ_section_title
;
Structure prediction by ZEFSAII (Michael W. Deem and Ramdas Pophale) SiO2 
 PCOD9408016
Probable space group: P N N A
;
_chemical_formula_sum "Si O2"
_cell_formula_units_Z 48
_cell_length_a 12.645986
_cell_length_b 18.578535
_cell_length_c 11.693223
_cell_angle_alpha 90.000000
_cell_angle_beta 90.000000
_cell_angle_gamma 90.000000
_cell_volume 2747.251339
_symmetry_space_group_name_H-M "P N N A"
_symmetry_group_IT_number 52
_symmetry_cell_setting 'orthorhombic'
loop_
_space_group_symop_operation_xyz
x,y,z
1/2-x,-y,z
x,1/2-y,1/2-z
1/2-x,1/2+y,1/2-z
-x,-y,-z
1/2+x,y,-z
-x,1/2+y,1/2+z
1/2+x,1/2-y,1/2+z
loop_
_atom_site_type_symbol
_atom_site_label
_atom_site_fract_x
_atom_site_fract_y
_atom_site_fract_z
Si Si1 0.936386 0.824343 0.186505
Si Si2 0.127023 0.009619 0.136309
Si Si3 0.852227 0.456757 0.075390
Si Si4 0.026347 0.612355 0.521822
Si Si5 0.959997 0.438148 0.849364
Si Si6 0.277444 0.414657 0.683330
O O1 0.913958 0.750000 0.250000
O O2 0.829095 0.869758 0.167739
O O3 0.007879 0.869925 0.274681
O O4 0.993775 0.822651 0.062312
O O5 0.073675 0.084025 0.095734
O O6 0.250000 0.000000 0.108247
O O7 0.108860 0.990955 0.268941
O O8 0.059307 0.950184 0.067799
O O9 0.750000 0.500000 0.034507
O O10 0.816981 0.411351 0.185377
O O11 0.936043 0.515758 0.120153
O O12 0.903292 0.418067 0.967207
O O13 0.128296 0.614795 0.603812
O O14 0.250000 0.500000 0.662440
#
# Coordination Sequence:
#
# PCOD9408016 Si02
#       6
#     8   8   8   8   8   8
#     4  11  23  39  55  80 119 153 192 236 299 358
#     4  10  17  28  52  85 112 133 174 236 287 329
#     4  10  18  32  57  85 110 144 189 244 278 336
#     4  10  19  32  53  81 109 145 180 231 285 341
#     4  10  19  33  53  82 114 146 185 234 289 335
#     4  11  18  37  62  89 112 144 198 245 290 341
#
# _framework density 17.472007999999999
#
# number of rings (size 3 to 8) (size 9 to 14) (size 15 to 20)
#    0.000    1.667    5.000    4.000    0.000    0.000 
#    3.000    0.000    0.000    0.000    0.000    0.000 
#    0.000    0.000    0.000    0.000    0.000    0.000 
#
# Total GULP energy -267453.771255 kJ/mol
# GULP energy per Si atom -5571.953568 kJ/mol
# Density = 1.743224 g / cm^3
# Si number density = 17.472008 Si / 1000 Ang^3
#
#
#
# Elastic Constant Matrix: (Units=GPa)
#
#
# Indices 1 2 3 4 5 6 
#
# 1 93.8436 22.2623 44.5440 0.0000 0.0000 0.0000
# 2 22.2623 54.7389 24.7264 0.0000 0.0000 0.0000
# 3 44.5440 24.7264 106.1273 0.0000 0.0000 0.0000
# 4 0.0000 0.0000 0.0000 9.8799 0.0000 0.0000
# 5 0.0000 0.0000 0.0000 0.0000 10.3521 0.0000
# 6 0.0000 0.0000 0.0000 0.0000 0.0000 13.2560
#
#
#
# Elastic Compliance Matrix: (Units=1/GPa)
#
#
# Indices 1 2 3 4 5 6 
#
# 1 0.013838 -0.003358 -0.005026 0.000000 0.000000 0.000000
# 2 -0.003358 0.021232 -0.003538 0.000000 0.000000 0.000000
# 3 -0.005026 -0.003538 0.012356 0.000000 0.000000 0.000000
# 4 0.000000 0.000000 0.000000 0.101215 0.000000 0.000000
# 5 0.000000 0.000000 0.000000 0.000000 0.096599 0.000000
# 6 0.000000 0.000000 0.000000 0.000000 0.000000 0.075438
#
#
# Mechanical properties :
#
#
# Convention : Reuss Voigt Hill
#
# Bulk Modulus (GPa) = 42.40101 48.64170 45.52136
# Shear Modulus (GPa) = 14.18913 17.57607 15.88260
#
# Velocity S-wave (km/s) = 2.85284 3.17512 3.01829
# Velocity P-wave (km/s) = 5.93062 6.42978 6.18524
#
# Compressibility (1/GPa) = 0.02358434
#
# Stress axis : x y z
#
# Youngs Moduli (GPa) = 72.26388 47.09855 80.93027
#
# Poissons Ratio (x) = 0.15814 0.40675
# Poissons Ratio (y) = 0.24264 0.28629
# Poissons Ratio (z) = 0.36319 0.16661
#
# Static dielectric constant tensor:
#      x y z
#    x 1.608900 0.000000 0.000000 
#    y 0.000000 1.580590 0.000000 
#    z 0.000000 0.000000 1.643810 
# 
# From -- ./inp_files/18214.got.cif
#   From: 2010.05.17/outbox.cif.g08.bks.cpg/sg52_10_cif.got.tgz:18214.got - 2010.06.03 12:15:38.
