data_PCOD9408201
_publ_section_title
;
Structure prediction by ZEFSAII (Michael W. Deem and Ramdas Pophale) SiO2 
 PCOD9408201
Probable space group: P N N A
;
_chemical_formula_sum "Si O2"
_cell_formula_units_Z 60
_cell_length_a 28.876596
_cell_length_b 9.430278
_cell_length_c 10.405258
_cell_angle_alpha 90.000000
_cell_angle_beta 90.000000
_cell_angle_gamma 90.000000
_cell_volume 2833.500840
_symmetry_space_group_name_H-M "P N N A"
_symmetry_group_IT_number 52
_symmetry_cell_setting 'orthorhombic'
loop_
_space_group_symop_operation_xyz
x,y,z
1/2-x,-y,z
x,1/2-y,1/2-z
1/2-x,1/2+y,1/2-z
-x,-y,-z
1/2+x,y,-z
-x,1/2+y,1/2+z
1/2+x,1/2-y,1/2+z
loop_
_atom_site_type_symbol
_atom_site_label
_atom_site_fract_x
_atom_site_fract_y
_atom_site_fract_z
Si Si1 0.008427 0.753946 0.969397
Si Si2 0.161683 0.819145 0.884182
Si Si3 0.808372 0.755060 0.100539
Si Si4 0.500467 0.032203 0.192553
Si Si5 0.941380 0.503898 0.947385
Si Si6 0.750000 0.500000 0.426910
Si Si7 0.346145 0.018230 0.539324
Si Si8 0.608400 0.441105 0.318175
O O1 0.046658 0.628878 0.957277
O O2 0.001215 0.869346 0.857663
O O3 0.018946 0.856499 0.089050
O O4 0.962784 0.655394 0.988050
O O5 0.149476 0.750000 0.750000
O O6 0.168946 0.681316 0.970930
O O7 0.207228 0.915277 0.862493
O O8 0.119697 0.925871 0.912343
O O9 0.790538 0.750000 0.250000
O O10 0.779109 0.868162 0.018679
O O11 0.807219 0.601414 0.038033
O O12 0.860804 0.815611 0.120091
O O13 0.469331 0.035527 0.318848
O O14 0.554295 0.077697 0.202286
O O15 0.886705 0.510871 0.938120
O O16 0.369461 0.981103 0.679548
#
# Coordination Sequence:
#
# PCOD9408201 Si02
#       8
#     8   8   8   8   8   4   8   8
#     4  10  22  34  50  76 104 140 184 238 274 310
#     4   9  18  29  45  68  98 137 177 225 272 333
#     4   9  18  29  45  68  98 137 177 225 272 333
#     4  11  21  35  53  75 105 149 193 229 272 318
#     4  11  21  34  52  73 103 145 190 232 272 319
#     4  10  18  30  46  68  98 136 178 212 274 350
#     4  10  19  30  45  68  95 133 178 221 266 312
#     4   9  17  30  45  64  97 139 182 217 261 314
#
# _framework density 21.175219999999999
#
# number of rings (size 3 to 8) (size 9 to 14) (size 15 to 20)
#    0.000    2.133    0.000    5.200    0.000    4.800 
#    0.000    0.000    0.000    0.000    0.000    0.000 
#    0.000    0.000    0.000  240.000    0.000  116.800 
#
# Total GULP energy -334007.171692 kJ/mol
# GULP energy per Si atom -5566.786195 kJ/mol
# Density = 2.112702 g / cm^3
# Si number density = 21.175220 Si / 1000 Ang^3
#
#
#
# Elastic Constant Matrix: (Units=GPa)
#
#
# Indices 1 2 3 4 5 6 
#
# 1 59.3991 26.4067 9.1147 0.0000 0.0000 0.0000
# 2 26.4067 151.2674 19.5772 0.0000 0.0000 0.0000
# 3 9.1147 19.5772 32.3395 0.0000 0.0000 0.0000
# 4 0.0000 0.0000 0.0000 18.7698 0.0000 0.0000
# 5 0.0000 0.0000 0.0000 0.0000 2.4860 0.0000
# 6 0.0000 0.0000 0.0000 0.0000 0.0000 23.7480
#
#
#
# Elastic Compliance Matrix: (Units=1/GPa)
#
#
# Indices 1 2 3 4 5 6 
#
# 1 0.018622 -0.002790 -0.003559 0.000000 0.000000 0.000000
# 2 -0.002790 0.007591 -0.003809 0.000000 0.000000 0.000000
# 3 -0.003559 -0.003809 0.034231 0.000000 0.000000 0.000000
# 4 0.000000 0.000000 0.000000 0.053277 0.000000 0.000000
# 5 0.000000 0.000000 0.000000 0.000000 0.402249 0.000000
# 6 0.000000 0.000000 0.000000 0.000000 0.000000 0.042109
#
#
# Mechanical properties :
#
#
# Convention : Reuss Voigt Hill
#
# Bulk Modulus (GPa) = 24.92102 39.24479 32.08291
# Shear Modulus (GPa) = 8.44922 21.52794 14.98858
#
# Velocity S-wave (km/s) = 1.99970 3.19197 2.66340
# Velocity P-wave (km/s) = 4.13839 5.67084 4.96411
#
# Compressibility (1/GPa) = 0.04012677
#
# Stress axis : x y z
#
# Youngs Moduli (GPa) = 53.70035 131.73801 29.21340
#
# Poissons Ratio (x) = 0.36757 0.10398
# Poissons Ratio (y) = 0.14983 0.11127
# Poissons Ratio (z) = 0.19114 0.50177
#
# Static dielectric constant tensor:
#      x y z
#    x 1.819300 0.000000 0.000000 
#    y 0.000000 1.931420 0.000000 
#    z 0.000000 0.000000 1.801050 
# 
# From -- ./inp_files/23150.got.cif
#   From: 2010.05.17/outbox.cif.g08.bks.cpg/sg52_12_cif.got.tgz:23150.got - 2010.06.03 12:15:38.
