data_PCOD9408276
_publ_section_title
;
Structure prediction by ZEFSAII (Michael W. Deem and Ramdas Pophale) SiO2 
 PCOD9408276
Probable space group: P N N A
;
_chemical_formula_sum "Si O2"
_cell_formula_units_Z 48
_cell_length_a 29.807298
_cell_length_b 7.998537
_cell_length_c 7.129653
_cell_angle_alpha 90.000000
_cell_angle_beta 90.000000
_cell_angle_gamma 90.000000
_cell_volume 1699.814622
_symmetry_space_group_name_H-M "P N N A"
_symmetry_group_IT_number 52
_symmetry_cell_setting 'orthorhombic'
loop_
_space_group_symop_operation_xyz
x,y,z
1/2-x,-y,z
x,1/2-y,1/2-z
1/2-x,1/2+y,1/2-z
-x,-y,-z
1/2+x,y,-z
-x,1/2+y,1/2+z
1/2+x,1/2-y,1/2+z
loop_
_atom_site_type_symbol
_atom_site_label
_atom_site_fract_x
_atom_site_fract_y
_atom_site_fract_z
Si Si1 0.806997 0.684106 0.472110
Si Si2 0.385103 0.483507 0.567971
Si Si3 0.865352 0.986213 0.508356
Si Si4 0.444514 0.322724 0.046119
Si Si5 0.279717 0.174092 0.544566
Si Si6 0.471600 0.674577 0.538929
O O1 0.804562 0.750000 0.250000
O O2 0.834853 0.515566 0.504940
O O3 0.756376 0.697888 0.540719
O O4 0.839146 0.821665 0.560474
O O5 0.376941 0.515853 0.787206
O O6 0.409428 0.306562 0.546154
O O7 0.421438 0.616472 0.489944
O O8 0.914963 0.015200 0.584460
O O9 0.827099 0.125965 0.544695
O O10 0.452727 0.250000 0.250000
O O11 0.493446 0.311864 0.952035
O O12 0.290464 0.250000 0.750000
O O13 0.250000 0.000000 0.561899
O O14 0.463790 0.750000 0.750000
O O15 0.500000 0.500000 0.500000
#
# Coordination Sequence:
#
# PCOD9408276 Si02
#       6
#     8   8   8   8   8   8
#     4   8  16  29  49  77 105 129 164 220 270 313
#     4  10  18  34  57  78 102 138 180 220 268 327
#     4  10  18  31  54  78 100 134 177 216 263 323
#     4  10  21  35  50  74 107 139 173 220 268 313
#     4   9  16  26  44  75 106 127 160 214 266 311
#     4   9  18  33  52  74 105 141 179 224 274 327
#
# _framework density 28.238374
#
# number of rings (size 3 to 8) (size 9 to 14) (size 15 to 20)
#    0.000    2.667    0.000    4.000    0.000    0.000 
#    0.000    8.333    0.000   14.000    0.000    0.000 
#    0.000    0.000    0.000    0.000    0.000    0.000 
#
# Total GULP energy -267742.435587 kJ/mol
# GULP energy per Si atom -5577.967408 kJ/mol
# Density = 2.817410 g / cm^3
# Si number density = 28.238374 Si / 1000 Ang^3
#
#
#
# Elastic Constant Matrix: (Units=GPa)
#
#
# Indices 1 2 3 4 5 6 
#
# 1 251.4514 49.1414 10.6819 0.0000 0.0000 0.0000
# 2 49.1414 102.3592 7.9921 0.0000 0.0000 0.0000
# 3 10.6819 7.9921 94.6027 0.0000 0.0000 0.0000
# 4 0.0000 0.0000 0.0000 30.9516 0.0000 0.0000
# 5 0.0000 0.0000 0.0000 0.0000 8.3797 0.0000
# 6 0.0000 0.0000 0.0000 0.0000 0.0000 46.8897
#
#
#
# Elastic Compliance Matrix: (Units=1/GPa)
#
#
# Indices 1 2 3 4 5 6 
#
# 1 0.004398 -0.002087 -0.000320 0.000000 0.000000 0.000000
# 2 -0.002087 0.010824 -0.000679 0.000000 0.000000 0.000000
# 3 -0.000320 -0.000679 0.010664 0.000000 0.000000 0.000000
# 4 0.000000 0.000000 0.000000 0.032309 0.000000 0.000000
# 5 0.000000 0.000000 0.000000 0.000000 0.119336 0.000000
# 6 0.000000 0.000000 0.000000 0.000000 0.000000 0.021327
#
#
# Mechanical properties :
#
#
# Convention : Reuss Voigt Hill
#
# Bulk Modulus (GPa) = 50.72253 64.89377 57.80815
# Shear Modulus (GPa) = 23.62934 42.61739 33.12337
#
# Velocity S-wave (km/s) = 2.89586 3.88906 3.42861
# Velocity P-wave (km/s) = 5.40209 6.57244 6.01579
#
# Compressibility (1/GPa) = 0.01971511
#
# Stress axis : x y z
#
# Youngs Moduli (GPa) = 227.36063 92.38512 93.77305
#
# Poissons Ratio (x) = 0.19277 0.03004
# Poissons Ratio (y) = 0.47440 0.06366
# Poissons Ratio (z) = 0.07284 0.06271
#
# Static dielectric constant tensor:
#      x y z
#    x 2.242900 0.000000 0.000000 
#    y 0.000000 2.351730 0.000000 
#    z 0.000000 0.000000 2.369370 
# 
# From -- ./inp_files/15539.got.cif
#   From: 2010.05.17/outbox.cif.g08.bks.cpg/sg52_8_cif.got.tgz:15539.got - 2010.06.03 12:15:38.
