data_PCOD9408771
_publ_section_title
;
Structure prediction by ZEFSAII (Michael W. Deem and Ramdas Pophale) SiO2 
 PCOD9408771
Probable space group: P N N A
;
_chemical_formula_sum "Si O2"
_cell_formula_units_Z 64
_cell_length_a 19.575827
_cell_length_b 11.497173
_cell_length_c 14.462903
_cell_angle_alpha 90.000000
_cell_angle_beta 90.000000
_cell_angle_gamma 90.000000
_cell_volume 3255.117411
_symmetry_space_group_name_H-M "P N N A"
_symmetry_group_IT_number 52
_symmetry_cell_setting 'orthorhombic'
loop_
_space_group_symop_operation_xyz
x,y,z
1/2-x,-y,z
x,1/2-y,1/2-z
1/2-x,1/2+y,1/2-z
-x,-y,-z
1/2+x,y,-z
-x,1/2+y,1/2+z
1/2+x,1/2-y,1/2+z
loop_
_atom_site_type_symbol
_atom_site_label
_atom_site_fract_x
_atom_site_fract_y
_atom_site_fract_z
Si Si1 0.849143 0.703093 0.654402
Si Si2 0.756851 0.371847 0.298119
Si Si3 0.153307 0.101475 0.967346
Si Si4 0.486222 0.569714 0.301861
Si Si5 0.946998 0.591099 0.899411
Si Si6 0.533931 0.309699 0.342779
Si Si7 0.562423 0.657534 0.956064
Si Si8 0.610881 0.650329 0.416436
O O1 0.815403 0.750000 0.750000
O O2 0.815669 0.646367 0.563892
O O3 0.889156 0.814573 0.615865
O O4 0.909033 0.610524 0.679435
O O5 0.750000 0.500000 0.248666
O O6 0.736797 0.250000 0.250000
O O7 0.709507 0.389056 0.387780
O O8 0.833516 0.352098 0.335097
O O9 0.089388 0.174427 0.924787
O O10 0.125728 0.968849 0.972789
O O11 0.493745 0.588650 0.192646
O O12 0.505865 0.437572 0.321400
O O13 0.536869 0.641577 0.367904
O O14 0.913124 0.465510 0.917284
O O15 0.996872 0.624478 0.981816
O O16 0.563434 0.250000 0.250000
O O17 0.469865 0.234090 0.375082
O O18 0.611617 0.737268 0.018130
#
# Coordination Sequence:
#
# PCOD9408771 Si02
#       8
#     8   8   8   8   8   8   8   8
#     4  10  19  33  55  81 107 142 182 227 281 342
#     4  10  23  42  60  87 114 152 200 243 288 340
#     4  10  20  38  55  79 110 147 193 234 279 338
#     4  10  19  32  52  80 111 143 182 222 273 349
#     4  10  20  31  46  79 117 143 173 225 278 341
#     4  11  19  31  51  76 111 149 178 221 279 336
#     4  11  20  32  48  80 113 146 179 223 283 341
#     4  10  21  35  60  79 109 151 189 232 285 343
#
# _framework density 19.661349000000001
#
# number of rings (size 3 to 8) (size 9 to 14) (size 15 to 20)
#    0.000    1.750    3.750    1.125    1.750    2.000 
#    2.250    0.000    0.000    0.750    6.500    0.000 
#    0.000    0.000    0.000    0.000    0.000    0.000 
#
# Total GULP energy -356680.263495 kJ/mol
# GULP energy per Si atom -5573.129117 kJ/mol
# Density = 1.961660 g / cm^3
# Si number density = 19.661349 Si / 1000 Ang^3
#
#
#
# Elastic Constant Matrix: (Units=GPa)
#
#
# Indices 1 2 3 4 5 6 
#
# 1 8.2441 -3.2124 -5.8627 0.0000 0.0000 0.0000
# 2 -3.2124 115.9578 42.5383 0.0000 0.0000 0.0000
# 3 -5.8627 42.5383 64.6774 0.0000 0.0000 0.0000
# 4 0.0000 0.0000 0.0000 26.9684 0.0000 0.0000
# 5 0.0000 0.0000 0.0000 0.0000 11.8501 0.0000
# 6 0.0000 0.0000 0.0000 0.0000 0.0000 15.3692
#
#
#
# Elastic Compliance Matrix: (Units=1/GPa)
#
#
# Indices 1 2 3 4 5 6 
#
# 1 0.129737 -0.000949 0.012384 0.000000 0.000000 0.000000
# 2 -0.000949 0.011373 -0.007566 0.000000 0.000000 0.000000
# 3 0.012384 -0.007566 0.021560 0.000000 0.000000 0.000000
# 4 0.000000 0.000000 0.000000 0.037080 0.000000 0.000000
# 5 0.000000 0.000000 0.000000 0.000000 0.084388 0.000000
# 6 0.000000 0.000000 0.000000 0.000000 0.000000 0.065065
#
#
# Mechanical properties :
#
#
# Convention : Reuss Voigt Hill
#
# Bulk Modulus (GPa) = 5.86826 28.42285 17.14555
# Shear Modulus (GPa) = 12.55437 21.19860 16.87648
#
# Velocity S-wave (km/s) = 2.52966 3.28714 2.93295
# Velocity P-wave (km/s) = 3.39461 5.37537 4.49544
#
# Compressibility (1/GPa) = 0.17040834
#
# Stress axis : x y z
#
# Youngs Moduli (GPa) = 7.70791 87.92662 46.38186
#
# Poissons Ratio (x) = 0.08344 -0.57440
# Poissons Ratio (y) = 0.00731 0.35093
# Poissons Ratio (z) = -0.09546 0.66526
#
# Static dielectric constant tensor:
#      x y z
#    x 1.687410 0.000000 0.000000 
#    y 0.000000 1.749420 0.000000 
#    z 0.000000 0.000000 1.743730 
# 
# From -- ./inp_files/28316.got.cif
#   From: 2010.05.17/outbox.cif.g08.bks.cpg/sg52_15_cif.got.tgz:28316.got - 2010.06.03 12:15:38.
