data_PCOD9408590
_publ_section_title
;
Structure prediction by ZEFSAII (Michael W. Deem and Ramdas Pophale) SiO2 
 PCOD9408590
Probable space group: P N N A
;
_chemical_formula_sum "Si O2"
_cell_formula_units_Z 64
_cell_length_a 15.836997
_cell_length_b 19.134095
_cell_length_c 10.818207
_cell_angle_alpha 90.000000
_cell_angle_beta 90.000000
_cell_angle_gamma 90.000000
_cell_volume 3278.204541
_symmetry_space_group_name_H-M "P N N A"
_symmetry_group_IT_number 52
_symmetry_cell_setting 'orthorhombic'
loop_
_space_group_symop_operation_xyz
x,y,z
1/2-x,-y,z
x,1/2-y,1/2-z
1/2-x,1/2+y,1/2-z
-x,-y,-z
1/2+x,y,-z
-x,1/2+y,1/2+z
1/2+x,1/2-y,1/2+z
loop_
_atom_site_type_symbol
_atom_site_label
_atom_site_fract_x
_atom_site_fract_y
_atom_site_fract_z
Si Si1 0.653128 0.995834 0.822508
Si Si2 0.169872 0.628250 0.515417
Si Si3 0.238929 0.917231 0.715729
Si Si4 0.353306 0.647409 0.447395
Si Si5 0.480671 0.314915 0.667497
Si Si6 0.512660 0.564507 0.850755
Si Si7 0.065741 0.578257 0.873364
Si Si8 0.897922 0.667433 0.269139
O O1 0.593088 0.973126 0.710703
O O2 0.750000 0.000000 0.779910
O O3 0.636524 0.070351 0.887613
O O4 0.645467 0.935891 0.927023
O O5 0.205743 0.598022 0.645040
O O6 0.252616 0.664517 0.452248
O O7 0.086945 0.671253 0.557507
O O8 0.162286 0.897328 0.626166
O O9 0.320982 0.870067 0.696579
O O10 0.250000 0.000000 0.704848
O O11 0.423432 0.694475 0.379304
O O12 0.382876 0.647877 0.588883
O O13 0.452271 0.250000 0.750000
O O14 0.477906 0.380039 0.762303
O O15 0.441807 0.504029 0.843783
O O16 0.483512 0.631658 0.775679
O O17 0.525617 0.585881 0.992387
O O18 0.896203 0.750000 0.250000
#
# Coordination Sequence:
#
# PCOD9408590 Si02
#       8
#     8   8   8   8   8   8   8   8
#     4  10  20  38  66  95 124 159 211 272 325 387
#     4   9  20  35  61  94 123 150 209 267 320 377
#     4  10  18  37  60  89 120 160 208 263 314 377
#     4  10  21  38  65  92 122 160 211 268 329 375
#     4  11  23  39  65  90 126 170 217 262 321 394
#     4  11  22  40  59  91 128 162 214 263 320 387
#     4  10  23  38  60  88 123 166 211 262 310 385
#     4  11  24  38  65  94 131 164 210 272 338 391
#
# _framework density 19.522883
#
# number of rings (size 3 to 8) (size 9 to 14) (size 15 to 20)
#    0.000    1.750    2.500    2.625    3.500    6.000 
#    0.000    0.000    5.500    0.000    0.000    0.000 
#    0.000    0.000    0.000    0.000    0.000    0.000 
#
# Total GULP energy -356817.874141 kJ/mol
# GULP energy per Si atom -5575.279283 kJ/mol
# Density = 1.947845 g / cm^3
# Si number density = 19.522883 Si / 1000 Ang^3
#
#
#
# Elastic Constant Matrix: (Units=GPa)
#
#
# Indices 1 2 3 4 5 6 
#
# 1 92.8981 36.8952 34.3808 0.0000 0.0000 0.0000
# 2 36.8952 56.6218 6.4028 0.0000 0.0000 0.0000
# 3 34.3808 6.4028 37.5309 0.0000 0.0000 0.0000
# 4 0.0000 0.0000 0.0000 14.0724 0.0000 0.0000
# 5 0.0000 0.0000 0.0000 0.0000 7.1801 0.0000
# 6 0.0000 0.0000 0.0000 0.0000 0.0000 11.8577
#
#
#
# Elastic Compliance Matrix: (Units=1/GPa)
#
#
# Indices 1 2 3 4 5 6 
#
# 1 0.022695 -0.012682 -0.018626 0.000000 0.000000 0.000000
# 2 -0.012682 0.025095 0.007336 0.000000 0.000000 0.000000
# 3 -0.018626 0.007336 0.042456 0.000000 0.000000 0.000000
# 4 0.000000 0.000000 0.000000 0.071061 0.000000 0.000000
# 5 0.000000 0.000000 0.000000 0.000000 0.139274 0.000000
# 6 0.000000 0.000000 0.000000 0.000000 0.000000 0.084333
#
#
# Mechanical properties :
#
#
# Convention : Reuss Voigt Hill
#
# Bulk Modulus (GPa) = 23.63965 38.04539 30.84252
# Shear Modulus (GPa) = 11.18675 13.91352 12.55013
#
# Velocity S-wave (km/s) = 2.39635 2.67250 2.53818
# Velocity P-wave (km/s) = 4.44878 5.39007 4.94189
#
# Compressibility (1/GPa) = 0.04230182
#
# Stress axis : x y z
#
# Youngs Moduli (GPa) = 44.06353 39.84859 23.55381
#
# Poissons Ratio (x) = 0.50535 0.43872
# Poissons Ratio (y) = 0.55880 -0.17279
# Poissons Ratio (z) = 0.82073 -0.29233
#
# Static dielectric constant tensor:
#      x y z
#    x 1.736730 0.000000 0.000000 
#    y 0.000000 1.681680 0.000000 
#    z 0.000000 0.000000 1.653790 
# 
# From -- ./inp_files/19864.got.cif
#   From: 2010.05.17/outbox.cif.g08.bks.cpg/sg52_10_cif.got.tgz:19864.got - 2010.06.03 12:15:38.
