data_PCOD9408342
_publ_section_title
;
Structure prediction by ZEFSAII (Michael W. Deem and Ramdas Pophale) SiO2 
 PCOD9408342
Probable space group: P N N A
;
_chemical_formula_sum "Si O2"
_cell_formula_units_Z 36
_cell_length_a 14.088473
_cell_length_b 5.148056
_cell_length_c 21.971868
_cell_angle_alpha 90.000000
_cell_angle_beta 90.000000
_cell_angle_gamma 90.000000
_cell_volume 1593.581090
_symmetry_space_group_name_H-M "P N N A"
_symmetry_group_IT_number 52
_symmetry_cell_setting 'orthorhombic'
loop_
_space_group_symop_operation_xyz
x,y,z
1/2-x,-y,z
x,1/2-y,1/2-z
1/2-x,1/2+y,1/2-z
-x,-y,-z
1/2+x,y,-z
-x,1/2+y,1/2+z
1/2+x,1/2-y,1/2+z
loop_
_atom_site_type_symbol
_atom_site_label
_atom_site_fract_x
_atom_site_fract_y
_atom_site_fract_z
Si Si1 0.360839 0.930072 0.371374
Si Si2 0.136764 0.924478 0.189313
Si Si3 0.183213 0.250306 0.620836
Si Si4 0.565790 0.249067 0.501702
Si Si5 0.318862 0.750000 0.750000
O O1 0.402240 0.714718 0.324254
O O2 0.373093 0.795480 0.436881
O O3 0.250000 0.000000 0.360472
O O4 0.399918 0.222119 0.362382
O O5 0.122791 0.750000 0.250000
O O6 0.250000 0.000000 0.187666
O O7 0.250000 0.500000 0.621081
O O8 0.125823 0.252894 0.559365
O O9 0.127688 0.249945 0.685550
O O10 0.250000 0.000000 0.620309
O O11 0.500000 0.500000 0.500000
O O12 0.500000 0.000000 0.500000
O O13 0.250000 0.500000 0.750198
#
# Coordination Sequence:
#
# PCOD9408342 Si02
#       5
#     8   8   8   8   4
#     4  10  21  36  58  84 114 155 208 251 293 358
#     4  10  18  32  56  85 113 144 192 254 300 333
#     4  10  20  38  65  93 118 154 204 254 305 365
#     4  12  25  40  59  86 130 167 199 246 313 372
#     4   8  16  32  60  92 114 140 190 256 306 348
#
# _framework density 22.590630999999998
#
# number of rings (size 3 to 8) (size 9 to 14) (size 15 to 20)
#    0.000    1.778    0.000    6.000    0.000    2.667 
#    0.000    0.000   14.667    0.000    0.000    0.000 
#    0.000    0.000    0.000    0.000    0.000    0.000 
#
# Total GULP energy -200669.302894 kJ/mol
# GULP energy per Si atom -5574.147303 kJ/mol
# Density = 2.253921 g / cm^3
# Si number density = 22.590631 Si / 1000 Ang^3
#
#
#
# Elastic Constant Matrix: (Units=GPa)
#
#
# Indices 1 2 3 4 5 6 
#
# 1 26.2414 33.3048 37.3357 0.0000 0.0000 0.0000
# 2 33.3048 224.9558 63.2984 0.0000 0.0000 0.0000
# 3 37.3357 63.2984 214.0687 0.0000 0.0000 0.0000
# 4 0.0000 0.0000 0.0000 34.9485 0.0000 0.0000
# 5 0.0000 0.0000 0.0000 0.0000 -6.3197 0.0000
# 6 0.0000 0.0000 0.0000 0.0000 0.0000 21.0269
#
#
#
# Elastic Compliance Matrix: (Units=1/GPa)
#
#
# Indices 1 2 3 4 5 6 
#
# 1 0.057717 -0.006231 -0.008224 0.000000 0.000000 0.000000
# 2 -0.006231 0.005521 -0.000546 0.000000 0.000000 0.000000
# 3 -0.008224 -0.000546 0.006267 0.000000 0.000000 0.000000
# 4 0.000000 0.000000 0.000000 0.028613 0.000000 0.000000
# 5 0.000000 0.000000 0.000000 0.000000 -0.158236 0.000000
# 6 0.000000 0.000000 0.000000 0.000000 0.000000 0.047558
#
#
# Mechanical properties :
#
#
# Convention : Reuss Voigt Hill
#
# Bulk Modulus (GPa) = 25.31402 81.46041 53.38722
# Shear Modulus (GPa) = 163.34381 32.01962 97.68172
#
# Velocity S-wave (km/s) = 8.51252 3.76890 6.58284
# Velocity P-wave (km/s) = 10.38495 7.42140 9.02564
#
# Compressibility (1/GPa) = 0.03950380
#
# Stress axis : x y z
#
# Youngs Moduli (GPa) = 17.32598 181.11290 159.56207
#
# Poissons Ratio (x) = 1.12850 1.31223
# Poissons Ratio (y) = 0.10796 0.08711
# Poissons Ratio (z) = 0.14249 0.09887
#
# Static dielectric constant tensor:
#      x y z
#    x 1.816110 0.000000 0.000000 
#    y 0.000000 1.820910 0.000000 
#    z 0.000000 0.000000 2.041180 
# 
# From -- ./inp_files/37507.got.cif
#   From: 2010.05.17/outbox.cif.g08.bks.cpg/sg52_19_cif.got.tgz:37507.got - 2010.06.03 12:15:38.
