data_PCOD9408933
_publ_section_title
;
Structure prediction by ZEFSAII (Michael W. Deem and Ramdas Pophale) SiO2 
 PCOD9408933
Probable space group: P N N A
;
_chemical_formula_sum "Si O2"
_cell_formula_units_Z 48
_cell_length_a 5.099903
_cell_length_b 15.196241
_cell_length_c 32.795433
_cell_angle_alpha 90.000000
_cell_angle_beta 90.000000
_cell_angle_gamma 90.000000
_cell_volume 2541.624907
_symmetry_space_group_name_H-M "P N N A"
_symmetry_group_IT_number 52
_symmetry_cell_setting 'orthorhombic'
loop_
_space_group_symop_operation_xyz
x,y,z
1/2-x,-y,z
x,1/2-y,1/2-z
1/2-x,1/2+y,1/2-z
-x,-y,-z
1/2+x,y,-z
-x,1/2+y,1/2+z
1/2+x,1/2-y,1/2+z
loop_
_atom_site_type_symbol
_atom_site_label
_atom_site_fract_x
_atom_site_fract_y
_atom_site_fract_z
Si Si1 0.989576 0.558681 0.413760
Si Si2 0.644562 0.094652 0.644256
Si Si3 0.154593 0.241779 0.201652
Si Si4 0.175026 0.324613 0.657723
Si Si5 0.660884 0.161034 0.399967
Si Si6 0.601178 0.278050 0.472780
O O1 0.250000 0.500000 0.414391
O O2 0.750000 0.500000 0.429064
O O3 0.918189 0.591728 0.368140
O O4 0.993266 0.644346 0.442434
O O5 0.596652 0.162722 0.681229
O O6 0.389974 0.095352 0.614810
O O7 0.884449 0.132728 0.618203
O O8 0.750000 0.000000 0.658433
O O9 0.150748 0.250000 0.250000
O O10 0.435382 0.210438 0.184911
O O11 0.934637 0.174019 0.185098
O O12 0.239098 0.251762 0.623022
O O13 0.612011 0.187945 0.446547
O O14 0.393205 0.284281 0.509311
#
# Coordination Sequence:
#
# PCOD9408933 Si02
#       6
#     8   8   8   8   8   8
#     4  11  22  36  54  78 110 146 186 226 265 317
#     4  10  19  34  57  81 104 135 179 223 263 313
#     4  10  19  34  56  81 109 140 177 222 271 324
#     4   9  19  35  53  74 103 145 185 213 257 322
#     4   9  19  35  55  76 102 139 178 214 259 323
#     4  11  22  36  56  80 107 141 180 224 274 325
#
# _framework density 18.885555
#
# number of rings (size 3 to 8) (size 9 to 14) (size 15 to 20)
#    0.000    2.000    0.000    4.000    0.000    7.333 
#    0.000    2.500    0.000   12.000    0.000    0.000 
#    0.000    0.000    0.000    0.000    0.000    0.000 
#
# Total GULP energy -267538.657515 kJ/mol
# GULP energy per Si atom -5573.722032 kJ/mol
# Density = 1.884257 g / cm^3
# Si number density = 18.885555 Si / 1000 Ang^3
#
#
#
# Elastic Constant Matrix: (Units=GPa)
#
#
# Indices 1 2 3 4 5 6 
#
# 1 86.3850 18.8750 6.7085 0.0000 0.0000 0.0000
# 2 18.8750 61.5747 27.6067 0.0000 0.0000 0.0000
# 3 6.7085 27.6067 66.6392 0.0000 0.0000 0.0000
# 4 0.0000 0.0000 0.0000 48.1115 0.0000 0.0000
# 5 0.0000 0.0000 0.0000 0.0000 29.7692 0.0000
# 6 0.0000 0.0000 0.0000 0.0000 0.0000 15.8444
#
#
#
# Elastic Compliance Matrix: (Units=1/GPa)
#
#
# Indices 1 2 3 4 5 6 
#
# 1 0.012416 -0.003986 0.000401 0.000000 0.000000 0.000000
# 2 -0.003986 0.021225 -0.008391 0.000000 0.000000 0.000000
# 3 0.000401 -0.008391 0.018442 0.000000 0.000000 0.000000
# 4 0.000000 0.000000 0.000000 0.020785 0.000000 0.000000
# 5 0.000000 0.000000 0.000000 0.000000 0.033592 0.000000
# 6 0.000000 0.000000 0.000000 0.000000 0.000000 0.063114
#
#
# Mechanical properties :
#
#
# Convention : Reuss Voigt Hill
#
# Bulk Modulus (GPa) = 35.54861 35.66437 35.60649
# Shear Modulus (GPa) = 24.64248 29.50561 27.07405
#
# Velocity S-wave (km/s) = 3.61617 3.95693 3.79038
# Velocity P-wave (km/s) = 6.02491 6.30887 6.16853
#
# Compressibility (1/GPa) = 0.02813050
#
# Stress axis : x y z
#
# Youngs Moduli (GPa) = 80.54239 47.11533 54.22373
#
# Poissons Ratio (x) = 0.18779 -0.02176
# Poissons Ratio (y) = 0.32103 0.45502
# Poissons Ratio (z) = -0.03232 0.39537
#
# Static dielectric constant tensor:
#      x y z
#    x 1.641600 0.000000 0.000000 
#    y 0.000000 1.679320 0.000000 
#    z 0.000000 0.000000 1.648150 
# 
# From -- ./inp_files/41691.got.cif
#   From: 2010.05.17/outbox.cif.g08.bks.cpg/sg52_21_cif.got.tgz:41691.got - 2010.06.03 12:15:38.
