data_PCOD9408866
_publ_section_title
;
Structure prediction by ZEFSAII (Michael W. Deem and Ramdas Pophale) SiO2 
 PCOD9408866
Probable space group: P N N A
;
_chemical_formula_sum "Si O2"
_cell_formula_units_Z 48
_cell_length_a 7.593122
_cell_length_b 21.903119
_cell_length_c 11.110692
_cell_angle_alpha 90.000000
_cell_angle_beta 90.000000
_cell_angle_gamma 90.000000
_cell_volume 1847.853127
_symmetry_space_group_name_H-M "P N N A"
_symmetry_group_IT_number 52
_symmetry_cell_setting 'orthorhombic'
loop_
_space_group_symop_operation_xyz
x,y,z
1/2-x,-y,z
x,1/2-y,1/2-z
1/2-x,1/2+y,1/2-z
-x,-y,-z
1/2+x,y,-z
-x,1/2+y,1/2+z
1/2+x,1/2-y,1/2+z
loop_
_atom_site_type_symbol
_atom_site_label
_atom_site_fract_x
_atom_site_fract_y
_atom_site_fract_z
Si Si1 0.750000 0.000000 0.410333
Si Si2 0.058631 0.143629 0.943952
Si Si3 0.154262 0.736038 0.553668
Si Si4 0.231461 0.870772 0.598641
Si Si5 0.534428 0.930860 0.726061
Si Si6 0.354748 0.750000 0.250000
Si Si7 0.111645 0.119903 0.228408
O O1 0.784249 0.064844 0.474524
O O2 0.578090 0.012922 0.327506
O O3 0.213566 0.186368 0.891692
O O4 0.022519 0.085819 0.862375
O O5 0.080376 0.120698 0.083042
O O6 0.908141 0.196114 0.941702
O O7 0.220518 0.804475 0.540013
O O8 0.984073 0.741599 0.636212
O O9 0.427938 0.877619 0.652708
O O10 0.071550 0.877112 0.696320
O O11 0.744500 0.930117 0.734251
O O12 0.284563 0.817643 0.265469
#
# Coordination Sequence:
#
# PCOD9408866 Si02
#       7
#     4   8   8   8   8   4   8
#     4   8  22  40  56  80 108 162 210 220 274 336
#     4  11  19  32  53  89 116 144 182 234 307 351
#     4  10  19  34  56  80 122 145 179 247 291 343
#     4   9  21  41  56  78 115 154 199 237 272 333
#     4  10  20  36  56  80 112 153 190 232 283 344
#     4   8  18  32  50  82 112 150 184 228 288 346
#     4  10  19  33  56  81 116 146 186 235 284 342
#
# _framework density 25.976089000000002
#
# number of rings (size 3 to 8) (size 9 to 14) (size 15 to 20)
#    1.000    1.333    1.667    3.000    0.000    2.000 
#    3.000    3.333    0.000    1.000    0.000    0.000 
#    0.000    0.000    0.000    0.000    0.000    0.000 
#
# Total GULP energy -267212.164562 kJ/mol
# GULP energy per Si atom -5566.920095 kJ/mol
# Density = 2.591697 g / cm^3
# Si number density = 25.976089 Si / 1000 Ang^3
#
#
#
# Elastic Constant Matrix: (Units=GPa)
#
#
# Indices 1 2 3 4 5 6 
#
# 1 123.2382 24.9095 18.5039 0.0000 0.0000 0.0000
# 2 24.9095 95.7033 19.4189 0.0000 0.0000 0.0000
# 3 18.5039 19.4189 100.4101 0.0000 0.0000 0.0000
# 4 0.0000 0.0000 0.0000 39.2600 0.0000 0.0000
# 5 0.0000 0.0000 0.0000 0.0000 -33.4993 0.0000
# 6 0.0000 0.0000 0.0000 0.0000 0.0000 35.6550
#
#
#
# Elastic Compliance Matrix: (Units=1/GPa)
#
#
# Indices 1 2 3 4 5 6 
#
# 1 0.008705 -0.002019 -0.001214 0.000000 0.000000 0.000000
# 2 -0.002019 0.011344 -0.001822 0.000000 0.000000 0.000000
# 3 -0.001214 -0.001822 0.010535 0.000000 0.000000 0.000000
# 4 0.000000 0.000000 0.000000 0.025471 0.000000 0.000000
# 5 0.000000 0.000000 0.000000 0.000000 -0.029851 0.000000
# 6 0.000000 0.000000 0.000000 0.000000 0.000000 0.028047
#
#
# Mechanical properties :
#
#
# Convention : Reuss Voigt Hill
#
# Bulk Modulus (GPa) = 48.84116 49.44624 49.14370
# Shear Modulus (GPa) = 70.23960 25.38443 47.81202
#
# Velocity S-wave (km/s) = 5.20565 3.12945 4.29490
# Velocity P-wave (km/s) = 7.41451 5.66873 6.59960
#
# Compressibility (1/GPa) = 0.02047453
#
# Stress axis : x y z
#
# Youngs Moduli (GPa) = 114.87963 88.15060 94.92052
#
# Poissons Ratio (x) = 0.17801 0.11520
# Poissons Ratio (y) = 0.23199 0.17292
# Poissons Ratio (z) = 0.13942 0.16059
#
# Static dielectric constant tensor:
#      x y z
#    x 2.169550 0.000000 0.000000 
#    y 0.000000 2.091190 0.000000 
#    z 0.000000 0.000000 2.142570 
# 
# From -- ./inp_files/25031.got.cif
#   From: 2010.05.17/outbox.cif.g08.bks.cpg/sg52_13_cif.got.tgz:25031.got - 2010.06.03 12:15:38.
