data_PCOD9408982
_publ_section_title
;
Structure prediction by ZEFSAII (Michael W. Deem and Ramdas Pophale) SiO2 
 PCOD9408982
Probable space group: P N N A
;
_chemical_formula_sum "Si O2"
_cell_formula_units_Z 36
_cell_length_a 13.215883
_cell_length_b 11.577963
_cell_length_c 11.431285
_cell_angle_alpha 90.000000
_cell_angle_beta 90.000000
_cell_angle_gamma 90.000000
_cell_volume 1749.135262
_symmetry_space_group_name_H-M "P N N A"
_symmetry_group_IT_number 52
_symmetry_cell_setting 'orthorhombic'
loop_
_space_group_symop_operation_xyz
x,y,z
1/2-x,-y,z
x,1/2-y,1/2-z
1/2-x,1/2+y,1/2-z
-x,-y,-z
1/2+x,y,-z
-x,1/2+y,1/2+z
1/2+x,1/2-y,1/2+z
loop_
_atom_site_type_symbol
_atom_site_label
_atom_site_fract_x
_atom_site_fract_y
_atom_site_fract_z
Si Si1 0.750000 0.000000 0.073215
Si Si2 0.921866 0.416462 0.853590
Si Si3 0.600551 0.649288 0.587695
Si Si4 0.386696 0.806362 0.873712
Si Si5 0.151685 0.066187 0.556048
O O1 0.823872 0.079724 0.994324
O O2 0.686282 0.088657 0.149191
O O3 0.896931 0.407842 0.716935
O O4 0.888895 0.289386 0.902954
O O5 0.041394 0.444297 0.879825
O O6 0.865523 0.513874 0.927427
O O7 0.481611 0.645135 0.554484
O O8 0.420576 0.750000 0.750000
O O9 0.332265 0.703428 0.941976
O O10 0.250000 0.000000 0.603719
#
# Coordination Sequence:
#
# PCOD9408982 Si02
#       5
#     4   8   8   8   8
#     4  12  26  38  66  94 116 170 222 250 308 406
#     4   9  19  37  63  88 126 164 194 266 317 363
#     4  10  20  43  60  87 128 162 201 259 329 359
#     4  11  23  43  61  88 130 167 203 266 323 360
#     4  10  19  34  63  94 117 162 217 245 306 383
#
# _framework density 20.581599000000001
#
# number of rings (size 3 to 8) (size 9 to 14) (size 15 to 20)
#    0.000    1.778    4.444    2.000    3.111    0.000 
#    0.000    0.000    0.000    0.000    0.000    0.000 
#    0.000    0.000    0.000    0.000    0.000    0.000 
#
# Total GULP energy -200541.324083 kJ/mol
# GULP energy per Si atom -5570.592336 kJ/mol
# Density = 2.053475 g / cm^3
# Si number density = 20.581599 Si / 1000 Ang^3
#
#
#
# Elastic Constant Matrix: (Units=GPa)
#
#
# Indices 1 2 3 4 5 6 
#
# 1 104.8780 40.0575 14.7327 0.0000 0.0000 0.0000
# 2 40.0575 103.0191 16.7803 0.0000 0.0000 0.0000
# 3 14.7327 16.7803 45.1844 0.0000 0.0000 0.0000
# 4 0.0000 0.0000 0.0000 26.9433 0.0000 0.0000
# 5 0.0000 0.0000 0.0000 0.0000 23.4959 0.0000
# 6 0.0000 0.0000 0.0000 0.0000 0.0000 47.2833
#
#
#
# Elastic Compliance Matrix: (Units=1/GPa)
#
#
# Indices 1 2 3 4 5 6 
#
# 1 0.011401 -0.004074 -0.002204 0.000000 0.000000 0.000000
# 2 -0.004074 0.011788 -0.003049 0.000000 0.000000 0.000000
# 3 -0.002204 -0.003049 0.023983 0.000000 0.000000 0.000000
# 4 0.000000 0.000000 0.000000 0.037115 0.000000 0.000000
# 5 0.000000 0.000000 0.000000 0.000000 0.042561 0.000000
# 6 0.000000 0.000000 0.000000 0.000000 0.000000 0.021149
#
#
# Mechanical properties :
#
#
# Convention : Reuss Voigt Hill
#
# Bulk Modulus (GPa) = 35.06813 44.02473 39.54643
# Shear Modulus (GPa) = 28.38395 31.64525 30.01460
#
# Velocity S-wave (km/s) = 3.71764 3.92542 3.82294
# Velocity P-wave (km/s) = 5.95847 6.47935 6.22436
#
# Compressibility (1/GPa) = 0.02851592
#
# Stress axis : x y z
#
# Youngs Moduli (GPa) = 87.71518 84.83412 41.69671
#
# Poissons Ratio (x) = 0.34560 0.09191
# Poissons Ratio (y) = 0.35734 0.12715
# Poissons Ratio (z) = 0.19335 0.25869
#
# Static dielectric constant tensor:
#      x y z
#    x 1.799180 0.000000 0.000000 
#    y 0.000000 1.745600 0.000000 
#    z 0.000000 0.000000 1.728980 
# 
# From -- ./inp_files/19186.got.cif
#   From: 2010.05.17/outbox.cif.g08.bks.cpg/sg52_10_cif.got.tgz:19186.got - 2010.06.03 12:15:38.
