data_PCOD9408476
_publ_section_title
;
Structure prediction by ZEFSAII (Michael W. Deem and Ramdas Pophale) SiO2 
 PCOD9408476
Probable space group: P N N A
;
_chemical_formula_sum "Si O2"
_cell_formula_units_Z 40
_cell_length_a 9.119006
_cell_length_b 17.255299
_cell_length_c 10.807090
_cell_angle_alpha 90.000000
_cell_angle_beta 90.000000
_cell_angle_gamma 90.000000
_cell_volume 1700.508311
_symmetry_space_group_name_H-M "P N N A"
_symmetry_group_IT_number 52
_symmetry_cell_setting 'orthorhombic'
loop_
_space_group_symop_operation_xyz
x,y,z
1/2-x,-y,z
x,1/2-y,1/2-z
1/2-x,1/2+y,1/2-z
-x,-y,-z
1/2+x,y,-z
-x,1/2+y,1/2+z
1/2+x,1/2-y,1/2+z
loop_
_atom_site_type_symbol
_atom_site_label
_atom_site_fract_x
_atom_site_fract_y
_atom_site_fract_z
Si Si1 0.895738 0.046071 0.682791
Si Si2 0.391309 0.188285 0.151322
Si Si3 0.404538 0.848724 0.047100
Si Si4 0.186473 0.585973 0.661752
Si Si5 0.638257 0.569968 0.081313
O O1 0.932305 0.102714 0.795764
O O2 0.884724 0.099812 0.557807
O O3 0.750000 0.000000 0.717723
O O4 0.002199 0.977491 0.638091
O O5 0.439452 0.250000 0.250000
O O6 0.214494 0.188462 0.138048
O O7 0.479153 0.204278 0.025358
O O8 0.518619 0.907980 0.112242
O O9 0.293316 0.879895 0.942121
O O10 0.250000 0.500000 0.677922
O O11 0.191091 0.620882 0.801917
O O12 0.750000 0.500000 0.056449
#
# Coordination Sequence:
#
# PCOD9408476 Si02
#       5
#     8   8   8   8   8
#     4  10  20  37  61  89 123 154 205 258 310 370
#     4  11  24  46  62  90 127 171 213 268 318 389
#     4  10  23  40  58  88 125 162 218 245 322 389
#     4  10  18  34  61  94 126 158 198 259 313 378
#     4   9  18  33  55  93 120 153 199 249 311 361
#
# _framework density 23.522376999999999
#
# number of rings (size 3 to 8) (size 9 to 14) (size 15 to 20)
#    0.000    2.000    0.000    4.200    0.000    4.800 
#   18.000    2.000    0.000    0.000    0.000    0.000 
#    0.000    0.000    0.000    0.000    0.000    0.000 
#
# Total GULP energy -222845.144642 kJ/mol
# GULP energy per Si atom -5571.128616 kJ/mol
# Density = 2.346884 g / cm^3
# Si number density = 23.522377 Si / 1000 Ang^3
#
#
#
# Elastic Constant Matrix: (Units=GPa)
#
#
# Indices 1 2 3 4 5 6 
#
# 1 108.5718 -7.0677 -5.1999 0.0000 0.0000 0.0000
# 2 -7.0677 19.2786 -3.5620 0.0000 0.0000 0.0000
# 3 -5.1999 -3.5620 100.8608 0.0000 0.0000 0.0000
# 4 0.0000 0.0000 0.0000 30.3552 0.0000 0.0000
# 5 0.0000 0.0000 0.0000 0.0000 41.2633 0.0000
# 6 0.0000 0.0000 0.0000 0.0000 0.0000 6.5103
#
#
#
# Elastic Compliance Matrix: (Units=1/GPa)
#
#
# Indices 1 2 3 4 5 6 
#
# 1 0.009473 0.003587 0.000615 0.000000 0.000000 0.000000
# 2 0.003587 0.053570 0.002077 0.000000 0.000000 0.000000
# 3 0.000615 0.002077 0.010020 0.000000 0.000000 0.000000
# 4 0.000000 0.000000 0.000000 0.032943 0.000000 0.000000
# 5 0.000000 0.000000 0.000000 0.000000 0.024235 0.000000
# 6 0.000000 0.000000 0.000000 0.000000 0.000000 0.153603
#
#
# Mechanical properties :
#
#
# Convention : Reuss Voigt Hill
#
# Bulk Modulus (GPa) = 11.67950 21.89465 16.78708
# Shear Modulus (GPa) = 16.67628 31.92847 24.30238
#
# Velocity S-wave (km/s) = 2.66551 3.68824 3.21777
# Velocity P-wave (km/s) = 3.80122 5.24077 4.57794
#
# Compressibility (1/GPa) = 0.08562009
#
# Stress axis : x y z
#
# Youngs Moduli (GPa) = 105.55826 18.66724 99.80334
#
# Poissons Ratio (x) = -0.06695 -0.06139
# Poissons Ratio (y) = -0.37861 -0.20727
# Poissons Ratio (z) = -0.06493 -0.03877
#
# Static dielectric constant tensor:
#      x y z
#    x 1.657870 0.000000 0.000000 
#    y 0.000000 1.912800 0.000000 
#    z 0.000000 0.000000 2.018910 
# 
# From -- ./inp_files/16817.got.cif
#   From: 2010.05.17/outbox.cif.g08.bks.cpg/sg52_9_cif.got.tgz:16817.got - 2010.06.03 12:15:38.
