data_PCOD9408192
_publ_section_title
;
Structure prediction by ZEFSAII (Michael W. Deem and Ramdas Pophale) SiO2 
 PCOD9408192
Probable space group: P N N A
;
_chemical_formula_sum "Si O2"
_cell_formula_units_Z 48
_cell_length_a 9.330587
_cell_length_b 19.370744
_cell_length_c 15.456927
_cell_angle_alpha 90.000000
_cell_angle_beta 90.000000
_cell_angle_gamma 90.000000
_cell_volume 2793.691357
_symmetry_space_group_name_H-M "P N N A"
_symmetry_group_IT_number 52
_symmetry_cell_setting 'orthorhombic'
loop_
_space_group_symop_operation_xyz
x,y,z
1/2-x,-y,z
x,1/2-y,1/2-z
1/2-x,1/2+y,1/2-z
-x,-y,-z
1/2+x,y,-z
-x,1/2+y,1/2+z
1/2+x,1/2-y,1/2+z
loop_
_atom_site_type_symbol
_atom_site_label
_atom_site_fract_x
_atom_site_fract_y
_atom_site_fract_z
Si Si1 0.902534 0.304636 0.119750
Si Si2 0.345437 0.148607 0.810591
Si Si3 0.993921 0.570803 0.552925
Si Si4 0.855051 0.721139 0.006791
Si Si5 0.965813 0.698189 0.329744
Si Si6 0.202513 0.853332 0.075040
O O1 0.893262 0.222321 0.145499
O O2 0.887761 0.344204 0.210329
O O3 0.767090 0.320083 0.058158
O O4 0.044355 0.315322 0.063113
O O5 0.419166 0.084365 0.858440
O O6 0.173617 0.149246 0.823734
O O7 0.077367 0.623042 0.489538
O O8 0.000000 0.500000 0.500000
O O9 0.830507 0.591838 0.571582
O O10 0.948203 0.755799 0.083569
O O11 0.774650 0.783066 0.957263
O O12 0.957484 0.750000 0.250000
O O13 0.116986 0.659389 0.336399
#
# Coordination Sequence:
#
# PCOD9408192 Si02
#       6
#     8   8   8   8   8   8
#     4  10  18  29  52  69 108 143 179 221 285 351
#     4  10  18  34  48  72 104 149 186 228 279 344
#     4  12  23  36  51  71 105 155 196 231 273 326
#     4  11  16  30  48  73 103 143 177 214 284 345
#     4  11  19  30  51  75 107 143 179 232 282 346
#     4  12  20  33  50  73 104 143 188 224 273 339
#
# _framework density 17.181567999999999
#
# number of rings (size 3 to 8) (size 9 to 14) (size 15 to 20)
#    0.000    1.000   11.667    0.500    0.000    1.333 
#    0.000    0.000    0.000    0.000    0.000    0.000 
#    0.000    1.333    6.333    0.167    0.000    0.000 
#
# Total GULP energy -267492.499884 kJ/mol
# GULP energy per Si atom -5572.760414 kJ/mol
# Density = 1.714246 g / cm^3
# Si number density = 17.181568 Si / 1000 Ang^3
#
#
#
# Elastic Constant Matrix: (Units=GPa)
#
#
# Indices 1 2 3 4 5 6 
#
# 1 100.9843 35.3058 54.1929 0.0000 0.0000 0.0000
# 2 35.3058 38.2221 29.6109 0.0000 0.0000 0.0000
# 3 54.1929 29.6109 99.7098 0.0000 0.0000 0.0000
# 4 0.0000 0.0000 0.0000 24.2942 0.0000 0.0000
# 5 0.0000 0.0000 0.0000 0.0000 31.5068 0.0000
# 6 0.0000 0.0000 0.0000 0.0000 0.0000 13.0731
#
#
#
# Elastic Compliance Matrix: (Units=1/GPa)
#
#
# Indices 1 2 3 4 5 6 
#
# 1 0.016953 -0.011067 -0.005927 0.000000 0.000000 0.000000
# 2 -0.011067 0.041206 -0.006222 0.000000 0.000000 0.000000
# 3 -0.005927 -0.006222 0.015098 0.000000 0.000000 0.000000
# 4 0.000000 0.000000 0.000000 0.041162 0.000000 0.000000
# 5 0.000000 0.000000 0.000000 0.000000 0.031739 0.000000
# 6 0.000000 0.000000 0.000000 0.000000 0.000000 0.076493
#
#
# Mechanical properties :
#
#
# Convention : Reuss Voigt Hill
#
# Bulk Modulus (GPa) = 37.27987 53.01506 45.14747
# Shear Modulus (GPa) = 17.98399 21.76192 19.87295
#
# Velocity S-wave (km/s) = 3.23879 3.56277 3.40464
# Velocity P-wave (km/s) = 5.97754 6.91717 6.46445
#
# Compressibility (1/GPa) = 0.02682413
#
# Stress axis : x y z
#
# Youngs Moduli (GPa) = 58.98772 24.26839 66.23286
#
# Poissons Ratio (x) = 0.26859 0.39257
# Poissons Ratio (y) = 0.65284 0.41208
# Poissons Ratio (z) = 0.34963 0.15099
#
# Static dielectric constant tensor:
#      x y z
#    x 1.645540 0.000000 0.000000 
#    y 0.000000 1.601260 0.000000 
#    z 0.000000 0.000000 1.624200 
# 
# From -- ./inp_files/24852.got.cif
#   From: 2010.05.17/outbox.cif.g08.bks.cpg/sg52_13_cif.got.tgz:24852.got - 2010.06.03 12:15:38.
