data_PCOD9408347
_publ_section_title
;
Structure prediction by ZEFSAII (Michael W. Deem and Ramdas Pophale) SiO2 
 PCOD9408347
Probable space group: P N N A
;
_chemical_formula_sum "Si O2"
_cell_formula_units_Z 44
_cell_length_a 10.691443
_cell_length_b 19.257496
_cell_length_c 7.621521
_cell_angle_alpha 90.000000
_cell_angle_beta 90.000000
_cell_angle_gamma 90.000000
_cell_volume 1569.198166
_symmetry_space_group_name_H-M "P N N A"
_symmetry_group_IT_number 52
_symmetry_cell_setting 'orthorhombic'
loop_
_space_group_symop_operation_xyz
x,y,z
1/2-x,-y,z
x,1/2-y,1/2-z
1/2-x,1/2+y,1/2-z
-x,-y,-z
1/2+x,y,-z
-x,1/2+y,1/2+z
1/2+x,1/2-y,1/2+z
loop_
_atom_site_type_symbol
_atom_site_label
_atom_site_fract_x
_atom_site_fract_y
_atom_site_fract_z
Si Si1 0.093993 0.080334 0.845788
Si Si2 0.344931 0.140900 0.224282
Si Si3 0.496980 0.939407 0.253923
Si Si4 0.751983 0.206820 0.106024
Si Si5 0.397885 0.806462 0.401972
Si Si6 0.250000 0.000000 0.257028
O O1 0.987358 0.123291 0.739495
O O2 0.212413 0.130337 0.832600
O O3 0.095580 0.001674 0.773817
O O4 0.046290 0.078268 0.051040
O O5 0.240709 0.157947 0.369448
O O6 0.295719 0.066429 0.150624
O O7 0.330014 0.196432 0.070945
O O8 0.498479 0.867040 0.358628
O O9 0.377873 0.977788 0.347906
O O10 0.823061 0.250000 0.250000
O O11 0.630734 0.254955 0.063011
O O12 0.410687 0.750000 0.250000
#
# Coordination Sequence:
#
# PCOD9408347 Si02
#       6
#     8   8   8   8   8   4
#     4  10  18  32  57  86 103 139 191 234 274 330
#     4   9  18  32  55  76  99 138 182 222 268 334
#     4   9  16  29  56  87 102 134 189 237 268 330
#     4  11  22  36  50  78 117 147 182 233 282 333
#     4   9  16  34  54  73 108 145 180 223 284 329
#     4   8  12  28  54  78  98 126 176 226 260 314
#
# _framework density 28.039795999999999
#
# number of rings (size 3 to 8) (size 9 to 14) (size 15 to 20)
#    0.000    2.545    5.455    0.000    0.000    2.182 
#    3.273    0.909    0.000    6.545    0.000    0.000 
#    0.000    0.000    0.000    0.000    0.000    0.000 
#
# Total GULP energy -245357.239288 kJ/mol
# GULP energy per Si atom -5576.300893 kJ/mol
# Density = 2.797598 g / cm^3
# Si number density = 28.039796 Si / 1000 Ang^3
#
#
#
# Elastic Constant Matrix: (Units=GPa)
#
#
# Indices 1 2 3 4 5 6 
#
# 1 77.2779 24.2307 -7.1260 0.0000 0.0000 0.0000
# 2 24.2307 193.2695 34.0210 0.0000 0.0000 0.0000
# 3 -7.1260 34.0210 109.6721 0.0000 0.0000 0.0000
# 4 0.0000 0.0000 0.0000 29.9270 0.0000 0.0000
# 5 0.0000 0.0000 0.0000 0.0000 1.1001 0.0000
# 6 0.0000 0.0000 0.0000 0.0000 0.0000 51.6025
#
#
#
# Elastic Compliance Matrix: (Units=1/GPa)
#
#
# Indices 1 2 3 4 5 6 
#
# 1 0.013701 -0.001983 0.001505 0.000000 0.000000 0.000000
# 2 -0.001983 0.005760 -0.001916 0.000000 0.000000 0.000000
# 3 0.001505 -0.001916 0.009810 0.000000 0.000000 0.000000
# 4 0.000000 0.000000 0.000000 0.033415 0.000000 0.000000
# 5 0.000000 0.000000 0.000000 0.000000 0.908997 0.000000
# 6 0.000000 0.000000 0.000000 0.000000 0.000000 0.019379
#
#
# Mechanical properties :
#
#
# Convention : Reuss Voigt Hill
#
# Bulk Modulus (GPa) = 40.84166 53.60789 47.22477
# Shear Modulus (GPa) = 4.98004 38.46551 21.72277
#
# Velocity S-wave (km/s) = 1.33413 3.70782 2.78638
# Velocity P-wave (km/s) = 4.11952 6.12296 5.21829
#
# Compressibility (1/GPa) = 0.02448480
#
# Stress axis : x y z
#
# Youngs Moduli (GPa) = 72.98851 173.61436 101.93557
#
# Poissons Ratio (x) = 0.34422 -0.15344
# Poissons Ratio (y) = 0.14471 0.19527
# Poissons Ratio (z) = -0.10987 0.33257
#
# Static dielectric constant tensor:
#      x y z
#    x 2.273270 0.000000 0.000000 
#    y 0.000000 2.229640 0.000000 
#    z 0.000000 0.000000 2.320070 
# 
# From -- ./inp_files/10349.got.cif
#   From: 2010.05.17/outbox.cif.g08.bks.cpg/sg52_6_cif.got.tgz:10349.got - 2010.06.03 12:15:38.
