data_PCOD9408356
_publ_section_title
;
Structure prediction by ZEFSAII (Michael W. Deem and Ramdas Pophale) SiO2 
 PCOD9408356
Probable space group: P N N A
;
_chemical_formula_sum "Si O2"
_cell_formula_units_Z 40
_cell_length_a 8.839434
_cell_length_b 11.526673
_cell_length_c 18.638923
_cell_angle_alpha 90.000000
_cell_angle_beta 90.000000
_cell_angle_gamma 90.000000
_cell_volume 1899.106169
_symmetry_space_group_name_H-M "P N N A"
_symmetry_group_IT_number 52
_symmetry_cell_setting 'orthorhombic'
loop_
_space_group_symop_operation_xyz
x,y,z
1/2-x,-y,z
x,1/2-y,1/2-z
1/2-x,1/2+y,1/2-z
-x,-y,-z
1/2+x,y,-z
-x,1/2+y,1/2+z
1/2+x,1/2-y,1/2+z
loop_
_atom_site_type_symbol
_atom_site_label
_atom_site_fract_x
_atom_site_fract_y
_atom_site_fract_z
Si Si1 0.477916 0.687593 0.868540
Si Si2 0.297475 0.633567 0.147780
Si Si3 0.527753 0.750000 0.250000
Si Si4 0.041851 0.814350 0.535511
Si Si5 0.218896 0.635237 0.623739
Si Si6 0.250000 0.500000 0.882879
O O1 0.640963 0.696527 0.833508
O O2 0.379654 0.802241 0.867935
O O3 0.368161 0.583415 0.841856
O O4 0.516409 0.664039 0.952226
O O5 0.250000 0.500000 0.140597
O O6 0.422327 0.660493 0.207209
O O7 0.379913 0.677092 0.075351
O O8 0.625286 0.677245 0.306671
O O9 0.126332 0.694860 0.557671
O O10 0.148281 0.913677 0.569684
O O11 0.250000 0.500000 0.616754
#
# Coordination Sequence:
#
# PCOD9408356 Si02
#       6
#     8   8   4   8   8   4
#     4  11  22  35  64  97 126 160 200 249 327 375
#     4  11  22  38  62  92 125 157 200 263 314 366
#     4  10  26  44  58  86 118 162 228 256 302 362
#     4  10  21  37  61 100 129 158 200 251 319 384
#     4  10  24  45  63  82 124 171 212 260 301 370
#     4  10  18  32  58  92 136 162 182 248 308 382
#
# _framework density 21.062539999999998
#
# number of rings (size 3 to 8) (size 9 to 14) (size 15 to 20)
#    0.000    1.600    2.000    3.000    2.800    4.800 
#    3.600    3.000    0.000    0.000    0.000    0.000 
#    0.000    0.000    0.000    0.000    0.000    0.000 
#
# Total GULP energy -223610.975458 kJ/mol
# GULP energy per Si atom -5590.274386 kJ/mol
# Density = 2.101460 g / cm^3
# Si number density = 21.062540 Si / 1000 Ang^3
#
#
#
# Elastic Constant Matrix: (Units=GPa)
#
#
# Indices 1 2 3 4 5 6 
#
# 1 142.3620 47.3130 0.3879 0.0000 0.0000 0.0000
# 2 47.3130 144.1819 -11.8549 0.0000 0.0000 0.0000
# 3 0.3879 -11.8549 33.7211 0.0000 0.0000 0.0000
# 4 0.0000 0.0000 0.0000 4.6922 0.0000 0.0000
# 5 0.0000 0.0000 0.0000 0.0000 -7.7610 0.0000
# 6 0.0000 0.0000 0.0000 0.0000 0.0000 -18.7918
#
#
#
# Elastic Compliance Matrix: (Units=1/GPa)
#
#
# Indices 1 2 3 4 5 6 
#
# 1 0.007919 -0.002684 -0.001035 0.000000 0.000000 0.000000
# 2 -0.002684 0.008052 0.002861 0.000000 0.000000 0.000000
# 3 -0.001035 0.002861 0.030673 0.000000 0.000000 0.000000
# 4 0.000000 0.000000 0.000000 0.213120 0.000000 0.000000
# 5 0.000000 0.000000 0.000000 0.000000 -0.128850 0.000000
# 6 0.000000 0.000000 0.000000 0.000000 0.000000 -0.053215
#
#
# Mechanical properties :
#
#
# Convention : Reuss Voigt Hill
#
# Bulk Modulus (GPa) = 22.25686 43.55078 32.90382
# Shear Modulus (GPa) = 52.97210 14.58915 33.78062
#
# Velocity S-wave (km/s) = 5.02041 2.63470 4.00912
# Velocity P-wave (km/s) = 6.64801 5.47515 6.08988
#
# Compressibility (1/GPa) = 0.04492996
#
# Stress axis : x y z
#
# Youngs Moduli (GPa) = 126.27745 124.19885 32.60211
#
# Poissons Ratio (x) = 0.33331 0.03373
# Poissons Ratio (y) = 0.33889 -0.09329
# Poissons Ratio (z) = 0.13064 -0.35539
#
# Static dielectric constant tensor:
#      x y z
#    x 1.790400 0.000000 0.000000 
#    y 0.000000 1.741880 0.000000 
#    z 0.000000 0.000000 1.787510 
# 
# From -- ./inp_files/35809.got.cif
#   From: 2010.05.17/outbox.cif.g08.bks.cpg/sg52_18_cif.got.tgz:35809.got - 2010.06.03 12:15:38.
