data_PCOD9408735
_publ_section_title
;
Structure prediction by ZEFSAII (Michael W. Deem and Ramdas Pophale) SiO2 
 PCOD9408735
Probable space group: P N N A
;
_chemical_formula_sum "Si O2"
_cell_formula_units_Z 64
_cell_length_a 11.788764
_cell_length_b 12.187132
_cell_length_c 25.639870
_cell_angle_alpha 90.000000
_cell_angle_beta 90.000000
_cell_angle_gamma 90.000000
_cell_volume 3683.711480
_symmetry_space_group_name_H-M "P N N A"
_symmetry_group_IT_number 52
_symmetry_cell_setting 'orthorhombic'
loop_
_space_group_symop_operation_xyz
x,y,z
1/2-x,-y,z
x,1/2-y,1/2-z
1/2-x,1/2+y,1/2-z
-x,-y,-z
1/2+x,y,-z
-x,1/2+y,1/2+z
1/2+x,1/2-y,1/2+z
loop_
_atom_site_type_symbol
_atom_site_label
_atom_site_fract_x
_atom_site_fract_y
_atom_site_fract_z
Si Si1 0.315232 0.609668 0.867382
Si Si2 0.738366 0.233138 0.952075
Si Si3 0.188197 0.598295 0.127947
Si Si4 0.637530 0.935071 0.874341
Si Si5 0.479014 0.586908 0.454068
Si Si6 0.642992 0.775010 0.440022
Si Si7 0.008570 0.512352 0.938842
Si Si8 0.983826 0.244987 0.688154
O O1 0.250000 0.500000 0.844292
O O2 0.228553 0.693808 0.894135
O O3 0.387565 0.555924 0.914378
O O4 0.403185 0.682305 0.833371
O O5 0.730972 0.326628 0.907824
O O6 0.816463 0.143251 0.921721
O O7 0.622830 0.171729 0.967987
O O8 0.797055 0.284669 0.003249
O O9 0.250000 0.500000 0.156402
O O10 0.118934 0.669278 0.168427
O O11 0.100174 0.539044 0.088887
O O12 0.557429 0.861470 0.836951
O O13 0.750000 0.000000 0.852894
O O14 0.561824 0.025320 0.902588
O O15 0.500000 0.500000 0.500000
O O16 0.591412 0.654536 0.441594
O O17 0.540730 0.860904 0.431437
O O18 0.000000 0.500000 0.000000
O O19 0.991317 0.250000 0.750000
#
# Coordination Sequence:
#
# PCOD9408735 Si02
#       8
#     8   8   8   8   8   8   8   8
#     4   9  22  38  54  82 114 142 186 231 283 336
#     4  10  20  31  49  76 114 155 179 219 268 332
#     4  10  20  33  55  86 116 139 187 233 284 347
#     4   9  20  39  53  79 115 148 186 232 278 330
#     4  11  22  33  49  75 114 156 190 219 265 328
#     4  11  21  31  52  78 114 155 187 214 267 338
#     4  10  19  31  51  79 115 153 177 213 270 338
#     4  10  22  42  64  80 106 149 197 250 291 328
#
# _framework density 17.373783
#
# number of rings (size 3 to 8) (size 9 to 14) (size 15 to 20)
#    0.000    2.000    2.500    0.750    5.250    0.500 
#    0.000    1.250    0.000    0.000    0.000    2.625 
#    0.000    0.000    0.000    0.000    0.000    0.000 
#
# Total GULP energy -356353.411160 kJ/mol
# GULP energy per Si atom -5568.022049 kJ/mol
# Density = 1.733424 g / cm^3
# Si number density = 17.373783 Si / 1000 Ang^3
#
#
#
# Elastic Constant Matrix: (Units=GPa)
#
#
# Indices 1 2 3 4 5 6 
#
# 1 73.5432 50.6668 39.6100 0.0000 0.0000 0.0000
# 2 50.6668 108.3300 41.1931 0.0000 0.0000 0.0000
# 3 39.6100 41.1931 88.0059 0.0000 0.0000 0.0000
# 4 0.0000 0.0000 0.0000 4.1131 0.0000 0.0000
# 5 0.0000 0.0000 0.0000 0.0000 2.3759 0.0000
# 6 0.0000 0.0000 0.0000 0.0000 0.0000 39.4565
#
#
#
# Elastic Compliance Matrix: (Units=1/GPa)
#
#
# Indices 1 2 3 4 5 6 
#
# 1 0.022663 -0.008176 -0.006373 0.000000 0.000000 0.000000
# 2 -0.008176 0.014180 -0.002957 0.000000 0.000000 0.000000
# 3 -0.006373 -0.002957 0.015615 0.000000 0.000000 0.000000
# 4 0.000000 0.000000 0.000000 0.243127 0.000000 0.000000
# 5 0.000000 0.000000 0.000000 0.000000 0.420898 0.000000
# 6 0.000000 0.000000 0.000000 0.000000 0.000000 0.025344
#
#
# Mechanical properties :
#
#
# Convention : Reuss Voigt Hill
#
# Bulk Modulus (GPa) = 57.32283 59.20211 58.26247
# Shear Modulus (GPa) = 6.38851 18.41638 12.40244
#
# Velocity S-wave (km/s) = 1.91966 3.25931 2.67471
# Velocity P-wave (km/s) = 6.16271 6.95080 6.56858
#
# Compressibility (1/GPa) = 0.01744506
#
# Stress axis : x y z
#
# Youngs Moduli (GPa) = 44.12500 70.52400 64.03909
#
# Poissons Ratio (x) = 0.57662 0.40813
# Poissons Ratio (y) = 0.36077 0.18937
# Poissons Ratio (z) = 0.28122 0.20855
#
# Static dielectric constant tensor:
#      x y z
#    x 1.628940 0.000000 0.000000 
#    y 0.000000 1.650110 0.000000 
#    z 0.000000 0.000000 1.585600 
# 
# From -- ./inp_files/40318.got.cif
#   From: 2010.05.17/outbox.cif.g08.bks.cpg/sg52_21_cif.got.tgz:40318.got - 2010.06.03 12:15:38.
