data_PCOD9408875
_publ_section_title
;
Structure prediction by ZEFSAII (Michael W. Deem and Ramdas Pophale) SiO2 
 PCOD9408875
Probable space group: P N N A
;
_chemical_formula_sum "Si O2"
_cell_formula_units_Z 60
_cell_length_a 27.778938
_cell_length_b 7.707615
_cell_length_c 12.637971
_cell_angle_alpha 90.000000
_cell_angle_beta 90.000000
_cell_angle_gamma 90.000000
_cell_volume 2705.907873
_symmetry_space_group_name_H-M "P N N A"
_symmetry_group_IT_number 52
_symmetry_cell_setting 'orthorhombic'
loop_
_space_group_symop_operation_xyz
x,y,z
1/2-x,-y,z
x,1/2-y,1/2-z
1/2-x,1/2+y,1/2-z
-x,-y,-z
1/2+x,y,-z
-x,1/2+y,1/2+z
1/2+x,1/2-y,1/2+z
loop_
_atom_site_type_symbol
_atom_site_label
_atom_site_fract_x
_atom_site_fract_y
_atom_site_fract_z
Si Si1 0.625493 0.599746 0.177300
Si Si2 0.060940 0.180144 0.976401
Si Si3 0.265637 0.750070 0.372439
Si Si4 0.864842 0.860460 0.859116
Si Si5 0.037910 0.774964 0.934330
Si Si6 0.822741 0.409520 0.950940
Si Si7 0.911144 0.750000 0.250000
Si Si8 0.587647 0.761701 0.858704
O O1 0.647682 0.750000 0.250000
O O2 0.571911 0.672654 0.145919
O O3 0.620521 0.424515 0.244572
O O4 0.654764 0.576887 0.067937
O O5 0.060222 0.264168 0.860474
O O6 0.053411 0.977403 0.944064
O O7 0.110492 0.224340 0.036804
O O8 0.019516 0.228950 0.061249
O O9 0.249369 0.750000 0.250000
O O10 0.307943 0.608461 0.376514
O O11 0.219321 0.764600 0.446013
O O12 0.297299 0.919934 0.404244
O O13 0.870752 0.750000 0.750000
O O14 0.893133 0.041634 0.859526
O O15 0.053541 0.704789 0.048132
O O16 0.864990 0.354408 0.871260
O O17 0.560267 0.750000 0.750000
#
# Coordination Sequence:
#
# PCOD9408875 Si02
#       8
#     8   8   8   8   8   8   4   8
#     4  11  23  45  70  95 133 185 232 284 339 398
#     4  10  21  40  60  97 130 175 228 273 335 403
#     4  10  20  37  64  92 126 161 204 268 340 411
#     4  10  21  36  58  89 127 163 209 267 328 396
#     4   9  21  40  60  89 133 170 222 280 326 392
#     4  10  22  39  63  91 129 166 215 269 330 414
#     4  12  24  38  72  96 130 182 234 276 344 404
#     4  10  19  33  57  85 123 165 206 258 326 389
#
# _framework density 22.173704000000001
#
# number of rings (size 3 to 8) (size 9 to 14) (size 15 to 20)
#    0.000    1.867    1.333    2.800    0.933    4.800 
#    2.400    0.000   13.200    0.000    0.000    0.000 
#    0.000    0.000    0.000    0.000    0.000    0.000 
#
# Total GULP energy -334543.054044 kJ/mol
# GULP energy per Si atom -5575.717567 kJ/mol
# Density = 2.212324 g / cm^3
# Si number density = 22.173704 Si / 1000 Ang^3
#
#
#
# Elastic Constant Matrix: (Units=GPa)
#
#
# Indices 1 2 3 4 5 6 
#
# 1 63.8209 -1.6033 10.3252 0.0000 0.0000 0.0000
# 2 -1.6033 89.4593 13.2332 0.0000 0.0000 0.0000
# 3 10.3252 13.2332 109.6866 0.0000 0.0000 0.0000
# 4 0.0000 0.0000 0.0000 28.3761 0.0000 0.0000
# 5 0.0000 0.0000 0.0000 0.0000 17.7355 0.0000
# 6 0.0000 0.0000 0.0000 0.0000 0.0000 7.8805
#
#
#
# Elastic Compliance Matrix: (Units=1/GPa)
#
#
# Indices 1 2 3 4 5 6 
#
# 1 0.015935 0.000517 -0.001562 0.000000 0.000000 0.000000
# 2 0.000517 0.011398 -0.001424 0.000000 0.000000 0.000000
# 3 -0.001562 -0.001424 0.009436 0.000000 0.000000 0.000000
# 4 0.000000 0.000000 0.000000 0.035241 0.000000 0.000000
# 5 0.000000 0.000000 0.000000 0.000000 0.056384 0.000000
# 6 0.000000 0.000000 0.000000 0.000000 0.000000 0.126896
#
#
# Mechanical properties :
#
#
# Convention : Reuss Voigt Hill
#
# Bulk Modulus (GPa) = 31.41725 34.09744 32.75734
# Shear Modulus (GPa) = 18.46122 26.86585 22.66354
#
# Velocity S-wave (km/s) = 2.88856 3.48459 3.20048
# Velocity P-wave (km/s) = 5.03235 5.62145 5.33503
#
# Compressibility (1/GPa) = 0.03182965
#
# Stress axis : x y z
#
# Youngs Moduli (GPa) = 62.75656 87.73362 105.98025
#
# Poissons Ratio (x) = -0.04533 0.16557
# Poissons Ratio (y) = -0.03242 0.15089
# Poissons Ratio (z) = 0.09805 0.12491
#
# Static dielectric constant tensor:
#      x y z
#    x 1.820960 0.000000 0.000000 
#    y 0.000000 1.959980 0.000000 
#    z 0.000000 0.000000 1.821260 
# 
# From -- ./inp_files/23158.got.cif
#   From: 2010.05.17/outbox.cif.g08.bks.cpg/sg52_12_cif.got.tgz:23158.got - 2010.06.03 12:15:38.
