data_PCOD9408776
_publ_section_title
;
Structure prediction by ZEFSAII (Michael W. Deem and Ramdas Pophale) SiO2 
 PCOD9408776
Probable space group: P N N A
;
_chemical_formula_sum "Si O2"
_cell_formula_units_Z 48
_cell_length_a 16.352870
_cell_length_b 24.404137
_cell_length_c 5.033504
_cell_angle_alpha 90.000000
_cell_angle_beta 90.000000
_cell_angle_gamma 90.000000
_cell_volume 2008.759098
_symmetry_space_group_name_H-M "P N N A"
_symmetry_group_IT_number 52
_symmetry_cell_setting 'orthorhombic'
loop_
_space_group_symop_operation_xyz
x,y,z
1/2-x,-y,z
x,1/2-y,1/2-z
1/2-x,1/2+y,1/2-z
-x,-y,-z
1/2+x,y,-z
-x,1/2+y,1/2+z
1/2+x,1/2-y,1/2+z
loop_
_atom_site_type_symbol
_atom_site_label
_atom_site_fract_x
_atom_site_fract_y
_atom_site_fract_z
Si Si1 0.263848 0.099807 0.353072
Si Si2 0.045119 0.285999 0.014261
Si Si3 0.119715 0.688872 0.145707
Si Si4 0.315821 0.047364 0.850660
Si Si5 0.081531 0.406320 0.068093
Si Si6 0.026350 0.915202 0.089685
O O1 0.294945 0.160455 0.426232
O O2 0.323136 0.064131 0.543890
O O3 0.174968 0.076144 0.418222
O O4 0.275270 0.094088 0.037839
O O5 0.079438 0.250000 0.250000
O O6 0.089852 0.342921 0.978194
O O7 0.043928 0.250000 0.750000
O O8 0.950480 0.302810 0.076211
O O9 0.134224 0.750000 0.250000
O O10 0.072571 0.642570 0.330262
O O11 0.250000 0.000000 0.878972
O O12 0.404638 0.043022 0.984343
O O13 0.037279 0.406572 0.351327
O O14 0.024023 0.433536 0.848059
#
# Coordination Sequence:
#
# PCOD9408776 Si02
#       6
#     8   8   8   8   8   8
#     4  11  24  39  61  92 122 151 195 252 300 339
#     4  10  19  32  53  79 111 159 202 228 275 350
#     4   9  19  36  58  86 118 159 203 237 279 347
#     4  11  23  44  66  87 114 155 202 247 296 358
#     4  11  21  38  57  86 124 152 188 248 300 347
#     4  10  21  39  63  84 115 158 197 234 292 361
#
# _framework density 23.895349
#
# number of rings (size 3 to 8) (size 9 to 14) (size 15 to 20)
#    0.000    1.667    0.000    7.500    0.000    3.333 
#    0.000    7.500    0.000    0.000    0.000    0.000 
#    0.000    0.000    0.000    0.000    0.000    0.000 
#
# Total GULP energy -267831.427325 kJ/mol
# GULP energy per Si atom -5579.821403 kJ/mol
# Density = 2.384096 g / cm^3
# Si number density = 23.895349 Si / 1000 Ang^3
#
#
#
# Elastic Constant Matrix: (Units=GPa)
#
#
# Indices 1 2 3 4 5 6 
#
# 1 92.9652 -10.7174 28.5879 0.0000 0.0000 0.0000
# 2 -10.7174 47.5917 4.5917 0.0000 0.0000 0.0000
# 3 28.5879 4.5917 104.3694 0.0000 0.0000 0.0000
# 4 0.0000 0.0000 0.0000 21.7444 0.0000 0.0000
# 5 0.0000 0.0000 0.0000 0.0000 21.3548 0.0000
# 6 0.0000 0.0000 0.0000 0.0000 0.0000 33.3079
#
#
#
# Elastic Compliance Matrix: (Units=1/GPa)
#
#
# Indices 1 2 3 4 5 6 
#
# 1 0.012179 0.003078 -0.003471 0.000000 0.000000 0.000000
# 2 0.003078 0.021879 -0.001806 0.000000 0.000000 0.000000
# 3 -0.003471 -0.001806 0.010612 0.000000 0.000000 0.000000
# 4 0.000000 0.000000 0.000000 0.045989 0.000000 0.000000
# 5 0.000000 0.000000 0.000000 0.000000 0.046828 0.000000
# 6 0.000000 0.000000 0.000000 0.000000 0.000000 0.030023
#
#
# Mechanical properties :
#
#
# Convention : Reuss Voigt Hill
#
# Bulk Modulus (GPa) = 24.83162 32.20564 28.51863
# Shear Modulus (GPa) = 26.97861 30.11235 28.54548
#
# Velocity S-wave (km/s) = 3.36375 3.55375 3.46005
# Velocity P-wave (km/s) = 5.04983 5.50871 5.28425
#
# Compressibility (1/GPa) = 0.04027123
#
# Stress axis : x y z
#
# Youngs Moduli (GPa) = 82.10860 45.70530 94.23621
#
# Poissons Ratio (x) = -0.14066 0.32713
# Poissons Ratio (y) = -0.25269 0.17015
# Poissons Ratio (z) = 0.28503 0.08252
#
# Static dielectric constant tensor:
#      x y z
#    x 1.984480 0.000000 0.000000 
#    y 0.000000 1.962140 0.000000 
#    z 0.000000 0.000000 1.773260 
# 
# From -- ./inp_files/2485.got.cif
#   From: 2010.05.17/outbox.cif.g08.bks.cpg/sg52_2_cif.got.tgz:2485.got - 2010.06.03 12:15:38.
