data_PCOD9408562
_publ_section_title
;
Structure prediction by ZEFSAII (Michael W. Deem and Ramdas Pophale) SiO2 
 PCOD9408562
Probable space group: P N N A
;
_chemical_formula_sum "Si O2"
_cell_formula_units_Z 60
_cell_length_a 14.150845
_cell_length_b 8.590042
_cell_length_c 20.653303
_cell_angle_alpha 90.000000
_cell_angle_beta 90.000000
_cell_angle_gamma 90.000000
_cell_volume 2510.540188
_symmetry_space_group_name_H-M "P N N A"
_symmetry_group_IT_number 52
_symmetry_cell_setting 'orthorhombic'
loop_
_space_group_symop_operation_xyz
x,y,z
1/2-x,-y,z
x,1/2-y,1/2-z
1/2-x,1/2+y,1/2-z
-x,-y,-z
1/2+x,y,-z
-x,1/2+y,1/2+z
1/2+x,1/2-y,1/2+z
loop_
_atom_site_type_symbol
_atom_site_label
_atom_site_fract_x
_atom_site_fract_y
_atom_site_fract_z
Si Si1 0.819795 0.357263 0.941632
Si Si2 0.525831 0.441981 0.877214
Si Si3 0.763842 0.332452 0.344010
Si Si4 0.805808 0.768098 0.824151
Si Si5 0.575145 0.281260 0.178454
Si Si6 0.914206 0.174736 0.052493
Si Si7 0.408589 0.250000 0.750000
Si Si8 0.467233 0.977733 0.154179
O O1 0.750000 0.500000 0.966720
O O2 0.913759 0.446366 0.921550
O O3 0.767497 0.284547 0.878903
O O4 0.861053 0.220158 0.986643
O O5 0.603715 0.346152 0.836792
O O6 0.464468 0.549215 0.830966
O O7 0.460291 0.334816 0.921124
O O8 0.750000 0.500000 0.308700
O O9 0.665452 0.257770 0.364700
O O10 0.827384 0.379185 0.404054
O O11 0.829878 0.211870 0.305033
O O12 0.773009 0.750000 0.750000
O O13 0.858219 0.932976 0.835805
O O14 0.613329 0.250000 0.250000
O O15 0.493606 0.154639 0.167659
O O16 0.997502 0.060351 0.080243
O O17 0.471937 0.127806 0.792768
#
# Coordination Sequence:
#
# PCOD9408562 Si02
#       8
#     8   8   8   8   8   8   4   8
#     4  10  23  44  68  99 127 172 235 290 327 410
#     4  10  24  42  65  99 131 176 219 285 342 409
#     4  11  22  36  57  91 130 172 214 268 321 401
#     4  10  20  42  74  96 127 179 231 281 353 405
#     4  12  24  36  60  99 141 170 218 279 338 408
#     4  10  22  41  66  88 131 178 227 267 341 404
#     4  10  18  36  62  82 134 166 222 250 338 396
#     4  10  21  40  63  95 135 180 221 279 344 416
#
# _framework density 23.899239000000001
#
# number of rings (size 3 to 8) (size 9 to 14) (size 15 to 20)
#    0.000    1.600    4.000    1.200    5.600    0.533 
#    0.000    4.000    0.000    0.000    0.000    0.000 
#    0.000    0.000    0.000    0.000    0.000    0.000 
#
# Total GULP energy -334432.569595 kJ/mol
# GULP energy per Si atom -5573.876160 kJ/mol
# Density = 2.384484 g / cm^3
# Si number density = 23.899239 Si / 1000 Ang^3
#
#
#
# Elastic Constant Matrix: (Units=GPa)
#
#
# Indices 1 2 3 4 5 6 
#
# 1 94.2730 29.1175 24.0352 0.0000 0.0000 0.0000
# 2 29.1175 72.8656 22.3413 0.0000 0.0000 0.0000
# 3 24.0352 22.3413 87.8254 0.0000 0.0000 0.0000
# 4 0.0000 0.0000 0.0000 29.4426 0.0000 0.0000
# 5 0.0000 0.0000 0.0000 0.0000 27.7055 0.0000
# 6 0.0000 0.0000 0.0000 0.0000 0.0000 30.6000
#
#
#
# Elastic Compliance Matrix: (Units=1/GPa)
#
#
# Indices 1 2 3 4 5 6 
#
# 1 0.012528 -0.004290 -0.002337 0.000000 0.000000 0.000000
# 2 -0.004290 0.016354 -0.002986 0.000000 0.000000 0.000000
# 3 -0.002337 -0.002986 0.012786 0.000000 0.000000 0.000000
# 4 0.000000 0.000000 0.000000 0.033964 0.000000 0.000000
# 5 0.000000 0.000000 0.000000 0.000000 0.036094 0.000000
# 6 0.000000 0.000000 0.000000 0.000000 0.000000 0.032680
#
#
# Mechanical properties :
#
#
# Convention : Reuss Voigt Hill
#
# Bulk Modulus (GPa) = 44.56121 45.10577 44.83349
# Shear Modulus (GPa) = 29.22054 29.51428 29.36741
#
# Velocity S-wave (km/s) = 3.50044 3.51799 3.50923
# Velocity P-wave (km/s) = 5.91806 5.95113 5.93462
#
# Compressibility (1/GPa) = 0.02244104
#
# Stress axis : x y z
#
# Youngs Moduli (GPa) = 79.81888 61.14832 78.21342
#
# Poissons Ratio (x) = 0.26231 0.18282
# Poissons Ratio (y) = 0.34240 0.23355
# Poissons Ratio (z) = 0.18657 0.18260
#
# Static dielectric constant tensor:
#      x y z
#    x 1.902680 0.000000 0.000000 
#    y 0.000000 2.072980 0.000000 
#    z 0.000000 0.000000 1.987450 
# 
# From -- ./inp_files/40644.got.cif
#   From: 2010.05.17/outbox.cif.g08.bks.cpg/sg52_21_cif.got.tgz:40644.got - 2010.06.03 12:15:38.
