data_PCOD9408099
_publ_section_title
;
Structure prediction by ZEFSAII (Michael W. Deem and Ramdas Pophale) SiO2 
 PCOD9408099
Probable space group: P N N A
;
_chemical_formula_sum "Si O2"
_cell_formula_units_Z 48
_cell_length_a 15.458566
_cell_length_b 18.646931
_cell_length_c 7.599028
_cell_angle_alpha 90.000000
_cell_angle_beta 90.000000
_cell_angle_gamma 90.000000
_cell_volume 2190.456399
_symmetry_space_group_name_H-M "P N N A"
_symmetry_group_IT_number 52
_symmetry_cell_setting 'orthorhombic'
loop_
_space_group_symop_operation_xyz
x,y,z
1/2-x,-y,z
x,1/2-y,1/2-z
1/2-x,1/2+y,1/2-z
-x,-y,-z
1/2+x,y,-z
-x,1/2+y,1/2+z
1/2+x,1/2-y,1/2+z
loop_
_atom_site_type_symbol
_atom_site_label
_atom_site_fract_x
_atom_site_fract_y
_atom_site_fract_z
Si Si1 0.609271 0.318592 0.337528
Si Si2 0.039674 0.785004 0.937981
Si Si3 0.162788 0.459308 0.788415
Si Si4 0.519603 0.571984 0.284680
Si Si5 0.847924 0.998478 0.697380
Si Si6 0.943932 0.357503 0.904966
O O1 0.651946 0.250000 0.250000
O O2 0.562360 0.290229 0.511612
O O3 0.669762 0.385481 0.316380
O O4 0.526062 0.344677 0.221019
O O5 0.050720 0.750000 0.750000
O O6 0.058594 0.869528 0.919586
O O7 0.085497 0.725156 0.060083
O O8 0.250000 0.500000 0.751347
O O9 0.079985 0.503069 0.723015
O O10 0.155383 0.460048 0.002896
O O11 0.421243 0.544484 0.306155
O O12 0.525738 0.609571 0.092230
O O13 0.750000 0.000000 0.766570
O O14 0.880821 0.080684 0.667547
#
# Coordination Sequence:
#
# PCOD9408099 Si02
#       6
#     8   8   8   8   8   8
#     4  10  18  33  57  80 107 148 190 233 285 347
#     4   9  20  32  56  79 108 150 188 234 295 340
#     4  10  19  33  54  85 112 145 193 238 280 340
#     4  10  17  34  56  80 112 146 187 234 289 339
#     4  10  18  31  58  87 111 148 191 236 285 349
#     4   9  16  34  55  80 108 146 192 229 280 348
#
# _framework density 21.913240999999999
#
# number of rings (size 3 to 8) (size 9 to 14) (size 15 to 20)
#    0.000    2.333    3.333    1.000    0.000    0.667 
#    0.000    6.667    0.000    5.000    0.000    0.000 
#    0.000    0.000    0.000    0.000    0.000    0.000 
#
# Total GULP energy -267303.443905 kJ/mol
# GULP energy per Si atom -5568.821748 kJ/mol
# Density = 2.186337 g / cm^3
# Si number density = 21.913241 Si / 1000 Ang^3
#
#
#
# Elastic Constant Matrix: (Units=GPa)
#
#
# Indices 1 2 3 4 5 6 
#
# 1 75.7941 29.5074 -10.0845 0.0000 0.0000 0.0000
# 2 29.5074 133.4740 0.7843 0.0000 0.0000 0.0000
# 3 -10.0845 0.7843 43.7635 0.0000 0.0000 0.0000
# 4 0.0000 0.0000 0.0000 15.8530 0.0000 0.0000
# 5 0.0000 0.0000 0.0000 0.0000 -9.5695 0.0000
# 6 0.0000 0.0000 0.0000 0.0000 0.0000 30.4357
#
#
#
# Elastic Compliance Matrix: (Units=1/GPa)
#
#
# Indices 1 2 3 4 5 6 
#
# 1 0.014955 -0.003327 0.003506 0.000000 0.000000 0.000000
# 2 -0.003327 0.008233 -0.000914 0.000000 0.000000 0.000000
# 3 0.003506 -0.000914 0.023674 0.000000 0.000000 0.000000
# 4 0.000000 0.000000 0.000000 0.063079 0.000000 0.000000
# 5 0.000000 0.000000 0.000000 0.000000 -0.104499 0.000000
# 6 0.000000 0.000000 0.000000 0.000000 0.000000 0.032856
#
#
# Mechanical properties :
#
#
# Convention : Reuss Voigt Hill
#
# Bulk Modulus (GPa) = 22.03025 32.60512 27.31768
# Shear Modulus (GPa) = 91.07371 22.86546 56.96959
#
# Velocity S-wave (km/s) = 6.45378 3.23376 5.10433
# Velocity P-wave (km/s) = 8.10002 5.37163 6.87258
#
# Compressibility (1/GPa) = 0.04539214
#
# Stress axis : x y z
#
# Youngs Moduli (GPa) = 66.86620 121.46342 42.23991
#
# Poissons Ratio (x) = 0.40408 -0.14808
# Poissons Ratio (y) = 0.22245 0.03861
# Poissons Ratio (z) = -0.23442 0.11104
#
# Static dielectric constant tensor:
#      x y z
#    x 1.766250 0.000000 0.000000 
#    y 0.000000 1.920960 0.000000 
#    z 0.000000 0.000000 1.913680 
# 
# From -- ./inp_files/10419.got.cif
#   From: 2010.05.17/outbox.cif.g08.bks.cpg/sg52_6_cif.got.tgz:10419.got - 2010.06.03 12:15:38.
