data_PCOD9408252
_publ_section_title
;
Structure prediction by ZEFSAII (Michael W. Deem and Ramdas Pophale) SiO2 
 PCOD9408252
Probable space group: P N N A
;
_chemical_formula_sum "Si O2"
_cell_formula_units_Z 56
_cell_length_a 24.204859
_cell_length_b 21.463561
_cell_length_c 6.352470
_cell_angle_alpha 90.000000
_cell_angle_beta 90.000000
_cell_angle_gamma 90.000000
_cell_volume 3300.250890
_symmetry_space_group_name_H-M "P N N A"
_symmetry_group_IT_number 52
_symmetry_cell_setting 'orthorhombic'
loop_
_space_group_symop_operation_xyz
x,y,z
1/2-x,-y,z
x,1/2-y,1/2-z
1/2-x,1/2+y,1/2-z
-x,-y,-z
1/2+x,y,-z
-x,1/2+y,1/2+z
1/2+x,1/2-y,1/2+z
loop_
_atom_site_type_symbol
_atom_site_label
_atom_site_fract_x
_atom_site_fract_y
_atom_site_fract_z
Si Si1 0.602762 0.648799 0.952190
Si Si2 0.789817 0.077242 0.601159
Si Si3 0.183598 0.449883 0.865004
Si Si4 0.520199 0.653671 0.581233
Si Si5 0.527440 0.559251 0.213245
Si Si6 0.448724 0.250000 0.750000
Si Si7 0.750000 0.500000 0.516688
Si Si8 0.057789 0.080108 0.631150
O O1 0.666090 0.631841 0.914801
O O2 0.571787 0.664605 0.735606
O O3 0.572126 0.588220 0.051317
O O4 0.589132 0.702336 0.119606
O O5 0.732368 0.088839 0.478723
O O6 0.815648 0.015810 0.488962
O O7 0.776022 0.052949 0.834354
O O8 0.204475 0.468323 0.632922
O O9 0.123638 0.419920 0.871028
O O10 0.532192 0.594342 0.432912
O O11 0.515558 0.711068 0.419456
O O12 0.469340 0.635380 0.732426
O O13 0.537507 0.485969 0.228876
O O14 0.469379 0.576859 0.101488
#
# Coordination Sequence:
#
# PCOD9408252 Si02
#       8
#     8   8   8   8   8   4   4   8
#     4  10  19  34  55  75 102 134 172 221 269 312
#     4   9  18  31  47  75 105 135 169 215 248 312
#     4   9  18  31  47  75 111 138 167 199 256 313
#     4  10  21  32  51  76 104 136 174 217 263 314
#     4   9  19  31  47  77 110 135 166 207 253 317
#     4  10  22  38  50  76 102 132 176 230 270 308
#     4   8  18  28  46  74 106 144 166 200 244 300
#     4  10  18  31  49  76 108 143 167 202 258 323
#
# _framework density 16.968406999999999
#
# number of rings (size 3 to 8) (size 9 to 14) (size 15 to 20)
#    0.000    2.857    1.429    0.857    2.000    3.429 
#    0.000    0.000    0.000    0.000   14.857    0.000 
#    0.000    0.000    0.000    0.000    0.000    0.000 
#
# Total GULP energy -312011.364879 kJ/mol
# GULP energy per Si atom -5571.631516 kJ/mol
# Density = 1.692979 g / cm^3
# Si number density = 16.968407 Si / 1000 Ang^3
#
#
#
# Elastic Constant Matrix: (Units=GPa)
#
#
# Indices 1 2 3 4 5 6 
#
# 1 146.2028 33.6256 49.2854 0.0000 0.0000 0.0000
# 2 33.6256 60.6985 27.4852 0.0000 0.0000 0.0000
# 3 49.2854 27.4852 96.2824 0.0000 0.0000 0.0000
# 4 0.0000 0.0000 0.0000 22.0665 0.0000 0.0000
# 5 0.0000 0.0000 0.0000 0.0000 1.0294 0.0000
# 6 0.0000 0.0000 0.0000 0.0000 0.0000 12.3541
#
#
#
# Elastic Compliance Matrix: (Units=1/GPa)
#
#
# Indices 1 2 3 4 5 6 
#
# 1 0.008792 -0.003253 -0.003572 0.000000 0.000000 0.000000
# 2 -0.003253 0.020124 -0.004079 0.000000 0.000000 0.000000
# 3 -0.003572 -0.004079 0.013379 0.000000 0.000000 0.000000
# 4 0.000000 0.000000 0.000000 0.045318 0.000000 0.000000
# 5 0.000000 0.000000 0.000000 0.000000 0.971447 0.000000
# 6 0.000000 0.000000 0.000000 0.000000 0.000000 0.080945
#
#
# Mechanical properties :
#
#
# Convention : Reuss Voigt Hill
#
# Bulk Modulus (GPa) = 48.81311 58.21957 53.51634
# Shear Modulus (GPa) = 4.27847 19.94250 12.11049
#
# Velocity S-wave (km/s) = 1.58962 3.43194 2.67443
# Velocity P-wave (km/s) = 5.67439 7.07738 6.41436
#
# Compressibility (1/GPa) = 0.02048630
#
# Stress axis : x y z
#
# Youngs Moduli (GPa) = 113.73818 49.69105 74.74381
#
# Poissons Ratio (x) = 0.16166 0.26697
# Poissons Ratio (y) = 0.37002 0.30492
# Poissons Ratio (z) = 0.40626 0.20271
#
# Static dielectric constant tensor:
#      x y z
#    x 1.577200 0.000000 0.000000 
#    y 0.000000 1.576910 0.000000 
#    z 0.000000 0.000000 1.597600 
# 
# From -- ./inp_files/5322.got.cif
#   From: 2010.05.17/outbox.cif.g08.bks.cpg/sg52_3_cif.got.tgz:5322.got - 2010.06.03 12:15:38.
