data_PCOD9408008
_publ_section_title
;
Structure prediction by ZEFSAII (Michael W. Deem and Ramdas Pophale) SiO2 
 PCOD9408008
Probable space group: P N N A
;
_chemical_formula_sum "Si O2"
_cell_formula_units_Z 64
_cell_length_a 5.449534
_cell_length_b 26.924249
_cell_length_c 17.238286
_cell_angle_alpha 90.000000
_cell_angle_beta 90.000000
_cell_angle_gamma 90.000000
_cell_volume 2529.280796
_symmetry_space_group_name_H-M "P N N A"
_symmetry_group_IT_number 52
_symmetry_cell_setting 'orthorhombic'
loop_
_space_group_symop_operation_xyz
x,y,z
1/2-x,-y,z
x,1/2-y,1/2-z
1/2-x,1/2+y,1/2-z
-x,-y,-z
1/2+x,y,-z
-x,1/2+y,1/2+z
1/2+x,1/2-y,1/2+z
loop_
_atom_site_type_symbol
_atom_site_label
_atom_site_fract_x
_atom_site_fract_y
_atom_site_fract_z
Si Si1 0.672968 0.298912 0.674064
Si Si2 0.497857 0.101543 0.759203
Si Si3 0.423634 0.554134 0.952694
Si Si4 0.495254 0.446529 0.213552
Si Si5 0.696118 0.346575 0.504161
Si Si6 0.025786 0.329021 0.954154
Si Si7 0.499853 0.984350 0.130203
Si Si8 0.324570 0.764803 0.863128
O O1 0.559513 0.341675 0.726979
O O2 0.690827 0.319685 0.586506
O O3 0.452378 0.259466 0.667834
O O4 0.957021 0.286735 0.690415
O O5 0.230728 0.089237 0.725805
O O6 0.730510 0.079600 0.713454
O O7 0.502626 0.072312 0.841432
O O8 0.472613 0.528738 0.870014
O O9 0.444862 0.613249 0.933728
O O10 0.653774 0.545897 0.010632
O O11 0.500443 0.483599 0.287384
O O12 0.446763 0.376361 0.496514
O O13 0.695066 0.303597 0.437068
O O14 0.077032 0.288265 0.889636
O O15 0.250238 0.320399 0.014724
O O16 0.250000 0.000000 0.090860
O O17 0.750000 0.000000 0.091012
#
# Coordination Sequence:
#
# PCOD9408008 Si02
#       8
#     8   8   8   8   8   8   8   8
#     4  10  18  27  44  71  99 130 170 209 242 291
#     4  10  19  32  52  74  99 132 169 204 246 301
#     4  10  21  35  55  80 100 126 167 210 256 310
#     4  10  19  35  55  73 102 130 160 208 259 304
#     4   8  14  23  37  59  90 121 150 192 245 279
#     4  10  18  30  49  73  99 132 173 211 250 300
#     4   8  16  30  51  72  92 122 160 200 247 293
#     4  10  17  28  45  68 101 132 163 209 257 289
#
# _framework density 25.303636000000001
#
# number of rings (size 3 to 8) (size 9 to 14) (size 15 to 20)
#    0.000    2.500    0.000    4.500    0.000    0.000 
#    0.000    0.000    0.000   24.750    0.000    0.000 
#    0.000  243.000    0.000    0.000    0.000    0.000 
#
# Total GULP energy -357606.914035 kJ/mol
# GULP energy per Si atom -5587.608032 kJ/mol
# Density = 2.524604 g / cm^3
# Si number density = 25.303636 Si / 1000 Ang^3
#
#
#
# Elastic Constant Matrix: (Units=GPa)
#
#
# Indices 1 2 3 4 5 6 
#
# 1 195.3673 0.3327 8.2448 0.0000 0.0000 0.0000
# 2 0.3327 50.0770 2.4242 0.0000 0.0000 0.0000
# 3 8.2448 2.4242 84.6415 0.0000 0.0000 0.0000
# 4 0.0000 0.0000 0.0000 8.7767 0.0000 0.0000
# 5 0.0000 0.0000 0.0000 0.0000 0.5007 0.0000
# 6 0.0000 0.0000 0.0000 0.0000 0.0000 24.0082
#
#
#
# Elastic Compliance Matrix: (Units=1/GPa)
#
#
# Indices 1 2 3 4 5 6 
#
# 1 0.005140 -0.000010 -0.000500 0.000000 0.000000 0.000000
# 2 -0.000010 0.019997 -0.000572 0.000000 0.000000 0.000000
# 3 -0.000500 -0.000572 0.011880 0.000000 0.000000 0.000000
# 4 0.000000 0.000000 0.000000 0.113938 0.000000 0.000000
# 5 0.000000 0.000000 0.000000 0.000000 1.997119 0.000000
# 6 0.000000 0.000000 0.000000 0.000000 0.000000 0.041652
#
#
# Mechanical properties :
#
#
# Convention : Reuss Voigt Hill
#
# Bulk Modulus (GPa) = 28.69259 39.12104 33.90682
# Shear Modulus (GPa) = 2.26911 27.92940 15.09925
#
# Velocity S-wave (km/s) = 0.94800 3.32591 2.44544
# Velocity P-wave (km/s) = 3.54432 5.49937 4.62630
#
# Compressibility (1/GPa) = 0.03485220
#
# Stress axis : x y z
#
# Youngs Moduli (GPa) = 194.56398 50.00753 84.17752
#
# Poissons Ratio (x) = 0.00050 0.04212
# Poissons Ratio (y) = 0.00193 0.04813
# Poissons Ratio (z) = 0.09735 0.02859
#
# Static dielectric constant tensor:
#      x y z
#    x 2.062980 0.000000 0.000000 
#    y 0.000000 2.014720 0.000000 
#    z 0.000000 0.000000 2.029690 
# 
# From -- ./inp_files/35317.got.cif
#   From: 2010.05.17/outbox.cif.g08.bks.cpg/sg52_18_cif.got.tgz:35317.got - 2010.06.03 12:15:38.
