data_PCOD9408879
_publ_section_title
;
Structure prediction by ZEFSAII (Michael W. Deem and Ramdas Pophale) SiO2 
 PCOD9408879
Probable space group: P N N A
;
_chemical_formula_sum "Si O2"
_cell_formula_units_Z 44
_cell_length_a 24.749412
_cell_length_b 12.424742
_cell_length_c 6.499380
_cell_angle_alpha 90.000000
_cell_angle_beta 90.000000
_cell_angle_gamma 90.000000
_cell_volume 1998.592229
_symmetry_space_group_name_H-M "P N N A"
_symmetry_group_IT_number 52
_symmetry_cell_setting 'orthorhombic'
loop_
_space_group_symop_operation_xyz
x,y,z
1/2-x,-y,z
x,1/2-y,1/2-z
1/2-x,1/2+y,1/2-z
-x,-y,-z
1/2+x,y,-z
-x,1/2+y,1/2+z
1/2+x,1/2-y,1/2+z
loop_
_atom_site_type_symbol
_atom_site_label
_atom_site_fract_x
_atom_site_fract_y
_atom_site_fract_z
Si Si1 0.335415 0.063657 0.266321
Si Si2 0.520822 0.424131 0.685277
Si Si3 0.116376 0.081307 0.923074
Si Si4 0.201939 0.250000 0.750000
Si Si5 0.725351 0.349682 0.858215
Si Si6 0.573894 0.560741 0.053098
O O1 0.312709 0.952450 0.363536
O O2 0.280288 0.128252 0.234885
O O3 0.376009 0.115673 0.433066
O O4 0.362342 0.020710 0.057151
O O5 0.500000 0.500000 0.500000
O O6 0.569767 0.364237 0.567065
O O7 0.470072 0.374194 0.810254
O O8 0.546138 0.499902 0.861431
O O9 0.162973 0.164198 0.862525
O O10 0.093778 0.030718 0.712365
O O11 0.237458 0.185123 0.588675
O O12 0.696677 0.250000 0.750000
#
# Coordination Sequence:
#
# PCOD9408879 Si02
#       6
#     8   8   8   4   8   8
#     4  10  21  37  58  83 117 157 204 246 305 364
#     4   8  16  30  54  88 114 142 189 235 300 359
#     4  10  19  33  57  89 117 156 191 251 300 363
#     4  12  22  36  58  88 126 154 206 256 314 356
#     4  11  23  39  54  84 119 158 202 259 303 365
#     4   9  16  32  56  88 110 146 196 236 290 372
#
# _framework density 22.015494
#
# number of rings (size 3 to 8) (size 9 to 14) (size 15 to 20)
#    0.000    2.182    3.636    0.000    0.000    1.455 
#    0.000    0.000    0.000    0.000  137.091    0.000 
#    0.000    0.000    0.000    0.000    0.000    0.000 
#
# Total GULP energy -244936.282418 kJ/mol
# GULP energy per Si atom -5566.733691 kJ/mol
# Density = 2.196539 g / cm^3
# Si number density = 22.015494 Si / 1000 Ang^3
#
#
#
# Elastic Constant Matrix: (Units=GPa)
#
#
# Indices 1 2 3 4 5 6 
#
# 1 77.0799 -6.4170 31.9765 0.0000 0.0000 0.0000
# 2 -6.4170 33.0025 9.3125 0.0000 0.0000 0.0000
# 3 31.9765 9.3125 138.6566 0.0000 0.0000 0.0000
# 4 0.0000 0.0000 0.0000 18.4358 0.0000 0.0000
# 5 0.0000 0.0000 0.0000 0.0000 45.9545 0.0000
# 6 0.0000 0.0000 0.0000 0.0000 0.0000 -33.7365
#
#
#
# Elastic Compliance Matrix: (Units=1/GPa)
#
#
# Indices 1 2 3 4 5 6 
#
# 1 0.014828 0.003922 -0.003683 0.000000 0.000000 0.000000
# 2 0.003922 0.031924 -0.003049 0.000000 0.000000 0.000000
# 3 -0.003683 -0.003049 0.008266 0.000000 0.000000 0.000000
# 4 0.000000 0.000000 0.000000 0.054242 0.000000 0.000000
# 5 0.000000 0.000000 0.000000 0.000000 0.021761 0.000000
# 6 0.000000 0.000000 0.000000 0.000000 0.000000 -0.029642
#
#
# Mechanical properties :
#
#
# Convention : Reuss Voigt Hill
#
# Bulk Modulus (GPa) = 20.24319 35.38702 27.81510
# Shear Modulus (GPa) = 40.49752 20.38855 30.44304
#
# Velocity S-wave (km/s) = 4.29359 3.04649 3.72264
# Velocity P-wave (km/s) = 5.81333 5.33698 5.58024
#
# Compressibility (1/GPa) = 0.04939933
#
# Stress axis : x y z
#
# Youngs Moduli (GPa) = 67.43998 31.32472 120.97482
#
# Poissons Ratio (x) = -0.12287 0.44555
# Poissons Ratio (y) = -0.26453 0.36881
# Poissons Ratio (z) = 0.24838 0.09550
#
# Static dielectric constant tensor:
#      x y z
#    x 1.929260 0.000000 0.000000 
#    y 0.000000 1.792720 0.000000 
#    z 0.000000 0.000000 1.790130 
# 
# From -- ./inp_files/5741.got.cif
#   From: 2010.05.17/outbox.cif.g08.bks.cpg/sg52_3_cif.got.tgz:5741.got - 2010.06.03 12:15:38.
