data_PCOD9408922
_publ_section_title
;
Structure prediction by ZEFSAII (Michael W. Deem and Ramdas Pophale) SiO2 
 PCOD9408922
Probable space group: P N N A
;
_chemical_formula_sum "Si O2"
_cell_formula_units_Z 48
_cell_length_a 12.491760
_cell_length_b 9.435463
_cell_length_c 17.477712
_cell_angle_alpha 90.000000
_cell_angle_beta 90.000000
_cell_angle_gamma 90.000000
_cell_volume 2060.019950
_symmetry_space_group_name_H-M "P N N A"
_symmetry_group_IT_number 52
_symmetry_cell_setting 'orthorhombic'
loop_
_space_group_symop_operation_xyz
x,y,z
1/2-x,-y,z
x,1/2-y,1/2-z
1/2-x,1/2+y,1/2-z
-x,-y,-z
1/2+x,y,-z
-x,1/2+y,1/2+z
1/2+x,1/2-y,1/2+z
loop_
_atom_site_type_symbol
_atom_site_label
_atom_site_fract_x
_atom_site_fract_y
_atom_site_fract_z
Si Si1 0.919409 0.682734 0.556398
Si Si2 0.309328 0.270906 0.838200
Si Si3 0.061431 0.261544 0.838271
Si Si4 0.513961 0.452331 0.875552
Si Si5 0.118613 0.507995 0.569377
Si Si6 0.848958 0.898223 0.775883
O O1 0.920242 0.853055 0.564952
O O2 0.842495 0.599103 0.498274
O O3 0.903174 0.628937 0.642731
O O4 0.034994 0.620805 0.533040
O O5 0.340834 0.250000 0.750000
O O6 0.185301 0.314978 0.838658
O O7 0.397056 0.377941 0.872124
O O8 0.313803 0.118293 0.879841
O O9 0.026653 0.250000 0.750000
O O10 0.996544 0.379453 0.885610
O O11 0.063126 0.106014 0.874204
O O12 0.568858 0.436951 0.791764
O O13 0.799758 0.750000 0.750000
O O14 0.750000 0.000000 0.784031
#
# Coordination Sequence:
#
# PCOD9408922 Si02
#       6
#     8   8   8   8   8   8
#     4   9  20  38  57  78 113 159 195 238 294 344
#     4  10  19  34  55  82 117 152 188 235 295 356
#     4  11  21  31  54  88 116 149 193 238 289 356
#     4  10  20  37  57  80 116 152 189 241 297 350
#     4  10  20  35  57  84 115 155 199 238 285 351
#     4  10  21  37  59  83 109 147 196 248 297 347
#
# _framework density 23.300744999999999
#
# number of rings (size 3 to 8) (size 9 to 14) (size 15 to 20)
#    0.000    2.000    0.000    5.500    0.000    6.667 
#    0.000    0.000    0.000    8.000    0.000    0.000 
#    0.000    0.000    0.000    0.000    0.000    0.000 
#
# Total GULP energy -267742.240674 kJ/mol
# GULP energy per Si atom -5577.963347 kJ/mol
# Density = 2.324771 g / cm^3
# Si number density = 23.300745 Si / 1000 Ang^3
#
#
#
# Elastic Constant Matrix: (Units=GPa)
#
#
# Indices 1 2 3 4 5 6 
#
# 1 29.3814 19.2177 -9.9455 0.0000 0.0000 0.0000
# 2 19.2177 142.5115 23.2558 0.0000 0.0000 0.0000
# 3 -9.9455 23.2558 106.0140 0.0000 0.0000 0.0000
# 4 0.0000 0.0000 0.0000 34.7010 0.0000 0.0000
# 5 0.0000 0.0000 0.0000 0.0000 20.1510 0.0000
# 6 0.0000 0.0000 0.0000 0.0000 0.0000 34.2280
#
#
#
# Elastic Compliance Matrix: (Units=1/GPa)
#
#
# Indices 1 2 3 4 5 6 
#
# 1 0.039816 -0.006201 0.005095 0.000000 0.000000 0.000000
# 2 -0.006201 0.008243 -0.002390 0.000000 0.000000 0.000000
# 3 0.005095 -0.002390 0.010435 0.000000 0.000000 0.000000
# 4 0.000000 0.000000 0.000000 0.028818 0.000000 0.000000
# 5 0.000000 0.000000 0.000000 0.000000 0.049625 0.000000
# 6 0.000000 0.000000 0.000000 0.000000 0.000000 0.029216
#
#
# Mechanical properties :
#
#
# Convention : Reuss Voigt Hill
#
# Bulk Modulus (GPa) = 19.41619 38.10699 28.76159
# Shear Modulus (GPa) = 26.27285 34.17460 30.22372
#
# Velocity S-wave (km/s) = 3.36155 3.83387 3.60545
# Velocity P-wave (km/s) = 4.83918 5.99900 5.45003
#
# Compressibility (1/GPa) = 0.05150340
#
# Stress axis : x y z
#
# Youngs Moduli (GPa) = 25.11581 121.31304 95.83119
#
# Poissons Ratio (x) = 0.75222 -0.48830
# Poissons Ratio (y) = 0.15573 0.22903
# Poissons Ratio (z) = -0.12798 0.28993
#
# Static dielectric constant tensor:
#      x y z
#    x 1.963490 0.000000 0.000000 
#    y 0.000000 1.875350 0.000000 
#    z 0.000000 0.000000 1.894650 
# 
# From -- ./inp_files/33065.got.cif
#   From: 2010.05.17/outbox.cif.g08.bks.cpg/sg52_17_cif.got.tgz:33065.got - 2010.06.03 12:15:38.
