data_PCOD9408464
_publ_section_title
;
Structure prediction by ZEFSAII (Michael W. Deem and Ramdas Pophale) SiO2 
 PCOD9408464
Probable space group: P N N A
;
_chemical_formula_sum "Si O2"
_cell_formula_units_Z 52
_cell_length_a 20.895211
_cell_length_b 14.535283
_cell_length_c 9.336556
_cell_angle_alpha 90.000000
_cell_angle_beta 90.000000
_cell_angle_gamma 90.000000
_cell_volume 2835.678297
_symmetry_space_group_name_H-M "P N N A"
_symmetry_group_IT_number 52
_symmetry_cell_setting 'orthorhombic'
loop_
_space_group_symop_operation_xyz
x,y,z
1/2-x,-y,z
x,1/2-y,1/2-z
1/2-x,1/2+y,1/2-z
-x,-y,-z
1/2+x,y,-z
-x,1/2+y,1/2+z
1/2+x,1/2-y,1/2+z
loop_
_atom_site_type_symbol
_atom_site_label
_atom_site_fract_x
_atom_site_fract_y
_atom_site_fract_z
Si Si1 0.179641 0.285825 0.017670
Si Si2 0.927258 0.750000 0.750000
Si Si3 0.065410 0.442166 0.683997
Si Si4 0.179595 0.488656 0.880718
Si Si5 0.679979 0.547448 0.807009
Si Si6 0.886892 0.750000 0.250000
Si Si7 0.938109 0.553101 0.658724
Si Si8 0.786310 0.250000 0.750000
O O1 0.119040 0.277740 0.120493
O O2 0.240291 0.257714 0.110695
O O3 0.182526 0.387910 0.954283
O O4 0.160869 0.226918 0.880281
O O5 0.960129 0.655707 0.704132
O O6 0.122224 0.494501 0.768280
O O7 0.069387 0.340271 0.753229
O O8 0.074738 0.444138 0.511956
O O9 0.995704 0.486011 0.701520
O O10 0.250000 0.500000 0.814150
O O11 0.171046 0.552488 0.020637
O O12 0.750000 0.500000 0.782957
O O13 0.626093 0.482271 0.737282
O O14 0.678211 0.651591 0.746493
#
# Coordination Sequence:
#
# PCOD9408464 Si02
#       8
#     8   4   8   8   8   4   8   4
#     4  10  18  34  60  85 117 157 203 245 291 368
#     4  11  18  36  64  84 110 163 210 244 290 375
#     4  10  24  40  62  88 123 159 202 251 308 363
#     4  10  19  39  60  90 122 152 199 260 301 362
#     4  11  21  37  61  90 123 156 204 254 302 360
#     4  10  20  37  60  90 116 161 204 252 294 373
#     4  11  23  42  60  88 123 161 205 251 302 374
#     4  11  20  35  58  94 122 162 200 254 310 358
#
# _framework density 18.337764
#
# number of rings (size 3 to 8) (size 9 to 14) (size 15 to 20)
#    0.000    1.538    6.154    0.923    0.000    1.846 
#    2.769    3.077    0.000    0.000    0.000    0.000 
#    0.000    0.000    0.000    0.000    0.000    0.000 
#
# Total GULP energy -289611.808530 kJ/mol
# GULP energy per Si atom -5569.457856 kJ/mol
# Density = 1.829603 g / cm^3
# Si number density = 18.337764 Si / 1000 Ang^3
#
#
#
# Elastic Constant Matrix: (Units=GPa)
#
#
# Indices 1 2 3 4 5 6 
#
# 1 96.4898 29.2185 49.8246 0.0000 0.0000 0.0000
# 2 29.2185 98.6030 15.9135 0.0000 0.0000 0.0000
# 3 49.8246 15.9135 79.6261 0.0000 0.0000 0.0000
# 4 0.0000 0.0000 0.0000 19.8123 0.0000 0.0000
# 5 0.0000 0.0000 0.0000 0.0000 17.1347 0.0000
# 6 0.0000 0.0000 0.0000 0.0000 0.0000 25.1700
#
#
#
# Elastic Compliance Matrix: (Units=1/GPa)
#
#
# Indices 1 2 3 4 5 6 
#
# 1 0.016280 -0.003286 -0.009530 0.000000 0.000000 0.000000
# 2 -0.003286 0.011143 -0.000171 0.000000 0.000000 0.000000
# 3 -0.009530 -0.000171 0.018556 0.000000 0.000000 0.000000
# 4 0.000000 0.000000 0.000000 0.050474 0.000000 0.000000
# 5 0.000000 0.000000 0.000000 0.000000 0.058361 0.000000
# 6 0.000000 0.000000 0.000000 0.000000 0.000000 0.039730
#
#
# Mechanical properties :
#
#
# Convention : Reuss Voigt Hill
#
# Bulk Modulus (GPa) = 49.98723 51.62579 50.80651
# Shear Modulus (GPa) = 22.00839 24.40756 23.20798
#
# Velocity S-wave (km/s) = 3.46810 3.65224 3.56136
# Velocity P-wave (km/s) = 6.58448 6.78226 6.68410
#
# Compressibility (1/GPa) = 0.02000511
#
# Stress axis : x y z
#
# Youngs Moduli (GPa) = 61.42518 89.74258 53.89049
#
# Poissons Ratio (x) = 0.29490 0.51359
# Poissons Ratio (y) = 0.20185 0.00920
# Poissons Ratio (z) = 0.58539 0.01532
#
# Static dielectric constant tensor:
#      x y z
#    x 1.617040 0.000000 0.000000 
#    y 0.000000 1.701960 0.000000 
#    z 0.000000 0.000000 1.711120 
# 
# From -- ./inp_files/13418.got.cif
#   From: 2010.05.17/outbox.cif.g08.bks.cpg/sg52_7_cif.got.tgz:13418.got - 2010.06.03 12:15:38.
