data_PCOD9408577
_publ_section_title
;
Structure prediction by ZEFSAII (Michael W. Deem and Ramdas Pophale) SiO2 
 PCOD9408577
Probable space group: P N N A
;
_chemical_formula_sum "Si O2"
_cell_formula_units_Z 64
_cell_length_a 18.883824
_cell_length_b 9.722220
_cell_length_c 17.344057
_cell_angle_alpha 90.000000
_cell_angle_beta 90.000000
_cell_angle_gamma 90.000000
_cell_volume 3184.242104
_symmetry_space_group_name_H-M "P N N A"
_symmetry_group_IT_number 52
_symmetry_cell_setting 'orthorhombic'
loop_
_space_group_symop_operation_xyz
x,y,z
1/2-x,-y,z
x,1/2-y,1/2-z
1/2-x,1/2+y,1/2-z
-x,-y,-z
1/2+x,y,-z
-x,1/2+y,1/2+z
1/2+x,1/2-y,1/2+z
loop_
_atom_site_type_symbol
_atom_site_label
_atom_site_fract_x
_atom_site_fract_y
_atom_site_fract_z
Si Si1 0.565306 0.183049 0.490945
Si Si2 0.062835 0.506185 0.846729
Si Si3 0.668234 0.534975 0.936054
Si Si4 0.409754 0.257087 0.950564
Si Si5 0.528013 0.907372 0.782469
Si Si6 0.901401 0.948363 0.099639
Si Si7 0.183351 0.590938 0.245194
Si Si8 0.188680 0.098002 0.750773
O O1 0.542246 0.078633 0.422493
O O2 0.492763 0.229202 0.529725
O O3 0.602420 0.318394 0.456746
O O4 0.618492 0.094216 0.542627
O O5 0.095104 0.651588 0.872432
O O6 0.123049 0.415120 0.806534
O O7 0.000376 0.508064 0.784857
O O8 0.750000 0.500000 0.956452
O O9 0.665604 0.561980 0.844706
O O10 0.637398 0.663712 0.985395
O O11 0.394522 0.096945 0.939388
O O12 0.519772 0.750000 0.750000
O O13 0.477228 0.930908 0.855589
O O14 0.611310 0.930051 0.793640
O O15 0.842144 0.938596 0.165734
O O16 0.250000 0.500000 0.268943
O O17 0.203528 0.750000 0.250000
O O18 0.217156 0.250000 0.750000
O O19 0.250000 0.000000 0.724973
#
# Coordination Sequence:
#
# PCOD9408577 Si02
#       8
#     8   8   8   8   8   8   8   8
#     4  11  20  41  64  87 126 164 205 247 300 372
#     4  10  19  38  61  87 119 161 210 246 294 365
#     4  10  23  43  65  90 122 166 211 243 303 384
#     4  11  24  36  63  94 126 160 204 257 308 361
#     4  10  18  36  66  84 122 165 203 251 312 356
#     4  11  23  40  58  98 128 155 210 255 308 364
#     4  10  22  43  66  92 120 157 208 255 314 375
#     4  11  24  40  63  88 125 170 209 256 309 363
#
# _framework density 20.098973000000001
#
# number of rings (size 3 to 8) (size 9 to 14) (size 15 to 20)
#    0.000    1.500    2.500    4.125    3.500    4.500 
#    6.750    0.000    0.000    0.000    0.000    0.000 
#    0.000    0.000    0.000    0.000    0.000    0.000 
#
# Total GULP energy -357561.629167 kJ/mol
# GULP energy per Si atom -5586.900456 kJ/mol
# Density = 2.005323 g / cm^3
# Si number density = 20.098973 Si / 1000 Ang^3
#
#
#
# Elastic Constant Matrix: (Units=GPa)
#
#
# Indices 1 2 3 4 5 6 
#
# 1 60.1697 -1.4326 -8.8859 0.0000 0.0000 0.0000
# 2 -1.4326 95.6449 13.2252 0.0000 0.0000 0.0000
# 3 -8.8859 13.2252 33.8463 0.0000 0.0000 0.0000
# 4 0.0000 0.0000 0.0000 27.7797 0.0000 0.0000
# 5 0.0000 0.0000 0.0000 0.0000 -3.9181 0.0000
# 6 0.0000 0.0000 0.0000 0.0000 0.0000 -102.2862
#
#
#
# Elastic Compliance Matrix: (Units=1/GPa)
#
#
# Indices 1 2 3 4 5 6 
#
# 1 0.017304 -0.000390 0.004695 0.000000 0.000000 0.000000
# 2 -0.000390 0.011061 -0.004425 0.000000 0.000000 0.000000
# 3 0.004695 -0.004425 0.032507 0.000000 0.000000 0.000000
# 4 0.000000 0.000000 0.000000 0.035998 0.000000 0.000000
# 5 0.000000 0.000000 0.000000 0.000000 -0.255226 0.000000
# 6 0.000000 0.000000 0.000000 0.000000 0.000000 -0.009776
#
#
# Mechanical properties :
#
#
# Convention : Reuss Voigt Hill
#
# Bulk Modulus (GPa) = 16.49257 21.71936 19.10597
# Shear Modulus (GPa) = -33.85624 -3.23464 -18.54544
#
# Velocity S-wave (km/s) = -4.10869 -1.26998 -3.04090
# Velocity P-wave (km/s) = 3.77954 2.94605 1.67418
#
# Compressibility (1/GPa) = 0.06063335
#
# Stress axis : x y z
#
# Youngs Moduli (GPa) = 57.79090 90.40531 30.76271
#
# Poissons Ratio (x) = 0.03526 -0.14444
# Poissons Ratio (y) = 0.02254 0.13611
# Poissons Ratio (z) = -0.27134 0.40000
#
# Static dielectric constant tensor:
#      x y z
#    x 1.694790 0.000000 0.000000 
#    y 0.000000 1.436580 0.000000 
#    z 0.000000 0.000000 1.736400 
# 
# From -- ./inp_files/34122.got.cif
#   From: 2010.05.17/outbox.cif.g08.bks.cpg/sg52_18_cif.got.tgz:34122.got - 2010.06.03 12:15:38.
