data_PCOD9408643
_publ_section_title
;
Structure prediction by ZEFSAII (Michael W. Deem and Ramdas Pophale) SiO2 
 PCOD9408643
Probable space group: P N N A
;
_chemical_formula_sum "Si O2"
_cell_formula_units_Z 56
_cell_length_a 14.951951
_cell_length_b 13.349460
_cell_length_c 10.737138
_cell_angle_alpha 90.000000
_cell_angle_beta 90.000000
_cell_angle_gamma 90.000000
_cell_volume 2143.137811
_symmetry_space_group_name_H-M "P N N A"
_symmetry_group_IT_number 52
_symmetry_cell_setting 'orthorhombic'
loop_
_space_group_symop_operation_xyz
x,y,z
1/2-x,-y,z
x,1/2-y,1/2-z
1/2-x,1/2+y,1/2-z
-x,-y,-z
1/2+x,y,-z
-x,1/2+y,1/2+z
1/2+x,1/2-y,1/2+z
loop_
_atom_site_type_symbol
_atom_site_label
_atom_site_fract_x
_atom_site_fract_y
_atom_site_fract_z
Si Si1 0.054115 0.137525 0.322739
Si Si2 0.250000 0.500000 0.007616
Si Si3 0.410675 0.995421 0.085514
Si Si4 0.750000 0.000000 0.081629
Si Si5 0.541851 0.132812 0.394751
Si Si6 0.133531 0.773903 0.117800
Si Si7 0.879443 0.441353 0.210519
Si Si8 0.689781 0.289473 0.969473
O O1 0.088013 0.065084 0.214328
O O2 0.936524 0.953079 0.294254
O O3 0.111189 0.233999 0.369810
O O4 0.950233 0.146889 0.286132
O O5 0.176782 0.547586 0.915409
O O6 0.285364 0.596421 0.078313
O O7 0.393561 0.111627 0.113346
O O8 0.500000 0.000000 0.000000
O O9 0.326528 0.953125 0.006004
O O10 0.810493 0.063820 0.176768
O O11 0.452922 0.200355 0.385023
O O12 0.540660 0.090428 0.536818
O O13 0.632894 0.199748 0.403944
O O14 0.178788 0.750000 0.250000
O O15 0.214804 0.760163 0.022244
#
# Coordination Sequence:
#
# PCOD9408643 Si02
#       8
#     8   4   8   4   8   8   8   8
#     4  10  21  42  74 102 140 192 253 307 363 460
#     4   9  18  31  72  96 143 174 245 290 384 433
#     4  12  28  49  73 105 151 207 258 304 397 478
#     4  11  26  43  72  98 155 200 249 302 372 493
#     4   9  22  43  74 105 148 183 247 325 379 437
#     4  12  27  45  72 111 150 190 250 334 388 448
#     4  10  18  39  68 108 135 190 241 308 368 454
#     4   9  23  39  66 106 139 185 241 312 370 444
#
# _framework density 26.129909000000001
#
# number of rings (size 3 to 8) (size 9 to 14) (size 15 to 20)
#    0.857    0.857    1.429    2.143    6.000    1.143 
#    0.000    0.714    0.000    0.000    0.000    0.000 
#    0.000    0.000    0.000    0.000    0.000    0.000 
#
# Total GULP energy -312157.200570 kJ/mol
# GULP energy per Si atom -5574.235724 kJ/mol
# Density = 2.607044 g / cm^3
# Si number density = 26.129909 Si / 1000 Ang^3
#
#
#
# Elastic Constant Matrix: (Units=GPa)
#
#
# Indices 1 2 3 4 5 6 
#
# 1 187.7613 61.1530 31.4320 0.0000 0.0000 0.0000
# 2 61.1530 125.3654 33.6167 0.0000 0.0000 0.0000
# 3 31.4320 33.6167 109.3688 0.0000 0.0000 0.0000
# 4 0.0000 0.0000 0.0000 14.9854 0.0000 0.0000
# 5 0.0000 0.0000 0.0000 0.0000 44.1928 0.0000
# 6 0.0000 0.0000 0.0000 0.0000 0.0000 10.2021
#
#
#
# Elastic Compliance Matrix: (Units=1/GPa)
#
#
# Indices 1 2 3 4 5 6 
#
# 1 0.006423 -0.002875 -0.000962 0.000000 0.000000 0.000000
# 2 -0.002875 0.009980 -0.002241 0.000000 0.000000 0.000000
# 3 -0.000962 -0.002241 0.010109 0.000000 0.000000 0.000000
# 4 0.000000 0.000000 0.000000 0.066732 0.000000 0.000000
# 5 0.000000 0.000000 0.000000 0.000000 0.022628 0.000000
# 6 0.000000 0.000000 0.000000 0.000000 0.000000 0.098019
#
#
# Mechanical properties :
#
#
# Convention : Reuss Voigt Hill
#
# Bulk Modulus (GPa) = 69.66313 74.98875 72.32594
# Shear Modulus (GPa) = 21.66057 33.62898 27.64478
#
# Velocity S-wave (km/s) = 2.88228 3.59136 3.25618
# Velocity P-wave (km/s) = 6.14776 6.77922 6.47120
#
# Compressibility (1/GPa) = 0.01435480
#
# Stress axis : x y z
#
# Youngs Moduli (GPa) = 155.67881 100.19785 98.92343
#
# Poissons Ratio (x) = 0.28810 0.09519
# Poissons Ratio (y) = 0.44763 0.22171
# Poissons Ratio (z) = 0.14981 0.22457
#
# Static dielectric constant tensor:
#      x y z
#    x 2.181370 0.000000 0.000000 
#    y 0.000000 2.314290 0.000000 
#    z 0.000000 0.000000 2.105690 
# 
# From -- ./inp_files/19674.got.cif
#   From: 2010.05.17/outbox.cif.g08.bks.cpg/sg52_10_cif.got.tgz:19674.got - 2010.06.03 12:15:38.
