data_PCOD9408706
_publ_section_title
;
Structure prediction by ZEFSAII (Michael W. Deem and Ramdas Pophale) SiO2 
 PCOD9408706
Probable space group: P N N A
;
_chemical_formula_sum "Si O2"
_cell_formula_units_Z 40
_cell_length_a 8.653439
_cell_length_b 9.718156
_cell_length_c 21.536677
_cell_angle_alpha 90.000000
_cell_angle_beta 90.000000
_cell_angle_gamma 90.000000
_cell_volume 1811.136978
_symmetry_space_group_name_H-M "P N N A"
_symmetry_group_IT_number 52
_symmetry_cell_setting 'orthorhombic'
loop_
_space_group_symop_operation_xyz
x,y,z
1/2-x,-y,z
x,1/2-y,1/2-z
1/2-x,1/2+y,1/2-z
-x,-y,-z
1/2+x,y,-z
-x,1/2+y,1/2+z
1/2+x,1/2-y,1/2+z
loop_
_atom_site_type_symbol
_atom_site_label
_atom_site_fract_x
_atom_site_fract_y
_atom_site_fract_z
Si Si1 0.904151 0.591177 0.231070
Si Si2 0.552228 0.620590 0.452953
Si Si3 0.426246 0.451502 0.353492
Si Si4 0.015827 0.857188 0.403774
Si Si5 0.206682 0.184721 0.490753
O O1 0.750000 0.500000 0.235675
O O2 0.865760 0.750000 0.250000
O O3 0.033941 0.551838 0.281358
O O4 0.977026 0.576633 0.162286
O O5 0.500000 0.500000 0.500000
O O6 0.545769 0.555191 0.385720
O O7 0.432864 0.747811 0.452615
O O8 0.708574 0.684810 0.477299
O O9 0.250000 0.500000 0.365617
O O10 0.459427 0.303710 0.384983
O O11 0.167214 0.883308 0.445791
O O12 0.875838 0.887435 0.451094
#
# Coordination Sequence:
#
# PCOD9408706 Si02
#       5
#     8   8   8   8   8
#     4  10  25  45  65  89 132 178 226 268 318 394
#     4  11  17  26  51  88 128 156 204 270 331 378
#     4  11  20  34  57  90 128 169 207 275 338 377
#     4  10  21  37  57  90 131 162 216 267 327 390
#     4  10  19  30  55  91 124 163 201 266 335 381
#
# _framework density 22.085574999999999
#
# number of rings (size 3 to 8) (size 9 to 14) (size 15 to 20)
#    0.000    1.600    6.000    0.600    5.600    0.000 
#    0.000    8.000    0.000    0.000    0.000    0.000 
#    0.000    0.000    0.000    0.000    0.000    0.000 
#
# Total GULP energy -223358.828363 kJ/mol
# GULP energy per Si atom -5583.970709 kJ/mol
# Density = 2.203531 g / cm^3
# Si number density = 22.085575 Si / 1000 Ang^3
#
#
#
# Elastic Constant Matrix: (Units=GPa)
#
#
# Indices 1 2 3 4 5 6 
#
# 1 84.3328 26.6029 39.9402 0.0000 0.0000 0.0000
# 2 26.6029 42.4741 32.1731 0.0000 0.0000 0.0000
# 3 39.9402 32.1731 174.7639 0.0000 0.0000 0.0000
# 4 0.0000 0.0000 0.0000 25.3269 0.0000 0.0000
# 5 0.0000 0.0000 0.0000 0.0000 26.9225 0.0000
# 6 0.0000 0.0000 0.0000 0.0000 0.0000 30.7025
#
#
#
# Elastic Compliance Matrix: (Units=1/GPa)
#
#
# Indices 1 2 3 4 5 6 
#
# 1 0.015369 -0.008094 -0.002022 0.000000 0.000000 0.000000
# 2 -0.008094 0.031622 -0.003972 0.000000 0.000000 0.000000
# 3 -0.002022 -0.003972 0.006915 0.000000 0.000000 0.000000
# 4 0.000000 0.000000 0.000000 0.039484 0.000000 0.000000
# 5 0.000000 0.000000 0.000000 0.000000 0.037144 0.000000
# 6 0.000000 0.000000 0.000000 0.000000 0.000000 0.032571
#
#
# Mechanical properties :
#
#
# Convention : Reuss Voigt Hill
#
# Bulk Modulus (GPa) = 38.86531 55.44479 47.15505
# Shear Modulus (GPa) = 25.01796 30.11404 27.56600
#
# Velocity S-wave (km/s) = 3.36932 3.69659 3.53674
# Velocity P-wave (km/s) = 5.72470 6.58625 6.17053
#
# Compressibility (1/GPa) = 0.02572989
#
# Stress axis : x y z
#
# Youngs Moduli (GPa) = 65.06671 31.62384 144.60664
#
# Poissons Ratio (x) = 0.25597 0.29243
# Poissons Ratio (y) = 0.52666 0.57431
# Poissons Ratio (z) = 0.13158 0.12560
#
# Static dielectric constant tensor:
#      x y z
#    x 1.796460 0.000000 0.000000 
#    y 0.000000 1.921390 0.000000 
#    z 0.000000 0.000000 1.796740 
# 
# From -- ./inp_files/30879.got.cif
#   From: 2010.05.17/outbox.cif.g08.bks.cpg/sg52_16_cif.got.tgz:30879.got - 2010.06.03 12:15:38.
