data_PCOD9408336
_publ_section_title
;
Structure prediction by ZEFSAII (Michael W. Deem and Ramdas Pophale) SiO2 
 PCOD9408336
Probable space group: P N N A
;
_chemical_formula_sum "Si O2"
_cell_formula_units_Z 40
_cell_length_a 7.927237
_cell_length_b 8.317675
_cell_length_c 27.682766
_cell_angle_alpha 90.000000
_cell_angle_beta 90.000000
_cell_angle_gamma 90.000000
_cell_volume 1825.295870
_symmetry_space_group_name_H-M "P N N A"
_symmetry_group_IT_number 52
_symmetry_cell_setting 'orthorhombic'
loop_
_space_group_symop_operation_xyz
x,y,z
1/2-x,-y,z
x,1/2-y,1/2-z
1/2-x,1/2+y,1/2-z
-x,-y,-z
1/2+x,y,-z
-x,1/2+y,1/2+z
1/2+x,1/2-y,1/2+z
loop_
_atom_site_type_symbol
_atom_site_label
_atom_site_fract_x
_atom_site_fract_y
_atom_site_fract_z
Si Si1 0.989937 0.885709 0.653894
Si Si2 0.494976 0.750000 0.250000
Si Si3 0.587615 0.202208 0.944535
Si Si4 0.250000 0.000000 0.791607
Si Si5 0.377430 0.717665 0.851871
Si Si6 0.488439 0.163757 0.050568
O O1 0.904861 0.794484 0.699450
O O2 0.187762 0.841562 0.656518
O O3 0.944148 0.819872 0.600657
O O4 0.988248 0.078114 0.660390
O O5 0.620893 0.897259 0.239584
O O6 0.788423 0.180464 0.943772
O O7 0.489188 0.029689 0.941965
O O8 0.540151 0.242866 0.999692
O O9 0.128311 0.115729 0.822919
O O10 0.407949 0.752403 0.907673
#
# Coordination Sequence:
#
# PCOD9408336 Si02
#       6
#     8   4   8   4   8   8
#     4  10  21  35  54  83 113 147 188 230 273 325
#     4  10  18  32  56  80 112 144 184 232 272 322
#     4  10  21  36  57  84 112 145 186 225 279 338
#     4  10  18  32  56  86 112 144 186 232 280 332
#     4  10  20  34  56  82 113 145 183 228 278 331
#     4  10  20  36  59  83 112 147 180 227 280 336
#
# _framework density 21.914254
#
# number of rings (size 3 to 8) (size 9 to 14) (size 15 to 20)
#    0.000    2.000    0.000    6.000    0.000    4.800 
#    0.000    0.000    0.000   14.400    0.000    0.000 
#    0.000    0.000    0.000    0.000    0.000    0.000 
#
# Total GULP energy -222920.370425 kJ/mol
# GULP energy per Si atom -5573.009261 kJ/mol
# Density = 2.186438 g / cm^3
# Si number density = 21.914254 Si / 1000 Ang^3
#
#
#
# Elastic Constant Matrix: (Units=GPa)
#
#
# Indices 1 2 3 4 5 6 
#
# 1 18.0020 12.1124 23.4702 0.0000 0.0000 0.0000
# 2 12.1124 93.4679 67.9851 0.0000 0.0000 0.0000
# 3 23.4702 67.9851 181.0057 0.0000 0.0000 0.0000
# 4 0.0000 0.0000 0.0000 18.7004 0.0000 0.0000
# 5 0.0000 0.0000 0.0000 0.0000 5.6857 0.0000
# 6 0.0000 0.0000 0.0000 0.0000 0.0000 14.0413
#
#
#
# Elastic Compliance Matrix: (Units=1/GPa)
#
#
# Indices 1 2 3 4 5 6 
#
# 1 0.067574 -0.003280 -0.007530 0.000000 0.000000 0.000000
# 2 -0.003280 0.014880 -0.005163 0.000000 0.000000 0.000000
# 3 -0.007530 -0.005163 0.008440 0.000000 0.000000 0.000000
# 4 0.000000 0.000000 0.000000 0.053475 0.000000 0.000000
# 5 0.000000 0.000000 0.000000 0.000000 0.175879 0.000000
# 6 0.000000 0.000000 0.000000 0.000000 0.000000 0.071219
#
#
# Mechanical properties :
#
#
# Convention : Reuss Voigt Hill
#
# Bulk Modulus (GPa) = 16.96435 55.51234 36.23834
# Shear Modulus (GPa) = 11.28510 20.27934 15.78222
#
# Velocity S-wave (km/s) = 2.27175 3.04533 2.68653
# Velocity P-wave (km/s) = 3.82612 6.14426 5.11816
#
# Compressibility (1/GPa) = 0.05894715
#
# Stress axis : x y z
#
# Youngs Moduli (GPa) = 14.79867 67.20619 118.47692
#
# Poissons Ratio (x) = 0.22041 0.89215
# Poissons Ratio (y) = 0.04853 0.61175
# Poissons Ratio (z) = 0.11144 0.34702
#
# Static dielectric constant tensor:
#      x y z
#    x 1.773770 0.000000 0.000000 
#    y 0.000000 1.935090 0.000000 
#    z 0.000000 0.000000 1.838560 
# 
# From -- ./inp_files/39261.got.cif
#   From: 2010.05.17/outbox.cif.g08.bks.cpg/sg52_20_cif.got.tgz:39261.got - 2010.06.03 12:15:38.
