data_PCOD9408885
_publ_section_title
;
Structure prediction by ZEFSAII (Michael W. Deem and Ramdas Pophale) SiO2 
 PCOD9408885
Probable space group: P N N A
;
_chemical_formula_sum "Si O2"
_cell_formula_units_Z 60
_cell_length_a 17.645374
_cell_length_b 29.452743
_cell_length_c 6.556223
_cell_angle_alpha 90.000000
_cell_angle_beta 90.000000
_cell_angle_gamma 90.000000
_cell_volume 3407.299682
_symmetry_space_group_name_H-M "P N N A"
_symmetry_group_IT_number 52
_symmetry_cell_setting 'orthorhombic'
loop_
_space_group_symop_operation_xyz
x,y,z
1/2-x,-y,z
x,1/2-y,1/2-z
1/2-x,1/2+y,1/2-z
-x,-y,-z
1/2+x,y,-z
-x,1/2+y,1/2+z
1/2+x,1/2-y,1/2+z
loop_
_atom_site_type_symbol
_atom_site_label
_atom_site_fract_x
_atom_site_fract_y
_atom_site_fract_z
Si Si1 0.703608 0.250000 0.750000
Si Si2 0.185922 0.624638 0.135766
Si Si3 0.606073 0.416467 0.379089
Si Si4 0.051471 0.033638 0.270091
Si Si5 0.293672 0.207401 0.634373
Si Si6 0.296517 0.546515 0.966131
Si Si7 0.294412 0.665940 0.479586
Si Si8 0.032844 0.929497 0.371985
O O1 0.751382 0.230327 0.559006
O O2 0.665584 0.293813 0.649321
O O3 0.226235 0.646482 0.335856
O O4 0.109583 0.596713 0.174613
O O5 0.166737 0.664524 0.973128
O O6 0.246106 0.589048 0.039554
O O7 0.567106 0.446687 0.550360
O O8 0.670661 0.443880 0.257913
O O9 0.646681 0.373413 0.475378
O O10 0.539778 0.404075 0.220681
O O11 0.129449 0.041291 0.393787
O O12 0.985007 0.060261 0.390234
O O13 0.035145 0.980235 0.278710
O O14 0.333614 0.250000 0.750000
O O15 0.238780 0.185745 0.807895
O O16 0.250000 0.500000 0.974891
#
# Coordination Sequence:
#
# PCOD9408885 Si02
#       8
#     4   8   8   8   8   8   8   8
#     4   8  18  32  56  88 112 142 174 244 302 346
#     4  11  20  35  57  87 110 152 196 242 290 342
#     4  11  22  36  55  84 113 154 193 241 285 348
#     4  10  21  40  52  75 120 160 190 236 286 343
#     4   9  18  35  57  91 111 138 187 244 295 347
#     4  11  21  34  55  81 117 151 197 244 283 331
#     4  10  19  33  59  88 111 140 195 242 288 346
#     4  10  23  36  55  79 117 160 194 231 291 348
#
# _framework density 17.609254
#
# number of rings (size 3 to 8) (size 9 to 14) (size 15 to 20)
#    0.000    1.867    4.000    0.400    0.000    2.667 
#    0.000    0.000    0.000    0.000   74.533    0.000 
#    0.000    0.000    0.000    0.000    0.000    0.000 
#
# Total GULP energy -334156.672374 kJ/mol
# GULP energy per Si atom -5569.277873 kJ/mol
# Density = 1.756917 g / cm^3
# Si number density = 17.609254 Si / 1000 Ang^3
#
#
#
# Elastic Constant Matrix: (Units=GPa)
#
#
# Indices 1 2 3 4 5 6 
#
# 1 59.7537 21.3442 18.3171 0.0000 0.0000 0.0000
# 2 21.3442 70.2768 36.3842 0.0000 0.0000 0.0000
# 3 18.3171 36.3842 100.7020 0.0000 0.0000 0.0000
# 4 0.0000 0.0000 0.0000 27.4449 0.0000 0.0000
# 5 0.0000 0.0000 0.0000 0.0000 15.8907 0.0000
# 6 0.0000 0.0000 0.0000 0.0000 0.0000 -11.6776
#
#
#
# Elastic Compliance Matrix: (Units=1/GPa)
#
#
# Indices 1 2 3 4 5 6 
#
# 1 0.019002 -0.004898 -0.001687 0.000000 0.000000 0.000000
# 2 -0.004898 0.018766 -0.005889 0.000000 0.000000 0.000000
# 3 -0.001687 -0.005889 0.012365 0.000000 0.000000 0.000000
# 4 0.000000 0.000000 0.000000 0.036437 0.000000 0.000000
# 5 0.000000 0.000000 0.000000 0.000000 0.062930 0.000000
# 6 0.000000 0.000000 0.000000 0.000000 0.000000 -0.085634
#
#
# Mechanical properties :
#
#
# Convention : Reuss Voigt Hill
#
# Bulk Modulus (GPa) = 39.70623 42.53596 41.12110
# Shear Modulus (GPa) = 51.43573 16.64406 34.03989
#
# Velocity S-wave (km/s) = 5.41044 3.07773 4.40144
# Velocity P-wave (km/s) = 7.85035 6.06941 7.01661
#
# Compressibility (1/GPa) = 0.02518496
#
# Stress axis : x y z
#
# Youngs Moduli (GPa) = 52.62613 53.28739 80.87365
#
# Poissons Ratio (x) = 0.26100 0.13641
# Poissons Ratio (y) = 0.25776 0.47630
# Poissons Ratio (z) = 0.08876 0.31383
#
# Static dielectric constant tensor:
#      x y z
#    x 1.557800 0.000000 0.000000 
#    y 0.000000 1.623370 0.000000 
#    z 0.000000 0.000000 1.645380 
# 
# From -- ./inp_files/3620.got.cif
#   From: 2010.05.17/outbox.cif.g08.bks.cpg/sg52_2_cif.got.tgz:3620.got - 2010.06.03 12:15:38.
