data_PCOD9408946
_publ_section_title
;
Structure prediction by ZEFSAII (Michael W. Deem and Ramdas Pophale) SiO2 
 PCOD9408946
Probable space group: P N N A
;
_chemical_formula_sum "Si O2"
_cell_formula_units_Z 64
_cell_length_a 19.464216
_cell_length_b 9.359888
_cell_length_c 18.834551
_cell_angle_alpha 90.000000
_cell_angle_beta 90.000000
_cell_angle_gamma 90.000000
_cell_volume 3431.332778
_symmetry_space_group_name_H-M "P N N A"
_symmetry_group_IT_number 52
_symmetry_cell_setting 'orthorhombic'
loop_
_space_group_symop_operation_xyz
x,y,z
1/2-x,-y,z
x,1/2-y,1/2-z
1/2-x,1/2+y,1/2-z
-x,-y,-z
1/2+x,y,-z
-x,1/2+y,1/2+z
1/2+x,1/2-y,1/2+z
loop_
_atom_site_type_symbol
_atom_site_label
_atom_site_fract_x
_atom_site_fract_y
_atom_site_fract_z
Si Si1 0.596124 0.472612 0.493666
Si Si2 0.696372 0.318081 0.576144
Si Si3 0.049844 0.639249 0.196604
Si Si4 0.899581 0.888180 0.795139
Si Si5 0.040496 0.988427 0.574776
Si Si6 0.855396 0.232800 0.916760
Si Si7 0.015334 0.658818 0.594016
Si Si8 0.328195 0.973566 0.497221
O O1 0.669167 0.397786 0.505303
O O2 0.600731 0.616103 0.541230
O O3 0.539691 0.368611 0.529606
O O4 0.571226 0.534619 0.419120
O O5 0.656414 0.390807 0.641664
O O6 0.777127 0.319827 0.588496
O O7 0.674026 0.153983 0.560818
O O8 0.013420 0.750000 0.250000
O O9 0.088746 0.518031 0.241841
O O10 0.107361 0.731662 0.155974
O O11 0.000755 0.568602 0.137238
O O12 0.881299 0.750000 0.750000
O O13 0.971621 0.864297 0.835424
O O14 0.115799 0.052170 0.558277
O O15 0.043237 0.819288 0.592108
O O16 0.000000 0.000000 0.500000
O O17 0.851871 0.380923 0.959504
O O18 0.250000 0.000000 0.522061
#
# Coordination Sequence:
#
# PCOD9408946 Si02
#       8
#     8   8   8   8   8   8   8   8
#     4  10  19  34  58  84 110 148 205 256 299 349
#     4  10  22  36  57  82 124 163 199 244 300 370
#     4  12  25  37  59  90 124 157 217 254 296 373
#     4  11  21  37  54  78 119 162 202 244 296 371
#     4  12  20  38  66  87 119 161 202 262 315 357
#     4  11  21  39  55  85 123 163 204 247 294 364
#     4  10  20  34  57  83 110 151 198 253 306 350
#     4  10  21  37  62  94 119 154 208 256 310 373
#
# _framework density 18.651644999999998
#
# number of rings (size 3 to 8) (size 9 to 14) (size 15 to 20)
#    0.000    1.250    3.750    4.125    0.000    3.500 
#    0.000    2.500    0.000    0.000    3.250    0.000 
#    0.000    0.000    0.000    0.000    0.000    0.000 
#
# Total GULP energy -357175.067043 kJ/mol
# GULP energy per Si atom -5580.860423 kJ/mol
# Density = 1.860919 g / cm^3
# Si number density = 18.651645 Si / 1000 Ang^3
#
#
#
# Elastic Constant Matrix: (Units=GPa)
#
#
# Indices 1 2 3 4 5 6 
#
# 1 95.7495 17.4168 46.2604 0.0000 0.0000 0.0000
# 2 17.4168 66.5133 16.4111 0.0000 0.0000 0.0000
# 3 46.2604 16.4111 50.1151 0.0000 0.0000 0.0000
# 4 0.0000 0.0000 0.0000 36.8941 0.0000 0.0000
# 5 0.0000 0.0000 0.0000 0.0000 18.4862 0.0000
# 6 0.0000 0.0000 0.0000 0.0000 0.0000 31.5304
#
#
#
# Elastic Compliance Matrix: (Units=1/GPa)
#
#
# Indices 1 2 3 4 5 6 
#
# 1 0.018881 -0.000700 -0.017199 0.000000 0.000000 0.000000
# 2 -0.000700 0.016382 -0.004718 0.000000 0.000000 0.000000
# 3 -0.017199 -0.004718 0.037376 0.000000 0.000000 0.000000
# 4 0.000000 0.000000 0.000000 0.027105 0.000000 0.000000
# 5 0.000000 0.000000 0.000000 0.000000 0.054094 0.000000
# 6 0.000000 0.000000 0.000000 0.000000 0.000000 0.031715
#
#
# Mechanical properties :
#
#
# Convention : Reuss Voigt Hill
#
# Bulk Modulus (GPa) = 36.49248 41.39495 38.94372
# Shear Modulus (GPa) = 20.84001 26.20146 23.52073
#
# Velocity S-wave (km/s) = 3.34627 3.75211 3.55498
# Velocity P-wave (km/s) = 5.87689 6.40414 6.14617
#
# Compressibility (1/GPa) = 0.02740291
#
# Stress axis : x y z
#
# Youngs Moduli (GPa) = 52.96318 61.04225 26.75545
#
# Poissons Ratio (x) = 0.04275 0.46018
# Poissons Ratio (y) = 0.03710 0.12623
# Poissons Ratio (z) = 0.91094 0.28800
#
# Static dielectric constant tensor:
#      x y z
#    x 1.687420 0.000000 0.000000 
#    y 0.000000 1.703500 0.000000 
#    z 0.000000 0.000000 1.644940 
# 
# From -- ./inp_files/38031.got.cif
#   From: 2010.05.17/outbox.cif.g08.bks.cpg/sg52_20_cif.got.tgz:38031.got - 2010.06.03 12:15:38.
