data_PCOD9408495
_publ_section_title
;
Structure prediction by ZEFSAII (Michael W. Deem and Ramdas Pophale) SiO2 
 PCOD9408495
Probable space group: P N N A
;
_chemical_formula_sum "Si O2"
_cell_formula_units_Z 48
_cell_length_a 8.509212
_cell_length_b 12.781262
_cell_length_c 22.603699
_cell_angle_alpha 90.000000
_cell_angle_beta 90.000000
_cell_angle_gamma 90.000000
_cell_volume 2458.343674
_symmetry_space_group_name_H-M "P N N A"
_symmetry_group_IT_number 52
_symmetry_cell_setting 'orthorhombic'
loop_
_space_group_symop_operation_xyz
x,y,z
1/2-x,-y,z
x,1/2-y,1/2-z
1/2-x,1/2+y,1/2-z
-x,-y,-z
1/2+x,y,-z
-x,1/2+y,1/2+z
1/2+x,1/2-y,1/2+z
loop_
_atom_site_type_symbol
_atom_site_label
_atom_site_fract_x
_atom_site_fract_y
_atom_site_fract_z
Si Si1 0.832539 0.114626 0.545858
Si Si2 0.799164 0.619619 0.078855
Si Si3 0.476523 0.250000 0.250000
Si Si4 0.628812 0.813362 0.309225
Si Si5 0.585657 0.480606 0.262594
Si Si6 0.222878 0.202395 0.335172
Si Si7 0.250000 0.500000 0.249762
O O1 0.797956 0.152442 0.479567
O O2 0.752397 0.182162 0.596657
O O3 0.016902 0.114819 0.562021
O O4 0.750000 0.000000 0.549377
O O5 0.750000 0.500000 0.091048
O O6 0.747287 0.687760 0.135436
O O7 0.568438 0.359832 0.242588
O O8 0.359893 0.270772 0.305681
O O9 0.666776 0.750000 0.250000
O O10 0.457570 0.768156 0.326650
O O11 0.603356 0.935040 0.290516
O O12 0.750000 0.500000 0.296821
O O13 0.411579 0.505975 0.286315
O O14 0.248547 0.097217 0.295875
#
# Coordination Sequence:
#
# PCOD9408495 Si02
#       7
#     8   8   4   8   8   8   4
#     4  11  21  36  58  82 117 162 204 254 313 384
#     4  11  23  36  56  84 118 161 207 255 313 379
#     4  10  22  36  56  86 118 162 208 250 320 366
#     4  11  23  38  57  88 122 166 206 255 313 378
#     4  10  22  35  55  77 115 158 201 252 300 368
#     4  10  18  35  55  81 116 158 197 250 307 374
#     4   8  18  32  52  72 110 148 194 238 302 360
#
# _framework density 19.525341000000001
#
# number of rings (size 3 to 8) (size 9 to 14) (size 15 to 20)
#    0.000    1.667    1.667    4.500   10.500    0.000 
#    0.000    0.000    0.000    0.000    0.000    1.167 
#    0.000    0.000    0.000    0.000    0.000    0.000 
#
# Total GULP energy -267499.272136 kJ/mol
# GULP energy per Si atom -5572.901503 kJ/mol
# Density = 1.948090 g / cm^3
# Si number density = 19.525341 Si / 1000 Ang^3
#
#
#
# Elastic Constant Matrix: (Units=GPa)
#
#
# Indices 1 2 3 4 5 6 
#
# 1 193.0445 33.7089 54.6282 0.0000 0.0000 0.0000
# 2 33.7089 64.7963 38.8345 0.0000 0.0000 0.0000
# 3 54.6282 38.8345 142.7782 0.0000 0.0000 0.0000
# 4 0.0000 0.0000 0.0000 27.8089 0.0000 0.0000
# 5 0.0000 0.0000 0.0000 0.0000 115.3999 0.0000
# 6 0.0000 0.0000 0.0000 0.0000 0.0000 18.4128
#
#
#
# Elastic Compliance Matrix: (Units=1/GPa)
#
#
# Indices 1 2 3 4 5 6 
#
# 1 0.006039 -0.002099 -0.001740 0.000000 0.000000 0.000000
# 2 -0.002099 0.019168 -0.004411 0.000000 0.000000 0.000000
# 3 -0.001740 -0.004411 0.008869 0.000000 0.000000 0.000000
# 4 0.000000 0.000000 0.000000 0.035960 0.000000 0.000000
# 5 0.000000 0.000000 0.000000 0.000000 0.008666 0.000000
# 6 0.000000 0.000000 0.000000 0.000000 0.000000 0.054310
#
#
# Mechanical properties :
#
#
# Convention : Reuss Voigt Hill
#
# Bulk Modulus (GPa) = 56.88928 72.77360 64.83144
# Shear Modulus (GPa) = 32.18137 50.55414 41.36775
#
# Velocity S-wave (km/s) = 4.06419 5.09389 4.60789
# Velocity P-wave (km/s) = 7.15702 8.48229 7.84768
#
# Compressibility (1/GPa) = 0.01757800
#
# Stress axis : x y z
#
# Youngs Moduli (GPa) = 165.59116 52.16940 112.75094
#
# Poissons Ratio (x) = 0.10950 0.19615
# Poissons Ratio (y) = 0.34758 0.49729
# Poissons Ratio (z) = 0.28807 0.23009
#
# Static dielectric constant tensor:
#      x y z
#    x 1.881870 0.000000 0.000000 
#    y 0.000000 1.761550 0.000000 
#    z 0.000000 0.000000 1.676290 
# 
# From -- ./inp_files/35911.got.cif
#   From: 2010.05.17/outbox.cif.g08.bks.cpg/sg52_18_cif.got.tgz:35911.got - 2010.06.03 12:15:38.
