data_PCOD9408367
_publ_section_title
;
Structure prediction by ZEFSAII (Michael W. Deem and Ramdas Pophale) SiO2 
 PCOD9408367
Probable space group: P N N A
;
_chemical_formula_sum "Si O2"
_cell_formula_units_Z 40
_cell_length_a 16.945354
_cell_length_b 8.374640
_cell_length_c 11.911026
_cell_angle_alpha 90.000000
_cell_angle_beta 90.000000
_cell_angle_gamma 90.000000
_cell_volume 1690.308462
_symmetry_space_group_name_H-M "P N N A"
_symmetry_group_IT_number 52
_symmetry_cell_setting 'orthorhombic'
loop_
_space_group_symop_operation_xyz
x,y,z
1/2-x,-y,z
x,1/2-y,1/2-z
1/2-x,1/2+y,1/2-z
-x,-y,-z
1/2+x,y,-z
-x,1/2+y,1/2+z
1/2+x,1/2-y,1/2+z
loop_
_atom_site_type_symbol
_atom_site_label
_atom_site_fract_x
_atom_site_fract_y
_atom_site_fract_z
Si Si1 0.666294 0.945854 0.911309
Si Si2 0.131361 0.046140 0.856163
Si Si3 0.934633 0.347210 0.935983
Si Si4 0.482665 0.848830 0.135784
Si Si5 0.894594 0.913115 0.383605
O O1 0.626155 0.776988 0.881793
O O2 0.750000 0.000000 0.864100
O O3 0.672387 0.942631 0.047987
O O4 0.604161 0.084947 0.883394
O O5 0.146405 0.008166 0.725514
O O6 0.138736 0.233424 0.882452
O O7 0.039504 0.001432 0.868740
O O8 0.888864 0.490255 0.000183
O O9 0.981690 0.259921 0.037439
O O10 0.009676 0.402304 0.862583
O O11 0.488636 0.750000 0.250000
#
# Coordination Sequence:
#
# PCOD9408367 Si02
#       5
#     8   8   8   8   8
#     4  11  23  40  55  82 125 169 192 239 317 397
#     4  10  19  35  60  89 115 146 203 250 306 354
#     4  10  19  35  62  86 114 147 201 252 306 346
#     4  11  19  37  60  82 105 155 205 254 292 360
#     4  10  18  32  61  95 110 138 202 267 296 343
#
# _framework density 23.664318999999999
#
# number of rings (size 3 to 8) (size 9 to 14) (size 15 to 20)
#    0.000    1.600    6.000    1.200    0.000    0.000 
#    0.000    7.000    0.000    0.000    0.000    0.000 
#    0.000    0.000    0.000    0.000    0.000    0.000 
#
# Total GULP energy -223316.383726 kJ/mol
# GULP energy per Si atom -5582.909593 kJ/mol
# Density = 2.361046 g / cm^3
# Si number density = 23.664319 Si / 1000 Ang^3
#
#
#
# Elastic Constant Matrix: (Units=GPa)
#
#
# Indices 1 2 3 4 5 6 
#
# 1 97.9275 11.0733 -8.7494 0.0000 0.0000 0.0000
# 2 11.0733 82.0145 14.1968 0.0000 0.0000 0.0000
# 3 -8.7494 14.1968 74.0319 0.0000 0.0000 0.0000
# 4 0.0000 0.0000 0.0000 25.4543 0.0000 0.0000
# 5 0.0000 0.0000 0.0000 0.0000 2.5420 0.0000
# 6 0.0000 0.0000 0.0000 0.0000 0.0000 14.4779
#
#
#
# Elastic Compliance Matrix: (Units=1/GPa)
#
#
# Indices 1 2 3 4 5 6 
#
# 1 0.010544 -0.001696 0.001571 0.000000 0.000000 0.000000
# 2 -0.001696 0.012884 -0.002671 0.000000 0.000000 0.000000
# 3 0.001571 -0.002671 0.014206 0.000000 0.000000 0.000000
# 4 0.000000 0.000000 0.000000 0.039286 0.000000 0.000000
# 5 0.000000 0.000000 0.000000 0.000000 0.393386 0.000000
# 6 0.000000 0.000000 0.000000 0.000000 0.000000 0.069071
#
#
# Mechanical properties :
#
#
# Convention : Reuss Voigt Hill
#
# Bulk Modulus (GPa) = 31.20831 31.89057 31.54944
# Shear Modulus (GPa) = 8.99850 24.32505 16.66178
#
# Velocity S-wave (km/s) = 1.95213 3.20960 2.65635
# Velocity P-wave (km/s) = 4.27757 5.21928 4.77171
#
# Compressibility (1/GPa) = 0.03204274
#
# Stress axis : x y z
#
# Youngs Moduli (GPa) = 94.84288 77.61394 70.39459
#
# Poissons Ratio (x) = 0.13160 -0.11061
# Poissons Ratio (y) = 0.16081 0.18804
# Poissons Ratio (z) = -0.14902 0.20732
#
# Static dielectric constant tensor:
#      x y z
#    x 1.891130 0.000000 0.000000 
#    y 0.000000 1.932240 0.000000 
#    z 0.000000 0.000000 2.008500 
# 
# From -- ./inp_files/27888.got.cif
#   From: 2010.05.17/outbox.cif.g08.bks.cpg/sg52_14_cif.got.tgz:27888.got - 2010.06.03 12:15:38.
