data_PCOD9408424
_publ_section_title
;
Structure prediction by ZEFSAII (Michael W. Deem and Ramdas Pophale) SiO2 
 PCOD9408424
Probable space group: P N N A
;
_chemical_formula_sum "Si O2"
_cell_formula_units_Z 56
_cell_length_a 12.279419
_cell_length_b 13.773782
_cell_length_c 13.251114
_cell_angle_alpha 90.000000
_cell_angle_beta 90.000000
_cell_angle_gamma 90.000000
_cell_volume 2241.214451
_symmetry_space_group_name_H-M "P N N A"
_symmetry_group_IT_number 52
_symmetry_cell_setting 'orthorhombic'
loop_
_space_group_symop_operation_xyz
x,y,z
1/2-x,-y,z
x,1/2-y,1/2-z
1/2-x,1/2+y,1/2-z
-x,-y,-z
1/2+x,y,-z
-x,1/2+y,1/2+z
1/2+x,1/2-y,1/2+z
loop_
_atom_site_type_symbol
_atom_site_label
_atom_site_fract_x
_atom_site_fract_y
_atom_site_fract_z
Si Si1 0.577960 0.583121 0.936822
Si Si2 0.534709 0.888683 0.143042
Si Si3 0.986151 0.675736 0.874367
Si Si4 0.111750 0.935492 0.139519
Si Si5 0.916615 0.860648 0.260889
Si Si6 0.750000 0.000000 0.668771
Si Si7 0.238508 0.746902 0.371742
Si Si8 0.250000 0.500000 0.680956
O O1 0.480011 0.608438 0.861066
O O2 0.650152 0.488593 0.909752
O O3 0.666408 0.668339 0.918027
O O4 0.535735 0.598453 0.048549
O O5 0.547204 0.779012 0.105060
O O6 0.505571 0.868195 0.261929
O O7 0.647505 0.947068 0.127577
O O8 0.435122 0.958947 0.104213
O O9 0.863086 0.718945 0.883747
O O10 0.194433 0.857776 0.089396
O O11 0.000679 0.880967 0.168792
O O12 0.173571 0.951781 0.245266
O O13 0.888997 0.750000 0.250000
O O14 0.808421 0.920969 0.249001
O O15 0.220847 0.750000 0.250000
#
# Coordination Sequence:
#
# PCOD9408424 Si02
#       8
#     8   8   8   8   8   4   8   4
#     4  11  23  40  67 104 135 177 220 288 337 411
#     4  10  22  43  62  93 129 185 228 277 335 413
#     4  11  25  41  63  99 145 169 229 286 343 403
#     4  10  18  36  72  97 117 175 249 280 307 412
#     4  10  19  39  68  95 127 174 229 274 328 407
#     4  10  18  33  66  99 132 166 218 276 339 390
#     4  12  19  42  73  97 127 186 234 271 342 400
#     4  10  24  37  68  93 126 180 224 268 343 412
#
# _framework density 24.986453000000001
#
# number of rings (size 3 to 8) (size 9 to 14) (size 15 to 20)
#    0.000    1.429    5.714    1.714    2.000    1.714 
#    0.000   10.714    3.143    0.857    0.000    0.000 
#    0.000    0.000    0.000    0.000    0.000    0.000 
#
# Total GULP energy -312066.676152 kJ/mol
# GULP energy per Si atom -5572.619217 kJ/mol
# Density = 2.492958 g / cm^3
# Si number density = 24.986453 Si / 1000 Ang^3
#
#
#
# Elastic Constant Matrix: (Units=GPa)
#
#
# Indices 1 2 3 4 5 6 
#
# 1 154.6164 52.9806 22.7451 0.0000 0.0000 0.0000
# 2 52.9806 118.9617 0.3198 0.0000 0.0000 0.0000
# 3 22.7451 0.3198 56.0741 0.0000 0.0000 0.0000
# 4 0.0000 0.0000 0.0000 17.8430 0.0000 0.0000
# 5 0.0000 0.0000 0.0000 0.0000 8.0629 0.0000
# 6 0.0000 0.0000 0.0000 0.0000 0.0000 52.6542
#
#
#
# Elastic Compliance Matrix: (Units=1/GPa)
#
#
# Indices 1 2 3 4 5 6 
#
# 1 0.008203 -0.003644 -0.003306 0.000000 0.000000 0.000000
# 2 -0.003644 0.010025 0.001421 0.000000 0.000000 0.000000
# 3 -0.003306 0.001421 0.019167 0.000000 0.000000 0.000000
# 4 0.000000 0.000000 0.000000 0.056044 0.000000 0.000000
# 5 0.000000 0.000000 0.000000 0.000000 0.124026 0.000000
# 6 0.000000 0.000000 0.000000 0.000000 0.000000 0.018992
#
#
# Mechanical properties :
#
#
# Convention : Reuss Voigt Hill
#
# Bulk Modulus (GPa) = 37.97197 53.52704 45.74950
# Shear Modulus (GPa) = 19.50882 32.61913 26.06397
#
# Velocity S-wave (km/s) = 2.79727 3.61705 3.23325
# Velocity P-wave (km/s) = 5.06586 6.23803 5.68225
#
# Compressibility (1/GPa) = 0.02633522
#
# Stress axis : x y z
#
# Youngs Moduli (GPa) = 121.91011 99.74808 52.17402
#
# Poissons Ratio (x) = 0.36351 0.17251
# Poissons Ratio (y) = 0.44427 -0.07414
# Poissons Ratio (z) = 0.40309 -0.14175
#
# Static dielectric constant tensor:
#      x y z
#    x 2.007290 0.000000 0.000000 
#    y 0.000000 2.482610 0.000000 
#    z 0.000000 0.000000 2.000920 
# 
# From -- ./inp_files/26208.got.cif
#   From: 2010.05.17/outbox.cif.g08.bks.cpg/sg52_14_cif.got.tgz:26208.got - 2010.06.03 12:15:38.
