data_PCOD9408483
_publ_section_title
;
Structure prediction by ZEFSAII (Michael W. Deem and Ramdas Pophale) SiO2 
 PCOD9408483
Probable space group: P N N A
;
_chemical_formula_sum "Si O2"
_cell_formula_units_Z 60
_cell_length_a 26.197772
_cell_length_b 11.696537
_cell_length_c 7.602968
_cell_angle_alpha 90.000000
_cell_angle_beta 90.000000
_cell_angle_gamma 90.000000
_cell_volume 2329.725856
_symmetry_space_group_name_H-M "P N N A"
_symmetry_group_IT_number 52
_symmetry_cell_setting 'orthorhombic'
loop_
_space_group_symop_operation_xyz
x,y,z
1/2-x,-y,z
x,1/2-y,1/2-z
1/2-x,1/2+y,1/2-z
-x,-y,-z
1/2+x,y,-z
-x,1/2+y,1/2+z
1/2+x,1/2-y,1/2+z
loop_
_atom_site_type_symbol
_atom_site_label
_atom_site_fract_x
_atom_site_fract_y
_atom_site_fract_z
Si Si1 0.185224 0.848586 0.633594
Si Si2 0.578785 0.195110 0.058977
Si Si3 0.196452 0.002938 0.293669
Si Si4 0.416072 0.064392 0.186259
Si Si5 0.958583 0.588937 0.935120
Si Si6 0.077358 0.773549 0.520588
Si Si7 0.842652 0.750000 0.750000
Si Si8 0.593053 0.525230 0.239115
O O1 0.213536 0.750000 0.750000
O O2 0.139051 0.776420 0.545404
O O3 0.152169 0.937377 0.754756
O O4 0.205163 0.925860 0.471262
O O5 0.590859 0.250000 0.250000
O O6 0.533828 0.278571 0.982956
O O7 0.573013 0.063211 0.116418
O O8 0.622870 0.212550 0.916288
O O9 0.186791 0.138225 0.315676
O O10 0.250000 0.000000 0.190217
O O11 0.144721 0.956274 0.201505
O O12 0.430916 0.148939 0.348212
O O13 0.433277 0.142814 0.025441
O O14 0.444554 0.946752 0.238655
O O15 0.910487 0.547976 0.055659
O O16 0.000000 0.500000 0.000000
O O17 0.063267 0.642472 0.816675
#
# Coordination Sequence:
#
# PCOD9408483 Si02
#       8
#     8   8   8   8   8   8   4   8
#     4   9  18  38  64  92 133 181 233 295 360 419
#     4  10  20  41  68  98 139 190 237 292 362 440
#     4  11  23  40  66 103 141 183 249 298 363 452
#     4   9  15  35  56  88 130 171 226 285 352 419
#     4  10  18  34  63  97 135 182 238 293 358 433
#     4   7  15  29  58  84 120 170 216 277 347 414
#     4  12  24  44  74 102 140 204 234 298 382 444
#     4   8  17  36  56  93 129 177 228 281 358 421
#
# _framework density 25.754103000000001
#
# number of rings (size 3 to 8) (size 9 to 14) (size 15 to 20)
#    0.800    1.867    2.667    0.800    0.000    3.200 
#   14.400    2.000    1.467    4.800    0.000    0.000 
#    0.000    0.000    0.000    0.000    0.000    0.000 
#
# Total GULP energy -334018.470447 kJ/mol
# GULP energy per Si atom -5566.974507 kJ/mol
# Density = 2.569549 g / cm^3
# Si number density = 25.754103 Si / 1000 Ang^3
#
#
#
# Elastic Constant Matrix: (Units=GPa)
#
#
# Indices 1 2 3 4 5 6 
#
# 1 77.3838 40.9506 17.3354 0.0000 0.0000 0.0000
# 2 40.9506 247.2222 71.9767 0.0000 0.0000 0.0000
# 3 17.3354 71.9767 154.8970 0.0000 0.0000 0.0000
# 4 0.0000 0.0000 0.0000 65.7196 0.0000 0.0000
# 5 0.0000 0.0000 0.0000 0.0000 0.4681 0.0000
# 6 0.0000 0.0000 0.0000 0.0000 0.0000 18.3165
#
#
#
# Elastic Compliance Matrix: (Units=1/GPa)
#
#
# Indices 1 2 3 4 5 6 
#
# 1 0.014208 -0.002186 -0.000574 0.000000 0.000000 0.000000
# 2 -0.002186 0.005014 -0.002085 0.000000 0.000000 0.000000
# 3 -0.000574 -0.002085 0.007489 0.000000 0.000000 0.000000
# 4 0.000000 0.000000 0.000000 0.015216 0.000000 0.000000
# 5 0.000000 0.000000 0.000000 0.000000 2.136078 0.000000
# 6 0.000000 0.000000 0.000000 0.000000 0.000000 0.054596
#
#
# Mechanical properties :
#
#
# Convention : Reuss Voigt Hill
#
# Bulk Modulus (GPa) = 58.75458 82.22537 70.48997
# Shear Modulus (GPa) = 2.22423 40.18353 21.20388
#
# Velocity S-wave (km/s) = 0.93033 3.95432 2.87247
# Velocity P-wave (km/s) = 4.90074 7.26947 6.19929
#
# Compressibility (1/GPa) = 0.01701995
#
# Stress axis : x y z
#
# Youngs Moduli (GPa) = 70.38185 199.43329 133.52656
#
# Poissons Ratio (x) = 0.43602 0.07667
# Poissons Ratio (y) = 0.15388 0.27844
# Poissons Ratio (z) = 0.04041 0.41588
#
# Static dielectric constant tensor:
#      x y z
#    x 2.071670 0.000000 0.000000 
#    y 0.000000 2.219090 0.000000 
#    z 0.000000 0.000000 2.398990 
# 
# From -- ./inp_files/15698.got.cif
#   From: 2010.05.17/outbox.cif.g08.bks.cpg/sg52_8_cif.got.tgz:15698.got - 2010.06.03 12:15:38.
