data_PCOD9408176
_publ_section_title
;
Structure prediction by ZEFSAII (Michael W. Deem and Ramdas Pophale) SiO2 
 PCOD9408176
Probable space group: P N N A
;
_chemical_formula_sum "Si O2"
_cell_formula_units_Z 52
_cell_length_a 22.626465
_cell_length_b 21.970884
_cell_length_c 5.505066
_cell_angle_alpha 90.000000
_cell_angle_beta 90.000000
_cell_angle_gamma 90.000000
_cell_volume 2736.697335
_symmetry_space_group_name_H-M "P N N A"
_symmetry_group_IT_number 52
_symmetry_cell_setting 'orthorhombic'
loop_
_space_group_symop_operation_xyz
x,y,z
1/2-x,-y,z
x,1/2-y,1/2-z
1/2-x,1/2+y,1/2-z
-x,-y,-z
1/2+x,y,-z
-x,1/2+y,1/2+z
1/2+x,1/2-y,1/2+z
loop_
_atom_site_type_symbol
_atom_site_label
_atom_site_fract_x
_atom_site_fract_y
_atom_site_fract_z
Si Si1 0.846664 0.960441 0.620492
Si Si2 0.559764 0.959709 0.458563
Si Si3 0.290290 0.750000 0.750000
Si Si4 0.024220 0.569291 0.459112
Si Si5 0.408110 0.628572 0.456497
Si Si6 0.750000 0.000000 0.965359
Si Si7 0.786544 0.882276 0.254614
Si Si8 0.366914 0.750000 0.250000
O O1 0.896898 0.926636 0.772018
O O2 0.803001 0.908704 0.517889
O O3 0.882342 0.998307 0.420328
O O4 0.807291 0.001384 0.794445
O O5 0.551930 0.918034 0.223226
O O6 0.500000 0.000000 0.500000
O O7 0.565522 0.929128 0.723349
O O8 0.257910 0.815556 0.761868
O O9 0.328167 0.757058 0.497959
O O10 0.000000 0.500000 0.500000
O O11 0.968934 0.613608 0.412722
O O12 0.351098 0.627452 0.630539
O O13 0.405591 0.690564 0.305097
O O14 0.744983 0.061536 0.121908
#
# Coordination Sequence:
#
# PCOD9408176 Si02
#       8
#     8   8   4   8   8   4   8   4
#     4  11  19  34  52  73 114 144 176 234 274 339
#     4  10  19  29  50  75 103 137 177 205 266 312
#     4  10  20  34  56  76 107 144 187 220 276 356
#     4  10  18  29  45  77 101 134 172 208 254 310
#     4  10  19  30  51  73 115 136 178 219 272 337
#     4  10  24  34  50  80 112 146 188 234 304 330
#     4  10  20  35  52  77 111 148 180 233 288 350
#     4  10  20  32  48  82 105 152 173 212 286 338
#
# _framework density 19.001003999999998
#
# number of rings (size 3 to 8) (size 9 to 14) (size 15 to 20)
#    0.000    1.846    4.615    2.308    2.154    0.000 
#    0.000    0.000    0.000    0.000    0.000    1.077 
#    9.231    0.000    0.000    0.000    0.000    0.000 
#
# Total GULP energy -289611.346309 kJ/mol
# GULP energy per Si atom -5569.448967 kJ/mol
# Density = 1.895776 g / cm^3
# Si number density = 19.001004 Si / 1000 Ang^3
#
#
#
# Elastic Constant Matrix: (Units=GPa)
#
#
# Indices 1 2 3 4 5 6 
#
# 1 29.3498 37.5710 2.7995 0.0000 0.0000 0.0000
# 2 37.5710 100.9646 16.5772 0.0000 0.0000 0.0000
# 3 2.7995 16.5772 92.9076 0.0000 0.0000 0.0000
# 4 0.0000 0.0000 0.0000 23.1877 0.0000 0.0000
# 5 0.0000 0.0000 0.0000 0.0000 10.9264 0.0000
# 6 0.0000 0.0000 0.0000 0.0000 0.0000 20.8356
#
#
#
# Elastic Compliance Matrix: (Units=1/GPa)
#
#
# Indices 1 2 3 4 5 6 
#
# 1 0.065604 -0.024815 0.002451 0.000000 0.000000 0.000000
# 2 -0.024815 0.019590 -0.002748 0.000000 0.000000 0.000000
# 3 0.002451 -0.002748 0.011180 0.000000 0.000000 0.000000
# 4 0.000000 0.000000 0.000000 0.043126 0.000000 0.000000
# 5 0.000000 0.000000 0.000000 0.000000 0.091521 0.000000
# 6 0.000000 0.000000 0.000000 0.000000 0.000000 0.047995
#
#
# Mechanical properties :
#
#
# Convention : Reuss Voigt Hill
#
# Bulk Modulus (GPa) = 21.66847 37.45749 29.56298
# Shear Modulus (GPa) = 14.50862 22.07489 18.29176
#
# Velocity S-wave (km/s) = 2.76628 3.41218 3.10606
# Velocity P-wave (km/s) = 4.65099 5.93971 5.33441
#
# Compressibility (1/GPa) = 0.04615000
#
# Stress axis : x y z
#
# Youngs Moduli (GPa) = 15.24299 51.04713 89.44727
#
# Poissons Ratio (x) = 1.26673 -0.21922
# Poissons Ratio (y) = 0.37825 0.24576
# Poissons Ratio (z) = -0.03736 0.14026
#
# Static dielectric constant tensor:
#      x y z
#    x 1.641320 0.000000 0.000000 
#    y 0.000000 1.684800 0.000000 
#    z 0.000000 0.000000 1.697680 
# 
# From -- ./inp_files/4459.got.cif
#   From: 2010.05.17/outbox.cif.g08.bks.cpg/sg52_3_cif.got.tgz:4459.got - 2010.06.03 12:15:38.
