data_PCOD9408865
_publ_section_title
;
Structure prediction by ZEFSAII (Michael W. Deem and Ramdas Pophale) SiO2 
 PCOD9408865
Probable space group: P N N A
;
_chemical_formula_sum "Si O2"
_cell_formula_units_Z 32
_cell_length_a 5.306705
_cell_length_b 7.090723
_cell_length_c 35.880640
_cell_angle_alpha 90.000000
_cell_angle_beta 90.000000
_cell_angle_gamma 90.000000
_cell_volume 1350.130184
_symmetry_space_group_name_H-M "P N N A"
_symmetry_group_IT_number 52
_symmetry_cell_setting 'orthorhombic'
loop_
_space_group_symop_operation_xyz
x,y,z
1/2-x,-y,z
x,1/2-y,1/2-z
1/2-x,1/2+y,1/2-z
-x,-y,-z
1/2+x,y,-z
-x,1/2+y,1/2+z
1/2+x,1/2-y,1/2+z
loop_
_atom_site_type_symbol
_atom_site_label
_atom_site_fract_x
_atom_site_fract_y
_atom_site_fract_z
Si Si1 0.484524 0.287984 0.483520
Si Si2 0.202732 0.275286 0.826060
Si Si3 0.205914 0.277394 0.207552
Si Si4 0.497487 0.628833 0.904491
O O1 0.500000 0.500000 0.500000
O O2 0.742171 0.200218 0.497522
O O3 0.462071 0.266802 0.439364
O O4 0.250000 0.500000 0.820141
O O5 0.485106 0.202177 0.819344
O O6 0.987867 0.199803 0.798404
O O7 0.079978 0.262063 0.866895
O O8 0.250000 0.500000 0.200500
O O9 0.122874 0.250000 0.250000
O O10 0.750000 0.500000 0.899340
O O11 0.250000 0.500000 0.912229
#
# Coordination Sequence:
#
# PCOD9408865 Si02
#       4
#     8   8   8   8
#     4  10  22  39  58  80 117 158 192 228 307 363
#     4   9  18  33  53  82 108 148 184 233 293 329
#     4  10  19  33  56  80 115 149 186 230 281 344
#     4  11  21  35  60  90 115 144 204 258 288 340
#
# _framework density 23.701416999999999
#
# number of rings (size 3 to 8) (size 9 to 14) (size 15 to 20)
#    0.000    2.000    0.000    6.000    0.000    3.000 
#    0.000    0.000   16.500    0.000    0.000    0.000 
#    0.000    0.000    0.000    0.000    0.000    0.000 
#
# Total GULP energy -178598.718479 kJ/mol
# GULP energy per Si atom -5581.209952 kJ/mol
# Density = 2.364747 g / cm^3
# Si number density = 23.701417 Si / 1000 Ang^3
#
#
#
# Elastic Constant Matrix: (Units=GPa)
#
#
# Indices 1 2 3 4 5 6 
#
# 1 209.0158 13.4809 74.2893 0.0000 0.0000 0.0000
# 2 13.4809 94.5251 5.3312 0.0000 0.0000 0.0000
# 3 74.2893 5.3312 146.9959 0.0000 0.0000 0.0000
# 4 0.0000 0.0000 0.0000 17.2573 0.0000 0.0000
# 5 0.0000 0.0000 0.0000 0.0000 39.9657 0.0000
# 6 0.0000 0.0000 0.0000 0.0000 0.0000 -26.8270
#
#
#
# Elastic Compliance Matrix: (Units=1/GPa)
#
#
# Indices 1 2 3 4 5 6 
#
# 1 0.005874 -0.000672 -0.002944 0.000000 0.000000 0.000000
# 2 -0.000672 0.010678 -0.000048 0.000000 0.000000 0.000000
# 3 -0.002944 -0.000048 0.008293 0.000000 0.000000 0.000000
# 4 0.000000 0.000000 0.000000 0.057947 0.000000 0.000000
# 5 0.000000 0.000000 0.000000 0.000000 0.025021 0.000000
# 6 0.000000 0.000000 0.000000 0.000000 0.000000 -0.037276
#
#
# Mechanical properties :
#
#
# Convention : Reuss Voigt Hill
#
# Bulk Modulus (GPa) = 57.08786 70.74884 63.91835
# Shear Modulus (GPa) = 59.73481 29.90821 44.82151
#
# Velocity S-wave (km/s) = 5.02571 3.55614 4.35338
# Velocity P-wave (km/s) = 7.60366 6.83932 7.23160
#
# Compressibility (1/GPa) = 0.01751686
#
# Stress axis : x y z
#
# Youngs Moduli (GPa) = 170.23774 93.65322 120.58854
#
# Poissons Ratio (x) = 0.06291 0.35505
# Poissons Ratio (y) = 0.11435 0.00576
# Poissons Ratio (z) = 0.50124 0.00448
#
# Static dielectric constant tensor:
#      x y z
#    x 1.918350 0.000000 0.000000 
#    y 0.000000 1.916490 0.000000 
#    z 0.000000 0.000000 1.889830 
# 
# From -- ./inp_files/43446.got.cif
#   From: 2010.05.17/outbox.cif.g08.bks.cpg/sg52_22_cif.got.tgz:43446.got - 2010.06.03 12:15:38.
