data_PCOD9408369
_publ_section_title
;
Structure prediction by ZEFSAII (Michael W. Deem and Ramdas Pophale) SiO2 
 PCOD9408369
Probable space group: P N N A
;
_chemical_formula_sum "Si O2"
_cell_formula_units_Z 40
_cell_length_a 16.961923
_cell_length_b 7.551898
_cell_length_c 12.737197
_cell_angle_alpha 90.000000
_cell_angle_beta 90.000000
_cell_angle_gamma 90.000000
_cell_volume 1631.567586
_symmetry_space_group_name_H-M "P N N A"
_symmetry_group_IT_number 52
_symmetry_cell_setting 'orthorhombic'
loop_
_space_group_symop_operation_xyz
x,y,z
1/2-x,-y,z
x,1/2-y,1/2-z
1/2-x,1/2+y,1/2-z
-x,-y,-z
1/2+x,y,-z
-x,1/2+y,1/2+z
1/2+x,1/2-y,1/2+z
loop_
_atom_site_type_symbol
_atom_site_label
_atom_site_fract_x
_atom_site_fract_y
_atom_site_fract_z
Si Si1 0.440013 0.077295 0.863825
Si Si2 0.768803 0.714786 0.467694
Si Si3 0.491158 0.250000 0.250000
Si Si4 0.293954 0.250000 0.750000
Si Si5 0.379784 0.278252 0.416496
Si Si6 0.880964 0.838415 0.853243
O O1 0.359727 0.120634 0.801035
O O2 0.524197 0.173579 0.848207
O O3 0.459423 0.883623 0.820326
O O4 0.422851 0.130673 0.983649
O O5 0.750000 0.500000 0.463762
O O6 0.761628 0.788018 0.349922
O O7 0.698161 0.802610 0.534601
O O8 0.846918 0.733812 0.536727
O O9 0.435470 0.164569 0.341133
O O10 0.358595 0.453590 0.350372
O O11 0.846378 0.750000 0.750000
#
# Coordination Sequence:
#
# PCOD9408369 Si02
#       6
#     8   8   4   4   8   8
#     4  10  20  39  64  94 123 162 214 261 314 376
#     4   9  20  38  61  84 122 171 204 249 313 385
#     4  10  18  32  62  90 116 162 202 256 314 384
#     4  10  20  42  68  90 122 166 214 266 304 368
#     4   9  20  37  60  86 122 166 209 248 316 390
#     4  10  18  33  61  90 120 158 201 258 312 364
#
# _framework density 24.516300000000001
#
# number of rings (size 3 to 8) (size 9 to 14) (size 15 to 20)
#    0.000    2.400    1.000    2.400    1.400    0.000 
#    0.000   20.000   26.400    0.000    5.200    0.000 
#    0.000    0.000    0.000    0.000    0.000    0.000 
#
# Total GULP energy -222858.358874 kJ/mol
# GULP energy per Si atom -5571.458972 kJ/mol
# Density = 2.446050 g / cm^3
# Si number density = 24.516300 Si / 1000 Ang^3
#
#
#
# Elastic Constant Matrix: (Units=GPa)
#
#
# Indices 1 2 3 4 5 6 
#
# 1 99.3546 12.3472 58.7075 0.0000 0.0000 0.0000
# 2 12.3472 26.9685 44.8802 0.0000 0.0000 0.0000
# 3 58.7075 44.8802 172.9182 0.0000 0.0000 0.0000
# 4 0.0000 0.0000 0.0000 28.5645 0.0000 0.0000
# 5 0.0000 0.0000 0.0000 0.0000 32.3502 0.0000
# 6 0.0000 0.0000 0.0000 0.0000 0.0000 19.5804
#
#
#
# Elastic Compliance Matrix: (Units=1/GPa)
#
#
# Indices 1 2 3 4 5 6 
#
# 1 0.012678 0.002392 -0.004925 0.000000 0.000000 0.000000
# 2 0.002392 0.065725 -0.017871 0.000000 0.000000 0.000000
# 3 -0.004925 -0.017871 0.012093 0.000000 0.000000 0.000000
# 4 0.000000 0.000000 0.000000 0.035008 0.000000 0.000000
# 5 0.000000 0.000000 0.000000 0.000000 0.030912 0.000000
# 6 0.000000 0.000000 0.000000 0.000000 0.000000 0.051071
#
#
# Mechanical properties :
#
#
# Convention : Reuss Voigt Hill
#
# Bulk Modulus (GPa) = 20.12549 59.01236 39.56892
# Shear Modulus (GPa) = 18.87801 28.31947 23.59874
#
# Velocity S-wave (km/s) = 2.77793 3.40240 3.10590
# Velocity P-wave (km/s) = 4.30303 6.28952 5.38860
#
# Compressibility (1/GPa) = 0.04968824
#
# Stress axis : x y z
#
# Youngs Moduli (GPa) = 78.87766 15.21492 82.68976
#
# Poissons Ratio (x) = -0.03639 0.40725
# Poissons Ratio (y) = -0.18864 1.47771
# Poissons Ratio (z) = 0.38847 0.27190
#
# Static dielectric constant tensor:
#      x y z
#    x 2.028530 0.000000 0.000000 
#    y 0.000000 2.088340 0.000000 
#    z 0.000000 0.000000 1.992850 
# 
# From -- ./inp_files/20392.got.cif
#   From: 2010.05.17/outbox.cif.g08.bks.cpg/sg52_11_cif.got.tgz:20392.got - 2010.06.03 12:15:38.
