data_PCOD9408343
_publ_section_title
;
Structure prediction by ZEFSAII (Michael W. Deem and Ramdas Pophale) SiO2 
 PCOD9408343
Probable space group: P N N A
;
_chemical_formula_sum "Si O2"
_cell_formula_units_Z 48
_cell_length_a 19.124108
_cell_length_b 15.681012
_cell_length_c 8.073347
_cell_angle_alpha 90.000000
_cell_angle_beta 90.000000
_cell_angle_gamma 90.000000
_cell_volume 2421.078628
_symmetry_space_group_name_H-M "P N N A"
_symmetry_group_IT_number 52
_symmetry_cell_setting 'orthorhombic'
loop_
_space_group_symop_operation_xyz
x,y,z
1/2-x,-y,z
x,1/2-y,1/2-z
1/2-x,1/2+y,1/2-z
-x,-y,-z
1/2+x,y,-z
-x,1/2+y,1/2+z
1/2+x,1/2-y,1/2+z
loop_
_atom_site_type_symbol
_atom_site_label
_atom_site_fract_x
_atom_site_fract_y
_atom_site_fract_z
Si Si1 0.148518 0.388631 0.449817
Si Si2 0.621575 0.552980 0.753576
Si Si3 0.750000 0.000000 0.177609
Si Si4 0.027454 0.060660 0.852737
Si Si5 0.786070 0.306434 0.593973
Si Si6 0.120975 0.929490 0.643913
Si Si7 0.142708 0.750000 0.750000
O O1 0.127130 0.453892 0.303141
O O2 0.198857 0.442686 0.570314
O O3 0.079702 0.372602 0.560115
O O4 0.201802 0.314727 0.400996
O O5 0.544892 0.592528 0.721275
O O6 0.677230 0.603508 0.640461
O O7 0.630257 0.561190 0.948633
O O8 0.801303 0.057774 0.284482
O O9 0.070146 0.001161 0.723218
O O10 0.000000 0.000000 0.000000
O O11 0.808891 0.250000 0.750000
O O12 0.812775 0.271839 0.416878
O O13 0.099369 0.834919 0.703144
#
# Coordination Sequence:
#
# PCOD9408343 Si02
#       7
#     8   8   4   8   8   8   4
#     4  10  19  38  60  86 119 158 204 261 302 361
#     4  11  21  38  65  91 120 160 218 263 300 376
#     4  10  18  32  56  86 114 152 206 242 310 346
#     4   9  20  39  64  83 119 158 211 254 310 357
#     4  12  23  38  62  92 125 165 204 259 318 375
#     4  11  22  34  61  95 119 165 203 262 309 377
#     4  12  22  38  58  90 132 158 208 250 326 378
#
# _framework density 19.825873999999999
#
# number of rings (size 3 to 8) (size 9 to 14) (size 15 to 20)
#    0.000    1.333    5.000    2.500    2.333    0.000 
#    0.000    0.000   18.333    0.000    0.000    0.000 
#    0.000    0.000    0.000    0.000    0.000    0.000 
#
# Total GULP energy -267463.955215 kJ/mol
# GULP energy per Si atom -5572.165734 kJ/mol
# Density = 1.978075 g / cm^3
# Si number density = 19.825874 Si / 1000 Ang^3
#
#
#
# Elastic Constant Matrix: (Units=GPa)
#
#
# Indices 1 2 3 4 5 6 
#
# 1 78.8199 -11.7594 21.8969 0.0000 0.0000 0.0000
# 2 -11.7594 21.0044 14.7845 0.0000 0.0000 0.0000
# 3 21.8969 14.7845 140.9514 0.0000 0.0000 0.0000
# 4 0.0000 0.0000 0.0000 12.2194 0.0000 0.0000
# 5 0.0000 0.0000 0.0000 0.0000 20.1575 0.0000
# 6 0.0000 0.0000 0.0000 0.0000 0.0000 16.3154
#
#
#
# Elastic Compliance Matrix: (Units=1/GPa)
#
#
# Indices 1 2 3 4 5 6 
#
# 1 0.015323 0.011072 -0.003542 0.000000 0.000000 0.000000
# 2 0.011072 0.059404 -0.007951 0.000000 0.000000 0.000000
# 3 -0.003542 -0.007951 0.008479 0.000000 0.000000 0.000000
# 4 0.000000 0.000000 0.000000 0.081837 0.000000 0.000000
# 5 0.000000 0.000000 0.000000 0.000000 0.049609 0.000000
# 6 0.000000 0.000000 0.000000 0.000000 0.000000 0.061292
#
#
# Mechanical properties :
#
#
# Convention : Reuss Voigt Hill
#
# Bulk Modulus (GPa) = 12.14130 32.29107 22.21618
# Shear Modulus (GPa) = 16.43437 24.12870 20.28153
#
# Velocity S-wave (km/s) = 2.88225 3.49238 3.20188
# Velocity P-wave (km/s) = 4.14894 5.70833 4.98993
#
# Compressibility (1/GPa) = 0.08236351
#
# Stress axis : x y z
#
# Youngs Moduli (GPa) = 65.26186 16.83388 117.94072
#
# Poissons Ratio (x) = -0.18638 0.41771
# Poissons Ratio (y) = -0.72255 0.93774
# Poissons Ratio (z) = 0.23114 0.13384
#
# Static dielectric constant tensor:
#      x y z
#    x 1.769690 0.000000 0.000000 
#    y 0.000000 1.855660 0.000000 
#    z 0.000000 0.000000 1.732820 
# 
# From -- ./inp_files/12141.got.cif
#   From: 2010.05.17/outbox.cif.g08.bks.cpg/sg52_7_cif.got.tgz:12141.got - 2010.06.03 12:15:38.
