data_PCOD9408387
_publ_section_title
;
Structure prediction by ZEFSAII (Michael W. Deem and Ramdas Pophale) SiO2 
 PCOD9408387
Probable space group: P N N A
;
_chemical_formula_sum "Si O2"
_cell_formula_units_Z 44
_cell_length_a 18.974333
_cell_length_b 7.650676
_cell_length_c 14.548392
_cell_angle_alpha 90.000000
_cell_angle_beta 90.000000
_cell_angle_gamma 90.000000
_cell_volume 2111.938770
_symmetry_space_group_name_H-M "P N N A"
_symmetry_group_IT_number 52
_symmetry_cell_setting 'orthorhombic'
loop_
_space_group_symop_operation_xyz
x,y,z
1/2-x,-y,z
x,1/2-y,1/2-z
1/2-x,1/2+y,1/2-z
-x,-y,-z
1/2+x,y,-z
-x,1/2+y,1/2+z
1/2+x,1/2-y,1/2+z
loop_
_atom_site_type_symbol
_atom_site_label
_atom_site_fract_x
_atom_site_fract_y
_atom_site_fract_z
Si Si1 0.750000 0.000000 0.628288
Si Si2 0.102228 0.156719 0.341540
Si Si3 0.248327 0.711117 0.856792
Si Si4 0.852770 0.306226 0.999363
Si Si5 0.889183 0.790623 0.457199
Si Si6 0.966387 0.208054 0.642330
O O1 0.681059 0.077346 0.677320
O O2 0.784614 0.146927 0.563318
O O3 0.078896 0.250000 0.250000
O O4 0.106513 0.265720 0.435964
O O5 0.048773 0.999182 0.360879
O O6 0.250000 0.500000 0.866774
O O7 0.246939 0.750000 0.750000
O O8 0.319567 0.773768 0.905801
O O9 0.179701 0.781318 0.910755
O O10 0.908814 0.219704 0.930945
O O11 0.882635 0.496275 0.031911
O O12 0.957366 0.748121 0.397319
O O13 0.956653 0.250000 0.750000
#
# Coordination Sequence:
#
# PCOD9408387 Si02
#       6
#     4   8   8   8   8   8
#     4   8  14  30  52  70  98 134 170 204 252 308
#     4  10  19  33  54  80 104 139 179 216 262 314
#     4  10  18  33  54  75  99 133 174 216 260 311
#     4   9  15  32  51  74  99 133 174 210 251 317
#     4   9  17  35  54  74 103 143 177 209 255 325
#     4  10  20  34  54  78 104 142 178 216 261 316
#
# _framework density 20.833938
#
# number of rings (size 3 to 8) (size 9 to 14) (size 15 to 20)
#    0.000    2.909    4.545    2.727    0.000    2.909 
#    0.000   10.909    0.000    0.000    0.000    0.000 
#    0.000    0.000    0.000    0.000    0.000    0.000 
#
# Total GULP energy -245024.340386 kJ/mol
# GULP energy per Si atom -5568.735009 kJ/mol
# Density = 2.078652 g / cm^3
# Si number density = 20.833938 Si / 1000 Ang^3
#
#
#
# Elastic Constant Matrix: (Units=GPa)
#
#
# Indices 1 2 3 4 5 6 
#
# 1 95.5064 -2.8862 62.5699 0.0000 0.0000 0.0000
# 2 -2.8862 19.5324 9.1754 0.0000 0.0000 0.0000
# 3 62.5699 9.1754 192.6576 0.0000 0.0000 0.0000
# 4 0.0000 0.0000 0.0000 30.7769 0.0000 0.0000
# 5 0.0000 0.0000 0.0000 0.0000 16.0537 0.0000
# 6 0.0000 0.0000 0.0000 0.0000 0.0000 -0.5108
#
#
#
# Elastic Compliance Matrix: (Units=1/GPa)
#
#
# Indices 1 2 3 4 5 6 
#
# 1 0.013627 0.004186 -0.004625 0.000000 0.000000 0.000000
# 2 0.004186 0.053654 -0.003915 0.000000 0.000000 0.000000
# 3 -0.004625 -0.003915 0.006879 0.000000 0.000000 0.000000
# 4 0.000000 0.000000 0.000000 0.032492 0.000000 0.000000
# 5 0.000000 0.000000 0.000000 0.000000 0.062291 0.000000
# 6 0.000000 0.000000 0.000000 0.000000 0.000000 -1.957634
#
#
# Mechanical properties :
#
#
# Convention : Reuss Voigt Hill
#
# Bulk Modulus (GPa) = 15.27809 49.49051 32.38430
# Shear Modulus (GPa) = -2.84387 25.18645 11.17129
#
# Velocity S-wave (km/s) = -1.16961 3.48072 2.31812
# Velocity P-wave (km/s) = 2.35058 6.32141 4.76893
#
# Compressibility (1/GPa) = 0.06545319
#
# Stress axis : x y z
#
# Youngs Moduli (GPa) = 73.38339 18.63777 145.36791
#
# Poissons Ratio (x) = -0.07802 0.67234
# Poissons Ratio (y) = -0.30720 0.56910
# Poissons Ratio (z) = 0.33940 0.07296
#
# Static dielectric constant tensor:
#      x y z
#    x 1.756620 0.000000 0.000000 
#    y 0.000000 1.967600 0.000000 
#    z 0.000000 0.000000 1.785220 
# 
# From -- ./inp_files/21570.got.cif
#   From: 2010.05.17/outbox.cif.g08.bks.cpg/sg52_11_cif.got.tgz:21570.got - 2010.06.03 12:15:38.
