data_PCOD9408463
_publ_section_title
;
Structure prediction by ZEFSAII (Michael W. Deem and Ramdas Pophale) SiO2 
 PCOD9408463
Probable space group: P N N A
;
_chemical_formula_sum "Si O2"
_cell_formula_units_Z 48
_cell_length_a 5.080382
_cell_length_b 15.947238
_cell_length_c 29.755501
_cell_angle_alpha 90.000000
_cell_angle_beta 90.000000
_cell_angle_gamma 90.000000
_cell_volume 2410.732992
_symmetry_space_group_name_H-M "P N N A"
_symmetry_group_IT_number 52
_symmetry_cell_setting 'orthorhombic'
loop_
_space_group_symop_operation_xyz
x,y,z
1/2-x,-y,z
x,1/2-y,1/2-z
1/2-x,1/2+y,1/2-z
-x,-y,-z
1/2+x,y,-z
-x,1/2+y,1/2+z
1/2+x,1/2-y,1/2+z
loop_
_atom_site_type_symbol
_atom_site_label
_atom_site_fract_x
_atom_site_fract_y
_atom_site_fract_z
Si Si1 0.136647 0.651765 0.384090
Si Si2 0.353419 0.244034 0.631337
Si Si3 0.001707 0.557953 0.292268
Si Si4 0.171971 0.361348 0.797162
Si Si5 0.969210 0.406143 0.519843
Si Si6 0.145489 0.088072 0.349259
O O1 0.921475 0.726302 0.389104
O O2 0.067560 0.603094 0.338801
O O3 0.107829 0.595870 0.428479
O O4 0.429150 0.686721 0.378252
O O5 0.294569 0.226158 0.684576
O O6 0.493017 0.154935 0.619126
O O7 0.750000 0.500000 0.299647
O O8 0.922671 0.622126 0.252797
O O9 0.250000 0.500000 0.278911
O O10 0.416502 0.422867 0.811083
O O11 0.908368 0.373333 0.827083
O O12 0.245815 0.363641 0.509987
O O13 0.000000 0.500000 0.500000
O O14 0.250000 0.000000 0.367958
#
# Coordination Sequence:
#
# PCOD9408463 Si02
#       6
#     8   8   8   8   8   8
#     4  12  24  42  61  90 130 157 218 278 329 387
#     4  10  22  39  58  89 123 170 198 277 319 384
#     4  12  26  38  58  85 118 175 226 274 303 371
#     4  10  20  37  56  79 120 161 221 248 318 353
#     4  10  23  41  69  91 115 160 208 269 336 393
#     4  10  18  34  60  83 119 163 214 257 296 375
#
# _framework density 19.910955999999999
#
# number of rings (size 3 to 8) (size 9 to 14) (size 15 to 20)
#    1.000    0.333    1.667    5.000    4.667    0.667 
#    3.000    0.000    0.000    0.000    0.000    0.000 
#    0.000   13.333    0.000    0.000    0.000    0.000 
#
# Total GULP energy -267274.656082 kJ/mol
# GULP energy per Si atom -5568.222002 kJ/mol
# Density = 1.986564 g / cm^3
# Si number density = 19.910956 Si / 1000 Ang^3
#
#
#
# Elastic Constant Matrix: (Units=GPa)
#
#
# Indices 1 2 3 4 5 6 
#
# 1 137.3766 14.9094 13.7878 0.0000 0.0000 0.0000
# 2 14.9094 53.6825 36.9135 0.0000 0.0000 0.0000
# 3 13.7878 36.9135 82.5578 0.0000 0.0000 0.0000
# 4 0.0000 0.0000 0.0000 48.1469 0.0000 0.0000
# 5 0.0000 0.0000 0.0000 0.0000 18.8226 0.0000
# 6 0.0000 0.0000 0.0000 0.0000 0.0000 26.4732
#
#
#
# Elastic Compliance Matrix: (Units=1/GPa)
#
#
# Indices 1 2 3 4 5 6 
#
# 1 0.007518 -0.001768 -0.000465 0.000000 0.000000 0.000000
# 2 -0.001768 0.027314 -0.011917 0.000000 0.000000 0.000000
# 3 -0.000465 -0.011917 0.017519 0.000000 0.000000 0.000000
# 4 0.000000 0.000000 0.000000 0.020770 0.000000 0.000000
# 5 0.000000 0.000000 0.000000 0.000000 0.053128 0.000000
# 6 0.000000 0.000000 0.000000 0.000000 0.000000 0.037774
#
#
# Mechanical properties :
#
#
# Convention : Reuss Voigt Hill
#
# Bulk Modulus (GPa) = 41.58086 44.98204 43.28145
# Shear Modulus (GPa) = 24.95765 32.55563 28.75664
#
# Velocity S-wave (km/s) = 3.54427 4.04798 3.80447
# Velocity P-wave (km/s) = 6.13823 6.66999 6.40963
#
# Compressibility (1/GPa) = 0.02404953
#
# Stress axis : x y z
#
# Youngs Moduli (GPa) = 133.01708 36.61149 57.08127
#
# Poissons Ratio (x) = 0.06474 0.02654
# Poissons Ratio (y) = 0.23521 0.68026
# Poissons Ratio (z) = 0.06184 0.43631
#
# Static dielectric constant tensor:
#      x y z
#    x 1.773880 0.000000 0.000000 
#    y 0.000000 1.780510 0.000000 
#    z 0.000000 0.000000 1.690940 
# 
# From -- ./inp_files/38781.got.cif
#   From: 2010.05.17/outbox.cif.g08.bks.cpg/sg52_20_cif.got.tgz:38781.got - 2010.06.03 12:15:38.
