data_PCOD9408845
_publ_section_title
;
Structure prediction by ZEFSAII (Michael W. Deem and Ramdas Pophale) SiO2 
 PCOD9408845
Probable space group: P N N A
;
_chemical_formula_sum "Si O2"
_cell_formula_units_Z 32
_cell_length_a 10.756891
_cell_length_b 7.838219
_cell_length_c 16.208216
_cell_angle_alpha 90.000000
_cell_angle_beta 90.000000
_cell_angle_gamma 90.000000
_cell_volume 1366.593583
_symmetry_space_group_name_H-M "P N N A"
_symmetry_group_IT_number 52
_symmetry_cell_setting 'orthorhombic'
loop_
_space_group_symop_operation_xyz
x,y,z
1/2-x,-y,z
x,1/2-y,1/2-z
1/2-x,1/2+y,1/2-z
-x,-y,-z
1/2+x,y,-z
-x,1/2+y,1/2+z
1/2+x,1/2-y,1/2+z
loop_
_atom_site_type_symbol
_atom_site_label
_atom_site_fract_x
_atom_site_fract_y
_atom_site_fract_z
Si Si1 0.440564 0.607017 0.361046
Si Si2 0.538654 0.421146 0.206224
Si Si3 0.598067 0.612929 0.051075
Si Si4 0.682632 0.751818 0.608283
O O1 0.508523 0.556231 0.276966
O O2 0.531792 0.714680 0.417876
O O3 0.391136 0.427769 0.397936
O O4 0.315304 0.717403 0.351461
O O5 0.589850 0.250000 0.250000
O O6 0.618633 0.501785 0.133119
O O7 0.406502 0.366986 0.164867
O O8 0.500000 0.500000 0.000000
O O9 0.698472 0.671149 0.983316
#
# Coordination Sequence:
#
# PCOD9408845 Si02
#       4
#     8   8   8   8
#     4  10  19  33  54  80 110 143 180 225 271 323
#     4   9  19  32  50  79 111 142 183 228 272 318
#     4  10  20  33  50  78 113 147 179 222 274 324
#     4   9  20  34  52  82 114 145 177 222 276 327
#
# _framework density 23.415887999999999
#
# number of rings (size 3 to 8) (size 9 to 14) (size 15 to 20)
#    0.000    2.500    0.000    1.500    0.000   16.000 
#    0.000    0.000    0.000    0.000    0.000  108.500 
#    0.000    0.000    0.000    0.000    0.000    0.000 
#
# Total GULP energy -178939.333504 kJ/mol
# GULP energy per Si atom -5591.854172 kJ/mol
# Density = 2.336259 g / cm^3
# Si number density = 23.415888 Si / 1000 Ang^3
#
#
#
# Elastic Constant Matrix: (Units=GPa)
#
#
# Indices 1 2 3 4 5 6 
#
# 1 53.5312 19.8836 32.2282 0.0000 0.0000 0.0000
# 2 19.8836 118.7705 60.9227 0.0000 0.0000 0.0000
# 3 32.2282 60.9227 167.7263 0.0000 0.0000 0.0000
# 4 0.0000 0.0000 0.0000 62.4648 0.0000 0.0000
# 5 0.0000 0.0000 0.0000 0.0000 1.5583 0.0000
# 6 0.0000 0.0000 0.0000 0.0000 0.0000 18.3800
#
#
#
# Elastic Compliance Matrix: (Units=1/GPa)
#
#
# Indices 1 2 3 4 5 6 
#
# 1 0.021438 -0.001814 -0.003460 0.000000 0.000000 0.000000
# 2 -0.001814 0.010501 -0.003466 0.000000 0.000000 0.000000
# 3 -0.003460 -0.003466 0.007886 0.000000 0.000000 0.000000
# 4 0.000000 0.000000 0.000000 0.016009 0.000000 0.000000
# 5 0.000000 0.000000 0.000000 0.000000 0.641736 0.000000
# 6 0.000000 0.000000 0.000000 0.000000 0.000000 0.054407
#
#
# Mechanical properties :
#
#
# Convention : Reuss Voigt Hill
#
# Bulk Modulus (GPa) = 44.75362 62.89967 53.82664
# Shear Modulus (GPa) = 6.43580 31.61351 19.02465
#
# Velocity S-wave (km/s) = 1.65965 3.67834 2.85347
# Velocity P-wave (km/s) = 4.77772 6.70526 5.82182
#
# Compressibility (1/GPa) = 0.02234456
#
# Stress axis : x y z
#
# Youngs Moduli (GPa) = 46.64670 95.22919 126.80994
#
# Poissons Ratio (x) = 0.17274 0.43880
# Poissons Ratio (y) = 0.08462 0.43948
# Poissons Ratio (z) = 0.16141 0.33003
#
# Static dielectric constant tensor:
#      x y z
#    x 1.827420 0.000000 0.000000 
#    y 0.000000 1.916300 0.000000 
#    z 0.000000 0.000000 1.889970 
# 
# From -- ./inp_files/25478.got.cif
#   From: 2010.05.17/outbox.cif.g08.bks.cpg/sg52_13_cif.got.tgz:25478.got - 2010.06.03 12:15:38.
