data_PCOD9408999
_publ_section_title
;
Structure prediction by ZEFSAII (Michael W. Deem and Ramdas Pophale) SiO2 
 PCOD9408999
Probable space group: P N N A
;
_chemical_formula_sum "Si O2"
_cell_formula_units_Z 56
_cell_length_a 19.752218
_cell_length_b 9.794676
_cell_length_c 15.439313
_cell_angle_alpha 90.000000
_cell_angle_beta 90.000000
_cell_angle_gamma 90.000000
_cell_volume 2986.991016
_symmetry_space_group_name_H-M "P N N A"
_symmetry_group_IT_number 52
_symmetry_cell_setting 'orthorhombic'
loop_
_space_group_symop_operation_xyz
x,y,z
1/2-x,-y,z
x,1/2-y,1/2-z
1/2-x,1/2+y,1/2-z
-x,-y,-z
1/2+x,y,-z
-x,1/2+y,1/2+z
1/2+x,1/2-y,1/2+z
loop_
_atom_site_type_symbol
_atom_site_label
_atom_site_fract_x
_atom_site_fract_y
_atom_site_fract_z
Si Si1 0.068508 0.035898 0.947229
Si Si2 0.017958 0.900815 0.210526
Si Si3 0.759601 0.662109 0.663629
Si Si4 0.017586 0.646702 0.825054
Si Si5 0.922878 0.049919 0.489847
Si Si6 0.610165 0.226377 0.564150
Si Si7 0.375729 0.326362 0.432954
O O1 0.045385 0.054573 0.849329
O O2 0.096756 0.177307 0.982661
O O3 0.118380 0.918708 0.981087
O O4 0.000000 0.000000 0.000000
O O5 0.010080 0.750000 0.250000
O O6 0.083190 0.895664 0.146902
O O7 0.020229 0.015774 0.283760
O O8 0.750000 0.500000 0.680877
O O9 0.749628 0.750000 0.750000
O O10 0.830852 0.707534 0.621839
O O11 0.700413 0.695999 0.596060
O O12 0.040003 0.750000 0.750000
O O13 0.959543 0.723237 0.880740
O O14 0.076888 0.595255 0.889098
O O15 0.910947 0.183689 0.546308
O O16 0.878202 0.925912 0.526824
O O17 0.000000 0.000000 0.500000
#
# Coordination Sequence:
#
# PCOD9408999 Si02
#       7
#     8   8   8   8   8   8   8
#     4  10  19  35  56  78 113 156 192 242 296 353
#     4  11  20  32  57  87 117 146 193 248 302 344
#     4  12  28  41  61  88 121 164 207 239 283 352
#     4  11  20  33  57  90 118 152 190 248 308 345
#     4  10  21  37  58  84 118 158 196 241 299 358
#     4  11  22  39  57  81 124 161 199 233 289 355
#     4  11  22  39  55  83 122 159 196 234 288 356
#
# _framework density 18.747962999999999
#
# number of rings (size 3 to 8) (size 9 to 14) (size 15 to 20)
#    0.000    1.143    1.429    9.429    4.000    0.000 
#    0.000    0.000    0.000    0.000    0.000   15.000 
#    0.000    0.000    0.000    0.000    0.000    0.000 
#
# Total GULP energy -312613.853372 kJ/mol
# GULP energy per Si atom -5582.390239 kJ/mol
# Density = 1.870529 g / cm^3
# Si number density = 18.747963 Si / 1000 Ang^3
#
#
#
# Elastic Constant Matrix: (Units=GPa)
#
#
# Indices 1 2 3 4 5 6 
#
# 1 42.1817 16.1278 13.8564 0.0000 0.0000 0.0000
# 2 16.1278 105.5380 30.8859 0.0000 0.0000 0.0000
# 3 13.8564 30.8859 52.6180 0.0000 0.0000 0.0000
# 4 0.0000 0.0000 0.0000 36.7580 0.0000 0.0000
# 5 0.0000 0.0000 0.0000 0.0000 18.1071 0.0000
# 6 0.0000 0.0000 0.0000 0.0000 0.0000 22.5611
#
#
#
# Elastic Compliance Matrix: (Units=1/GPa)
#
#
# Indices 1 2 3 4 5 6 
#
# 1 0.026454 -0.002419 -0.005546 0.000000 0.000000 0.000000
# 2 -0.002419 0.011662 -0.006208 0.000000 0.000000 0.000000
# 3 -0.005546 -0.006208 0.024110 0.000000 0.000000 0.000000
# 4 0.000000 0.000000 0.000000 0.027205 0.000000 0.000000
# 5 0.000000 0.000000 0.000000 0.000000 0.055227 0.000000
# 6 0.000000 0.000000 0.000000 0.000000 0.000000 0.044324
#
#
# Mechanical properties :
#
#
# Convention : Reuss Voigt Hill
#
# Bulk Modulus (GPa) = 29.51798 35.78643 32.65220
# Shear Modulus (GPa) = 21.87018 24.78305 23.32661
#
# Velocity S-wave (km/s) = 3.41916 3.63975 3.53118
# Velocity P-wave (km/s) = 5.60057 6.06575 5.83779
#
# Compressibility (1/GPa) = 0.03387766
#
# Stress axis : x y z
#
# Youngs Moduli (GPa) = 37.80154 85.74984 41.47731
#
# Poissons Ratio (x) = 0.20747 0.23004
# Poissons Ratio (y) = 0.09146 0.25750
# Poissons Ratio (z) = 0.20966 0.53235
#
# Static dielectric constant tensor:
#      x y z
#    x 1.639790 0.000000 0.000000 
#    y 0.000000 1.695500 0.000000 
#    z 0.000000 0.000000 1.687050 
# 
# From -- ./inp_files/28791.got.cif
#   From: 2010.05.17/outbox.cif.g08.bks.cpg/sg52_15_cif.got.tgz:28791.got - 2010.06.03 12:15:38.
