data_PCOD9408768
_publ_section_title
;
Structure prediction by ZEFSAII (Michael W. Deem and Ramdas Pophale) SiO2 
 PCOD9408768
Probable space group: P N N A
;
_chemical_formula_sum "Si O2"
_cell_formula_units_Z 64
_cell_length_a 5.388648
_cell_length_b 25.792520
_cell_length_c 18.748077
_cell_angle_alpha 90.000000
_cell_angle_beta 90.000000
_cell_angle_gamma 90.000000
_cell_volume 2605.735440
_symmetry_space_group_name_H-M "P N N A"
_symmetry_group_IT_number 52
_symmetry_cell_setting 'orthorhombic'
loop_
_space_group_symop_operation_xyz
x,y,z
1/2-x,-y,z
x,1/2-y,1/2-z
1/2-x,1/2+y,1/2-z
-x,-y,-z
1/2+x,y,-z
-x,1/2+y,1/2+z
1/2+x,1/2-y,1/2+z
loop_
_atom_site_type_symbol
_atom_site_label
_atom_site_fract_x
_atom_site_fract_y
_atom_site_fract_z
Si Si1 0.800025 0.602106 0.823752
Si Si2 0.412784 0.836283 0.585475
Si Si3 0.198225 0.442436 0.474505
Si Si4 0.421609 0.272172 0.460255
Si Si5 0.390484 0.298937 0.791071
Si Si6 0.102750 0.411475 0.322649
Si Si7 0.613717 0.428100 0.977011
Si Si8 0.097764 0.343520 0.668474
O O1 0.541821 0.623607 0.857725
O O2 0.861167 0.564734 0.756727
O O3 0.936773 0.581438 0.894083
O O4 0.920808 0.653928 0.792094
O O5 0.581311 0.789317 0.557349
O O6 0.204646 0.802921 0.627756
O O7 0.338478 0.873943 0.520724
O O8 0.250000 0.500000 0.505034
O O9 0.466139 0.415937 0.485921
O O10 0.124839 0.447017 0.392232
O O11 0.136094 0.284086 0.480733
O O12 0.529595 0.303546 0.393370
O O13 0.506012 0.250000 0.750000
O O14 0.158090 0.311410 0.739898
O O15 0.355061 0.378159 0.326096
O O16 0.847601 0.379053 0.336901
O O17 0.382484 0.453116 0.015846
#
# Coordination Sequence:
#
# PCOD9408768 Si02
#       8
#     8   8   8   8   8   8   8   8
#     4  10  22  35  54  77 110 139 191 239 301 345
#     4  11  21  35  52  70  98 143 194 250 287 330
#     4  10  22  42  69  97 123 154 189 223 270 341
#     4  12  26  38  53  73 101 142 198 248 294 342
#     4  11  21  35  50  70 101 147 194 247 293 348
#     4  11  23  39  62  87 115 150 181 232 290 347
#     4  10  19  32  52  72  97 133 179 234 286 323
#     4  11  24  39  53  79 112 149 188 240 297 345
#
# _framework density 24.561204
#
# number of rings (size 3 to 8) (size 9 to 14) (size 15 to 20)
#    0.000    1.250    3.750    3.000    1.750    5.500 
#    0.000    0.000    0.000    0.000    0.000    0.000 
#    0.000    4.000    0.000    0.000    0.000    4.500 
#
# Total GULP energy -356803.152358 kJ/mol
# GULP energy per Si atom -5575.049256 kJ/mol
# Density = 2.450530 g / cm^3
# Si number density = 24.561204 Si / 1000 Ang^3
#
#
#
# Elastic Constant Matrix: (Units=GPa)
#
#
# Indices 1 2 3 4 5 6 
#
# 1 143.5650 18.1019 24.1894 0.0000 0.0000 0.0000
# 2 18.1019 39.6889 12.6477 0.0000 0.0000 0.0000
# 3 24.1894 12.6477 153.7501 0.0000 0.0000 0.0000
# 4 0.0000 0.0000 0.0000 12.5402 0.0000 0.0000
# 5 0.0000 0.0000 0.0000 0.0000 34.6292 0.0000
# 6 0.0000 0.0000 0.0000 0.0000 0.0000 29.5594
#
#
#
# Elastic Compliance Matrix: (Units=1/GPa)
#
#
# Indices 1 2 3 4 5 6 
#
# 1 0.007516 -0.003133 -0.000925 0.000000 0.000000 0.000000
# 2 -0.003133 0.027181 -0.001743 0.000000 0.000000 0.000000
# 3 -0.000925 -0.001743 0.006793 0.000000 0.000000 0.000000
# 4 0.000000 0.000000 0.000000 0.079744 0.000000 0.000000
# 5 0.000000 0.000000 0.000000 0.000000 0.028877 0.000000
# 6 0.000000 0.000000 0.000000 0.000000 0.000000 0.033830
#
#
# Mechanical properties :
#
#
# Convention : Reuss Voigt Hill
#
# Bulk Modulus (GPa) = 33.45879 49.65354 41.55617
# Shear Modulus (GPa) = 24.33017 34.15008 29.24013
#
# Velocity S-wave (km/s) = 3.15078 3.73286 3.45411
# Velocity P-wave (km/s) = 5.18544 6.23211 5.73271
#
# Compressibility (1/GPa) = 0.02988751
#
# Stress axis : x y z
#
# Youngs Moduli (GPa) = 133.04240 36.79099 147.21179
#
# Poissons Ratio (x) = 0.11528 0.13614
# Poissons Ratio (y) = 0.41689 0.25658
# Poissons Ratio (z) = 0.12304 0.06412
#
# Static dielectric constant tensor:
#      x y z
#    x 2.040210 0.000000 0.000000 
#    y 0.000000 2.023760 0.000000 
#    z 0.000000 0.000000 2.101570 
# 
# From -- ./inp_files/30389.got.cif
#   From: 2010.05.17/outbox.cif.g08.bks.cpg/sg52_16_cif.got.tgz:30389.got - 2010.06.03 12:15:38.
