data_PCOD9408583
_publ_section_title
;
Structure prediction by ZEFSAII (Michael W. Deem and Ramdas Pophale) SiO2 
 PCOD9408583
Probable space group: P N N A
;
_chemical_formula_sum "Si O2"
_cell_formula_units_Z 48
_cell_length_a 15.673923
_cell_length_b 18.051092
_cell_length_c 8.195287
_cell_angle_alpha 90.000000
_cell_angle_beta 90.000000
_cell_angle_gamma 90.000000
_cell_volume 2318.704238
_symmetry_space_group_name_H-M "P N N A"
_symmetry_group_IT_number 52
_symmetry_cell_setting 'orthorhombic'
loop_
_space_group_symop_operation_xyz
x,y,z
1/2-x,-y,z
x,1/2-y,1/2-z
1/2-x,1/2+y,1/2-z
-x,-y,-z
1/2+x,y,-z
-x,1/2+y,1/2+z
1/2+x,1/2-y,1/2+z
loop_
_atom_site_type_symbol
_atom_site_label
_atom_site_fract_x
_atom_site_fract_y
_atom_site_fract_z
Si Si1 0.497907 0.995231 0.749335
Si Si2 0.250000 0.000000 0.882159
Si Si3 0.406471 0.588411 0.503682
Si Si4 0.314723 0.068401 0.288713
Si Si5 0.176959 0.750000 0.750000
Si Si6 0.766299 0.697930 0.588318
Si Si7 0.355501 0.402252 0.860637
O O1 0.434316 0.040102 0.632521
O O2 0.446649 0.924043 0.818309
O O3 0.590590 0.964350 0.713605
O O4 0.520345 0.058510 0.884494
O O5 0.329031 0.970963 0.986227
O O6 0.212931 0.936737 0.764815
O O7 0.359780 0.663055 0.451219
O O8 0.292478 0.128433 0.149753
O O9 0.310790 0.106849 0.465555
O O10 0.250000 0.000000 0.294583
O O11 0.230926 0.730942 0.583646
O O12 0.121644 0.678099 0.793201
O O13 0.769793 0.750000 0.750000
#
# Coordination Sequence:
#
# PCOD9408583 Si02
#       7
#     8   4   8   8   4   8   8
#     4  10  23  39  67 102 133 174 231 299 348 392
#     4  10  18  36  70  96 126 180 234 282 344 400
#     4  10  20  38  65  98 131 171 226 283 342 413
#     4  12  23  43  73 103 135 181 245 296 337 416
#     4  12  26  44  68  98 148 186 228 280 354 432
#     4  12  25  44  70 101 136 186 232 280 352 427
#     4  11  23  41  67 101 141 180 231 288 350 413
#
# _framework density 20.701215999999999
#
# number of rings (size 3 to 8) (size 9 to 14) (size 15 to 20)
#    0.000    1.000    5.833    1.500    4.667    0.000 
#    1.500    0.000    1.833    0.000    0.000    0.000 
#    0.000    0.000    0.000    0.000    0.000    0.000 
#
# Total GULP energy -267414.592190 kJ/mol
# GULP energy per Si atom -5571.137337 kJ/mol
# Density = 2.065410 g / cm^3
# Si number density = 20.701216 Si / 1000 Ang^3
#
#
#
# Elastic Constant Matrix: (Units=GPa)
#
#
# Indices 1 2 3 4 5 6 
#
# 1 98.2135 32.5955 35.6784 0.0000 0.0000 0.0000
# 2 32.5955 107.5224 47.9658 0.0000 0.0000 0.0000
# 3 35.6784 47.9658 123.3476 0.0000 0.0000 0.0000
# 4 0.0000 0.0000 0.0000 33.1817 0.0000 0.0000
# 5 0.0000 0.0000 0.0000 0.0000 -22.3141 0.0000
# 6 0.0000 0.0000 0.0000 0.0000 0.0000 29.1549
#
#
#
# Elastic Compliance Matrix: (Units=1/GPa)
#
#
# Indices 1 2 3 4 5 6 
#
# 1 0.011912 -0.002509 -0.002470 0.000000 0.000000 0.000000
# 2 -0.002509 0.011781 -0.003855 0.000000 0.000000 0.000000
# 3 -0.002470 -0.003855 0.010321 0.000000 0.000000 0.000000
# 4 0.000000 0.000000 0.000000 0.030137 0.000000 0.000000
# 5 0.000000 0.000000 0.000000 0.000000 -0.044815 0.000000
# 6 0.000000 0.000000 0.000000 0.000000 0.000000 0.034300
#
#
# Mechanical properties :
#
#
# Convention : Reuss Voigt Hill
#
# Bulk Modulus (GPa) = 61.18187 62.39587 61.78887
# Shear Modulus (GPa) = 65.14422 22.19410 43.66916
#
# Velocity S-wave (km/s) = 5.61579 3.27787 4.59791
# Velocity P-wave (km/s) = 8.46572 6.67327 7.62236
#
# Compressibility (1/GPa) = 0.01634471
#
# Stress axis : x y z
#
# Youngs Moduli (GPa) = 83.94967 84.88248 96.89187
#
# Poissons Ratio (x) = 0.21300 0.23930
# Poissons Ratio (y) = 0.21066 0.37356
# Poissons Ratio (z) = 0.20733 0.32726
#
# Static dielectric constant tensor:
#      x y z
#    x 1.722150 0.000000 0.000000 
#    y 0.000000 1.763560 0.000000 
#    z 0.000000 0.000000 1.846580 
# 
# From -- ./inp_files/10557.got.cif
#   From: 2010.05.17/outbox.cif.g08.bks.cpg/sg52_6_cif.got.tgz:10557.got - 2010.06.03 12:15:38.
