data_PCOD9408868
_publ_section_title
;
Structure prediction by ZEFSAII (Michael W. Deem and Ramdas Pophale) SiO2 
 PCOD9408868
Probable space group: P N N A
;
_chemical_formula_sum "Si O2"
_cell_formula_units_Z 60
_cell_length_a 18.993409
_cell_length_b 11.053731
_cell_length_c 15.859105
_cell_angle_alpha 90.000000
_cell_angle_beta 90.000000
_cell_angle_gamma 90.000000
_cell_volume 3329.587914
_symmetry_space_group_name_H-M "P N N A"
_symmetry_group_IT_number 52
_symmetry_cell_setting 'orthorhombic'
loop_
_space_group_symop_operation_xyz
x,y,z
1/2-x,-y,z
x,1/2-y,1/2-z
1/2-x,1/2+y,1/2-z
-x,-y,-z
1/2+x,y,-z
-x,1/2+y,1/2+z
1/2+x,1/2-y,1/2+z
loop_
_atom_site_type_symbol
_atom_site_label
_atom_site_fract_x
_atom_site_fract_y
_atom_site_fract_z
Si Si1 0.035583 0.798404 0.344137
Si Si2 0.975271 0.250000 0.250000
Si Si3 0.935424 0.847604 0.032569
Si Si4 0.566957 0.882876 0.087631
Si Si5 0.835043 0.300758 0.559238
Si Si6 0.321529 0.772139 0.421863
Si Si7 0.175295 0.472299 0.322684
Si Si8 0.077399 0.055111 0.327665
O O1 0.024439 0.750000 0.250000
O O2 0.113842 0.762446 0.373933
O O3 0.980445 0.731081 0.403224
O O4 0.032999 0.941739 0.359469
O O5 0.933734 0.168718 0.181968
O O6 0.025301 0.163287 0.304835
O O7 0.917535 0.975091 0.076039
O O8 0.867648 0.777954 0.999019
O O9 0.988379 0.869910 0.953124
O O10 0.622271 0.812776 0.027829
O O11 0.760964 0.231255 0.555438
O O12 0.825986 0.436900 0.597509
O O13 0.327603 0.666484 0.351087
O O14 0.359973 0.891169 0.385625
O O15 0.250000 0.500000 0.279515
O O16 0.112406 0.493125 0.258806
#
# Coordination Sequence:
#
# PCOD9408868 Si02
#       8
#     8   4   8   8   8   8   8   8
#     4  11  23  36  55  83 119 158 194 232 294 351
#     4  12  22  38  60  88 108 148 200 250 290 340
#     4  10  20  38  59  83 114 152 191 238 285 352
#     4  10  20  37  61  84 114 146 195 243 289 339
#     4  10  22  37  60  86 115 156 193 236 292 360
#     4  11  21  36  58  89 114 150 197 239 292 349
#     4  10  19  33  56  84 119 149 184 232 288 359
#     4  12  22  34  54  86 123 152 191 243 292 350
#
# _framework density 18.020247000000001
#
# number of rings (size 3 to 8) (size 9 to 14) (size 15 to 20)
#    0.000    1.333    5.333    0.800    3.733    0.533 
#    0.000    0.000    1.467    0.000    0.000    0.000 
#    0.000    0.000    0.000    0.000    0.000    0.000 
#
# Total GULP energy -334853.625809 kJ/mol
# GULP energy per Si atom -5580.893763 kJ/mol
# Density = 1.797923 g / cm^3
# Si number density = 18.020247 Si / 1000 Ang^3
#
#
#
# Elastic Constant Matrix: (Units=GPa)
#
#
# Indices 1 2 3 4 5 6 
#
# 1 58.7439 4.1492 29.5315 0.0000 0.0000 0.0000
# 2 4.1492 79.9458 22.2515 0.0000 0.0000 0.0000
# 3 29.5315 22.2515 71.8288 0.0000 0.0000 0.0000
# 4 0.0000 0.0000 0.0000 25.3812 0.0000 0.0000
# 5 0.0000 0.0000 0.0000 0.0000 13.3017 0.0000
# 6 0.0000 0.0000 0.0000 0.0000 0.0000 9.8544
#
#
#
# Elastic Compliance Matrix: (Units=1/GPa)
#
#
# Indices 1 2 3 4 5 6 
#
# 1 0.021617 0.001479 -0.009346 0.000000 0.000000 0.000000
# 2 0.001479 0.013790 -0.004880 0.000000 0.000000 0.000000
# 3 -0.009346 -0.004880 0.019276 0.000000 0.000000 0.000000
# 4 0.000000 0.000000 0.000000 0.039399 0.000000 0.000000
# 5 0.000000 0.000000 0.000000 0.000000 0.075178 0.000000
# 6 0.000000 0.000000 0.000000 0.000000 0.000000 0.101478
#
#
# Mechanical properties :
#
#
# Convention : Reuss Voigt Hill
#
# Bulk Modulus (GPa) = 34.25852 35.82034 35.03943
# Shear Modulus (GPa) = 16.34193 20.01321 18.17757
#
# Velocity S-wave (km/s) = 3.01469 3.33618 3.17950
# Velocity P-wave (km/s) = 5.58303 5.89585 5.74157
#
# Compressibility (1/GPa) = 0.02918982
#
# Stress axis : x y z
#
# Youngs Moduli (GPa) = 46.26034 72.51634 51.87757
#
# Poissons Ratio (x) = -0.10727 0.48483
# Poissons Ratio (y) = -0.06843 0.25317
# Poissons Ratio (z) = 0.43234 0.35389
#
# Static dielectric constant tensor:
#      x y z
#    x 1.621080 0.000000 0.000000 
#    y 0.000000 1.669200 0.000000 
#    z 0.000000 0.000000 1.622010 
# 
# From -- ./inp_files/28272.got.cif
#   From: 2010.05.17/outbox.cif.g08.bks.cpg/sg52_15_cif.got.tgz:28272.got - 2010.06.03 12:15:38.
