data_PCOD9408674
_publ_section_title
;
Structure prediction by ZEFSAII (Michael W. Deem and Ramdas Pophale) SiO2 
 PCOD9408674
Probable space group: P N N A
;
_chemical_formula_sum "Si O2"
_cell_formula_units_Z 48
_cell_length_a 8.764990
_cell_length_b 9.817201
_cell_length_c 26.741108
_cell_angle_alpha 90.000000
_cell_angle_beta 90.000000
_cell_angle_gamma 90.000000
_cell_volume 2301.009999
_symmetry_space_group_name_H-M "P N N A"
_symmetry_group_IT_number 52
_symmetry_cell_setting 'orthorhombic'
loop_
_space_group_symop_operation_xyz
x,y,z
1/2-x,-y,z
x,1/2-y,1/2-z
1/2-x,1/2+y,1/2-z
-x,-y,-z
1/2+x,y,-z
-x,1/2+y,1/2+z
1/2+x,1/2-y,1/2+z
loop_
_atom_site_type_symbol
_atom_site_label
_atom_site_fract_x
_atom_site_fract_y
_atom_site_fract_z
Si Si1 0.895548 0.096485 0.180276
Si Si2 0.052695 0.122248 0.536689
Si Si3 0.702662 0.684659 0.504044
Si Si4 0.401404 0.410708 0.794298
Si Si5 0.028953 0.142050 0.076807
Si Si6 0.579076 0.049689 0.612741
O O1 0.856870 0.257131 0.187845
O O2 0.951507 0.068083 0.236712
O O3 0.005882 0.080105 0.132059
O O4 0.750000 0.000000 0.171541
O O5 0.210642 0.186143 0.520472
O O6 0.934897 0.248212 0.534989
O O7 0.000000 0.000000 0.500000
O O8 0.042180 0.055752 0.590399
O O9 0.618425 0.611153 0.457762
O O10 0.826654 0.616905 0.540669
O O11 0.250000 0.500000 0.801488
O O12 0.544309 0.444513 0.829099
O O13 0.046752 0.303816 0.088004
O O14 0.750000 0.000000 0.600906
#
# Coordination Sequence:
#
# PCOD9408674 Si02
#       6
#     8   8   8   8   8   8
#     4   9  19  39  58  78 110 151 191 240 288 335
#     4  11  17  25  42  71 117 149 171 218 291 341
#     4  10  19  28  43  77 112 146 184 223 270 346
#     4   9  20  35  61  87 104 138 198 245 285 338
#     4  10  20  31  51  75 109 152 189 226 284 335
#     4  11  19  28  47  81 118 149 174 226 298 353
#
# _framework density 20.860405
#
# number of rings (size 3 to 8) (size 9 to 14) (size 15 to 20)
#    0.000    2.000    5.000    0.500    4.667    0.000 
#    0.000    0.833    0.000   24.000    0.000    0.000 
#    0.000    0.000    0.000    0.000    0.000    0.000 
#
# Total GULP energy -267530.841378 kJ/mol
# GULP energy per Si atom -5573.559195 kJ/mol
# Density = 2.081293 g / cm^3
# Si number density = 20.860405 Si / 1000 Ang^3
#
#
#
# Elastic Constant Matrix: (Units=GPa)
#
#
# Indices 1 2 3 4 5 6 
#
# 1 70.6725 20.5042 48.9043 0.0000 0.0000 0.0000
# 2 20.5042 32.7368 32.6195 0.0000 0.0000 0.0000
# 3 48.9043 32.6195 145.9821 0.0000 0.0000 0.0000
# 4 0.0000 0.0000 0.0000 19.8703 0.0000 0.0000
# 5 0.0000 0.0000 0.0000 0.0000 16.0486 0.0000
# 6 0.0000 0.0000 0.0000 0.0000 0.0000 27.4294
#
#
#
# Elastic Compliance Matrix: (Units=1/GPa)
#
#
# Indices 1 2 3 4 5 6 
#
# 1 0.019729 -0.007425 -0.004950 0.000000 0.000000 0.000000
# 2 -0.007425 0.042090 -0.006918 0.000000 0.000000 0.000000
# 3 -0.004950 -0.006918 0.010054 0.000000 0.000000 0.000000
# 4 0.000000 0.000000 0.000000 0.050326 0.000000 0.000000
# 5 0.000000 0.000000 0.000000 0.000000 0.062311 0.000000
# 6 0.000000 0.000000 0.000000 0.000000 0.000000 0.036457
#
#
# Mechanical properties :
#
#
# Convention : Reuss Voigt Hill
#
# Bulk Modulus (GPa) = 30.04057 50.38304 40.21180
# Shear Modulus (GPa) = 18.47409 22.49389 20.48399
#
# Velocity S-wave (km/s) = 2.97914 3.28732 3.13702
# Velocity P-wave (km/s) = 5.12501 6.21398 5.69558
#
# Compressibility (1/GPa) = 0.03328832
#
# Stress axis : x y z
#
# Youngs Moduli (GPa) = 50.68554 23.75866 99.46001
#
# Poissons Ratio (x) = 0.17640 0.49237
# Poissons Ratio (y) = 0.37632 0.68803
# Poissons Ratio (z) = 0.25091 0.16435
#
# Static dielectric constant tensor:
#      x y z
#    x 1.735440 0.000000 0.000000 
#    y 0.000000 1.854430 0.000000 
#    z 0.000000 0.000000 1.789740 
# 
# From -- ./inp_files/39429.got.cif
#   From: 2010.05.17/outbox.cif.g08.bks.cpg/sg52_20_cif.got.tgz:39429.got - 2010.06.03 12:15:38.
