data_PCOD9408257
_publ_section_title
;
Structure prediction by ZEFSAII (Michael W. Deem and Ramdas Pophale) SiO2 
 PCOD9408257
Probable space group: P N N A
;
_chemical_formula_sum "Si O2"
_cell_formula_units_Z 64
_cell_length_a 18.799154
_cell_length_b 7.577851
_cell_length_c 26.064760
_cell_angle_alpha 90.000000
_cell_angle_beta 90.000000
_cell_angle_gamma 90.000000
_cell_volume 3713.112414
_symmetry_space_group_name_H-M "P N N A"
_symmetry_group_IT_number 52
_symmetry_cell_setting 'orthorhombic'
loop_
_space_group_symop_operation_xyz
x,y,z
1/2-x,-y,z
x,1/2-y,1/2-z
1/2-x,1/2+y,1/2-z
-x,-y,-z
1/2+x,y,-z
-x,1/2+y,1/2+z
1/2+x,1/2-y,1/2+z
loop_
_atom_site_type_symbol
_atom_site_label
_atom_site_fract_x
_atom_site_fract_y
_atom_site_fract_z
Si Si1 0.328567 0.788543 0.690002
Si Si2 0.170089 0.000000 0.114195
Si Si3 0.617021 0.704707 0.809242
Si Si4 0.524356 0.500000 0.558398
Si Si5 0.671432 0.711457 0.190002
Si Si6 0.882979 0.795293 0.690758
Si Si7 0.470905 0.209314 0.635079
Si Si8 0.470905 0.790686 0.635079
O O1 0.339552 0.750000 0.750000
O O2 0.250000 0.720112 0.675658
O O3 0.395703 0.727246 0.657457
O O4 0.327180 1.000000 0.684536
O O5 0.157453 0.167518 0.151605
O O6 0.250000 0.000000 0.093910
O O7 0.157453 0.832483 0.151605
O O8 0.108840 0.000000 0.070959
O O9 0.630779 0.750000 0.750000
O O10 0.634276 0.500000 0.818272
O O11 0.533296 0.730997 0.822533
O O12 0.500000 0.500000 0.500000
O O13 0.493624 0.328095 0.587356
O O14 0.493624 0.671904 0.587356
O O15 0.660448 0.750000 0.250000
O O16 0.604297 0.772754 0.157456
O O17 0.869221 0.750000 0.750000
O O18 0.966704 0.769003 0.677467
O O19 0.467452 1.000000 0.623061
#
# Coordination Sequence:
#
# PCOD9408257 Si02
#       8
#     8   8   8   8   8   8   8   8
#     4   9  17  28  44  72 109 144 172 203 251 306
#     4  10  22  38  54  76 110 138 165 213 260 305
#     4  10  18  31  50  77 108 144 178 200 241 306
#     4  10  22  40  60  78  94 128 182 225 264 307
#     4   9  17  28  44  72 109 144 172 203 251 306
#     4  10  18  31  50  77 108 144 178 200 241 306
#     4   9  19  33  52  75 103 136 173 219 258 304
#     4   9  19  33  52  75 103 136 173 219 258 304
#
# _framework density 17.236215000000001
#
# number of rings (size 3 to 8) (size 9 to 14) (size 15 to 20)
#    0.000    2.500    1.250    0.750    1.750    1.500 
#    0.000    1.250    0.000    0.000    0.000    0.000 
#    0.000    0.000    0.000    0.000    0.000    0.000 
#
# Total GULP energy -356917.807773 kJ/mol
# GULP energy per Si atom -5576.840746 kJ/mol
# Density = 1.719698 g / cm^3
# Si number density = 17.236215 Si / 1000 Ang^3
#
#
#
# Elastic Constant Matrix: (Units=GPa)
#
#
# Indices 1 2 3 4 5 6 
#
# 1 142.5807 36.2332 51.9655 0.0000 0.0000 0.0000
# 2 36.2332 71.3385 21.3905 0.0000 0.0000 0.0000
# 3 51.9655 21.3905 82.8419 0.0000 0.0000 0.0000
# 4 0.0000 0.0000 0.0000 15.2467 0.0000 0.0000
# 5 0.0000 0.0000 0.0000 0.0000 7.9315 0.0000
# 6 0.0000 0.0000 0.0000 0.0000 0.0000 -12.2412
#
#
#
# Elastic Compliance Matrix: (Units=1/GPa)
#
#
# Indices 1 2 3 4 5 6 
#
# 1 0.009797 -0.003396 -0.005268 0.000000 0.000000 0.000000
# 2 -0.003396 0.016371 -0.002097 0.000000 0.000000 0.000000
# 3 -0.005268 -0.002097 0.015917 0.000000 0.000000 0.000000
# 4 0.000000 0.000000 0.000000 0.065588 0.000000 0.000000
# 5 0.000000 0.000000 0.000000 0.000000 0.126080 0.000000
# 6 0.000000 0.000000 0.000000 0.000000 0.000000 -0.081692
#
#
# Mechanical properties :
#
#
# Convention : Reuss Voigt Hill
#
# Bulk Modulus (GPa) = 48.63194 57.32661 52.97928
# Shear Modulus (GPa) = 27.71022 14.66554 21.18788
#
# Velocity S-wave (km/s) = 4.01393 2.92011 3.50989
# Velocity P-wave (km/s) = 7.05396 6.68588 6.87239
#
# Compressibility (1/GPa) = 0.02056262
#
# Stress axis : x y z
#
# Youngs Moduli (GPa) = 102.07450 61.08245 62.82411
#
# Poissons Ratio (x) = 0.20744 0.33099
# Poissons Ratio (y) = 0.34666 0.13174
# Poissons Ratio (z) = 0.53778 0.12808
#
# Static dielectric constant tensor:
#      x y z
#    x 1.620880 0.000000 0.000000 
#    y 0.000000 1.601070 0.000000 
#    z 0.000000 0.000000 1.525090 
# 
# From -- ./inp_files/40921.got.cif
#   From: 2010.05.17/outbox.cif.g08.bks.cpg/sg52_21_cif.got.tgz:40921.got - 2010.06.03 12:15:38.
