data_PCOD9408193
_publ_section_title
;
Structure prediction by ZEFSAII (Michael W. Deem and Ramdas Pophale) SiO2 
 PCOD9408193
Probable space group: P N N A
;
_chemical_formula_sum "Si O2"
_cell_formula_units_Z 32
_cell_length_a 8.279197
_cell_length_b 7.317182
_cell_length_c 20.374834
_cell_angle_alpha 90.000000
_cell_angle_beta 90.000000
_cell_angle_gamma 90.000000
_cell_volume 1234.315416
_symmetry_space_group_name_H-M "P N N A"
_symmetry_group_IT_number 52
_symmetry_cell_setting 'orthorhombic'
loop_
_space_group_symop_operation_xyz
x,y,z
1/2-x,-y,z
x,1/2-y,1/2-z
1/2-x,1/2+y,1/2-z
-x,-y,-z
1/2+x,y,-z
-x,1/2+y,1/2+z
1/2+x,1/2-y,1/2+z
loop_
_atom_site_type_symbol
_atom_site_label
_atom_site_fract_x
_atom_site_fract_y
_atom_site_fract_z
Si Si1 0.551353 0.832418 0.404518
Si Si2 0.656041 0.302955 0.477279
Si Si3 0.065523 0.038565 0.275636
Si Si4 0.941711 0.451457 0.636046
O O1 0.715441 0.823792 0.443111
O O2 0.410518 0.801985 0.458774
O O3 0.529967 0.970693 0.344238
O O4 0.545704 0.633702 0.371327
O O5 0.750000 0.500000 0.488746
O O6 0.508771 0.335350 0.425326
O O7 0.060497 0.250000 0.250000
O O8 0.028589 0.910668 0.212756
O O9 0.250000 0.000000 0.294917
O O10 0.750000 0.500000 0.632199
#
# Coordination Sequence:
#
# PCOD9408193 Si02
#       4
#     8   8   8   8
#     4  10  18  30  51  81 114 151 195 246 293 346
#     4  10  18  29  52  81 113 151 196 246 291 352
#     4   9  19  35  58  84 115 156 200 247 299 358
#     4   9  16  30  54  82 108 146 200 249 292 348
#
# _framework density 25.925304000000001
#
# number of rings (size 3 to 8) (size 9 to 14) (size 15 to 20)
#    0.000    2.500    0.000    5.250    0.000    1.000 
#    0.000    1.250    0.000  138.000    0.000    0.000 
#    0.000    0.000    0.000    0.750    0.000    0.000 
#
# Total GULP energy -178498.997154 kJ/mol
# GULP energy per Si atom -5578.093661 kJ/mol
# Density = 2.586630 g / cm^3
# Si number density = 25.925304 Si / 1000 Ang^3
#
#
#
# Elastic Constant Matrix: (Units=GPa)
#
#
# Indices 1 2 3 4 5 6 
#
# 1 103.2683 9.6800 82.5693 0.0000 0.0000 0.0000
# 2 9.6800 59.0086 30.9622 0.0000 0.0000 0.0000
# 3 82.5693 30.9622 252.2584 0.0000 0.0000 0.0000
# 4 0.0000 0.0000 0.0000 67.6246 0.0000 0.0000
# 5 0.0000 0.0000 0.0000 0.0000 7.7160 0.0000
# 6 0.0000 0.0000 0.0000 0.0000 0.0000 4.4973
#
#
#
# Elastic Compliance Matrix: (Units=1/GPa)
#
#
# Indices 1 2 3 4 5 6 
#
# 1 0.013117 0.000108 -0.004307 0.000000 0.000000 0.000000
# 2 0.000108 0.018114 -0.002259 0.000000 0.000000 0.000000
# 3 -0.004307 -0.002259 0.005651 0.000000 0.000000 0.000000
# 4 0.000000 0.000000 0.000000 0.014788 0.000000 0.000000
# 5 0.000000 0.000000 0.000000 0.000000 0.129601 0.000000
# 6 0.000000 0.000000 0.000000 0.000000 0.000000 0.222356
#
#
# Mechanical properties :
#
#
# Convention : Reuss Voigt Hill
#
# Bulk Modulus (GPa) = 41.72349 73.43983 57.58166
# Shear Modulus (GPa) = 11.77772 35.38916 23.58344
#
# Velocity S-wave (km/s) = 2.13373 3.69866 3.01934
# Velocity P-wave (km/s) = 4.71159 6.82855 5.86635
#
# Compressibility (1/GPa) = 0.02396732
#
# Stress axis : x y z
#
# Youngs Moduli (GPa) = 76.23796 55.20564 176.95745
#
# Poissons Ratio (x) = -0.00596 0.76210
# Poissons Ratio (y) = -0.00823 0.39969
# Poissons Ratio (z) = 0.32833 0.12469
#
# Static dielectric constant tensor:
#      x y z
#    x 2.028150 0.000000 0.000000 
#    y 0.000000 1.763240 0.000000 
#    z 0.000000 0.000000 2.153000 
# 
# From -- ./inp_files/30769.got.cif
#   From: 2010.05.17/outbox.cif.g08.bks.cpg/sg52_16_cif.got.tgz:30769.got - 2010.06.03 12:15:38.
