data_PCOD9408371
_publ_section_title
;
Structure prediction by ZEFSAII (Michael W. Deem and Ramdas Pophale) SiO2 
 PCOD9408371
Probable space group: P N N A
;
_chemical_formula_sum "Si O2"
_cell_formula_units_Z 48
_cell_length_a 23.685629
_cell_length_b 12.811337
_cell_length_c 7.719902
_cell_angle_alpha 90.000000
_cell_angle_beta 90.000000
_cell_angle_gamma 90.000000
_cell_volume 2342.562383
_symmetry_space_group_name_H-M "P N N A"
_symmetry_group_IT_number 52
_symmetry_cell_setting 'orthorhombic'
loop_
_space_group_symop_operation_xyz
x,y,z
1/2-x,-y,z
x,1/2-y,1/2-z
1/2-x,1/2+y,1/2-z
-x,-y,-z
1/2+x,y,-z
-x,1/2+y,1/2+z
1/2+x,1/2-y,1/2+z
loop_
_atom_site_type_symbol
_atom_site_label
_atom_site_fract_x
_atom_site_fract_y
_atom_site_fract_z
Si Si1 0.995738 0.250000 0.750000
Si Si2 0.250000 0.000000 0.281742
Si Si3 0.430795 0.114356 0.973525
Si Si4 0.186125 0.675069 0.417695
Si Si5 0.082932 0.312767 0.987292
Si Si6 0.954707 0.598352 0.673980
Si Si7 0.296080 0.703379 0.057722
O O1 0.039195 0.167433 0.665974
O O2 0.957741 0.197406 0.893797
O O3 0.293183 0.065275 0.162942
O O4 0.221259 0.085883 0.401263
O O5 0.366437 0.152025 0.957104
O O6 0.435082 0.002826 0.069464
O O7 0.476730 0.106341 0.819505
O O8 0.171852 0.750000 0.250000
O O9 0.241497 0.730418 0.499320
O O10 0.073146 0.396460 0.138142
O O11 0.065023 0.201530 0.071015
O O12 0.148245 0.299877 0.943257
O O13 0.311420 0.750000 0.250000
#
# Coordination Sequence:
#
# PCOD9408371 Si02
#       7
#     4   4   8   8   8   8   8
#     4  10  22  32  52  72 104 130 172 210 266 286
#     4   8  16  26  44  74  98 130 160 208 252 282
#     4  10  18  33  47  80 103 134 162 218 253 313
#     4   9  17  26  45  74 104 128 164 209 247 300
#     4  10  18  35  50  76  96 136 171 214 242 322
#     4   9  19  30  54  69 107 132 169 202 260 300
#     4   9  16  28  48  75  96 129 167 204 250 298
#
# _framework density 20.490382
#
# number of rings (size 3 to 8) (size 9 to 14) (size 15 to 20)
#    0.000    3.000    2.500    1.000    2.333    0.667 
#    0.000    0.000    0.000    4.000    8.667    0.000 
#    0.000    0.000    0.000    0.000    0.000    0.000 
#
# Total GULP energy -267421.641783 kJ/mol
# GULP energy per Si atom -5571.284204 kJ/mol
# Density = 2.044374 g / cm^3
# Si number density = 20.490382 Si / 1000 Ang^3
#
#
#
# Elastic Constant Matrix: (Units=GPa)
#
#
# Indices 1 2 3 4 5 6 
#
# 1 163.8366 22.6501 11.8562 0.0000 0.0000 0.0000
# 2 22.6501 70.2166 -8.2653 0.0000 0.0000 0.0000
# 3 11.8562 -8.2653 20.9321 0.0000 0.0000 0.0000
# 4 0.0000 0.0000 0.0000 10.3028 0.0000 0.0000
# 5 0.0000 0.0000 0.0000 0.0000 6.8613 0.0000
# 6 0.0000 0.0000 0.0000 0.0000 0.0000 12.9452
#
#
#
# Elastic Compliance Matrix: (Units=1/GPa)
#
#
# Indices 1 2 3 4 5 6 
#
# 1 0.006851 -0.002797 -0.004985 0.000000 0.000000 0.000000
# 2 -0.002797 0.016078 0.007933 0.000000 0.000000 0.000000
# 3 -0.004985 0.007933 0.053729 0.000000 0.000000 0.000000
# 4 0.000000 0.000000 0.000000 0.097061 0.000000 0.000000
# 5 0.000000 0.000000 0.000000 0.000000 0.145746 0.000000
# 6 0.000000 0.000000 0.000000 0.000000 0.000000 0.077249
#
#
# Mechanical properties :
#
#
# Convention : Reuss Voigt Hill
#
# Bulk Modulus (GPa) = 12.99382 34.16305 23.57843
# Shear Modulus (GPa) = 11.84654 21.27148 16.55901
#
# Velocity S-wave (km/s) = 2.40709 3.22548 2.84586
# Velocity P-wave (km/s) = 3.75241 5.52997 4.72553
#
# Compressibility (1/GPa) = 0.07695967
#
# Stress axis : x y z
#
# Youngs Moduli (GPa) = 145.96366 62.19855 18.61186
#
# Poissons Ratio (x) = 0.17395 0.09278
# Poissons Ratio (y) = 0.40822 -0.14764
# Poissons Ratio (z) = 0.72760 -0.49339
#
# Static dielectric constant tensor:
#      x y z
#    x 1.787220 0.000000 0.000000 
#    y 0.000000 1.740000 0.000000 
#    z 0.000000 0.000000 1.782250 
# 
# From -- ./inp_files/14389.got.cif
#   From: 2010.05.17/outbox.cif.g08.bks.cpg/sg52_8_cif.got.tgz:14389.got - 2010.06.03 12:15:38.
