data_PCOD9408307
_publ_section_title
;
Structure prediction by ZEFSAII (Michael W. Deem and Ramdas Pophale) SiO2 
 PCOD9408307
Probable space group: P N N A
;
_chemical_formula_sum "Si O2"
_cell_formula_units_Z 48
_cell_length_a 27.383957
_cell_length_b 5.416743
_cell_length_c 19.687959
_cell_angle_alpha 90.000000
_cell_angle_beta 90.000000
_cell_angle_gamma 90.000000
_cell_volume 2920.351527
_symmetry_space_group_name_H-M "P N N A"
_symmetry_group_IT_number 52
_symmetry_cell_setting 'orthorhombic'
loop_
_space_group_symop_operation_xyz
x,y,z
1/2-x,-y,z
x,1/2-y,1/2-z
1/2-x,1/2+y,1/2-z
-x,-y,-z
1/2+x,y,-z
-x,1/2+y,1/2+z
1/2+x,1/2-y,1/2+z
loop_
_atom_site_type_symbol
_atom_site_label
_atom_site_fract_x
_atom_site_fract_y
_atom_site_fract_z
Si Si1 0.195280 0.596235 0.099180
Si Si2 0.640762 0.085303 0.929514
Si Si3 0.574730 0.617699 0.685858
Si Si4 0.455377 0.689281 0.500133
Si Si5 0.500713 0.483283 0.117270
Si Si6 0.719490 0.750000 0.750000
Si Si7 0.497485 0.250000 0.750000
O O1 0.250000 0.500000 0.084715
O O2 0.162502 0.360325 0.078078
O O3 0.194204 0.657509 0.180171
O O4 0.178145 0.853525 0.064054
O O5 0.598246 0.082530 0.986554
O O6 0.612533 0.026775 0.859523
O O7 0.598719 0.750000 0.750000
O O8 0.542721 0.806983 0.642599
O O9 0.533271 0.445399 0.716271
O O10 0.500000 0.500000 0.500000
O O11 0.460500 0.842853 0.569690
O O12 0.470746 0.845288 0.434244
O O13 0.524873 0.614714 0.183435
O O14 0.750000 0.500000 0.729468
#
# Coordination Sequence:
#
# PCOD9408307 Si02
#       7
#     8   8   8   8   8   4   4
#     4  11  25  41  54  73 103 136 189 242 289 332
#     4  12  23  37  56  78  98 146 183 234 285 326
#     4  10  21  32  47  78 102 140 183 232 268 325
#     4  11  21  34  52  76 108 140 181 240 266 338
#     4  10  19  34  50  70 113 138 185 225 276 318
#     4  10  20  40  59  72  98 140 178 242 307 318
#     4  10  18  32  51  72 106 146 182 224 277 324
#
# _framework density 16.436378000000001
#
# number of rings (size 3 to 8) (size 9 to 14) (size 15 to 20)
#    0.000    1.333    3.333    3.500    5.833    0.000 
#    0.000    0.000    0.000    0.000    0.000    0.000 
#    0.000    0.000    0.000    0.000   15.833    7.833 
#
# Total GULP energy -267346.613161 kJ/mol
# GULP energy per Si atom -5569.721108 kJ/mol
# Density = 1.639897 g / cm^3
# Si number density = 16.436378 Si / 1000 Ang^3
#
#
#
# Elastic Constant Matrix: (Units=GPa)
#
#
# Indices 1 2 3 4 5 6 
#
# 1 74.4979 36.3117 30.1813 0.0000 0.0000 0.0000
# 2 36.3117 107.3190 36.8498 0.0000 0.0000 0.0000
# 3 30.1813 36.8498 84.1012 0.0000 0.0000 0.0000
# 4 0.0000 0.0000 0.0000 43.2968 0.0000 0.0000
# 5 0.0000 0.0000 0.0000 0.0000 30.6769 0.0000
# 6 0.0000 0.0000 0.0000 0.0000 0.0000 42.8941
#
#
#
# Elastic Compliance Matrix: (Units=1/GPa)
#
#
# Indices 1 2 3 4 5 6 
#
# 1 0.017295 -0.004380 -0.004288 0.000000 0.000000 0.000000
# 2 -0.004380 0.012077 -0.003720 0.000000 0.000000 0.000000
# 3 -0.004288 -0.003720 0.015059 0.000000 0.000000 0.000000
# 4 0.000000 0.000000 0.000000 0.023096 0.000000 0.000000
# 5 0.000000 0.000000 0.000000 0.000000 0.032598 0.000000
# 6 0.000000 0.000000 0.000000 0.000000 0.000000 0.023313
#
#
# Mechanical properties :
#
#
# Convention : Reuss Voigt Hill
#
# Bulk Modulus (GPa) = 50.87325 52.51153 51.69239
# Shear Modulus (GPa) = 32.30696 34.21193 33.25945
#
# Velocity S-wave (km/s) = 4.43829 4.56727 4.50324
# Velocity P-wave (km/s) = 7.56858 7.73505 7.65227
#
# Compressibility (1/GPa) = 0.01965670
#
# Stress axis : x y z
#
# Youngs Moduli (GPa) = 57.82042 82.80070 66.40495
#
# Poissons Ratio (x) = 0.36263 0.28472
# Poissons Ratio (y) = 0.25323 0.24703
# Poissons Ratio (z) = 0.24791 0.30802
#
# Static dielectric constant tensor:
#      x y z
#    x 1.640220 0.000000 0.000000 
#    y 0.000000 2.020990 0.000000 
#    z 0.000000 0.000000 1.557270 
# 
# From -- ./inp_files/38223.got.cif
#   From: 2010.05.17/outbox.cif.g08.bks.cpg/sg52_20_cif.got.tgz:38223.got - 2010.06.03 12:15:38.
