data_PCOD9408413
_publ_section_title
;
Structure prediction by ZEFSAII (Michael W. Deem and Ramdas Pophale) SiO2 
 PCOD9408413
Probable space group: P N N A
;
_chemical_formula_sum "Si O2"
_cell_formula_units_Z 40
_cell_length_a 7.380869
_cell_length_b 13.945967
_cell_length_c 16.326932
_cell_angle_alpha 90.000000
_cell_angle_beta 90.000000
_cell_angle_gamma 90.000000
_cell_volume 1680.585896
_symmetry_space_group_name_H-M "P N N A"
_symmetry_group_IT_number 52
_symmetry_cell_setting 'orthorhombic'
loop_
_space_group_symop_operation_xyz
x,y,z
1/2-x,-y,z
x,1/2-y,1/2-z
1/2-x,1/2+y,1/2-z
-x,-y,-z
1/2+x,y,-z
-x,1/2+y,1/2+z
1/2+x,1/2-y,1/2+z
loop_
_atom_site_type_symbol
_atom_site_label
_atom_site_fract_x
_atom_site_fract_y
_atom_site_fract_z
Si Si1 0.386812 0.135031 0.057463
Si Si2 0.490066 0.065030 0.892237
Si Si3 0.032827 0.498316 0.095688
Si Si4 0.558775 0.690486 0.824951
Si Si5 0.520867 0.146956 0.721756
O O1 0.193369 0.103430 0.092386
O O2 0.429062 0.236427 0.098315
O O3 0.517572 0.047056 0.084539
O O4 0.382118 0.128104 0.958949
O O5 0.464761 0.078500 0.796420
O O6 0.250000 0.500000 0.105276
O O7 0.968909 0.592968 0.143857
O O8 0.960835 0.402042 0.137979
O O9 0.000000 0.500000 0.000000
O O10 0.473932 0.750000 0.750000
O O11 0.760415 0.661145 0.790893
O O12 0.453004 0.250000 0.750000
#
# Coordination Sequence:
#
# PCOD9408413 Si02
#       5
#     8   8   8   8   8
#     4  10  20  32  57  83 114 146 183 243 275 345
#     4  10  20  35  55  85 116 143 193 232 292 328
#     4  10  23  37  60  87 115 150 193 241 284 340
#     4  10  18  33  59  86 105 149 200 230 270 335
#     4  10  19  34  59  82 107 154 191 235 268 348
#
# _framework density 23.801223
#
# number of rings (size 3 to 8) (size 9 to 14) (size 15 to 20)
#    0.000    2.000    4.000    1.200    8.400    0.000 
#    0.000    0.000   13.200    0.000    0.000    0.000 
#    0.000    0.000    0.000    0.000    0.000    0.000 
#
# Total GULP energy -223381.090116 kJ/mol
# GULP energy per Si atom -5584.527253 kJ/mol
# Density = 2.374705 g / cm^3
# Si number density = 23.801223 Si / 1000 Ang^3
#
#
#
# Elastic Constant Matrix: (Units=GPa)
#
#
# Indices 1 2 3 4 5 6 
#
# 1 50.0328 10.9228 9.8505 0.0000 0.0000 0.0000
# 2 10.9228 119.8422 63.5064 0.0000 0.0000 0.0000
# 3 9.8505 63.5064 178.8026 0.0000 0.0000 0.0000
# 4 0.0000 0.0000 0.0000 43.8738 0.0000 0.0000
# 5 0.0000 0.0000 0.0000 0.0000 20.4157 0.0000
# 6 0.0000 0.0000 0.0000 0.0000 0.0000 -0.4042
#
#
#
# Elastic Compliance Matrix: (Units=1/GPa)
#
#
# Indices 1 2 3 4 5 6 
#
# 1 0.020440 -0.001560 -0.000572 0.000000 0.000000 0.000000
# 2 -0.001560 0.010398 -0.003607 0.000000 0.000000 0.000000
# 3 -0.000572 -0.003607 0.006905 0.000000 0.000000 0.000000
# 4 0.000000 0.000000 0.000000 0.022793 0.000000 0.000000
# 5 0.000000 0.000000 0.000000 0.000000 0.048982 0.000000
# 6 0.000000 0.000000 0.000000 0.000000 0.000000 -2.473882
#
#
# Mechanical properties :
#
#
# Convention : Reuss Voigt Hill
#
# Bulk Modulus (GPa) = 38.07297 57.47077 47.77187
# Shear Modulus (GPa) = -2.13299 30.40359 14.13530
#
# Velocity S-wave (km/s) = -0.94769 3.57795 2.43963
# Velocity P-wave (km/s) = 3.85142 6.42398 5.29627
#
# Compressibility (1/GPa) = 0.02626535
#
# Stress axis : x y z
#
# Youngs Moduli (GPa) = 48.92359 96.17259 144.81302
#
# Poissons Ratio (x) = 0.15001 0.08284
# Poissons Ratio (y) = 0.07631 0.52237
# Poissons Ratio (z) = 0.02799 0.34691
#
# Static dielectric constant tensor:
#      x y z
#    x 1.975540 0.000000 0.000000 
#    y 0.000000 1.871890 0.000000 
#    z 0.000000 0.000000 1.891560 
# 
# From -- ./inp_files/24434.got.cif
#   From: 2010.05.17/outbox.cif.g08.bks.cpg/sg52_13_cif.got.tgz:24434.got - 2010.06.03 12:15:38.
