data_PCOD9408162
_publ_section_title
;
Structure prediction by ZEFSAII (Michael W. Deem and Ramdas Pophale) SiO2 
 PCOD9408162
Probable space group: P N N A
;
_chemical_formula_sum "Si O2"
_cell_formula_units_Z 56
_cell_length_a 9.203009
_cell_length_b 12.438658
_cell_length_c 24.403771
_cell_angle_alpha 90.000000
_cell_angle_beta 90.000000
_cell_angle_gamma 90.000000
_cell_volume 2793.574867
_symmetry_space_group_name_H-M "P N N A"
_symmetry_group_IT_number 52
_symmetry_cell_setting 'orthorhombic'
loop_
_space_group_symop_operation_xyz
x,y,z
1/2-x,-y,z
x,1/2-y,1/2-z
1/2-x,1/2+y,1/2-z
-x,-y,-z
1/2+x,y,-z
-x,1/2+y,1/2+z
1/2+x,1/2-y,1/2+z
loop_
_atom_site_type_symbol
_atom_site_label
_atom_site_fract_x
_atom_site_fract_y
_atom_site_fract_z
Si Si1 0.085513 0.485908 0.338040
Si Si2 0.038978 0.165717 0.578534
Si Si3 0.384620 0.752773 0.185311
Si Si4 0.773900 0.793141 0.522424
Si Si5 0.615241 0.445605 0.537153
Si Si6 0.462498 0.286140 0.312725
Si Si7 0.399574 0.553111 0.112304
O O1 0.250000 0.500000 0.314798
O O2 0.038009 0.363994 0.330260
O O3 0.096135 0.495962 0.403026
O O4 0.002327 0.587212 0.314701
O O5 0.895564 0.202648 0.542017
O O6 0.041397 0.229086 0.636238
O O7 0.180245 0.185799 0.540629
O O8 0.008741 0.041938 0.596027
O O9 0.396645 0.750000 0.250000
O O10 0.210331 0.765397 0.173372
O O11 0.442122 0.647102 0.154618
O O12 0.849870 0.680492 0.539474
O O13 0.850982 0.886513 0.557179
O O14 0.750000 0.500000 0.509073
O O15 0.500000 0.500000 0.500000
O O16 0.486683 0.250000 0.250000
O O17 0.250000 0.500000 0.135195
#
# Coordination Sequence:
#
# PCOD9408162 Si02
#       7
#     8   8   8   8   8   8   8
#     4   9  17  30  44  69 103 135 173 217 276 329
#     4  11  22  36  58  81 116 152 191 235 285 348
#     4  10  18  28  49  73 106 145 177 226 281 335
#     4  11  20  37  52  81 112 150 191 235 289 340
#     4  11  20  32  53  75 110 141 178 228 277 335
#     4  10  19  31  49  77 109 146 181 229 290 343
#     4  10  19  33  50  75 112 148 186 229 281 344
#
# _framework density 20.045998999999998
#
# number of rings (size 3 to 8) (size 9 to 14) (size 15 to 20)
#    0.000    1.714    4.286    3.857    2.000    0.571 
#    0.000    0.000    0.000    0.000    0.000    2.000 
#    0.000    1.429    0.000    0.000    0.000    0.000 
#
# Total GULP energy -311856.266274 kJ/mol
# GULP energy per Si atom -5568.861898 kJ/mol
# Density = 2.000037 g / cm^3
# Si number density = 20.045999 Si / 1000 Ang^3
#
#
#
# Elastic Constant Matrix: (Units=GPa)
#
#
# Indices 1 2 3 4 5 6 
#
# 1 24.4137 13.2916 25.4048 0.0000 0.0000 0.0000
# 2 13.2916 147.8890 40.9503 0.0000 0.0000 0.0000
# 3 25.4048 40.9503 90.9200 0.0000 0.0000 0.0000
# 4 0.0000 0.0000 0.0000 38.9570 0.0000 0.0000
# 5 0.0000 0.0000 0.0000 0.0000 15.2919 0.0000
# 6 0.0000 0.0000 0.0000 0.0000 0.0000 4.0580
#
#
#
# Elastic Compliance Matrix: (Units=1/GPa)
#
#
# Indices 1 2 3 4 5 6 
#
# 1 0.057841 -0.000826 -0.015790 0.000000 0.000000 0.000000
# 2 -0.000826 0.007737 -0.003254 0.000000 0.000000 0.000000
# 3 -0.015790 -0.003254 0.016876 0.000000 0.000000 0.000000
# 4 0.000000 0.000000 0.000000 0.025669 0.000000 0.000000
# 5 0.000000 0.000000 0.000000 0.000000 0.065394 0.000000
# 6 0.000000 0.000000 0.000000 0.000000 0.000000 0.246426
#
#
# Mechanical properties :
#
#
# Convention : Reuss Voigt Hill
#
# Bulk Modulus (GPa) = 23.41120 46.94623 35.17871
# Shear Modulus (GPa) = 10.55024 23.89977 17.22501
#
# Velocity S-wave (km/s) = 2.29661 3.45664 2.93452
# Velocity P-wave (km/s) = 4.32859 6.27704 5.39156
#
# Compressibility (1/GPa) = 0.04271461
#
# Stress axis : x y z
#
# Youngs Moduli (GPa) = 17.28864 129.24750 59.25495
#
# Poissons Ratio (x) = 0.10680 0.93563
# Poissons Ratio (y) = 0.01429 0.19281
# Poissons Ratio (z) = 0.27299 0.42056
#
# Static dielectric constant tensor:
#      x y z
#    x 1.673090 0.000000 0.000000 
#    y 0.000000 1.798840 0.000000 
#    z 0.000000 0.000000 1.804920 
# 
# From -- ./inp_files/40293.got.cif
#   From: 2010.05.17/outbox.cif.g08.bks.cpg/sg52_21_cif.got.tgz:40293.got - 2010.06.03 12:15:38.
