data_PCOD9408961
_publ_section_title
;
Structure prediction by ZEFSAII (Michael W. Deem and Ramdas Pophale) SiO2 
 PCOD9408961
Probable space group: P N N A
;
_chemical_formula_sum "Si O2"
_cell_formula_units_Z 56
_cell_length_a 9.592498
_cell_length_b 19.811189
_cell_length_c 15.186973
_cell_angle_alpha 90.000000
_cell_angle_beta 90.000000
_cell_angle_gamma 90.000000
_cell_volume 2886.113986
_symmetry_space_group_name_H-M "P N N A"
_symmetry_group_IT_number 52
_symmetry_cell_setting 'orthorhombic'
loop_
_space_group_symop_operation_xyz
x,y,z
1/2-x,-y,z
x,1/2-y,1/2-z
1/2-x,1/2+y,1/2-z
-x,-y,-z
1/2+x,y,-z
-x,1/2+y,1/2+z
1/2+x,1/2-y,1/2+z
loop_
_atom_site_type_symbol
_atom_site_label
_atom_site_fract_x
_atom_site_fract_y
_atom_site_fract_z
Si Si1 0.486176 0.349399 0.496211
Si Si2 0.219909 0.648799 0.807414
Si Si3 0.269378 0.080884 0.297289
Si Si4 0.022716 0.409793 0.087125
Si Si5 0.271174 0.919549 0.102714
Si Si6 0.960053 0.568931 0.112862
Si Si7 0.744881 0.204124 0.117307
O O1 0.368855 0.388835 0.440239
O O2 0.587079 0.398012 0.553636
O O3 0.602846 0.313118 0.435444
O O4 0.385070 0.303939 0.558057
O O5 0.068334 0.634394 0.846817
O O6 0.312072 0.589660 0.849694
O O7 0.267276 0.720276 0.846778
O O8 0.233939 0.655212 0.702243
O O9 0.220054 0.106356 0.203192
O O10 0.428736 0.095667 0.316881
O O11 0.180004 0.101959 0.381315
O O12 0.250000 0.000000 0.293472
O O13 0.981958 0.488585 0.102559
O O14 0.011589 0.399112 0.983046
O O15 0.250000 0.000000 0.101344
#
# Coordination Sequence:
#
# PCOD9408961 Si02
#       7
#     8   8   8   8   8   8   8
#     4  10  21  40  58  78 115 146 186 238 282 336
#     4  11  22  38  58  84 113 151 199 240 281 353
#     4   9  18  32  51  80 114 141 172 219 282 340
#     4  10  20  35  57  86 118 149 187 239 296 349
#     4  10  19  34  59  85 109 142 182 231 284 336
#     4  10  20  35  57  86 118 149 187 239 296 349
#     4  10  24  40  58  81 114 155 199 236 283 338
#
# _framework density 19.403252999999999
#
# number of rings (size 3 to 8) (size 9 to 14) (size 15 to 20)
#    0.000    2.000    0.000    3.429    2.000    2.286 
#    0.000    7.143    0.000    6.857    0.000    0.000 
#    0.000    0.000    0.000    0.000    0.000    0.000 
#
# Total GULP energy -312151.848817 kJ/mol
# GULP energy per Si atom -5574.140157 kJ/mol
# Density = 1.935909 g / cm^3
# Si number density = 19.403253 Si / 1000 Ang^3
#
#
#
# Elastic Constant Matrix: (Units=GPa)
#
#
# Indices 1 2 3 4 5 6 
#
# 1 93.5980 3.5623 23.5559 0.0000 0.0000 0.0000
# 2 3.5623 17.3611 12.7532 0.0000 0.0000 0.0000
# 3 23.5559 12.7532 105.7138 0.0000 0.0000 0.0000
# 4 0.0000 0.0000 0.0000 523.3958 0.0000 0.0000
# 5 0.0000 0.0000 0.0000 0.0000 30.8801 0.0000
# 6 0.0000 0.0000 0.0000 0.0000 0.0000 10.8313
#
#
#
# Elastic Compliance Matrix: (Units=1/GPa)
#
#
# Indices 1 2 3 4 5 6 
#
# 1 0.011323 -0.000516 -0.002461 0.000000 0.000000 0.000000
# 2 -0.000516 0.063224 -0.007512 0.000000 0.000000 0.000000
# 3 -0.002461 -0.007512 0.010914 0.000000 0.000000 0.000000
# 4 0.000000 0.000000 0.000000 0.001911 0.000000 0.000000
# 5 0.000000 0.000000 0.000000 0.000000 0.032383 0.000000
# 6 0.000000 0.000000 0.000000 0.000000 0.000000 0.092325
#
#
# Mechanical properties :
#
#
# Convention : Reuss Voigt Hill
#
# Bulk Modulus (GPa) = 15.50784 32.93508 24.22146
# Shear Modulus (GPa) = 19.64233 124.80820 72.22527
#
# Velocity S-wave (km/s) = 3.18515 8.02888 6.10771
# Velocity P-wave (km/s) = 4.64076 10.14699 7.88981
#
# Compressibility (1/GPa) = 0.06448353
#
# Stress axis : x y z
#
# Youngs Moduli (GPa) = 88.31629 15.81673 91.62431
#
# Poissons Ratio (x) = 0.00816 0.22547
# Poissons Ratio (y) = 0.04554 0.68832
# Poissons Ratio (z) = 0.21733 0.11882
#
# Static dielectric constant tensor:
#      x y z
#    x 1.683790 0.000000 0.000000 
#    y 0.000000 1.671850 0.000000 
#    z 0.000000 0.000000 1.681450 
# 
# From -- ./inp_files/24952.got.cif
#   From: 2010.05.17/outbox.cif.g08.bks.cpg/sg52_13_cif.got.tgz:24952.got - 2010.06.03 12:15:38.
