data_PCOD9408372
_publ_section_title
;
Structure prediction by ZEFSAII (Michael W. Deem and Ramdas Pophale) SiO2 
 PCOD9408372
Probable space group: P N N A
;
_chemical_formula_sum "Si O2"
_cell_formula_units_Z 56
_cell_length_a 7.951046
_cell_length_b 20.075277
_cell_length_c 13.589740
_cell_angle_alpha 90.000000
_cell_angle_beta 90.000000
_cell_angle_gamma 90.000000
_cell_volume 2169.186837
_symmetry_space_group_name_H-M "P N N A"
_symmetry_group_IT_number 52
_symmetry_cell_setting 'orthorhombic'
loop_
_space_group_symop_operation_xyz
x,y,z
1/2-x,-y,z
x,1/2-y,1/2-z
1/2-x,1/2+y,1/2-z
-x,-y,-z
1/2+x,y,-z
-x,1/2+y,1/2+z
1/2+x,1/2-y,1/2+z
loop_
_atom_site_type_symbol
_atom_site_label
_atom_site_fract_x
_atom_site_fract_y
_atom_site_fract_z
Si Si1 0.700272 0.579394 0.671648
Si Si2 0.833074 0.926639 0.617044
Si Si3 0.829540 0.295013 0.349441
Si Si4 0.184239 0.223860 0.135089
Si Si5 0.235998 0.896721 0.604226
Si Si6 0.187222 0.068056 0.806982
Si Si7 0.525721 0.230967 0.365916
O O1 0.750000 0.500000 0.654259
O O2 0.754147 0.600916 0.782612
O O3 0.772404 0.645403 0.618069
O O4 0.500482 0.582369 0.659734
O O5 0.769724 0.908252 0.509472
O O6 0.033539 0.908047 0.618762
O O7 0.750000 0.000000 0.624661
O O8 0.823398 0.250000 0.250000
O O9 0.994719 0.268966 0.401959
O O10 0.822467 0.372859 0.321819
O O11 0.653944 0.286516 0.404621
O O12 0.168021 0.250000 0.250000
O O13 0.337977 0.267412 0.093886
O O14 0.322996 0.941139 0.688742
O O15 0.353341 0.831841 0.623556
O O16 0.250000 0.000000 0.853830
O O17 0.499642 0.250000 0.250000
#
# Coordination Sequence:
#
# PCOD9408372 Si02
#       7
#     8   8   8   8   8   8   8
#     4  11  22  36  52  80 113 156 203 239 296 357
#     4  11  24  39  54  80 116 164 215 255 294 355
#     4  10  18  33  50  76 103 137 188 227 302 353
#     4  10  19  32  55  77 107 142 192 243 298 359
#     4  12  22  38  56  77 113 157 212 257 303 356
#     4  12  20  32  53  76 109 146 194 240 287 355
#     4  10  19  36  54  80 102 145 198 245 309 358
#
# _framework density 25.816127000000002
#
# number of rings (size 3 to 8) (size 9 to 14) (size 15 to 20)
#    0.000    1.143    4.286    6.000    2.000    0.000 
#    0.000    0.000    0.000    0.000    0.000    0.000 
#    0.000    0.000    0.000   11.571    0.857    0.000 
#
# Total GULP energy -311889.242996 kJ/mol
# GULP energy per Si atom -5569.450768 kJ/mol
# Density = 2.575737 g / cm^3
# Si number density = 25.816127 Si / 1000 Ang^3
#
#
#
# Elastic Constant Matrix: (Units=GPa)
#
#
# Indices 1 2 3 4 5 6 
#
# 1 213.3611 16.8413 8.1764 0.0000 0.0000 0.0000
# 2 16.8413 146.8672 -4.2867 0.0000 0.0000 0.0000
# 3 8.1764 -4.2867 39.1285 0.0000 0.0000 0.0000
# 4 0.0000 0.0000 0.0000 12.6927 0.0000 0.0000
# 5 0.0000 0.0000 0.0000 0.0000 114.4418 0.0000
# 6 0.0000 0.0000 0.0000 0.0000 0.0000 37.8473
#
#
#
# Elastic Compliance Matrix: (Units=1/GPa)
#
#
# Indices 1 2 3 4 5 6 
#
# 1 0.004773 -0.000578 -0.001061 0.000000 0.000000 0.000000
# 2 -0.000578 0.006901 0.000877 0.000000 0.000000 0.000000
# 3 -0.001061 0.000877 0.025875 0.000000 0.000000 0.000000
# 4 0.000000 0.000000 0.000000 0.078786 0.000000 0.000000
# 5 0.000000 0.000000 0.000000 0.000000 0.008738 0.000000
# 6 0.000000 0.000000 0.000000 0.000000 0.000000 0.026422
#
#
# Mechanical properties :
#
#
# Convention : Reuss Voigt Hill
#
# Bulk Modulus (GPa) = 27.75920 48.97985 38.36953
# Shear Modulus (GPa) = 30.29814 58.23806 44.26810
#
# Velocity S-wave (km/s) = 3.42952 4.75476 4.14544
# Velocity P-wave (km/s) = 5.14375 7.01124 6.14880
#
# Compressibility (1/GPa) = 0.03602409
#
# Stress axis : x y z
#
# Youngs Moduli (GPa) = 209.50354 144.91113 38.64801
#
# Poissons Ratio (x) = 0.08380 0.04100
# Poissons Ratio (y) = 0.12116 -0.03389
# Poissons Ratio (z) = 0.22224 -0.12707
#
# Static dielectric constant tensor:
#      x y z
#    x 2.066670 0.000000 0.000000 
#    y 0.000000 2.286510 0.000000 
#    z 0.000000 0.000000 2.340240 
# 
# From -- ./inp_files/36118.got.cif
#   From: 2010.05.17/outbox.cif.g08.bks.cpg/sg52_19_cif.got.tgz:36118.got - 2010.06.03 12:15:38.
