data_PCOD9408876
_publ_section_title
;
Structure prediction by ZEFSAII (Michael W. Deem and Ramdas Pophale) SiO2 
 PCOD9408876
Probable space group: P N N A
;
_chemical_formula_sum "Si O2"
_cell_formula_units_Z 60
_cell_length_a 26.406358
_cell_length_b 14.010703
_cell_length_c 9.121367
_cell_angle_alpha 90.000000
_cell_angle_beta 90.000000
_cell_angle_gamma 90.000000
_cell_volume 3374.647101
_symmetry_space_group_name_H-M "P N N A"
_symmetry_group_IT_number 52
_symmetry_cell_setting 'orthorhombic'
loop_
_space_group_symop_operation_xyz
x,y,z
1/2-x,-y,z
x,1/2-y,1/2-z
1/2-x,1/2+y,1/2-z
-x,-y,-z
1/2+x,y,-z
-x,1/2+y,1/2+z
1/2+x,1/2-y,1/2+z
loop_
_atom_site_type_symbol
_atom_site_label
_atom_site_fract_x
_atom_site_fract_y
_atom_site_fract_z
Si Si1 0.794155 0.855817 0.235896
Si Si2 0.419927 0.142204 0.303364
Si Si3 0.250000 0.500000 0.517238
Si Si4 0.355275 0.617658 0.016694
Si Si5 0.346207 0.981029 0.188735
Si Si6 0.609245 0.167668 0.030222
Si Si7 0.018091 0.056012 0.856049
Si Si8 0.554668 0.527236 0.067318
O O1 0.773384 0.750000 0.250000
O O2 0.811118 0.891159 0.395387
O O3 0.757783 0.913783 0.130276
O O4 0.847939 0.850430 0.152007
O O5 0.412678 0.250000 0.250000
O O6 0.374638 0.074831 0.245862
O O7 0.470081 0.100592 0.225779
O O8 0.427992 0.122260 0.478325
O O9 0.298844 0.494311 0.413618
O O10 0.332884 0.582457 0.170092
O O11 0.378196 0.725087 0.022036
O O12 0.402602 0.550117 0.975529
O O13 0.382691 0.911640 0.094896
O O14 0.555421 0.142928 0.100640
O O15 0.046369 0.983792 0.742103
O O16 0.000000 0.000000 0.000000
O O17 0.500000 0.500000 0.000000
#
# Coordination Sequence:
#
# PCOD9408876 Si02
#       8
#     8   8   4   8   8   8   8   8
#     4   9  19  36  60  88 110 142 196 242 295 356
#     4  10  22  38  55  78 118 162 195 232 283 351
#     4  10  22  40  64  80 116 150 184 256 312 348
#     4  10  19  34  59  86 115 148 192 245 287 345
#     4  10  21  40  56  83 115 151 193 241 300 344
#     4  10  19  33  57  87 118 148 188 239 295 335
#     4  11  20  34  57  84 120 158 192 236 289 348
#     4   9  20  34  52  81 116 153 199 232 274 348
#
# _framework density 17.779637000000001
#
# number of rings (size 3 to 8) (size 9 to 14) (size 15 to 20)
#    0.000    2.133    2.667    0.400    3.733    0.533 
#    0.000    7.333    0.000    0.000    0.000    0.000 
#    0.000    0.000    0.000    0.000    0.000    0.000 
#
# Total GULP energy -334204.741422 kJ/mol
# GULP energy per Si atom -5570.079024 kJ/mol
# Density = 1.773917 g / cm^3
# Si number density = 17.779637 Si / 1000 Ang^3
#
#
#
# Elastic Constant Matrix: (Units=GPa)
#
#
# Indices 1 2 3 4 5 6 
#
# 1 53.2242 27.9782 42.5401 0.0000 0.0000 0.0000
# 2 27.9782 99.6019 62.0086 0.0000 0.0000 0.0000
# 3 42.5401 62.0086 114.9376 0.0000 0.0000 0.0000
# 4 0.0000 0.0000 0.0000 25.1926 0.0000 0.0000
# 5 0.0000 0.0000 0.0000 0.0000 19.1206 0.0000
# 6 0.0000 0.0000 0.0000 0.0000 0.0000 11.2951
#
#
#
# Elastic Compliance Matrix: (Units=1/GPa)
#
#
# Indices 1 2 3 4 5 6 
#
# 1 0.026956 -0.002049 -0.008871 0.000000 0.000000 0.000000
# 2 -0.002049 0.015273 -0.007482 0.000000 0.000000 0.000000
# 3 -0.008871 -0.007482 0.016020 0.000000 0.000000 0.000000
# 4 0.000000 0.000000 0.000000 0.039694 0.000000 0.000000
# 5 0.000000 0.000000 0.000000 0.000000 0.052300 0.000000
# 6 0.000000 0.000000 0.000000 0.000000 0.000000 0.088534
#
#
# Mechanical properties :
#
#
# Convention : Reuss Voigt Hill
#
# Bulk Modulus (GPa) = 46.62959 59.20194 52.91577
# Shear Modulus (GPa) = 17.68474 20.13745 18.91109
#
# Velocity S-wave (km/s) = 3.15725 3.36908 3.26488
# Velocity P-wave (km/s) = 6.29081 6.96449 6.63621
#
# Compressibility (1/GPa) = 0.02144561
#
# Stress axis : x y z
#
# Youngs Moduli (GPa) = 37.09734 65.47387 62.42150
#
# Poissons Ratio (x) = 0.13415 0.55377
# Poissons Ratio (y) = 0.07601 0.46701
# Poissons Ratio (z) = 0.32911 0.48985
#
# Static dielectric constant tensor:
#      x y z
#    x 1.598120 0.000000 0.000000 
#    y 0.000000 1.586990 0.000000 
#    z 0.000000 0.000000 1.626760 
# 
# From -- ./inp_files/15099.got.cif
#   From: 2010.05.17/outbox.cif.g08.bks.cpg/sg52_8_cif.got.tgz:15099.got - 2010.06.03 12:15:38.
