data_PCOD9408534
_publ_section_title
;
Structure prediction by ZEFSAII (Michael W. Deem and Ramdas Pophale) SiO2 
 PCOD9408534
Probable space group: P N N A
;
_chemical_formula_sum "Si O2"
_cell_formula_units_Z 60
_cell_length_a 20.259174
_cell_length_b 12.653779
_cell_length_c 9.897268
_cell_angle_alpha 90.000000
_cell_angle_beta 90.000000
_cell_angle_gamma 90.000000
_cell_volume 2537.215232
_symmetry_space_group_name_H-M "P N N A"
_symmetry_group_IT_number 52
_symmetry_cell_setting 'orthorhombic'
loop_
_space_group_symop_operation_xyz
x,y,z
1/2-x,-y,z
x,1/2-y,1/2-z
1/2-x,1/2+y,1/2-z
-x,-y,-z
1/2+x,y,-z
-x,1/2+y,1/2+z
1/2+x,1/2-y,1/2+z
loop_
_atom_site_type_symbol
_atom_site_label
_atom_site_fract_x
_atom_site_fract_y
_atom_site_fract_z
Si Si1 0.250000 0.500000 0.192801
Si Si2 0.036026 0.194974 0.527899
Si Si3 0.652003 0.001983 0.231267
Si Si4 0.708261 0.810586 0.106956
Si Si5 0.983870 0.593652 0.327849
Si Si6 0.397760 0.347765 0.958331
Si Si7 0.314814 0.844514 0.527061
Si Si8 0.125635 0.880265 0.243144
O O1 0.195443 0.563017 0.281459
O O2 0.280203 0.585170 0.087059
O O3 0.109692 0.171653 0.485179
O O4 0.027347 0.317045 0.561047
O O5 0.025056 0.140291 0.674854
O O6 0.975572 0.161955 0.433843
O O7 0.696739 0.933403 0.131142
O O8 0.635693 0.919744 0.349054
O O9 0.581065 0.022614 0.162951
O O10 0.681369 0.099559 0.321728
O O11 0.709629 0.750000 0.250000
O O12 0.642350 0.762030 0.037643
O O13 0.773634 0.764615 0.036502
O O14 0.062140 0.571497 0.333453
O O15 0.387597 0.405540 0.099455
O O16 0.124722 0.750000 0.250000
#
# Coordination Sequence:
#
# PCOD9408534 Si02
#       8
#     4   8   8   8   8   8   8   8
#     4  12  22  36  62  94 110 164 202 252 302 358
#     4   9  19  33  56  84 114 153 196 256 290 349
#     4  10  21  34  58  89 119 156 201 246 304 371
#     4  10  21  35  54  84 126 157 183 254 312 356
#     4   9  18  34  55  88 111 154 194 244 306 351
#     4  10  18  36  57  82 114 154 198 241 302 349
#     4  11  21  35  57  91 121 146 213 244 300 366
#     4  11  20  37  63  85 120 151 200 258 296 348
#
# _framework density 23.647974999999999
#
# number of rings (size 3 to 8) (size 9 to 14) (size 15 to 20)
#    0.000    1.867    5.333    0.800    5.600    1.600 
#    0.000    0.667    2.933    3.200    0.000    0.000 
#    0.000    0.000    0.000    0.000    0.000    0.000 
#
# Total GULP energy -334736.958296 kJ/mol
# GULP energy per Si atom -5578.949305 kJ/mol
# Density = 2.359415 g / cm^3
# Si number density = 23.647975 Si / 1000 Ang^3
#
#
#
# Elastic Constant Matrix: (Units=GPa)
#
#
# Indices 1 2 3 4 5 6 
#
# 1 199.6058 80.6419 11.9275 0.0000 0.0000 0.0000
# 2 80.6419 82.1982 10.0003 0.0000 0.0000 0.0000
# 3 11.9275 10.0003 27.9946 0.0000 0.0000 0.0000
# 4 0.0000 0.0000 0.0000 8.9344 0.0000 0.0000
# 5 0.0000 0.0000 0.0000 0.0000 1615.7218 0.0000
# 6 0.0000 0.0000 0.0000 0.0000 0.0000 34.8198
#
#
#
# Elastic Compliance Matrix: (Units=1/GPa)
#
#
# Indices 1 2 3 4 5 6 
#
# 1 0.008311 -0.008074 -0.000657 0.000000 0.000000 0.000000
# 2 -0.008074 0.020562 -0.003905 0.000000 0.000000 0.000000
# 3 -0.000657 -0.003905 0.037396 0.000000 0.000000 0.000000
# 4 0.000000 0.000000 0.000000 0.111927 0.000000 0.000000
# 5 0.000000 0.000000 0.000000 0.000000 0.000619 0.000000
# 6 0.000000 0.000000 0.000000 0.000000 0.000000 0.028719
#
#
# Mechanical properties :
#
#
# Convention : Reuss Voigt Hill
#
# Bulk Modulus (GPa) = 24.39192 57.21534 40.80363
# Shear Modulus (GPa) = 20.28637 345.71046 182.99842
#
# Velocity S-wave (km/s) = 2.93208 12.10404 8.80638
# Velocity P-wave (km/s) = 4.66902 14.81859 10.98614
#
# Compressibility (1/GPa) = 0.04099719
#
# Stress axis : x y z
#
# Youngs Moduli (GPa) = 120.32338 48.63427 26.74076
#
# Poissons Ratio (x) = 0.39266 0.01757
# Poissons Ratio (y) = 0.97145 0.10443
# Poissons Ratio (z) = 0.07904 0.18992
#
# Static dielectric constant tensor:
#      x y z
#    x 2.017390 0.000000 0.000000 
#    y 0.000000 1.971080 0.000000 
#    z 0.000000 0.000000 1.906890 
# 
# From -- ./inp_files/21777.got.cif
#   From: 2010.05.17/outbox.cif.g08.bks.cpg/sg52_11_cif.got.tgz:21777.got - 2010.06.03 12:15:38.
