data_PCOD9408738
_publ_section_title
;
Structure prediction by ZEFSAII (Michael W. Deem and Ramdas Pophale) SiO2 
 PCOD9408738
Probable space group: P N N A
;
_chemical_formula_sum "Si O2"
_cell_formula_units_Z 64
_cell_length_a 13.409059
_cell_length_b 11.680873
_cell_length_c 23.417922
_cell_angle_alpha 90.000000
_cell_angle_beta 90.000000
_cell_angle_gamma 90.000000
_cell_volume 3667.937771
_symmetry_space_group_name_H-M "P N N A"
_symmetry_group_IT_number 52
_symmetry_cell_setting 'orthorhombic'
loop_
_space_group_symop_operation_xyz
x,y,z
1/2-x,-y,z
x,1/2-y,1/2-z
1/2-x,1/2+y,1/2-z
-x,-y,-z
1/2+x,y,-z
-x,1/2+y,1/2+z
1/2+x,1/2-y,1/2+z
loop_
_atom_site_type_symbol
_atom_site_label
_atom_site_fract_x
_atom_site_fract_y
_atom_site_fract_z
Si Si1 0.013395 0.409901 0.813951
Si Si2 0.495225 0.379700 0.902716
Si Si3 0.358241 0.526510 0.704278
Si Si4 0.690525 0.253628 0.140756
Si Si5 0.717560 0.638119 0.790907
Si Si6 0.097299 0.775545 0.814062
Si Si7 0.217005 0.131074 0.416100
Si Si8 0.210578 0.631254 0.966346
O O1 0.005650 0.511022 0.860552
O O2 0.064059 0.443749 0.753775
O O3 0.093661 0.323135 0.840365
O O4 0.901867 0.367649 0.801109
O O5 0.476503 0.276409 0.859419
O O6 0.601157 0.367801 0.932151
O O7 0.402966 0.377568 0.945639
O O8 0.250000 0.500000 0.731929
O O9 0.338100 0.624252 0.657650
O O10 0.392552 0.409456 0.676114
O O11 0.791733 0.278383 0.177356
O O12 0.726171 0.291045 0.077875
O O13 0.750000 0.500000 0.777358
O O14 0.738078 0.750000 0.750000
O O15 0.766675 0.672335 0.851754
O O16 0.064613 0.750000 0.750000
O O17 0.278464 0.178809 0.469537
O O18 0.250000 0.000000 0.411776
O O19 0.250000 0.500000 0.964011
#
# Coordination Sequence:
#
# PCOD9408738 Si02
#       8
#     8   8   8   8   8   8   8   8
#     4  12  20  34  53  82 117 150 187 234 292 348
#     4  11  21  34  57  83 113 143 192 236 285 341
#     4  10  20  32  51  79 123 153 182 229 285 345
#     4  10  20  32  50  83 115 151 182 234 289 342
#     4  11  24  42  61  85 116 154 195 243 295 351
#     4  10  19  31  51  82 114 152 189 228 277 345
#     4  10  22  40  55  82 113 146 188 244 291 335
#     4  10  21  34  57  81 111 149 192 236 290 341
#
# _framework density 17.448497
#
# number of rings (size 3 to 8) (size 9 to 14) (size 15 to 20)
#    0.000    1.500    5.000    2.625    1.750    4.500 
#    0.000    0.000    0.000    4.500    0.000    0.000 
#    0.000    0.000    0.000    0.000    0.000    0.000 
#
# Total GULP energy -356387.925320 kJ/mol
# GULP energy per Si atom -5568.561333 kJ/mol
# Density = 1.740878 g / cm^3
# Si number density = 17.448497 Si / 1000 Ang^3
#
#
#
# Elastic Constant Matrix: (Units=GPa)
#
#
# Indices 1 2 3 4 5 6 
#
# 1 97.6565 17.5677 31.4894 0.0000 0.0000 0.0000
# 2 17.5677 64.3608 35.8640 0.0000 0.0000 0.0000
# 3 31.4894 35.8640 105.3519 0.0000 0.0000 0.0000
# 4 0.0000 0.0000 0.0000 7.5846 0.0000 0.0000
# 5 0.0000 0.0000 0.0000 0.0000 25.6516 0.0000
# 6 0.0000 0.0000 0.0000 0.0000 0.0000 7.0343
#
#
#
# Elastic Compliance Matrix: (Units=1/GPa)
#
#
# Indices 1 2 3 4 5 6 
#
# 1 0.011449 -0.001503 -0.002910 0.000000 0.000000 0.000000
# 2 -0.001503 0.019372 -0.006145 0.000000 0.000000 0.000000
# 3 -0.002910 -0.006145 0.012454 0.000000 0.000000 0.000000
# 4 0.000000 0.000000 0.000000 0.131846 0.000000 0.000000
# 5 0.000000 0.000000 0.000000 0.000000 0.038984 0.000000
# 6 0.000000 0.000000 0.000000 0.000000 0.000000 0.142160
#
#
# Mechanical properties :
#
#
# Convention : Reuss Voigt Hill
#
# Bulk Modulus (GPa) = 45.13253 48.57905 46.85579
# Shear Modulus (GPa) = 12.99485 20.21732 16.60609
#
# Velocity S-wave (km/s) = 2.73198 3.40764 3.08834
# Velocity P-wave (km/s) = 5.98948 6.58669 6.29517
#
# Compressibility (1/GPa) = 0.02215697
#
# Stress axis : x y z
#
# Youngs Moduli (GPa) = 87.34523 51.62044 80.29633
#
# Poissons Ratio (x) = 0.07760 0.23368
# Poissons Ratio (y) = 0.13131 0.49345
# Poissons Ratio (z) = 0.25420 0.31723
#
# Static dielectric constant tensor:
#      x y z
#    x 1.637100 0.000000 0.000000 
#    y 0.000000 1.608460 0.000000 
#    z 0.000000 0.000000 1.628580 
# 
# From -- ./inp_files/40330.got.cif
#   From: 2010.05.17/outbox.cif.g08.bks.cpg/sg52_21_cif.got.tgz:40330.got - 2010.06.03 12:15:38.
