data_PCOD9408900
_publ_section_title
;
Structure prediction by ZEFSAII (Michael W. Deem and Ramdas Pophale) SiO2 
 PCOD9408900
Probable space group: P N N A
;
_chemical_formula_sum "Si O2"
_cell_formula_units_Z 56
_cell_length_a 24.934621
_cell_length_b 5.315738
_cell_length_c 22.181405
_cell_angle_alpha 90.000000
_cell_angle_beta 90.000000
_cell_angle_gamma 90.000000
_cell_volume 2940.054563
_symmetry_space_group_name_H-M "P N N A"
_symmetry_group_IT_number 52
_symmetry_cell_setting 'orthorhombic'
loop_
_space_group_symop_operation_xyz
x,y,z
1/2-x,-y,z
x,1/2-y,1/2-z
1/2-x,1/2+y,1/2-z
-x,-y,-z
1/2+x,y,-z
-x,1/2+y,1/2+z
1/2+x,1/2-y,1/2+z
loop_
_atom_site_type_symbol
_atom_site_label
_atom_site_fract_x
_atom_site_fract_y
_atom_site_fract_z
Si Si1 0.995827 0.000463 0.211150
Si Si2 0.051087 0.236084 0.468678
Si Si3 0.629275 0.609123 0.017484
Si Si4 0.341960 0.999952 0.078533
Si Si5 0.876715 0.999946 0.789125
Si Si6 0.551405 0.576673 0.415107
Si Si7 0.282432 0.752865 0.982054
O O1 0.988515 0.750000 0.250000
O O2 0.983864 0.250000 0.250000
O O3 0.958920 0.987466 0.152113
O O4 0.059501 0.013898 0.195200
O O5 0.099309 0.387357 0.436932
O O6 0.042968 0.363751 0.533977
O O7 0.998448 0.236612 0.428794
O O8 0.075941 0.965396 0.480794
O O9 0.662759 0.762135 0.967058
O O10 0.658854 0.353977 0.039428
O O11 0.607678 0.786813 0.070396
O O12 0.342609 0.028269 0.149660
O O13 0.297062 0.814343 0.051597
O O14 0.864219 0.750000 0.750000
O O15 0.869167 0.250000 0.750000
O O16 0.250000 0.500000 0.971530
O O17 0.250000 0.000000 0.958363
#
# Coordination Sequence:
#
# PCOD9408900 Si02
#       7
#     8   8   8   8   8   8   8
#     4  10  22  36  52  76 114 167 201 231 269 319
#     4   9  19  31  52  82 117 152 181 245 278 335
#     4  10  21  33  58  86 109 151 187 236 297 353
#     4  10  20  36  57  84 109 144 195 233 299 348
#     4  10  22  35  53  78 109 150 200 247 276 324
#     4  10  19  34  50  82 120 155 198 235 277 337
#     4  11  22  39  59  84 110 143 181 236 307 374
#
# _framework density 19.047264999999999
#
# number of rings (size 3 to 8) (size 9 to 14) (size 15 to 20)
#    0.000    2.000    2.857    0.429    6.000    1.143 
#    0.000    0.000    0.000    1.714    0.000    0.000 
#    0.000    0.000   14.571    3.429    0.571    0.000 
#
# Total GULP energy -311845.060604 kJ/mol
# GULP energy per Si atom -5568.661796 kJ/mol
# Density = 1.900391 g / cm^3
# Si number density = 19.047265 Si / 1000 Ang^3
#
#
#
# Elastic Constant Matrix: (Units=GPa)
#
#
# Indices 1 2 3 4 5 6 
#
# 1 41.4659 18.7540 2.2281 0.0000 0.0000 0.0000
# 2 18.7540 103.0993 17.0235 0.0000 0.0000 0.0000
# 3 2.2281 17.0235 65.7293 0.0000 0.0000 0.0000
# 4 0.0000 0.0000 0.0000 9.0640 0.0000 0.0000
# 5 0.0000 0.0000 0.0000 0.0000 10.4260 0.0000
# 6 0.0000 0.0000 0.0000 0.0000 0.0000 33.9608
#
#
#
# Elastic Compliance Matrix: (Units=1/GPa)
#
#
# Indices 1 2 3 4 5 6 
#
# 1 0.026286 -0.004841 0.000363 0.000000 0.000000 0.000000
# 2 -0.004841 0.011024 -0.002691 0.000000 0.000000 0.000000
# 3 0.000363 -0.002691 0.015899 0.000000 0.000000 0.000000
# 4 0.000000 0.000000 0.000000 0.110327 0.000000 0.000000
# 5 0.000000 0.000000 0.000000 0.000000 0.095914 0.000000
# 6 0.000000 0.000000 0.000000 0.000000 0.000000 0.029446
#
#
# Mechanical properties :
#
#
# Convention : Reuss Voigt Hill
#
# Bulk Modulus (GPa) = 25.72685 31.81174 28.76929
# Shear Modulus (GPa) = 15.81319 22.17609 18.99464
#
# Velocity S-wave (km/s) = 2.88446 3.41584 3.16133
# Velocity P-wave (km/s) = 4.96283 5.68287 5.33501
#
# Compressibility (1/GPa) = 0.03886990
#
# Stress axis : x y z
#
# Youngs Moduli (GPa) = 38.04251 90.70780 62.89856
#
# Poissons Ratio (x) = 0.43916 -0.02282
# Poissons Ratio (y) = 0.18418 0.16927
# Poissons Ratio (z) = -0.01380 0.24411
#
# Static dielectric constant tensor:
#      x y z
#    x 1.813580 0.000000 0.000000 
#    y 0.000000 1.753920 0.000000 
#    z 0.000000 0.000000 1.639020 
# 
# From -- ./inp_files/38247.got.cif
#   From: 2010.05.17/outbox.cif.g08.bks.cpg/sg52_20_cif.got.tgz:38247.got - 2010.06.03 12:15:38.
