data_PCOD9408769
_publ_section_title
;
Structure prediction by ZEFSAII (Michael W. Deem and Ramdas Pophale) SiO2 
 PCOD9408769
Probable space group: P N N A
;
_chemical_formula_sum "Si O2"
_cell_formula_units_Z 64
_cell_length_a 5.385164
_cell_length_b 26.181686
_cell_length_c 18.885498
_cell_angle_alpha 90.000000
_cell_angle_beta 90.000000
_cell_angle_gamma 90.000000
_cell_volume 2662.716842
_symmetry_space_group_name_H-M "P N N A"
_symmetry_group_IT_number 52
_symmetry_cell_setting 'orthorhombic'
loop_
_space_group_symop_operation_xyz
x,y,z
1/2-x,-y,z
x,1/2-y,1/2-z
1/2-x,1/2+y,1/2-z
-x,-y,-z
1/2+x,y,-z
-x,1/2+y,1/2+z
1/2+x,1/2-y,1/2+z
loop_
_atom_site_type_symbol
_atom_site_label
_atom_site_fract_x
_atom_site_fract_y
_atom_site_fract_z
Si Si1 0.966787 0.442904 0.471112
Si Si2 0.884439 0.089924 0.179588
Si Si3 0.167372 0.201881 0.709474
Si Si4 0.120907 0.656859 0.331342
Si Si5 0.637926 0.833414 0.585914
Si Si6 0.874464 0.076210 0.477346
Si Si7 0.702636 0.273968 0.539592
Si Si8 0.477209 0.395056 0.824673
O O1 0.731224 0.417271 0.510111
O O2 0.912430 0.446054 0.388283
O O3 0.000000 0.500000 0.500000
O O4 0.626733 0.120971 0.164759
O O5 0.925290 0.067141 0.258721
O O6 0.133577 0.123683 0.174711
O O7 0.284726 0.250000 0.750000
O O8 0.355121 0.155302 0.708331
O O9 0.937440 0.189516 0.761168
O O10 0.071650 0.198443 0.628829
O O11 0.185944 0.695162 0.394362
O O12 0.573965 0.870664 0.520845
O O13 0.802115 0.786570 0.557753
O O14 0.766034 0.873228 0.641896
O O15 0.638767 0.050468 0.511854
O O16 0.836718 0.085882 0.394520
O O17 0.416382 0.285437 0.519400
#
# Coordination Sequence:
#
# PCOD9408769 Si02
#       8
#     8   8   8   8   8   8   8   8
#     4  10  22  42  69  97 123 156 191 226 272 351
#     4  11  23  39  62  87 115 152 185 237 301 360
#     4  11  21  35  50  70 101 147 200 259 304 358
#     4  11  24  39  53  79 112 149 194 247 312 358
#     4  11  21  35  52  70  98 145 198 254 303 345
#     4  10  19  32  52  72  97 136 184 239 293 339
#     4  12  26  38  53  73 101 142 201 261 305 359
#     4  10  22  35  54  77 110 141 197 245 312 359
#
# _framework density 24.035602000000001
#
# number of rings (size 3 to 8) (size 9 to 14) (size 15 to 20)
#    0.000    1.250    3.750    3.000    1.750    5.500 
#    0.000    0.000    0.000    0.000    0.000    0.000 
#    0.000    0.000    0.000   54.000    0.000    0.000 
#
# Total GULP energy -356806.263589 kJ/mol
# GULP energy per Si atom -5575.097869 kJ/mol
# Density = 2.398090 g / cm^3
# Si number density = 24.035602 Si / 1000 Ang^3
#
#
#
# Elastic Constant Matrix: (Units=GPa)
#
#
# Indices 1 2 3 4 5 6 
#
# 1 147.4477 20.9148 26.4837 0.0000 0.0000 0.0000
# 2 20.9148 44.6372 30.4906 0.0000 0.0000 0.0000
# 3 26.4837 30.4906 168.4433 0.0000 0.0000 0.0000
# 4 0.0000 0.0000 0.0000 12.7713 0.0000 0.0000
# 5 0.0000 0.0000 0.0000 0.0000 32.6596 0.0000
# 6 0.0000 0.0000 0.0000 0.0000 0.0000 20.3057
#
#
#
# Elastic Compliance Matrix: (Units=1/GPa)
#
#
# Indices 1 2 3 4 5 6 
#
# 1 0.007318 -0.003016 -0.000605 0.000000 0.000000 0.000000
# 2 -0.003016 0.026807 -0.004378 0.000000 0.000000 0.000000
# 3 -0.000605 -0.004378 0.006824 0.000000 0.000000 0.000000
# 4 0.000000 0.000000 0.000000 0.078300 0.000000 0.000000
# 5 0.000000 0.000000 0.000000 0.000000 0.030619 0.000000
# 6 0.000000 0.000000 0.000000 0.000000 0.000000 0.049247
#
#
# Mechanical properties :
#
#
# Convention : Reuss Voigt Hill
#
# Bulk Modulus (GPa) = 40.07758 57.36736 48.72247
# Shear Modulus (GPa) = 22.37827 31.98994 27.18410
#
# Velocity S-wave (km/s) = 3.05462 3.65216 3.36667
# Velocity P-wave (km/s) = 5.39920 6.45785 5.95211
#
# Compressibility (1/GPa) = 0.02495161
#
# Stress axis : x y z
#
# Youngs Moduli (GPa) = 136.64024 37.30419 146.53508
#
# Poissons Ratio (x) = 0.11251 0.08861
# Poissons Ratio (y) = 0.41211 0.64156
# Poissons Ratio (z) = 0.08263 0.16332
#
# Static dielectric constant tensor:
#      x y z
#    x 2.012200 0.000000 0.000000 
#    y 0.000000 1.907890 0.000000 
#    z 0.000000 0.000000 2.093630 
# 
# From -- ./inp_files/30390.got.cif
#   From: 2010.05.17/outbox.cif.g08.bks.cpg/sg52_16_cif.got.tgz:30390.got - 2010.06.03 12:15:38.
