data_PCOD9408688
_publ_section_title
;
Structure prediction by ZEFSAII (Michael W. Deem and Ramdas Pophale) SiO2 
 PCOD9408688
Probable space group: P N N A
;
_chemical_formula_sum "Si O2"
_cell_formula_units_Z 48
_cell_length_a 7.556448
_cell_length_b 25.992499
_cell_length_c 12.440261
_cell_angle_alpha 90.000000
_cell_angle_beta 90.000000
_cell_angle_gamma 90.000000
_cell_volume 2443.403694
_symmetry_space_group_name_H-M "P N N A"
_symmetry_group_IT_number 52
_symmetry_cell_setting 'orthorhombic'
loop_
_space_group_symop_operation_xyz
x,y,z
1/2-x,-y,z
x,1/2-y,1/2-z
1/2-x,1/2+y,1/2-z
-x,-y,-z
1/2+x,y,-z
-x,1/2+y,1/2+z
1/2+x,1/2-y,1/2+z
loop_
_atom_site_type_symbol
_atom_site_label
_atom_site_fract_x
_atom_site_fract_y
_atom_site_fract_z
Si Si1 0.819432 0.889648 0.414154
Si Si2 0.191141 0.687902 0.270471
Si Si3 0.479069 0.830542 0.395597
Si Si4 0.981023 0.789395 0.931674
Si Si5 0.661965 0.297376 0.331913
Si Si6 0.891727 0.036976 0.580695
O O1 0.655624 0.860328 0.358521
O O2 0.719729 0.924827 0.504264
O O3 0.927566 0.848003 0.484559
O O4 0.959215 0.928813 0.360562
O O5 0.180613 0.750000 0.250000
O O6 0.309323 0.661451 0.179605
O O7 0.309336 0.685317 0.377638
O O8 0.989660 0.668667 0.274478
O O9 0.507409 0.769635 0.395025
O O10 0.152712 0.816422 0.880101
O O11 0.946015 0.784152 0.058185
O O12 0.692474 0.250000 0.250000
O O13 0.750000 0.000000 0.639950
O O14 0.000000 0.000000 0.500000
#
# Coordination Sequence:
#
# PCOD9408688 Si02
#       6
#     8   8   8   8   8   8
#     4   9  17  26  44  69  92 126 159 206 257 276
#     4   9  20  34  44  61  85 122 162 204 263 291
#     4  10  19  30  43  67  96 117 164 220 251 289
#     4  11  20  35  48  62  90 125 167 222 249 300
#     4  11  21  32  49  65  82 117 172 208 266 295
#     4   8  14  27  43  62  92 127 164 185 226 316
#
# _framework density 19.644725999999999
#
# number of rings (size 3 to 8) (size 9 to 14) (size 15 to 20)
#    0.000    2.333    1.667    2.500    4.667    0.000 
#    3.000    0.000    0.000    0.000    0.000    0.000 
#    0.000    0.000    0.000    0.000    0.000  310.000 
#
# Total GULP energy -267269.904579 kJ/mol
# GULP energy per Si atom -5568.123012 kJ/mol
# Density = 1.960001 g / cm^3
# Si number density = 19.644726 Si / 1000 Ang^3
#
#
#
# Elastic Constant Matrix: (Units=GPa)
#
#
# Indices 1 2 3 4 5 6 
#
# 1 113.5405 2.1098 8.9356 0.0000 0.0000 0.0000
# 2 2.1098 43.2719 -5.8212 0.0000 0.0000 0.0000
# 3 8.9356 -5.8212 71.5152 0.0000 0.0000 0.0000
# 4 0.0000 0.0000 0.0000 11.9260 0.0000 0.0000
# 5 0.0000 0.0000 0.0000 0.0000 31.1535 0.0000
# 6 0.0000 0.0000 0.0000 0.0000 0.0000 36.7085
#
#
#
# Elastic Compliance Matrix: (Units=1/GPa)
#
#
# Indices 1 2 3 4 5 6 
#
# 1 0.008910 -0.000591 -0.001161 0.000000 0.000000 0.000000
# 2 -0.000591 0.023405 0.001979 0.000000 0.000000 0.000000
# 3 -0.001161 0.001979 0.014289 0.000000 0.000000 0.000000
# 4 0.000000 0.000000 0.000000 0.083850 0.000000 0.000000
# 5 0.000000 0.000000 0.000000 0.000000 0.032099 0.000000
# 6 0.000000 0.000000 0.000000 0.000000 0.000000 0.027242
#
#
# Mechanical properties :
#
#
# Convention : Reuss Voigt Hill
#
# Bulk Modulus (GPa) = 21.25056 26.53067 23.89061
# Shear Modulus (GPa) = 24.38706 30.83117 27.60911
#
# Velocity S-wave (km/s) = 3.52718 3.96591 3.75296
# Velocity P-wave (km/s) = 5.23726 5.87417 5.56483
#
# Compressibility (1/GPa) = 0.04705759
#
# Stress axis : x y z
#
# Youngs Moduli (GPa) = 112.23593 42.72644 69.98279
#
# Poissons Ratio (x) = 0.02524 0.08127
# Poissons Ratio (y) = 0.06629 -0.13849
# Poissons Ratio (z) = 0.13034 -0.08455
#
# Static dielectric constant tensor:
#      x y z
#    x 1.823780 0.000000 0.000000 
#    y 0.000000 1.709810 0.000000 
#    z 0.000000 0.000000 1.757210 
# 
# From -- ./inp_files/17036.got.cif
#   From: 2010.05.17/outbox.cif.g08.bks.cpg/sg52_9_cif.got.tgz:17036.got - 2010.06.03 12:15:38.
