data_PCOD9408040
_publ_section_title
;
Structure prediction by ZEFSAII (Michael W. Deem and Ramdas Pophale) SiO2 
 PCOD9408040
Probable space group: P N N A
;
_chemical_formula_sum "Si O2"
_cell_formula_units_Z 44
_cell_length_a 25.873468
_cell_length_b 8.035033
_cell_length_c 12.237806
_cell_angle_alpha 90.000000
_cell_angle_beta 90.000000
_cell_angle_gamma 90.000000
_cell_volume 2544.168511
_symmetry_space_group_name_H-M "P N N A"
_symmetry_group_IT_number 52
_symmetry_cell_setting 'orthorhombic'
loop_
_space_group_symop_operation_xyz
x,y,z
1/2-x,-y,z
x,1/2-y,1/2-z
1/2-x,1/2+y,1/2-z
-x,-y,-z
1/2+x,y,-z
-x,1/2+y,1/2+z
1/2+x,1/2-y,1/2+z
loop_
_atom_site_type_symbol
_atom_site_label
_atom_site_fract_x
_atom_site_fract_y
_atom_site_fract_z
Si Si1 0.196511 0.250000 0.750000
Si Si2 0.501592 0.096382 0.165927
Si Si3 0.496849 0.750000 0.250000
Si Si4 0.356073 0.144915 0.575143
Si Si5 0.535810 0.839901 0.483661
Si Si6 0.250000 0.500000 0.909738
Si Si7 0.621715 0.508009 0.319746
O O1 0.232261 0.356545 0.827733
O O2 0.159311 0.352392 0.669588
O O3 0.496371 0.250000 0.250000
O O4 0.472962 0.927636 0.209352
O O5 0.562471 0.046525 0.161498
O O6 0.481985 0.180306 0.053753
O O7 0.529974 0.799128 0.355612
O O8 0.404730 0.113613 0.496658
O O9 0.359309 0.340972 0.604307
O O10 0.368268 0.059430 0.692932
O O11 0.301607 0.072477 0.533743
O O12 0.500000 0.000000 0.500000
#
# Coordination Sequence:
#
# PCOD9408040 Si02
#       7
#     4   8   4   8   8   4   8
#     4  10  18  27  48  72  98 148 185 214 272 344
#     4  12  21  36  56  84 116 161 191 238 289 345
#     4  12  22  39  54  82 122 156 199 232 284 346
#     4  10  19  34  47  74 108 147 187 236 274 343
#     4  12  23  36  59  83 119 158 196 234 292 348
#     4  10  20  30  46  68 106 140 190 232 276 336
#     4  10  17  30  51  71 108 145 189 222 280 340
#
# _framework density 17.294452
#
# number of rings (size 3 to 8) (size 9 to 14) (size 15 to 20)
#    0.000    1.091    6.364    2.727    2.545    0.000 
#    0.000    0.000    0.000    0.000    0.000    0.000 
#    2.727    0.000    0.000    0.091    0.000    0.000 
#
# Total GULP energy -244995.987392 kJ/mol
# GULP energy per Si atom -5568.090623 kJ/mol
# Density = 1.725509 g / cm^3
# Si number density = 17.294452 Si / 1000 Ang^3
#
#
#
# Elastic Constant Matrix: (Units=GPa)
#
#
# Indices 1 2 3 4 5 6 
#
# 1 113.6365 47.5473 20.3283 0.0000 0.0000 0.0000
# 2 47.5473 123.3269 18.5377 0.0000 0.0000 0.0000
# 3 20.3283 18.5377 54.6686 0.0000 0.0000 0.0000
# 4 0.0000 0.0000 0.0000 26.5486 0.0000 0.0000
# 5 0.0000 0.0000 0.0000 0.0000 14.6343 0.0000
# 6 0.0000 0.0000 0.0000 0.0000 0.0000 24.1008
#
#
#
# Elastic Compliance Matrix: (Units=1/GPa)
#
#
# Indices 1 2 3 4 5 6 
#
# 1 0.010875 -0.003777 -0.002763 0.000000 0.000000 0.000000
# 2 -0.003777 0.009856 -0.001938 0.000000 0.000000 0.000000
# 3 -0.002763 -0.001938 0.019976 0.000000 0.000000 0.000000
# 4 0.000000 0.000000 0.000000 0.037667 0.000000 0.000000
# 5 0.000000 0.000000 0.000000 0.000000 0.068333 0.000000
# 6 0.000000 0.000000 0.000000 0.000000 0.000000 0.041492
#
#
# Mechanical properties :
#
#
# Convention : Reuss Voigt Hill
#
# Bulk Modulus (GPa) = 42.10219 51.60653 46.85436
# Shear Modulus (GPa) = 23.46626 26.73798 25.10212
#
# Velocity S-wave (km/s) = 3.68756 3.93624 3.81393
# Velocity P-wave (km/s) = 6.52135 7.11079 6.82244
#
# Compressibility (1/GPa) = 0.02375173
#
# Stress axis : x y z
#
# Youngs Moduli (GPa) = 91.95624 101.46019 50.05910
#
# Poissons Ratio (x) = 0.38325 0.13831
# Poissons Ratio (y) = 0.34735 0.09699
# Poissons Ratio (z) = 0.25406 0.19658
#
# Static dielectric constant tensor:
#      x y z
#    x 1.639050 0.000000 0.000000 
#    y 0.000000 1.704860 0.000000 
#    z 0.000000 0.000000 1.609510 
# 
# From -- ./inp_files/22252.got.cif
#   From: 2010.05.17/outbox.cif.g08.bks.cpg/sg52_12_cif.got.tgz:22252.got - 2010.06.03 12:15:38.
