data_PCOD9408988
_publ_section_title
;
Structure prediction by ZEFSAII (Michael W. Deem and Ramdas Pophale) SiO2 
 PCOD9408988
Probable space group: P N N A
;
_chemical_formula_sum "Si O2"
_cell_formula_units_Z 36
_cell_length_a 5.369581
_cell_length_b 17.639297
_cell_length_c 17.571315
_cell_angle_alpha 90.000000
_cell_angle_beta 90.000000
_cell_angle_gamma 90.000000
_cell_volume 1664.278241
_symmetry_space_group_name_H-M "P N N A"
_symmetry_group_IT_number 52
_symmetry_cell_setting 'orthorhombic'
loop_
_space_group_symop_operation_xyz
x,y,z
1/2-x,-y,z
x,1/2-y,1/2-z
1/2-x,1/2+y,1/2-z
-x,-y,-z
1/2+x,y,-z
-x,1/2+y,1/2+z
1/2+x,1/2-y,1/2+z
loop_
_atom_site_type_symbol
_atom_site_label
_atom_site_fract_x
_atom_site_fract_y
_atom_site_fract_z
Si Si1 0.250000 0.500000 0.948610
Si Si2 0.986719 0.861280 0.179916
Si Si3 0.161728 0.250000 0.250000
Si Si4 0.250000 0.500000 0.282879
Si Si5 0.719659 0.590009 0.454546
Si Si6 0.131837 0.605477 0.810204
O O1 0.207066 0.572166 0.891980
O O2 0.500000 0.500000 0.000000
O O3 0.159126 0.789653 0.188399
O O4 0.148554 0.935022 0.161890
O O5 0.761154 0.861206 0.121676
O O6 0.882757 0.881853 0.262785
O O7 0.007264 0.314649 0.205544
O O8 0.456275 0.542261 0.230944
O O9 0.750000 0.500000 0.437893
O O10 0.456339 0.607473 0.492091
#
# Coordination Sequence:
#
# PCOD9408988 Si02
#       6
#     4   8   4   4   8   8
#     4  12  27  46  76 113 150 190 246 320 383 444
#     4  11  22  40  67  97 132 187 235 297 347 433
#     4  10  26  40  72  96 142 180 264 294 362 430
#     4  10  19  34  70  99 126 172 242 294 349 416
#     4  10  23  38  61  99 138 172 215 276 348 413
#     4  11  22  44  69 104 136 190 246 306 367 437
#
# _framework density 21.631
#
# number of rings (size 3 to 8) (size 9 to 14) (size 15 to 20)
#    0.000    1.333    2.222    2.667   14.000    0.000 
#    0.000    2.222    0.000    0.000    0.000    0.000 
#    0.000    0.000    0.000    0.000    0.000    0.000 
#
# Total GULP energy -201081.596874 kJ/mol
# GULP energy per Si atom -5585.599913 kJ/mol
# Density = 2.158177 g / cm^3
# Si number density = 21.631000 Si / 1000 Ang^3
#
#
#
# Elastic Constant Matrix: (Units=GPa)
#
#
# Indices 1 2 3 4 5 6 
#
# 1 106.0518 45.8364 44.8075 0.0000 0.0000 0.0000
# 2 45.8364 130.5728 36.7652 0.0000 0.0000 0.0000
# 3 44.8075 36.7652 118.2954 0.0000 0.0000 0.0000
# 4 0.0000 0.0000 0.0000 8.0932 0.0000 0.0000
# 5 0.0000 0.0000 0.0000 0.0000 40.5747 0.0000
# 6 0.0000 0.0000 0.0000 0.0000 0.0000 40.6002
#
#
#
# Elastic Compliance Matrix: (Units=1/GPa)
#
#
# Indices 1 2 3 4 5 6 
#
# 1 0.012417 -0.003326 -0.003670 0.000000 0.000000 0.000000
# 2 -0.003326 0.009284 -0.001626 0.000000 0.000000 0.000000
# 3 -0.003670 -0.001626 0.010349 0.000000 0.000000 0.000000
# 4 0.000000 0.000000 0.000000 0.123561 0.000000 0.000000
# 5 0.000000 0.000000 0.000000 0.000000 0.024646 0.000000
# 6 0.000000 0.000000 0.000000 0.000000 0.000000 0.024630
#
#
# Mechanical properties :
#
#
# Convention : Reuss Voigt Hill
#
# Bulk Modulus (GPa) = 67.53323 67.74868 67.64095
# Shear Modulus (GPa) = 22.02016 33.02103 27.52060
#
# Velocity S-wave (km/s) = 3.19406 3.91136 3.57077
# Velocity P-wave (km/s) = 6.70008 7.19628 6.95261
#
# Compressibility (1/GPa) = 0.01480752
#
# Stress axis : x y z
#
# Youngs Moduli (GPa) = 80.53325 107.71529 96.63089
#
# Poissons Ratio (x) = 0.35823 0.35461
# Poissons Ratio (y) = 0.26783 0.15709
# Poissons Ratio (z) = 0.29554 0.17510
#
# Static dielectric constant tensor:
#      x y z
#    x 1.859500 0.000000 0.000000 
#    y 0.000000 1.828120 0.000000 
#    z 0.000000 0.000000 1.816200 
# 
# From -- ./inp_files/23586.got.cif
#   From: 2010.05.17/outbox.cif.g08.bks.cpg/sg52_12_cif.got.tgz:23586.got - 2010.06.03 12:15:38.
