data_PCOD9408499
_publ_section_title
;
Structure prediction by ZEFSAII (Michael W. Deem and Ramdas Pophale) SiO2 
 PCOD9408499
Probable space group: P N N A
;
_chemical_formula_sum "Si O2"
_cell_formula_units_Z 56
_cell_length_a 13.296170
_cell_length_b 5.843305
_cell_length_c 33.862618
_cell_angle_alpha 90.000000
_cell_angle_beta 90.000000
_cell_angle_gamma 90.000000
_cell_volume 2630.907907
_symmetry_space_group_name_H-M "P N N A"
_symmetry_group_IT_number 52
_symmetry_cell_setting 'orthorhombic'
loop_
_space_group_symop_operation_xyz
x,y,z
1/2-x,-y,z
x,1/2-y,1/2-z
1/2-x,1/2+y,1/2-z
-x,-y,-z
1/2+x,y,-z
-x,1/2+y,1/2+z
1/2+x,1/2-y,1/2+z
loop_
_atom_site_type_symbol
_atom_site_label
_atom_site_fract_x
_atom_site_fract_y
_atom_site_fract_z
Si Si1 0.562459 0.383303 0.846008
Si Si2 0.836730 0.185503 0.434554
Si Si3 0.697564 0.740692 0.523803
Si Si4 0.455671 0.739036 0.704647
Si Si5 0.095643 0.501544 0.629822
Si Si6 0.979467 0.131483 0.579627
Si Si7 0.857431 0.902649 0.785432
O O1 0.491339 0.525328 0.815800
O O2 0.586432 0.536538 0.883691
O O3 0.652675 0.267872 0.822434
O O4 0.495784 0.173615 0.861064
O O5 0.821024 0.296073 0.477213
O O6 0.830701 0.342794 0.395830
O O7 0.750000 0.000000 0.430400
O O8 0.946521 0.066393 0.435744
O O9 0.750000 0.500000 0.537756
O O10 0.592883 0.767003 0.546909
O O11 0.750000 0.000000 0.527823
O O12 0.418366 0.750000 0.750000
O O13 0.383548 0.616194 0.672268
O O14 0.560328 0.596389 0.706811
O O15 0.053736 0.312637 0.599842
O O16 0.897943 0.750000 0.750000
O O17 0.750000 0.000000 0.774343
#
# Coordination Sequence:
#
# PCOD9408499 Si02
#       7
#     8   8   8   8   8   8   8
#     4   9  20  38  52  84 118 164 218 260 330 391
#     4  10  23  42  69  99 131 165 225 283 341 412
#     4  11  27  45  68 102 140 188 231 273 340 410
#     4  10  18  35  56  80 121 159 211 270 323 406
#     4   9  21  36  63  90 128 161 215 268 342 394
#     4  10  22  44  65  93 136 174 220 275 338 403
#     4  11  21  31  48  76 114 164 218 274 322 382
#
# _framework density 21.285426999999999
#
# number of rings (size 3 to 8) (size 9 to 14) (size 15 to 20)
#    0.000    2.000    1.429    0.857    8.000    0.571 
#    7.714    0.000    0.000    0.000    0.000    0.000 
#  154.286    0.000    0.000    0.000    0.000    0.000 
#
# Total GULP energy -312183.725757 kJ/mol
# GULP energy per Si atom -5574.709389 kJ/mol
# Density = 2.123698 g / cm^3
# Si number density = 21.285427 Si / 1000 Ang^3
#
#
#
# Elastic Constant Matrix: (Units=GPa)
#
#
# Indices 1 2 3 4 5 6 
#
# 1 41.0319 12.4790 28.6912 0.0000 0.0000 0.0000
# 2 12.4790 65.3036 24.5538 0.0000 0.0000 0.0000
# 3 28.6912 24.5538 119.9168 0.0000 0.0000 0.0000
# 4 0.0000 0.0000 0.0000 17.6863 0.0000 0.0000
# 5 0.0000 0.0000 0.0000 0.0000 -31.6570 0.0000
# 6 0.0000 0.0000 0.0000 0.0000 0.0000 21.6362
#
#
#
# Elastic Compliance Matrix: (Units=1/GPa)
#
#
# Indices 1 2 3 4 5 6 
#
# 1 0.029901 -0.003276 -0.006483 0.000000 0.000000 0.000000
# 2 -0.003276 0.016949 -0.002687 0.000000 0.000000 0.000000
# 3 -0.006483 -0.002687 0.010440 0.000000 0.000000 0.000000
# 4 0.000000 0.000000 0.000000 0.056541 0.000000 0.000000
# 5 0.000000 0.000000 0.000000 0.000000 -0.031589 0.000000
# 6 0.000000 0.000000 0.000000 0.000000 0.000000 0.046219
#
#
# Mechanical properties :
#
#
# Convention : Reuss Voigt Hill
#
# Bulk Modulus (GPa) = 30.86554 39.74447 35.30500
# Shear Modulus (GPa) = 30.45926 12.23499 21.34712
#
# Velocity S-wave (km/s) = 3.78695 2.40011 3.17029
# Velocity P-wave (km/s) = 5.80117 5.13745 5.47937
#
# Compressibility (1/GPa) = 0.03239859
#
# Stress axis : x y z
#
# Youngs Moduli (GPa) = 33.44364 58.99949 95.78175
#
# Poissons Ratio (x) = 0.19329 0.62098
# Poissons Ratio (y) = 0.10957 0.25733
# Poissons Ratio (z) = 0.21682 0.15851
#
# Static dielectric constant tensor:
#      x y z
#    x 1.728480 0.000000 0.000000 
#    y 0.000000 1.854030 0.000000 
#    z 0.000000 0.000000 1.796400 
# 
# From -- ./inp_files/44988.got.cif
#   From: 2010.05.17/outbox.cif.g08.bks.cpg/sg52_23_cif.got.tgz:44988.got - 2010.06.03 12:15:38.
