data_PCOD9408901
_publ_section_title
;
Structure prediction by ZEFSAII (Michael W. Deem and Ramdas Pophale) SiO2 
 PCOD9408901
Probable space group: P N N A
;
_chemical_formula_sum "Si O2"
_cell_formula_units_Z 48
_cell_length_a 7.271204
_cell_length_b 12.303607
_cell_length_c 23.526214
_cell_angle_alpha 90.000000
_cell_angle_beta 90.000000
_cell_angle_gamma 90.000000
_cell_volume 2104.703014
_symmetry_space_group_name_H-M "P N N A"
_symmetry_group_IT_number 52
_symmetry_cell_setting 'orthorhombic'
loop_
_space_group_symop_operation_xyz
x,y,z
1/2-x,-y,z
x,1/2-y,1/2-z
1/2-x,1/2+y,1/2-z
-x,-y,-z
1/2+x,y,-z
-x,1/2+y,1/2+z
1/2+x,1/2-y,1/2+z
loop_
_atom_site_type_symbol
_atom_site_label
_atom_site_fract_x
_atom_site_fract_y
_atom_site_fract_z
Si Si1 0.073490 0.582177 0.193617
Si Si2 0.956525 0.540202 0.695715
Si Si3 0.299222 0.750000 0.250000
Si Si4 0.250000 0.000000 0.007805
Si Si5 0.981975 0.583767 0.073704
Si Si6 0.606483 0.348015 0.954765
Si Si7 0.554853 0.882328 0.077992
O O1 0.250000 0.500000 0.183106
O O2 0.988117 0.542823 0.253854
O O3 0.167073 0.698546 0.202776
O O4 0.938250 0.589118 0.140331
O O5 0.750000 0.500000 0.677579
O O6 0.920948 0.653751 0.726787
O O7 0.076194 0.572161 0.641363
O O8 0.412413 0.966124 0.049157
O O9 0.223193 0.898593 0.965026
O O10 0.191051 0.628202 0.068874
O O11 0.986449 0.455381 0.059351
O O12 0.881086 0.648624 0.023630
O O13 0.524683 0.238760 0.928035
#
# Coordination Sequence:
#
# PCOD9408901 Si02
#       7
#     8   8   4   4   8   8   8
#     4   9  16  30  46  77 106 137 173 227 259 318
#     4   9  18  29  52  80 105 135 177 232 267 322
#     4   8  16  26  48  76 104 134 176 210 278 302
#     4  10  24  36  54  76 110 140 188 226 272 328
#     4  10  19  34  50  86 110 139 177 232 270 341
#     4  10  20  31  56  75 114 141 177 220 287 322
#     4  11  20  38  53  82 106 148 182 229 279 332
#
# _framework density 22.806066999999999
#
# number of rings (size 3 to 8) (size 9 to 14) (size 15 to 20)
#    0.000    2.667    2.500    2.000    2.333    0.000 
#    3.000    0.000    0.000    4.000    0.000    0.000 
#    0.000    0.000    0.000    0.000    0.000    0.000 
#
# Total GULP energy -267692.774621 kJ/mol
# GULP energy per Si atom -5576.932805 kJ/mol
# Density = 2.275416 g / cm^3
# Si number density = 22.806067 Si / 1000 Ang^3
#
#
#
# Elastic Constant Matrix: (Units=GPa)
#
#
# Indices 1 2 3 4 5 6 
#
# 1 20.6929 8.0448 10.4020 0.0000 0.0000 0.0000
# 2 8.0448 72.5804 12.0825 0.0000 0.0000 0.0000
# 3 10.4020 12.0825 173.0935 0.0000 0.0000 0.0000
# 4 0.0000 0.0000 0.0000 17.7113 0.0000 0.0000
# 5 0.0000 0.0000 0.0000 0.0000 -46.6712 0.0000
# 6 0.0000 0.0000 0.0000 0.0000 0.0000 21.9678
#
#
#
# Elastic Compliance Matrix: (Units=1/GPa)
#
#
# Indices 1 2 3 4 5 6 
#
# 1 0.051757 -0.005280 -0.002742 0.000000 0.000000 0.000000
# 2 -0.005280 0.014479 -0.000693 0.000000 0.000000 0.000000
# 3 -0.002742 -0.000693 0.005990 0.000000 0.000000 0.000000
# 4 0.000000 0.000000 0.000000 0.056461 0.000000 0.000000
# 5 0.000000 0.000000 0.000000 0.000000 -0.021426 0.000000
# 6 0.000000 0.000000 0.000000 0.000000 0.000000 0.045521
#
#
# Mechanical properties :
#
#
# Convention : Reuss Voigt Hill
#
# Bulk Modulus (GPa) = 18.24983 36.38062 27.31522
# Shear Modulus (GPa) = 26.52839 14.32409 20.42624
#
# Velocity S-wave (km/s) = 3.41430 2.50888 2.99599
# Velocity P-wave (km/s) = 4.85415 4.93755 4.89603
#
# Compressibility (1/GPa) = 0.05479504
#
# Stress axis : x y z
#
# Youngs Moduli (GPa) = 19.32108 69.06790 166.93417
#
# Poissons Ratio (x) = 0.36470 0.45769
# Poissons Ratio (y) = 0.10202 0.11574
# Poissons Ratio (z) = 0.05297 0.04789
#
# Static dielectric constant tensor:
#      x y z
#    x 1.976120 0.000000 0.000000 
#    y 0.000000 1.846940 0.000000 
#    z 0.000000 0.000000 1.913500 
# 
# From -- ./inp_files/39479.got.cif
#   From: 2010.05.17/outbox.cif.g08.bks.cpg/sg52_20_cif.got.tgz:39479.got - 2010.06.03 12:15:38.
