data_PCOD9408592
_publ_section_title
;
Structure prediction by ZEFSAII (Michael W. Deem and Ramdas Pophale) SiO2 
 PCOD9408592
Probable space group: P N N A
;
_chemical_formula_sum "Si O2"
_cell_formula_units_Z 56
_cell_length_a 13.981835
_cell_length_b 14.631392
_cell_length_c 13.393117
_cell_angle_alpha 90.000000
_cell_angle_beta 90.000000
_cell_angle_gamma 90.000000
_cell_volume 2739.879617
_symmetry_space_group_name_H-M "P N N A"
_symmetry_group_IT_number 52
_symmetry_cell_setting 'orthorhombic'
loop_
_space_group_symop_operation_xyz
x,y,z
1/2-x,-y,z
x,1/2-y,1/2-z
1/2-x,1/2+y,1/2-z
-x,-y,-z
1/2+x,y,-z
-x,1/2+y,1/2+z
1/2+x,1/2-y,1/2+z
loop_
_atom_site_type_symbol
_atom_site_label
_atom_site_fract_x
_atom_site_fract_y
_atom_site_fract_z
Si Si1 0.159148 0.193381 0.062550
Si Si2 0.124598 0.102231 0.493635
Si Si3 0.789728 0.131752 0.350431
Si Si4 0.968800 0.102702 0.019732
Si Si5 0.137972 0.775615 0.136851
Si Si6 0.406196 0.091987 0.473252
Si Si7 0.777077 0.151156 0.127157
O O1 0.255622 0.179883 0.127729
O O2 0.056278 0.148546 0.080594
O O3 0.140160 0.302159 0.061557
O O4 0.191197 0.154274 0.952983
O O5 0.202976 0.101194 0.579928
O O6 0.018706 0.102786 0.539660
O O7 0.129084 0.006337 0.434767
O O8 0.882341 0.093498 0.407945
O O9 0.765143 0.110182 0.236745
O O10 0.799017 0.241265 0.358554
O O11 0.869741 0.105283 0.079539
O O12 0.940051 0.161458 0.920343
O O13 0.000000 0.000000 0.000000
O O14 0.113834 0.750000 0.250000
O O15 0.142053 0.679952 0.075975
#
# Coordination Sequence:
#
# PCOD9408592 Si02
#       7
#     8   8   8   8   8   8   8
#     4  10  20  43  63  88 126 172 208 261 328 377
#     4  10  20  35  64  91 124 163 194 259 332 367
#     4  10  18  37  61  91 126 159 204 256 315 378
#     4  11  23  46  65  89 130 174 218 272 322 385
#     4  11  24  43  65  94 132 173 218 266 319 399
#     4  11  20  38  59  93 134 157 205 264 317 380
#     4   9  20  37  63  90 124 163 206 260 312 374
#
# _framework density 20.438853999999999
#
# number of rings (size 3 to 8) (size 9 to 14) (size 15 to 20)
#    0.000    1.714    5.714    0.429    0.000    3.429 
#   15.429    1.429    0.000    0.000    0.000    0.000 
#    0.000    0.000    0.000    0.000    0.000    0.000 
#
# Total GULP energy -312170.161179 kJ/mol
# GULP energy per Si atom -5574.467164 kJ/mol
# Density = 2.039233 g / cm^3
# Si number density = 20.438854 Si / 1000 Ang^3
#
#
#
# Elastic Constant Matrix: (Units=GPa)
#
#
# Indices 1 2 3 4 5 6 
#
# 1 87.0636 27.0578 -15.8561 0.0000 0.0000 0.0000
# 2 27.0578 113.6665 3.1668 0.0000 0.0000 0.0000
# 3 -15.8561 3.1668 38.2223 0.0000 0.0000 0.0000
# 4 0.0000 0.0000 0.0000 7.1270 0.0000 0.0000
# 5 0.0000 0.0000 0.0000 0.0000 4.5502 0.0000
# 6 0.0000 0.0000 0.0000 0.0000 0.0000 29.4346
#
#
#
# Elastic Compliance Matrix: (Units=1/GPa)
#
#
# Indices 1 2 3 4 5 6 
#
# 1 0.013626 -0.003409 0.005935 0.000000 0.000000 0.000000
# 2 -0.003409 0.009671 -0.002215 0.000000 0.000000 0.000000
# 3 0.005935 -0.002215 0.028808 0.000000 0.000000 0.000000
# 4 0.000000 0.000000 0.000000 0.140311 0.000000 0.000000
# 5 0.000000 0.000000 0.000000 0.000000 0.219771 0.000000
# 6 0.000000 0.000000 0.000000 0.000000 0.000000 0.033974
#
#
# Mechanical properties :
#
#
# Convention : Reuss Voigt Hill
#
# Bulk Modulus (GPa) = 18.96564 29.74325 24.35445
# Shear Modulus (GPa) = 10.79644 23.19462 16.99553
#
# Velocity S-wave (km/s) = 2.30082 3.37238 2.88676
# Velocity P-wave (km/s) = 4.04447 5.45416 4.80133
#
# Compressibility (1/GPa) = 0.05272692
#
# Stress axis : x y z
#
# Youngs Moduli (GPa) = 73.38786 103.40308 34.71205
#
# Poissons Ratio (x) = 0.35250 -0.20602
# Poissons Ratio (y) = 0.25018 0.07690
# Poissons Ratio (z) = -0.43557 0.22908
#
# Static dielectric constant tensor:
#      x y z
#    x 1.737480 0.000000 0.000000 
#    y 0.000000 1.775990 0.000000 
#    z 0.000000 0.000000 1.747720 
# 
# From -- ./inp_files/27396.got.cif
#   From: 2010.05.17/outbox.cif.g08.bks.cpg/sg52_14_cif.got.tgz:27396.got - 2010.06.03 12:15:38.
