data_PCOD9408136
_publ_section_title
;
Structure prediction by ZEFSAII (Michael W. Deem and Ramdas Pophale) SiO2 
 PCOD9408136
Probable space group: P N N A
;
_chemical_formula_sum "Si O2"
_cell_formula_units_Z 48
_cell_length_a 13.737199
_cell_length_b 9.317167
_cell_length_c 18.557630
_cell_angle_alpha 90.000000
_cell_angle_beta 90.000000
_cell_angle_gamma 90.000000
_cell_volume 2375.224044
_symmetry_space_group_name_H-M "P N N A"
_symmetry_group_IT_number 52
_symmetry_cell_setting 'orthorhombic'
loop_
_space_group_symop_operation_xyz
x,y,z
1/2-x,-y,z
x,1/2-y,1/2-z
1/2-x,1/2+y,1/2-z
-x,-y,-z
1/2+x,y,-z
-x,1/2+y,1/2+z
1/2+x,1/2-y,1/2+z
loop_
_atom_site_type_symbol
_atom_site_label
_atom_site_fract_x
_atom_site_fract_y
_atom_site_fract_z
Si Si1 0.635043 0.074780 0.541866
Si Si2 0.547549 0.094939 0.267756
Si Si3 0.203194 0.345575 0.386345
Si Si4 0.484094 0.339912 0.676151
Si Si5 0.174708 0.606575 0.187503
Si Si6 0.583985 0.909822 0.408815
O O1 0.689949 0.227017 0.549588
O O2 0.521014 0.106323 0.552404
O O3 0.655473 0.976865 0.611896
O O4 0.648244 0.979790 0.470970
O O5 0.589408 0.250000 0.250000
O O6 0.430480 0.110071 0.277160
O O7 0.561373 0.988645 0.201121
O O8 0.582154 0.020748 0.341706
O O9 0.250000 0.500000 0.403585
O O10 0.092497 0.360422 0.356568
O O11 0.273446 0.256725 0.331248
O O12 0.500404 0.250000 0.750000
O O13 0.410448 0.246910 0.627296
O O14 0.250000 0.500000 0.227013
#
# Coordination Sequence:
#
# PCOD9408136 Si02
#       6
#     8   8   8   8   8   8
#     4   8  15  29  44  55  75 112 150 178 210 249
#     4  10  18  26  39  62  89 113 139 173 213 256
#     4  10  18  26  39  62  89 112 141 182 220 260
#     4   9  17  27  40  59  84 118 151 175 208 260
#     4   9  17  27  40  59  84 115 146 172 203 255
#     4   8  15  29  44  55  75 112 150 178 206 250
#
# _framework density 20.208621000000001
#
# number of rings (size 3 to 8) (size 9 to 14) (size 15 to 20)
#    0.000    3.000    0.000    4.000    0.000    4.000 
#    0.000    1.667    0.000    8.000    0.000    0.000 
#    0.000   40.000    0.000    0.000    0.000    0.000 
#
# Total GULP energy -267301.267690 kJ/mol
# GULP energy per Si atom -5568.776410 kJ/mol
# Density = 2.016263 g / cm^3
# Si number density = 20.208621 Si / 1000 Ang^3
#
#
#
# Elastic Constant Matrix: (Units=GPa)
#
#
# Indices 1 2 3 4 5 6 
#
# 1 22.3092 18.6707 9.7106 0.0000 0.0000 0.0000
# 2 18.6707 194.1969 62.9799 0.0000 0.0000 0.0000
# 3 9.7106 62.9799 78.5773 0.0000 0.0000 0.0000
# 4 0.0000 0.0000 0.0000 5.2409 0.0000 0.0000
# 5 0.0000 0.0000 0.0000 0.0000 -9.5800 0.0000
# 6 0.0000 0.0000 0.0000 0.0000 0.0000 5.5399
#
#
#
# Elastic Compliance Matrix: (Units=1/GPa)
#
#
# Indices 1 2 3 4 5 6 
#
# 1 0.049299 -0.003735 -0.003099 0.000000 0.000000 0.000000
# 2 -0.003735 0.007241 -0.005342 0.000000 0.000000 0.000000
# 3 -0.003099 -0.005342 0.017391 0.000000 0.000000 0.000000
# 4 0.000000 0.000000 0.000000 0.190807 0.000000 0.000000
# 5 0.000000 0.000000 0.000000 0.000000 -0.104384 0.000000
# 6 0.000000 0.000000 0.000000 0.000000 0.000000 0.180509
#
#
# Mechanical properties :
#
#
# Convention : Reuss Voigt Hill
#
# Bulk Modulus (GPa) = 20.16970 53.08955 36.62963
# Shear Modulus (GPa) = 13.09786 13.82163 13.45974
#
# Velocity S-wave (km/s) = 2.54861 2.61808 2.58357
# Velocity P-wave (km/s) = 4.32006 5.95541 5.20239
#
# Compressibility (1/GPa) = 0.04957931
#
# Stress axis : x y z
#
# Youngs Moduli (GPa) = 20.28439 138.10281 57.50094
#
# Poissons Ratio (x) = 0.51578 0.17819
# Poissons Ratio (y) = 0.07576 0.30718
# Poissons Ratio (z) = 0.06286 0.73776
#
# Static dielectric constant tensor:
#      x y z
#    x 1.792460 0.000000 0.000000 
#    y 0.000000 1.769510 0.000000 
#    z 0.000000 0.000000 1.764320 
# 
# From -- ./inp_files/29118.got.cif
#   From: 2010.05.17/outbox.cif.g08.bks.cpg/sg52_15_cif.got.tgz:29118.got - 2010.06.03 12:15:38.
