data_PCOD9408538
_publ_section_title
;
Structure prediction by ZEFSAII (Michael W. Deem and Ramdas Pophale) SiO2 
 PCOD9408538
Probable space group: P N N A
;
_chemical_formula_sum "Si O2"
_cell_formula_units_Z 40
_cell_length_a 14.501477
_cell_length_b 13.972623
_cell_length_c 8.665128
_cell_angle_alpha 90.000000
_cell_angle_beta 90.000000
_cell_angle_gamma 90.000000
_cell_volume 1755.760046
_symmetry_space_group_name_H-M "P N N A"
_symmetry_group_IT_number 52
_symmetry_cell_setting 'orthorhombic'
loop_
_space_group_symop_operation_xyz
x,y,z
1/2-x,-y,z
x,1/2-y,1/2-z
1/2-x,1/2+y,1/2-z
-x,-y,-z
1/2+x,y,-z
-x,1/2+y,1/2+z
1/2+x,1/2-y,1/2+z
loop_
_atom_site_type_symbol
_atom_site_label
_atom_site_fract_x
_atom_site_fract_y
_atom_site_fract_z
Si Si1 0.357777 0.477356 0.947698
Si Si2 0.452465 0.804731 0.909468
Si Si3 0.180156 0.348448 0.352071
Si Si4 0.024331 0.374173 0.119549
Si Si5 0.375961 0.366050 0.271373
O O1 0.250000 0.500000 0.917432
O O2 0.419737 0.571012 0.982178
O O3 0.367129 0.414901 0.105108
O O4 0.424227 0.415393 0.837930
O O5 0.435329 0.750000 0.750000
O O6 0.531371 0.881528 0.868712
O O7 0.355885 0.839095 0.975939
O O8 0.484987 0.732177 0.047799
O O9 0.189939 0.250000 0.250000
O O10 0.095273 0.393115 0.258321
O O11 0.280586 0.392818 0.351126
O O12 0.378653 0.250000 0.250000
#
# Coordination Sequence:
#
# PCOD9408538 Si02
#       5
#     8   8   8   8   8
#     4  11  20  34  61  85 115 158 205 247 308 379
#     4  10  19  36  59  86 119 157 200 249 301 356
#     4   9  19  34  58  85 113 155 204 241 289 369
#     4  10  20  35  58  90 114 151 209 252 295 362
#     4  10  18  36  58  79 113 164 196 236 307 375
#
# _framework density 22.782156000000001
#
# number of rings (size 3 to 8) (size 9 to 14) (size 15 to 20)
#    0.000    2.000    6.000    0.000    0.000    0.000 
#    0.000    6.000    0.000    0.000    0.000    0.000 
#    0.000    0.000    0.000    0.000    0.000    0.000 
#
# Total GULP energy -222701.620668 kJ/mol
# GULP energy per Si atom -5567.540517 kJ/mol
# Density = 2.273030 g / cm^3
# Si number density = 22.782156 Si / 1000 Ang^3
#
#
#
# Elastic Constant Matrix: (Units=GPa)
#
#
# Indices 1 2 3 4 5 6 
#
# 1 142.0073 -16.1090 31.8520 0.0000 0.0000 0.0000
# 2 -16.1090 36.4374 -18.9445 0.0000 0.0000 0.0000
# 3 31.8520 -18.9445 63.2098 0.0000 0.0000 0.0000
# 4 0.0000 0.0000 0.0000 25.5709 0.0000 0.0000
# 5 0.0000 0.0000 0.0000 0.0000 8.1622 0.0000
# 6 0.0000 0.0000 0.0000 0.0000 0.0000 12.5160
#
#
#
# Elastic Compliance Matrix: (Units=1/GPa)
#
#
# Indices 1 2 3 4 5 6 
#
# 1 0.008028 0.001713 -0.003532 0.000000 0.000000 0.000000
# 2 0.001713 0.032876 0.008990 0.000000 0.000000 0.000000
# 3 -0.003532 0.008990 0.020295 0.000000 0.000000 0.000000
# 4 0.000000 0.000000 0.000000 0.039107 0.000000 0.000000
# 5 0.000000 0.000000 0.000000 0.000000 0.122516 0.000000
# 6 0.000000 0.000000 0.000000 0.000000 0.000000 0.079898
#
#
# Mechanical properties :
#
#
# Convention : Reuss Voigt Hill
#
# Bulk Modulus (GPa) = 13.23802 26.13907 19.68854
# Shear Modulus (GPa) = 15.94601 25.57355 20.75978
#
# Velocity S-wave (km/s) = 2.64850 3.35405 3.02193
# Velocity P-wave (km/s) = 3.89564 5.14761 4.56475
#
# Compressibility (1/GPa) = 0.07554003
#
# Stress axis : x y z
#
# Youngs Moduli (GPa) = 124.55657 30.41762 49.27407
#
# Poissons Ratio (x) = -0.05210 0.17405
# Poissons Ratio (y) = -0.21335 -0.44297
# Poissons Ratio (z) = 0.43997 -0.27345
#
# Static dielectric constant tensor:
#      x y z
#    x 1.889910 0.000000 0.000000 
#    y 0.000000 2.036430 0.000000 
#    z 0.000000 0.000000 1.902790 
# 
# From -- ./inp_files/10237.got.cif
#   From: 2010.05.17/outbox.cif.g08.bks.cpg/sg52_6_cif.got.tgz:10237.got - 2010.06.03 12:15:38.
