data_PCOD9408599
_publ_section_title
;
Structure prediction by ZEFSAII (Michael W. Deem and Ramdas Pophale) SiO2 
 PCOD9408599
Probable space group: P N N A
;
_chemical_formula_sum "Si O2"
_cell_formula_units_Z 56
_cell_length_a 13.450854
_cell_length_b 14.484483
_cell_length_c 11.343673
_cell_angle_alpha 90.000000
_cell_angle_beta 90.000000
_cell_angle_gamma 90.000000
_cell_volume 2210.072679
_symmetry_space_group_name_H-M "P N N A"
_symmetry_group_IT_number 52
_symmetry_cell_setting 'orthorhombic'
loop_
_space_group_symop_operation_xyz
x,y,z
1/2-x,-y,z
x,1/2-y,1/2-z
1/2-x,1/2+y,1/2-z
-x,-y,-z
1/2+x,y,-z
-x,1/2+y,1/2+z
1/2+x,1/2-y,1/2+z
loop_
_atom_site_type_symbol
_atom_site_label
_atom_site_fract_x
_atom_site_fract_y
_atom_site_fract_z
Si Si1 0.552087 0.762465 0.124626
Si Si2 0.121809 0.349854 0.055219
Si Si3 0.582727 0.434853 0.560975
Si Si4 0.143534 0.516720 0.884679
Si Si5 0.038659 0.930090 0.247184
Si Si6 0.625420 0.304842 0.364030
Si Si7 0.163167 0.679091 0.060403
O O1 0.605132 0.750000 0.250000
O O2 0.476205 0.675181 0.124054
O O3 0.478442 0.849455 0.115650
O O4 0.619865 0.767901 0.006694
O O5 0.225940 0.318688 0.110195
O O6 0.131012 0.450883 0.000430
O O7 0.109045 0.283402 0.944024
O O8 0.500000 0.500000 0.500000
O O9 0.610531 0.503162 0.670069
O O10 0.655353 0.386606 0.461592
O O11 0.250000 0.500000 0.821582
O O12 0.050428 0.491574 0.804299
O O13 0.161315 0.614757 0.943810
O O14 0.096391 0.872035 0.345183
O O15 0.975880 0.851861 0.179553
O O16 0.672217 0.250000 0.250000
#
# Coordination Sequence:
#
# PCOD9408599 Si02
#       7
#     8   8   8   8   8   8   8
#     4  11  22  40  62  89 129 165 206 277 337 391
#     4  10  22  40  59  94 124 164 221 272 329 407
#     4   9  21  36  60  94 122 170 220 261 321 407
#     4  10  20  35  59  93 125 163 218 274 333 397
#     4  11  19  37  64  93 127 175 218 271 342 403
#     4  10  18  37  64  88 129 176 214 269 335 395
#     4  11  23  38  66  95 123 169 224 274 335 417
#
# _framework density 25.338533999999999
#
# number of rings (size 3 to 8) (size 9 to 14) (size 15 to 20)
#    0.000    1.714    2.857    2.143    2.000    0.571 
#    2.571    5.000    0.000    3.429    0.000    0.000 
#    0.000    0.000    0.000    0.000    0.000    0.000 
#
# Total GULP energy -311900.637254 kJ/mol
# GULP energy per Si atom -5569.654237 kJ/mol
# Density = 2.528086 g / cm^3
# Si number density = 25.338534 Si / 1000 Ang^3
#
#
#
# Elastic Constant Matrix: (Units=GPa)
#
#
# Indices 1 2 3 4 5 6 
#
# 1 103.6490 4.9344 15.5144 0.0000 0.0000 0.0000
# 2 4.9344 65.6243 5.9623 0.0000 0.0000 0.0000
# 3 15.5144 5.9623 93.8765 0.0000 0.0000 0.0000
# 4 0.0000 0.0000 0.0000 50.4853 0.0000 0.0000
# 5 0.0000 0.0000 0.0000 0.0000 -12.9920 0.0000
# 6 0.0000 0.0000 0.0000 0.0000 0.0000 9.6701
#
#
#
# Elastic Compliance Matrix: (Units=1/GPa)
#
#
# Indices 1 2 3 4 5 6 
#
# 1 0.009916 -0.000600 -0.001601 0.000000 0.000000 0.000000
# 2 -0.000600 0.015363 -0.000877 0.000000 0.000000 0.000000
# 3 -0.001601 -0.000877 0.010972 0.000000 0.000000 0.000000
# 4 0.000000 0.000000 0.000000 0.019808 0.000000 0.000000
# 5 0.000000 0.000000 0.000000 0.000000 -0.076971 0.000000
# 6 0.000000 0.000000 0.000000 0.000000 0.000000 0.103411
#
#
# Mechanical properties :
#
#
# Convention : Reuss Voigt Hill
#
# Bulk Modulus (GPa) = 33.22606 35.10799 34.16702
# Shear Modulus (GPa) = 50.66527 25.21528 37.94027
#
# Velocity S-wave (km/s) = 4.47647 3.15800 3.87374
# Velocity P-wave (km/s) = 6.31345 5.21373 5.78976
#
# Compressibility (1/GPa) = 0.03009686
#
# Stress axis : x y z
#
# Youngs Moduli (GPa) = 100.84598 65.09134 91.13694
#
# Poissons Ratio (x) = 0.03907 0.14588
# Poissons Ratio (y) = 0.06053 0.07989
# Poissons Ratio (z) = 0.16142 0.05706
#
# Static dielectric constant tensor:
#      x y z
#    x 2.068810 0.000000 0.000000 
#    y 0.000000 2.131910 0.000000 
#    z 0.000000 0.000000 2.354500 
# 
# From -- ./inp_files/19659.got.cif
#   From: 2010.05.17/outbox.cif.g08.bks.cpg/sg52_10_cif.got.tgz:19659.got - 2010.06.03 12:15:38.
