data_PCOD9408240
_publ_section_title
;
Structure prediction by ZEFSAII (Michael W. Deem and Ramdas Pophale) SiO2 
 PCOD9408240
Probable space group: P N N A
;
_chemical_formula_sum "Si O2"
_cell_formula_units_Z 40
_cell_length_a 10.384106
_cell_length_b 7.979242
_cell_length_c 26.183886
_cell_angle_alpha 90.000000
_cell_angle_beta 90.000000
_cell_angle_gamma 90.000000
_cell_volume 2169.525959
_symmetry_space_group_name_H-M "P N N A"
_symmetry_group_IT_number 52
_symmetry_cell_setting 'orthorhombic'
loop_
_space_group_symop_operation_xyz
x,y,z
1/2-x,-y,z
x,1/2-y,1/2-z
1/2-x,1/2+y,1/2-z
-x,-y,-z
1/2+x,y,-z
-x,1/2+y,1/2+z
1/2+x,1/2-y,1/2+z
loop_
_atom_site_type_symbol
_atom_site_label
_atom_site_fract_x
_atom_site_fract_y
_atom_site_fract_z
Si Si1 0.750000 0.500000 0.358013
Si Si2 0.971197 0.458247 0.099537
Si Si3 0.327646 0.330010 0.800992
Si Si4 0.094061 0.167332 0.938224
Si Si5 0.250000 0.500000 0.076666
Si Si6 0.641805 0.756111 0.005190
O O1 0.746283 0.669029 0.324883
O O2 0.874980 0.528521 0.394959
O O3 0.910412 0.391014 0.151146
O O4 0.925317 0.648768 0.087520
O O5 0.927104 0.351148 0.050007
O O6 0.124116 0.445843 0.106478
O O7 0.250000 0.500000 0.786739
O O8 0.389751 0.250000 0.750000
O O9 0.226760 0.173992 0.970318
O O10 0.969768 0.144722 0.974419
O O11 0.302859 0.360099 0.039041
#
# Coordination Sequence:
#
# PCOD9408240 Si02
#       6
#     4   8   8   8   4   8
#     4  12  24  38  59  94 127 160 198 256 314 368
#     4  11  19  36  61  89 124 166 208 254 305 367
#     4  12  24  42  66  91 117 152 204 264 319 360
#     4  11  21  33  58  87 133 166 204 242 304 367
#     4  10  18  30  59  94 121 170 208 234 308 372
#     4  11  17  33  56  91 125 172 208 245 292 371
#
# _framework density 18.437207000000001
#
# number of rings (size 3 to 8) (size 9 to 14) (size 15 to 20)
#    0.000    0.800    9.000    1.200    0.000    0.800 
#    0.000    0.000    0.000    9.600    0.000    0.000 
#    0.000    0.000    0.000    0.000    0.000    0.000 
#
# Total GULP energy -222797.140265 kJ/mol
# GULP energy per Si atom -5569.928507 kJ/mol
# Density = 1.839524 g / cm^3
# Si number density = 18.437207 Si / 1000 Ang^3
#
#
#
# Elastic Constant Matrix: (Units=GPa)
#
#
# Indices 1 2 3 4 5 6 
#
# 1 102.2471 32.0040 26.4884 0.0000 0.0000 0.0000
# 2 32.0040 100.3929 36.2659 0.0000 0.0000 0.0000
# 3 26.4884 36.2659 91.9293 0.0000 0.0000 0.0000
# 4 0.0000 0.0000 0.0000 24.7603 0.0000 0.0000
# 5 0.0000 0.0000 0.0000 0.0000 17.6168 0.0000
# 6 0.0000 0.0000 0.0000 0.0000 0.0000 10.5623
#
#
#
# Elastic Compliance Matrix: (Units=1/GPa)
#
#
# Indices 1 2 3 4 5 6 
#
# 1 0.011209 -0.002806 -0.002122 0.000000 0.000000 0.000000
# 2 -0.002806 0.012319 -0.004051 0.000000 0.000000 0.000000
# 3 -0.002122 -0.004051 0.013088 0.000000 0.000000 0.000000
# 4 0.000000 0.000000 0.000000 0.040387 0.000000 0.000000
# 5 0.000000 0.000000 0.000000 0.000000 0.056764 0.000000
# 6 0.000000 0.000000 0.000000 0.000000 0.000000 0.094676
#
#
# Mechanical properties :
#
#
# Convention : Reuss Voigt Hill
#
# Bulk Modulus (GPa) = 53.60489 53.78733 53.69611
# Shear Modulus (GPa) = 19.79251 23.90862 21.85056
#
# Velocity S-wave (km/s) = 3.28000 3.60496 3.44631
# Velocity P-wave (km/s) = 6.59408 6.82380 6.70992
#
# Compressibility (1/GPa) = 0.01865502
#
# Stress axis : x y z
#
# Youngs Moduli (GPa) = 89.21792 81.17568 76.40777
#
# Poissons Ratio (x) = 0.22781 0.16217
# Poissons Ratio (y) = 0.25038 0.30954
# Poissons Ratio (z) = 0.18936 0.32886
#
# Static dielectric constant tensor:
#      x y z
#    x 1.651030 0.000000 0.000000 
#    y 0.000000 1.714690 0.000000 
#    z 0.000000 0.000000 1.664560 
# 
# From -- ./inp_files/42167.got.cif
#   From: 2010.05.17/outbox.cif.g08.bks.cpg/sg52_22_cif.got.tgz:42167.got - 2010.06.03 12:15:38.
