data_PCOD9408784
_publ_section_title
;
Structure prediction by ZEFSAII (Michael W. Deem and Ramdas Pophale) SiO2 
 PCOD9408784
Probable space group: P N N A
;
_chemical_formula_sum "Si O2"
_cell_formula_units_Z 48
_cell_length_a 29.804684
_cell_length_b 8.349377
_cell_length_c 9.208080
_cell_angle_alpha 90.000000
_cell_angle_beta 90.000000
_cell_angle_gamma 90.000000
_cell_volume 2291.435709
_symmetry_space_group_name_H-M "P N N A"
_symmetry_group_IT_number 52
_symmetry_cell_setting 'orthorhombic'
loop_
_space_group_symop_operation_xyz
x,y,z
1/2-x,-y,z
x,1/2-y,1/2-z
1/2-x,1/2+y,1/2-z
-x,-y,-z
1/2+x,y,-z
-x,1/2+y,1/2+z
1/2+x,1/2-y,1/2+z
loop_
_atom_site_type_symbol
_atom_site_label
_atom_site_fract_x
_atom_site_fract_y
_atom_site_fract_z
Si Si1 0.440358 0.775969 0.490229
Si Si2 0.348793 0.213759 0.579496
Si Si3 0.154160 0.171682 0.587532
Si Si4 0.751389 0.193579 0.417221
Si Si5 0.061148 0.607321 0.494975
Si Si6 0.503258 0.750000 0.250000
Si Si7 0.002672 0.250000 0.750000
O O1 0.387888 0.799487 0.485892
O O2 0.441566 0.583332 0.491669
O O3 0.469148 0.842822 0.357082
O O4 0.462931 0.838653 0.639230
O O5 0.352775 0.250000 0.750000
O O6 0.298629 0.258041 0.521509
O O7 0.390115 0.304947 0.501314
O O8 0.347036 0.020976 0.586670
O O9 0.147228 0.250000 0.750000
O O10 0.201623 0.239557 0.529728
O O11 0.751872 0.250000 0.250000
O O12 0.750000 0.000000 0.421838
O O13 0.035437 0.657265 0.641449
O O14 0.030930 0.664441 0.360888
#
# Coordination Sequence:
#
# PCOD9408784 Si02
#       7
#     8   8   8   8   8   4   4
#     4  11  23  39  58  85 115 146 190 234 276 333
#     4  10  19  32  54  81 113 147 183 227 277 330
#     4  10  19  32  54  81 113 147 183 227 277 330
#     4   8  16  30  48  77 110 143 180 222 272 328
#     4  11  23  39  58  85 115 146 190 234 276 333
#     4  10  22  38  58  78 112 148 186 228 274 326
#     4  10  22  38  58  78 112 148 186 228 274 326
#
# _framework density 20.947566999999999
#
# number of rings (size 3 to 8) (size 9 to 14) (size 15 to 20)
#    0.000    2.000    1.667    3.000    0.000    5.333 
#    0.000    8.333    0.000    1.000    0.000    0.000 
#    0.000    0.000    0.000    0.000    0.000    0.000 
#
# Total GULP energy -267258.904051 kJ/mol
# GULP energy per Si atom -5567.893834 kJ/mol
# Density = 2.089989 g / cm^3
# Si number density = 20.947567 Si / 1000 Ang^3
#
#
#
# Elastic Constant Matrix: (Units=GPa)
#
#
# Indices 1 2 3 4 5 6 
#
# 1 213.9166 35.5283 31.8053 0.0000 0.0000 0.0000
# 2 35.5283 56.5379 13.3502 0.0000 0.0000 0.0000
# 3 31.8053 13.3502 70.4276 0.0000 0.0000 0.0000
# 4 0.0000 0.0000 0.0000 16.4039 0.0000 0.0000
# 5 0.0000 0.0000 0.0000 0.0000 -69.1521 0.0000
# 6 0.0000 0.0000 0.0000 0.0000 0.0000 28.0957
#
#
#
# Elastic Compliance Matrix: (Units=1/GPa)
#
#
# Indices 1 2 3 4 5 6 
#
# 1 0.005451 -0.002978 -0.001897 0.000000 0.000000 0.000000
# 2 -0.002978 0.020142 -0.002473 0.000000 0.000000 0.000000
# 3 -0.001897 -0.002473 0.015525 0.000000 0.000000 0.000000
# 4 0.000000 0.000000 0.000000 0.060961 0.000000 0.000000
# 5 0.000000 0.000000 0.000000 0.000000 -0.014461 0.000000
# 6 0.000000 0.000000 0.000000 0.000000 0.000000 0.035593
#
#
# Mechanical properties :
#
#
# Convention : Reuss Voigt Hill
#
# Bulk Modulus (GPa) = 37.84794 55.80553 46.82673
# Shear Modulus (GPa) = 34.07957 12.41606 23.24781
#
# Velocity S-wave (km/s) = 4.03786 2.43723 3.33499
# Velocity P-wave (km/s) = 6.31239 5.88375 6.10183
#
# Compressibility (1/GPa) = 0.02642152
#
# Stress axis : x y z
#
# Youngs Moduli (GPa) = 183.44041 49.64645 64.41331
#
# Poissons Ratio (x) = 0.14783 0.12222
# Poissons Ratio (y) = 0.54621 0.15933
# Poissons Ratio (z) = 0.34806 0.12280
#
# Static dielectric constant tensor:
#      x y z
#    x 1.876550 0.000000 0.000000 
#    y 0.000000 1.959880 0.000000 
#    z 0.000000 0.000000 1.703950 
# 
# From -- ./inp_files/15563.got.cif
#   From: 2010.05.17/outbox.cif.g08.bks.cpg/sg52_8_cif.got.tgz:15563.got - 2010.06.03 12:15:38.
