data_PCOD9408076
_publ_section_title
;
Structure prediction by ZEFSAII (Michael W. Deem and Ramdas Pophale) SiO2 
 PCOD9408076
Probable space group: P N N A
;
_chemical_formula_sum "Si O2"
_cell_formula_units_Z 48
_cell_length_a 8.673313
_cell_length_b 22.996895
_cell_length_c 10.520321
_cell_angle_alpha 90.000000
_cell_angle_beta 90.000000
_cell_angle_gamma 90.000000
_cell_volume 2098.375530
_symmetry_space_group_name_H-M "P N N A"
_symmetry_group_IT_number 52
_symmetry_cell_setting 'orthorhombic'
loop_
_space_group_symop_operation_xyz
x,y,z
1/2-x,-y,z
x,1/2-y,1/2-z
1/2-x,1/2+y,1/2-z
-x,-y,-z
1/2+x,y,-z
-x,1/2+y,1/2+z
1/2+x,1/2-y,1/2+z
loop_
_atom_site_type_symbol
_atom_site_label
_atom_site_fract_x
_atom_site_fract_y
_atom_site_fract_z
Si Si1 0.439552 0.689480 0.405917
Si Si2 0.418422 0.991846 0.210383
Si Si3 0.620342 0.422827 0.446142
Si Si4 0.670698 0.731911 0.936986
Si Si5 0.634497 0.898813 0.236004
Si Si6 0.132699 0.191952 0.663177
O O1 0.412116 0.644123 0.520750
O O2 0.561963 0.734349 0.462025
O O3 0.279223 0.719696 0.372384
O O4 0.515892 0.653257 0.292874
O O5 0.537201 0.952213 0.292042
O O6 0.250000 0.000000 0.270407
O O7 0.504738 0.048425 0.155312
O O8 0.385281 0.954831 0.081518
O O9 0.793654 0.426197 0.392853
O O10 0.551796 0.694403 0.854435
O O11 0.790098 0.697890 0.024729
O O12 0.784899 0.866271 0.288605
O O13 0.166938 0.250000 0.750000
#
# Coordination Sequence:
#
# PCOD9408076 Si02
#       6
#     8   8   8   8   8   8
#     4  10  17  32  54  84 117 160 193 243 304 373
#     4  10  20  31  50  88 127 161 203 247 308 385
#     4  10  18  31  54  85 127 166 193 246 314 382
#     4  10  21  37  59  85 122 157 208 254 308 355
#     4  11  20  34  57  80 123 162 200 244 301 371
#     4  11  22  43  59  87 120 163 208 261 304 372
#
# _framework density 22.874839000000001
#
# number of rings (size 3 to 8) (size 9 to 14) (size 15 to 20)
#    0.000    1.667    3.333    4.500    2.333    0.000 
#    6.000    0.000    0.000    0.000    0.000    8.167 
#    0.000    0.000    0.000    0.000    0.000    0.000 
#
# Total GULP energy -267835.533772 kJ/mol
# GULP energy per Si atom -5579.906954 kJ/mol
# Density = 2.282277 g / cm^3
# Si number density = 22.874839 Si / 1000 Ang^3
#
#
#
# Elastic Constant Matrix: (Units=GPa)
#
#
# Indices 1 2 3 4 5 6 
#
# 1 166.8464 48.3101 25.5551 0.0000 0.0000 0.0000
# 2 48.3101 70.9019 20.2206 0.0000 0.0000 0.0000
# 3 25.5551 20.2206 22.6069 0.0000 0.0000 0.0000
# 4 0.0000 0.0000 0.0000 16.6067 0.0000 0.0000
# 5 0.0000 0.0000 0.0000 0.0000 26.7852 0.0000
# 6 0.0000 0.0000 0.0000 0.0000 0.0000 49.4971
#
#
#
# Elastic Compliance Matrix: (Units=1/GPa)
#
#
# Indices 1 2 3 4 5 6 
#
# 1 0.007956 -0.003834 -0.005564 0.000000 0.000000 0.000000
# 2 -0.003834 0.020781 -0.014254 0.000000 0.000000 0.000000
# 3 -0.005564 -0.014254 0.063273 0.000000 0.000000 0.000000
# 4 0.000000 0.000000 0.000000 0.060217 0.000000 0.000000
# 5 0.000000 0.000000 0.000000 0.000000 0.037334 0.000000
# 6 0.000000 0.000000 0.000000 0.000000 0.000000 0.020203
#
#
# Mechanical properties :
#
#
# Convention : Reuss Voigt Hill
#
# Bulk Modulus (GPa) = 22.36799 49.83629 36.10214
# Shear Modulus (GPa) = 18.38432 29.66243 24.02338
#
# Velocity S-wave (km/s) = 2.83802 3.60492 3.24421
# Velocity P-wave (km/s) = 4.53198 6.25788 5.46351
#
# Compressibility (1/GPa) = 0.04470674
#
# Stress axis : x y z
#
# Youngs Moduli (GPa) = 125.69284 48.11982 15.80444
#
# Poissons Ratio (x) = 0.18449 0.08794
# Poissons Ratio (y) = 0.48191 0.22527
# Poissons Ratio (z) = 0.69937 0.68589
#
# Static dielectric constant tensor:
#      x y z
#    x 1.919720 0.000000 0.000000 
#    y 0.000000 1.957940 0.000000 
#    z 0.000000 0.000000 1.948190 
# 
# From -- ./inp_files/16965.got.cif
#   From: 2010.05.17/outbox.cif.g08.bks.cpg/sg52_9_cif.got.tgz:16965.got - 2010.06.03 12:15:38.
