data_PCOD9408077
_publ_section_title
;
Structure prediction by ZEFSAII (Michael W. Deem and Ramdas Pophale) SiO2 
 PCOD9408077
Probable space group: P N N A
;
_chemical_formula_sum "Si O2"
_cell_formula_units_Z 48
_cell_length_a 10.993821
_cell_length_b 14.333143
_cell_length_c 12.609165
_cell_angle_alpha 90.000000
_cell_angle_beta 90.000000
_cell_angle_gamma 90.000000
_cell_volume 1986.901891
_symmetry_space_group_name_H-M "P N N A"
_symmetry_group_IT_number 52
_symmetry_cell_setting 'orthorhombic'
loop_
_space_group_symop_operation_xyz
x,y,z
1/2-x,-y,z
x,1/2-y,1/2-z
1/2-x,1/2+y,1/2-z
-x,-y,-z
1/2+x,y,-z
-x,1/2+y,1/2+z
1/2+x,1/2-y,1/2+z
loop_
_atom_site_type_symbol
_atom_site_label
_atom_site_fract_x
_atom_site_fract_y
_atom_site_fract_z
Si Si1 0.822635 0.138975 0.220250
Si Si2 0.354024 0.427366 0.152403
Si Si3 0.329378 0.766780 0.365363
Si Si4 0.060969 0.874150 0.564912
Si Si5 0.540883 0.146632 0.197252
Si Si6 0.858819 0.325830 0.507581
O O1 0.828881 0.250000 0.250000
O O2 0.888066 0.093726 0.321735
O O3 0.680634 0.117788 0.203098
O O4 0.874600 0.119275 0.102767
O O5 0.250000 0.500000 0.176835
O O6 0.287648 0.328193 0.163635
O O7 0.462880 0.424026 0.233175
O O8 0.405667 0.439329 0.034015
O O9 0.389736 0.750000 0.250000
O O10 0.423451 0.833351 0.428206
O O11 0.271273 0.678625 0.428783
O O12 0.134265 0.780411 0.533794
O O13 0.536407 0.250000 0.250000
O O14 0.470192 0.154106 0.085941
#
# Coordination Sequence:
#
# PCOD9408077 Si02
#       6
#     8   8   8   8   8   8
#     4   9  20  31  54  86 115 141 183 243 294 339
#     4  11  24  38  56  83 118 162 193 232 290 355
#     4  11  19  35  58  87 114 145 194 249 288 340
#     4  10  21  34  53  86 118 146 192 235 295 343
#     4  11  18  37  58  82 113 148 196 243 289 345
#     4  10  17  32  55  89 109 143 182 250 294 333
#
# _framework density 24.158211999999999
#
# number of rings (size 3 to 8) (size 9 to 14) (size 15 to 20)
#    0.000    1.667    5.000    2.500    7.000    0.667 
#    0.000    0.000    0.000    2.000    0.000    0.000 
#    0.000    0.000    0.000    0.000    0.000    0.000 
#
# Total GULP energy -267941.746414 kJ/mol
# GULP energy per Si atom -5582.119717 kJ/mol
# Density = 2.410323 g / cm^3
# Si number density = 24.158212 Si / 1000 Ang^3
#
#
#
# Elastic Constant Matrix: (Units=GPa)
#
#
# Indices 1 2 3 4 5 6 
#
# 1 93.3722 -4.0982 51.7817 0.0000 0.0000 0.0000
# 2 -4.0982 25.7683 14.4285 0.0000 0.0000 0.0000
# 3 51.7817 14.4285 177.2044 0.0000 0.0000 0.0000
# 4 0.0000 0.0000 0.0000 -13.6780 0.0000 0.0000
# 5 0.0000 0.0000 0.0000 0.0000 36.3302 0.0000
# 6 0.0000 0.0000 0.0000 0.0000 0.0000 16.4660
#
#
#
# Elastic Compliance Matrix: (Units=1/GPa)
#
#
# Indices 1 2 3 4 5 6 
#
# 1 0.013257 0.004482 -0.004239 0.000000 0.000000 0.000000
# 2 0.004482 0.042176 -0.004744 0.000000 0.000000 0.000000
# 3 -0.004239 -0.004744 0.007268 0.000000 0.000000 0.000000
# 4 0.000000 0.000000 0.000000 -0.073110 0.000000 0.000000
# 5 0.000000 0.000000 0.000000 0.000000 0.027525 0.000000
# 6 0.000000 0.000000 0.000000 0.000000 0.000000 0.060731
#
#
# Mechanical properties :
#
#
# Convention : Reuss Voigt Hill
#
# Bulk Modulus (GPa) = 18.62184 46.72988 32.67586
# Shear Modulus (GPa) = 47.73275 23.43917 35.58596
#
# Velocity S-wave (km/s) = 4.44986 3.11824 3.84218
# Velocity P-wave (km/s) = 5.84181 5.68769 5.76526
#
# Compressibility (1/GPa) = 0.05370039
#
# Stress axis : x y z
#
# Youngs Moduli (GPa) = 75.42994 23.70989 137.58685
#
# Poissons Ratio (x) = -0.10627 0.58322
# Poissons Ratio (y) = -0.33808 0.65269
# Poissons Ratio (z) = 0.31974 0.11248
#
# Static dielectric constant tensor:
#      x y z
#    x 1.926290 0.000000 0.000000 
#    y 0.000000 2.039730 0.000000 
#    z 0.000000 0.000000 2.052260 
# 
# From -- ./inp_files/18213.got.cif
#   From: 2010.05.17/outbox.cif.g08.bks.cpg/sg52_10_cif.got.tgz:18213.got - 2010.06.03 12:15:38.
