data_PCOD9408728
_publ_section_title
;
Structure prediction by ZEFSAII (Michael W. Deem and Ramdas Pophale) SiO2 
 PCOD9408728
Probable space group: P N N A
;
_chemical_formula_sum "Si O2"
_cell_formula_units_Z 64
_cell_length_a 5.448875
_cell_length_b 28.415597
_cell_length_c 20.277431
_cell_angle_alpha 90.000000
_cell_angle_beta 90.000000
_cell_angle_gamma 90.000000
_cell_volume 3139.616206
_symmetry_space_group_name_H-M "P N N A"
_symmetry_group_IT_number 52
_symmetry_cell_setting 'orthorhombic'
loop_
_space_group_symop_operation_xyz
x,y,z
1/2-x,-y,z
x,1/2-y,1/2-z
1/2-x,1/2+y,1/2-z
-x,-y,-z
1/2+x,y,-z
-x,1/2+y,1/2+z
1/2+x,1/2-y,1/2+z
loop_
_atom_site_type_symbol
_atom_site_label
_atom_site_fract_x
_atom_site_fract_y
_atom_site_fract_z
Si Si1 0.375536 0.335589 0.835854
Si Si2 0.000283 0.480730 0.574892
Si Si3 0.998764 0.293203 0.915114
Si Si4 0.076386 0.384360 0.632583
Si Si5 0.567798 0.133488 0.800526
Si Si6 0.027945 0.873965 0.520820
Si Si7 0.651582 0.242187 0.820028
Si Si8 0.305538 0.800472 0.961458
O O1 0.092905 0.327934 0.856829
O O2 0.478642 0.365201 0.775265
O O3 0.485535 0.356464 0.903808
O O4 0.443535 0.281915 0.816712
O O5 0.250000 0.500000 0.606396
O O6 0.011968 0.424583 0.579570
O O7 0.750000 0.500000 0.606074
O O8 0.000000 0.500000 0.500000
O O9 0.189949 0.254217 0.940819
O O10 0.796217 0.259658 0.883790
O O11 0.939844 0.327593 0.974742
O O12 0.346489 0.393279 0.662723
O O13 0.112652 0.334165 0.598006
O O14 0.844359 0.383268 0.682688
O O15 0.571729 0.188470 0.823321
O O16 0.785486 0.899297 0.494345
O O17 0.792834 0.250000 0.750000
O O18 0.529482 0.809635 0.013035
#
# Coordination Sequence:
#
# PCOD9408728 Si02
#       8
#     8   8   8   8   8   8   8   8
#     4  10  22  35  54  73 108 154 208 248 308 346
#     4  10  23  42  70  92 116 146 189 231 300 386
#     4  11  21  34  52  74 108 149 212 256 298 337
#     4  12  25  43  62  87 119 143 196 242 319 378
#     4  11  25  39  57  83 116 155 193 258 305 369
#     4  10  19  31  50  70  98 137 197 255 287 330
#     4  10  21  34  50  73 105 156 204 253 293 352
#     4  12  26  36  55  78 115 149 190 256 321 344
#
# _framework density 20.384658000000002
#
# number of rings (size 3 to 8) (size 9 to 14) (size 15 to 20)
#    0.000    1.250    2.500    3.750    8.750    0.500 
#    0.000    0.000    0.000    0.000    0.000    0.000 
#    0.000    0.000    0.000    0.000    0.000  175.000 
#
# Total GULP energy -356677.313729 kJ/mol
# GULP energy per Si atom -5573.083027 kJ/mol
# Density = 2.033826 g / cm^3
# Si number density = 20.384658 Si / 1000 Ang^3
#
#
#
# Elastic Constant Matrix: (Units=GPa)
#
#
# Indices 1 2 3 4 5 6 
#
# 1 123.9819 4.8882 23.0542 0.0000 0.0000 0.0000
# 2 4.8882 28.9158 -1.0093 0.0000 0.0000 0.0000
# 3 23.0542 -1.0093 85.6205 0.0000 0.0000 0.0000
# 4 0.0000 0.0000 0.0000 18.5891 0.0000 0.0000
# 5 0.0000 0.0000 0.0000 0.0000 27.1629 0.0000
# 6 0.0000 0.0000 0.0000 0.0000 0.0000 14.9039
#
#
#
# Elastic Compliance Matrix: (Units=1/GPa)
#
#
# Indices 1 2 3 4 5 6 
#
# 1 0.008558 -0.001528 -0.002322 0.000000 0.000000 0.000000
# 2 -0.001528 0.034870 0.000822 0.000000 0.000000 0.000000
# 3 -0.002322 0.000822 0.012314 0.000000 0.000000 0.000000
# 4 0.000000 0.000000 0.000000 0.053795 0.000000 0.000000
# 5 0.000000 0.000000 0.000000 0.000000 0.036815 0.000000
# 6 0.000000 0.000000 0.000000 0.000000 0.000000 0.067096
#
#
# Mechanical properties :
#
#
# Convention : Reuss Voigt Hill
#
# Bulk Modulus (GPa) = 20.12597 32.48717 26.30657
# Shear Modulus (GPa) = 21.18050 26.23685 23.70868
#
# Velocity S-wave (km/s) = 3.22691 3.59149 3.41407
# Velocity P-wave (km/s) = 4.87632 5.75935 5.33613
#
# Compressibility (1/GPa) = 0.04968706
#
# Stress axis : x y z
#
# Youngs Moduli (GPa) = 116.85310 28.67787 81.20551
#
# Poissons Ratio (x) = 0.04381 0.18858
# Poissons Ratio (y) = 0.17852 -0.06678
# Poissons Ratio (z) = 0.27136 -0.02358
#
# Static dielectric constant tensor:
#      x y z
#    x 1.890100 0.000000 0.000000 
#    y 0.000000 1.692690 0.000000 
#    z 0.000000 0.000000 1.806490 
# 
# From -- ./inp_files/35324.got.cif
#   From: 2010.05.17/outbox.cif.g08.bks.cpg/sg52_18_cif.got.tgz:35324.got - 2010.06.03 12:15:38.
