data_PCOD9408317
_publ_section_title
;
Structure prediction by ZEFSAII (Michael W. Deem and Ramdas Pophale) SiO2 
 PCOD9408317
Probable space group: P N N A
;
_chemical_formula_sum "Si O2"
_cell_formula_units_Z 40
_cell_length_a 11.280614
_cell_length_b 5.768878
_cell_length_c 34.215648
_cell_angle_alpha 90.000000
_cell_angle_beta 90.000000
_cell_angle_gamma 90.000000
_cell_volume 2226.634136
_symmetry_space_group_name_H-M "P N N A"
_symmetry_group_IT_number 52
_symmetry_cell_setting 'orthorhombic'
loop_
_space_group_symop_operation_xyz
x,y,z
1/2-x,-y,z
x,1/2-y,1/2-z
1/2-x,1/2+y,1/2-z
-x,-y,-z
1/2+x,y,-z
-x,1/2+y,1/2+z
1/2+x,1/2-y,1/2+z
loop_
_atom_site_type_symbol
_atom_site_label
_atom_site_fract_x
_atom_site_fract_y
_atom_site_fract_z
Si Si1 0.675964 0.250000 0.250000
Si Si2 0.625109 0.364835 0.166536
Si Si3 0.372663 0.911353 0.047920
Si Si4 0.250000 0.500000 0.615451
Si Si5 0.937314 0.695498 0.026158
Si Si6 0.062890 0.869784 0.594056
O O1 0.750000 0.500000 0.256314
O O2 0.598846 0.299619 0.211137
O O3 0.750000 0.500000 0.169125
O O4 0.548669 0.526865 0.137714
O O5 0.657298 0.134664 0.142929
O O6 0.442976 0.735468 0.076005
O O7 0.250000 0.000000 0.065082
O O8 0.465441 0.115806 0.038765
O O9 0.346468 0.801833 0.005025
O O10 0.166063 0.677629 0.592784
O O11 0.895335 0.575596 0.065514
O O12 0.000000 0.500000 0.000000
#
# Coordination Sequence:
#
# PCOD9408317 Si02
#       6
#     4   8   8   4   8   8
#     4  10  18  32  52  78 120 164 194 220 278 346
#     4   9  18  31  49  77 109 154 183 221 268 342
#     4  10  21  40  54  73 102 145 190 244 287 341
#     4  10  18  34  50  80 110 146 182 216 272 340
#     4   9  20  39  50  75 100 138 189 236 286 332
#     4  10  20  35  52  77 108 147 186 232 284 340
#
# _framework density 17.964334999999998
#
# number of rings (size 3 to 8) (size 9 to 14) (size 15 to 20)
#    0.000    2.400    1.000    1.200    0.000    3.200 
#   54.000    0.000    0.000    0.000    0.000    0.000 
#    0.000    0.000   95.200    0.300    0.000    0.200 
#
# Total GULP energy -222716.810046 kJ/mol
# GULP energy per Si atom -5567.920251 kJ/mol
# Density = 1.792345 g / cm^3
# Si number density = 17.964335 Si / 1000 Ang^3
#
#
#
# Elastic Constant Matrix: (Units=GPa)
#
#
# Indices 1 2 3 4 5 6 
#
# 1 58.1640 19.1978 41.6233 0.0000 0.0000 0.0000
# 2 19.1978 80.7234 44.7719 0.0000 0.0000 0.0000
# 3 41.6233 44.7719 140.4084 0.0000 0.0000 0.0000
# 4 0.0000 0.0000 0.0000 21.0107 0.0000 0.0000
# 5 0.0000 0.0000 0.0000 0.0000 16.4408 0.0000
# 6 0.0000 0.0000 0.0000 0.0000 0.0000 25.3964
#
#
#
# Elastic Compliance Matrix: (Units=1/GPa)
#
#
# Indices 1 2 3 4 5 6 
#
# 1 0.022077 -0.001969 -0.005917 0.000000 0.000000 0.000000
# 2 -0.001969 0.015225 -0.004271 0.000000 0.000000 0.000000
# 3 -0.005917 -0.004271 0.010238 0.000000 0.000000 0.000000
# 4 0.000000 0.000000 0.000000 0.047595 0.000000 0.000000
# 5 0.000000 0.000000 0.000000 0.000000 0.060824 0.000000
# 6 0.000000 0.000000 0.000000 0.000000 0.000000 0.039376
#
#
# Mechanical properties :
#
#
# Convention : Reuss Voigt Hill
#
# Bulk Modulus (GPa) = 43.05421 54.49797 48.77609
# Shear Modulus (GPa) = 21.98865 24.14977 23.06921
#
# Velocity S-wave (km/s) = 3.50239 3.67047 3.58742
# Velocity P-wave (km/s) = 6.35407 6.95455 6.66108
#
# Compressibility (1/GPa) = 0.02322653
#
# Stress axis : x y z
#
# Youngs Moduli (GPa) = 45.29663 65.68081 97.67500
#
# Poissons Ratio (x) = 0.12931 0.57792
# Poissons Ratio (y) = 0.08918 0.41719
# Poissons Ratio (z) = 0.26801 0.28054
#
# Static dielectric constant tensor:
#      x y z
#    x 1.594540 0.000000 0.000000 
#    y 0.000000 1.812140 0.000000 
#    z 0.000000 0.000000 1.673530 
# 
# From -- ./inp_files/44739.got.cif
#   From: 2010.05.17/outbox.cif.g08.bks.cpg/sg52_23_cif.got.tgz:44739.got - 2010.06.03 12:15:38.
