data_PCOD9408063
_publ_section_title
;
Structure prediction by ZEFSAII (Michael W. Deem and Ramdas Pophale) SiO2 
 PCOD9408063
Probable space group: P N N A
;
_chemical_formula_sum "Si O2"
_cell_formula_units_Z 48
_cell_length_a 18.380745
_cell_length_b 10.982045
_cell_length_c 12.334895
_cell_angle_alpha 90.000000
_cell_angle_beta 90.000000
_cell_angle_gamma 90.000000
_cell_volume 2489.899316
_symmetry_space_group_name_H-M "P N N A"
_symmetry_group_IT_number 52
_symmetry_cell_setting 'orthorhombic'
loop_
_space_group_symop_operation_xyz
x,y,z
1/2-x,-y,z
x,1/2-y,1/2-z
1/2-x,1/2+y,1/2-z
-x,-y,-z
1/2+x,y,-z
-x,1/2+y,1/2+z
1/2+x,1/2-y,1/2+z
loop_
_atom_site_type_symbol
_atom_site_label
_atom_site_fract_x
_atom_site_fract_y
_atom_site_fract_z
Si Si1 0.165023 0.498991 0.906528
Si Si2 0.413391 0.019301 0.001242
Si Si3 0.574640 0.732863 0.122779
Si Si4 0.569941 0.894085 0.766995
Si Si5 0.394439 0.880329 0.799795
Si Si6 0.558311 0.075718 0.569806
O O1 0.250000 0.500000 0.925042
O O2 0.126697 0.628655 0.924758
O O3 0.145842 0.470453 0.782068
O O4 0.124363 0.404681 0.986976
O O5 0.394114 0.046865 0.125778
O O6 0.404828 0.144158 0.936367
O O7 0.500000 0.000000 0.000000
O O8 0.379712 0.913701 0.925139
O O9 0.585262 0.750000 0.250000
O O10 0.490045 0.691465 0.105657
O O11 0.589337 0.750000 0.750000
O O12 0.481795 0.893996 0.782943
O O13 0.582248 0.986698 0.667352
O O14 0.374542 0.750000 0.750000
O O15 0.500000 0.000000 0.500000
#
# Coordination Sequence:
#
# PCOD9408063 Si02
#       6
#     8   8   8   8   8   8
#     4  11  23  38  57  84 122 168 202 242 307 382
#     4  10  20  32  57  91 119 146 192 256 317 359
#     4  11  19  36  62  90 121 146 203 259 307 357
#     4  10  17  31  56  88 116 147 184 250 313 356
#     4  10  20  35  54  83 121 150 194 245 307 367
#     4  10  19  34  56  85 112 153 203 253 295 354
#
# _framework density 19.277888000000001
#
# number of rings (size 3 to 8) (size 9 to 14) (size 15 to 20)
#    0.000    1.667    5.000    3.000    4.667    0.667 
#    0.000    0.000    0.000    4.000    0.000    0.000 
#    0.000    0.000    0.000    0.000    0.000    0.000 
#
# Total GULP energy -267435.528541 kJ/mol
# GULP energy per Si atom -5571.573511 kJ/mol
# Density = 1.923401 g / cm^3
# Si number density = 19.277888 Si / 1000 Ang^3
#
#
#
# Elastic Constant Matrix: (Units=GPa)
#
#
# Indices 1 2 3 4 5 6 
#
# 1 61.9644 20.9903 18.6111 0.0000 0.0000 0.0000
# 2 20.9903 64.9002 29.7094 0.0000 0.0000 0.0000
# 3 18.6111 29.7094 152.3022 0.0000 0.0000 0.0000
# 4 0.0000 0.0000 0.0000 23.0834 0.0000 0.0000
# 5 0.0000 0.0000 0.0000 0.0000 8.2892 0.0000
# 6 0.0000 0.0000 0.0000 0.0000 0.0000 9.3012
#
#
#
# Elastic Compliance Matrix: (Units=1/GPa)
#
#
# Indices 1 2 3 4 5 6 
#
# 1 0.018318 -0.005380 -0.001189 0.000000 0.000000 0.000000
# 2 -0.005380 0.018499 -0.002951 0.000000 0.000000 0.000000
# 3 -0.001189 -0.002951 0.007287 0.000000 0.000000 0.000000
# 4 0.000000 0.000000 0.000000 0.043321 0.000000 0.000000
# 5 0.000000 0.000000 0.000000 0.000000 0.120639 0.000000
# 6 0.000000 0.000000 0.000000 0.000000 0.000000 0.107513
#
#
# Mechanical properties :
#
#
# Convention : Reuss Voigt Hill
#
# Bulk Modulus (GPa) = 39.89865 46.42091 43.15978
# Shear Modulus (GPa) = 14.57847 22.12518 18.35182
#
# Velocity S-wave (km/s) = 2.75294 3.39144 3.08874
# Velocity P-wave (km/s) = 5.55396 6.28236 5.92935
#
# Compressibility (1/GPa) = 0.02506351
#
# Stress axis : x y z
#
# Youngs Moduli (GPa) = 54.59134 54.05599 137.23334
#
# Poissons Ratio (x) = 0.29083 0.16316
# Poissons Ratio (y) = 0.29371 0.40500
# Poissons Ratio (z) = 0.06490 0.15953
#
# Static dielectric constant tensor:
#      x y z
#    x 1.656710 0.000000 0.000000 
#    y 0.000000 4.525290 0.000000 
#    z 0.000000 0.000000 1.717220 
# 
# From -- ./inp_files/20626.got.cif
#   From: 2010.05.17/outbox.cif.g08.bks.cpg/sg52_11_cif.got.tgz:20626.got - 2010.06.03 12:15:38.
