data_PCOD9408056
_publ_section_title
;
Structure prediction by ZEFSAII (Michael W. Deem and Ramdas Pophale) SiO2 
 PCOD9408056
Probable space group: P N N A
;
_chemical_formula_sum "Si O2"
_cell_formula_units_Z 52
_cell_length_a 16.610123
_cell_length_b 11.785734
_cell_length_c 13.912356
_cell_angle_alpha 90.000000
_cell_angle_beta 90.000000
_cell_angle_gamma 90.000000
_cell_volume 2723.517472
_symmetry_space_group_name_H-M "P N N A"
_symmetry_group_IT_number 52
_symmetry_cell_setting 'orthorhombic'
loop_
_space_group_symop_operation_xyz
x,y,z
1/2-x,-y,z
x,1/2-y,1/2-z
1/2-x,1/2+y,1/2-z
-x,-y,-z
1/2+x,y,-z
-x,1/2+y,1/2+z
1/2+x,1/2-y,1/2+z
loop_
_atom_site_type_symbol
_atom_site_label
_atom_site_fract_x
_atom_site_fract_y
_atom_site_fract_z
Si Si1 0.929616 0.332770 0.007780
Si Si2 0.250000 0.500000 0.728490
Si Si3 0.855213 0.189124 0.153568
Si Si4 0.060671 0.155471 0.957611
Si Si5 0.125367 0.162848 0.664693
Si Si6 0.027928 0.001201 0.360874
Si Si7 0.984827 0.945522 0.849446
O O1 0.978516 0.229405 0.961242
O O2 0.912446 0.430087 0.929443
O O3 0.856341 0.277364 0.066183
O O4 0.992480 0.390908 0.082528
O O5 0.197619 0.577042 0.656639
O O6 0.196209 0.419272 0.797704
O O7 0.828811 0.250000 0.250000
O O8 0.947424 0.150074 0.166294
O O9 0.128164 0.246251 0.923726
O O10 0.037004 0.053820 0.885657
O O11 0.070122 0.097392 0.062270
O O12 0.106990 0.250000 0.750000
O O13 0.050424 0.079833 0.647761
O O14 0.055016 0.029086 0.253126
#
# Coordination Sequence:
#
# PCOD9408056 Si02
#       7
#     8   4   8   8   8   8   8
#     4   9  19  29  47  69 100 138 175 213 260 326
#     4  12  22  28  48  66 100 148 188 224 256 344
#     4  11  19  32  45  68 100 143 184 211 270 322
#     4   9  19  29  47  69 100 138 175 213 260 326
#     4  11  19  32  45  68 100 143 184 211 270 322
#     4  10  17  31  49  71  98 138 182 212 265 335
#     4  10  17  31  49  71  98 138 182 212 265 335
#
# _framework density 19.092956000000001
#
# number of rings (size 3 to 8) (size 9 to 14) (size 15 to 20)
#    0.000    1.846    4.615    0.462    0.000    0.000 
#    0.000    0.000    0.000    0.000    0.000    0.000 
#    0.000    0.000    0.000 1617.231    0.000    0.000 
#
# Total GULP energy -289528.808690 kJ/mol
# GULP energy per Si atom -5567.861706 kJ/mol
# Density = 1.904950 g / cm^3
# Si number density = 19.092956 Si / 1000 Ang^3
#
#
#
# Elastic Constant Matrix: (Units=GPa)
#
#
# Indices 1 2 3 4 5 6 
#
# 1 30.9587 20.9980 11.7415 0.0000 0.0000 0.0000
# 2 20.9980 101.9459 31.7837 0.0000 0.0000 0.0000
# 3 11.7415 31.7837 110.8982 0.0000 0.0000 0.0000
# 4 0.0000 0.0000 0.0000 47.3666 0.0000 0.0000
# 5 0.0000 0.0000 0.0000 0.0000 7.0310 0.0000
# 6 0.0000 0.0000 0.0000 0.0000 0.0000 24.3575
#
#
#
# Elastic Compliance Matrix: (Units=1/GPa)
#
#
# Indices 1 2 3 4 5 6 
#
# 1 0.037927 -0.007204 -0.001951 0.000000 0.000000 0.000000
# 2 -0.007204 0.012140 -0.002717 0.000000 0.000000 0.000000
# 3 -0.001951 -0.002717 0.010002 0.000000 0.000000 0.000000
# 4 0.000000 0.000000 0.000000 0.021112 0.000000 0.000000
# 5 0.000000 0.000000 0.000000 0.000000 0.142227 0.000000
# 6 0.000000 0.000000 0.000000 0.000000 0.000000 0.041055
#
#
# Mechanical properties :
#
#
# Convention : Reuss Voigt Hill
#
# Bulk Modulus (GPa) = 27.52792 41.42770 34.47781
# Shear Modulus (GPa) = 16.64920 27.70300 22.17610
#
# Velocity S-wave (km/s) = 2.95618 3.81327 3.41175
# Velocity P-wave (km/s) = 5.10893 6.41351 5.79803
#
# Compressibility (1/GPa) = 0.03632675
#
# Stress axis : x y z
#
# Youngs Moduli (GPa) = 26.36647 82.37353 99.97573
#
# Poissons Ratio (x) = 0.59339 0.19505
# Poissons Ratio (y) = 0.18993 0.27159
# Poissons Ratio (z) = 0.05144 0.22378
#
# Static dielectric constant tensor:
#      x y z
#    x 1.654050 0.000000 0.000000 
#    y 0.000000 1.750620 0.000000 
#    z 0.000000 0.000000 1.743420 
# 
# From -- ./inp_files/28220.got.cif
#   From: 2010.05.17/outbox.cif.g08.bks.cpg/sg52_15_cif.got.tgz:28220.got - 2010.06.03 12:15:38.
