data_PCOD9408619
_publ_section_title
;
Structure prediction by ZEFSAII (Michael W. Deem and Ramdas Pophale) SiO2 
 PCOD9408619
Probable space group: P N N A
;
_chemical_formula_sum "Si O2"
_cell_formula_units_Z 40
_cell_length_a 21.481420
_cell_length_b 10.949691
_cell_length_c 9.171377
_cell_angle_alpha 90.000000
_cell_angle_beta 90.000000
_cell_angle_gamma 90.000000
_cell_volume 2157.244627
_symmetry_space_group_name_H-M "P N N A"
_symmetry_group_IT_number 52
_symmetry_cell_setting 'orthorhombic'
loop_
_space_group_symop_operation_xyz
x,y,z
1/2-x,-y,z
x,1/2-y,1/2-z
1/2-x,1/2+y,1/2-z
-x,-y,-z
1/2+x,y,-z
-x,1/2+y,1/2+z
1/2+x,1/2-y,1/2+z
loop_
_atom_site_type_symbol
_atom_site_label
_atom_site_fract_x
_atom_site_fract_y
_atom_site_fract_z
Si Si1 0.184042 0.927146 0.407399
Si Si2 0.335328 0.896202 0.006369
Si Si3 0.907958 0.750000 0.750000
Si Si4 0.898546 0.750000 0.250000
Si Si5 0.061001 0.079987 0.500046
Si Si6 0.309352 0.351971 0.435226
O O1 0.178334 0.789331 0.471210
O O2 0.182407 0.892309 0.234689
O O3 0.250000 0.000000 0.433348
O O4 0.125982 0.008074 0.464533
O O5 0.366779 0.841899 0.152191
O O6 0.262732 0.871857 0.028125
O O7 0.346941 0.040406 0.985016
O O8 0.358344 0.822502 0.867818
O O9 0.945783 0.824893 0.632079
O O10 0.935228 0.847119 0.348133
O O11 0.000000 0.000000 0.500000
#
# Coordination Sequence:
#
# PCOD9408619 Si02
#       6
#     8   8   4   4   8   8
#     4  11  19  36  66  97 121 162 218 264 298 373
#     4  10  18  38  60  94 127 168 204 256 318 380
#     4  10  18  40  66  80 122 170 210 244 318 380
#     4  10  24  42  62  88 134 166 204 260 340 372
#     4  11  24  44  65  93 124 170 213 261 319 381
#     4  10  19  32  62  97 123 159 217 256 303 372
#
# _framework density 18.542172999999998
#
# number of rings (size 3 to 8) (size 9 to 14) (size 15 to 20)
#    0.000    1.600    4.000    3.600    0.000    1.600 
#   14.400    2.000    0.000    0.000    0.000    0.000 
#    0.000    0.000    0.000    0.000    0.000    0.000 
#
# Total GULP energy -222845.801905 kJ/mol
# GULP energy per Si atom -5571.145048 kJ/mol
# Density = 1.849997 g / cm^3
# Si number density = 18.542173 Si / 1000 Ang^3
#
#
#
# Elastic Constant Matrix: (Units=GPa)
#
#
# Indices 1 2 3 4 5 6 
#
# 1 92.0253 49.2244 34.5176 0.0000 0.0000 0.0000
# 2 49.2244 145.7637 36.5812 0.0000 0.0000 0.0000
# 3 34.5176 36.5812 90.6423 0.0000 0.0000 0.0000
# 4 0.0000 0.0000 0.0000 19.4722 0.0000 0.0000
# 5 0.0000 0.0000 0.0000 0.0000 21.0782 0.0000
# 6 0.0000 0.0000 0.0000 0.0000 0.0000 43.9642
#
#
#
# Elastic Compliance Matrix: (Units=1/GPa)
#
#
# Indices 1 2 3 4 5 6 
#
# 1 0.014415 -0.003884 -0.003922 0.000000 0.000000 0.000000
# 2 -0.003884 0.008680 -0.002024 0.000000 0.000000 0.000000
# 3 -0.003922 -0.002024 0.013343 0.000000 0.000000 0.000000
# 4 0.000000 0.000000 0.000000 0.051355 0.000000 0.000000
# 5 0.000000 0.000000 0.000000 0.000000 0.047442 0.000000
# 6 0.000000 0.000000 0.000000 0.000000 0.000000 0.022746
#
#
# Mechanical properties :
#
#
# Convention : Reuss Voigt Hill
#
# Bulk Modulus (GPa) = 59.60122 63.23086 61.41604
# Shear Modulus (GPa) = 27.28760 30.77680 29.03220
#
# Velocity S-wave (km/s) = 3.84037 4.07852 3.96123
# Velocity P-wave (km/s) = 7.20264 7.50694 7.35636
#
# Compressibility (1/GPa) = 0.01677818
#
# Stress axis : x y z
#
# Youngs Moduli (GPa) = 69.37183 115.20860 74.94672
#
# Poissons Ratio (x) = 0.44743 0.29394
# Poissons Ratio (y) = 0.26942 0.15170
# Poissons Ratio (z) = 0.27208 0.23319
#
# Static dielectric constant tensor:
#      x y z
#    x 1.581000 0.000000 0.000000 
#    y 0.000000 1.762080 0.000000 
#    z 0.000000 0.000000 1.778360 
# 
# From -- ./inp_files/11676.got.cif
#   From: 2010.05.17/outbox.cif.g08.bks.cpg/sg52_6_cif.got.tgz:11676.got - 2010.06.03 12:15:38.
