data_PCOD9408310
_publ_section_title
;
Structure prediction by ZEFSAII (Michael W. Deem and Ramdas Pophale) SiO2 
 PCOD9408310
Probable space group: P N N A
;
_chemical_formula_sum "Si O2"
_cell_formula_units_Z 36
_cell_length_a 5.395366
_cell_length_b 18.366712
_cell_length_c 15.948979
_cell_angle_alpha 90.000000
_cell_angle_beta 90.000000
_cell_angle_gamma 90.000000
_cell_volume 1580.466203
_symmetry_space_group_name_H-M "P N N A"
_symmetry_group_IT_number 52
_symmetry_cell_setting 'orthorhombic'
loop_
_space_group_symop_operation_xyz
x,y,z
1/2-x,-y,z
x,1/2-y,1/2-z
1/2-x,1/2+y,1/2-z
-x,-y,-z
1/2+x,y,-z
-x,1/2+y,1/2+z
1/2+x,1/2-y,1/2+z
loop_
_atom_site_type_symbol
_atom_site_label
_atom_site_fract_x
_atom_site_fract_y
_atom_site_fract_z
Si Si1 0.299748 0.778791 0.456530
Si Si2 0.743002 0.128846 0.692180
Si Si3 0.750000 0.500000 0.943690
Si Si4 0.755917 0.835035 0.219433
Si Si5 0.706763 0.119691 0.026110
O O1 0.560423 0.807539 0.492665
O O2 0.269047 0.796007 0.359860
O O3 0.302311 0.692809 0.469314
O O4 0.740695 0.068867 0.618865
O O5 0.497046 0.127715 0.747968
O O6 0.000836 0.128048 0.740564
O O7 0.500000 0.500000 0.000000
O O8 0.754184 0.750000 0.250000
O O9 0.777194 0.849433 0.120373
O O10 0.452714 0.080494 0.004340
#
# Coordination Sequence:
#
# PCOD9408310 Si02
#       5
#     8   8   4   8   8
#     4  10  18  32  51  75 112 155 192 239 298 363
#     4  12  24  40  61  92 128 169 217 270 319 387
#     4  12  26  46  70  96 130 184 234 266 316 390
#     4  12  23  37  60  93 129 166 208 267 340 396
#     4  10  19  33  52  80 117 156 192 239 306 385
#
# _framework density 22.778089999999999
#
# number of rings (size 3 to 8) (size 9 to 14) (size 15 to 20)
#    0.000    0.889    0.000   11.333    0.000    0.000 
#    0.000    0.000    0.000    0.000    0.000   15.556 
#    0.000    0.000    0.000    0.000    0.000    0.000 
#
# Total GULP energy -201382.151398 kJ/mol
# GULP energy per Si atom -5593.948650 kJ/mol
# Density = 2.272625 g / cm^3
# Si number density = 22.778090 Si / 1000 Ang^3
#
#
#
# Elastic Constant Matrix: (Units=GPa)
#
#
# Indices 1 2 3 4 5 6 
#
# 1 228.5331 16.1090 65.3425 0.0000 0.0000 0.0000
# 2 16.1090 61.9729 33.4078 0.0000 0.0000 0.0000
# 3 65.3425 33.4078 115.2348 0.0000 0.0000 0.0000
# 4 0.0000 0.0000 0.0000 25.5903 0.0000 0.0000
# 5 0.0000 0.0000 0.0000 0.0000 59.7439 0.0000
# 6 0.0000 0.0000 0.0000 0.0000 0.0000 7.9638
#
#
#
# Elastic Compliance Matrix: (Units=1/GPa)
#
#
# Indices 1 2 3 4 5 6 
#
# 1 0.005227 0.000283 -0.003046 0.000000 0.000000 0.000000
# 2 0.000283 0.019140 -0.005710 0.000000 0.000000 0.000000
# 3 -0.003046 -0.005710 0.012060 0.000000 0.000000 0.000000
# 4 0.000000 0.000000 0.000000 0.039077 0.000000 0.000000
# 5 0.000000 0.000000 0.000000 0.000000 0.016738 0.000000
# 6 0.000000 0.000000 0.000000 0.000000 0.000000 0.125569
#
#
# Mechanical properties :
#
#
# Convention : Reuss Voigt Hill
#
# Bulk Modulus (GPa) = 51.32684 70.60661 60.96672
# Shear Modulus (GPa) = 20.72536 38.05170 29.38853
#
# Velocity S-wave (km/s) = 3.01970 4.09166 3.59585
# Velocity P-wave (km/s) = 5.89410 7.30665 6.63805
#
# Compressibility (1/GPa) = 0.01948299
#
# Stress axis : x y z
#
# Youngs Moduli (GPa) = 191.32776 52.24565 82.91640
#
# Poissons Ratio (x) = -0.01480 0.25255
# Poissons Ratio (y) = -0.05421 0.47342
# Poissons Ratio (z) = 0.58275 0.29831
#
# Static dielectric constant tensor:
#      x y z
#    x 2.089120 0.000000 0.000000 
#    y 0.000000 1.908140 0.000000 
#    z 0.000000 0.000000 1.885900 
# 
# From -- ./inp_files/23559.got.cif
#   From: 2010.05.17/outbox.cif.g08.bks.cpg/sg52_12_cif.got.tgz:23559.got - 2010.06.03 12:15:38.
