data_PCOD9408110
_publ_section_title
;
Structure prediction by ZEFSAII (Michael W. Deem and Ramdas Pophale) SiO2 
 PCOD9408110
Probable space group: P N N A
;
_chemical_formula_sum "Si O2"
_cell_formula_units_Z 32
_cell_length_a 13.978979
_cell_length_b 8.127649
_cell_length_c 10.269729
_cell_angle_alpha 90.000000
_cell_angle_beta 90.000000
_cell_angle_gamma 90.000000
_cell_volume 1166.807940
_symmetry_space_group_name_H-M "P N N A"
_symmetry_group_IT_number 52
_symmetry_cell_setting 'orthorhombic'
loop_
_space_group_symop_operation_xyz
x,y,z
1/2-x,-y,z
x,1/2-y,1/2-z
1/2-x,1/2+y,1/2-z
-x,-y,-z
1/2+x,y,-z
-x,1/2+y,1/2+z
1/2+x,1/2-y,1/2+z
loop_
_atom_site_type_symbol
_atom_site_label
_atom_site_fract_x
_atom_site_fract_y
_atom_site_fract_z
Si Si1 0.873419 0.869018 0.058523
Si Si2 0.452558 0.968134 0.664892
Si Si3 0.701762 0.820644 0.393263
Si Si4 0.141836 0.057283 0.218669
O O1 0.923256 0.693570 0.085914
O O2 0.762708 0.812327 0.027932
O O3 0.897351 0.960586 0.193864
O O4 0.898531 0.963919 0.928039
O O5 0.409387 0.133386 0.600492
O O6 0.564567 0.970192 0.689966
O O7 0.722145 0.750000 0.250000
O O8 0.750000 0.000000 0.412519
O O9 0.136428 0.250000 0.250000
O O10 0.250000 0.000000 0.239082
#
# Coordination Sequence:
#
# PCOD9408110 Si02
#       4
#     8   8   8   8
#     4  10  22  42  77 107 134 190 246 310 362 434
#     4  10  22  44  74 109 136 184 255 309 351 433
#     4  10  17  34  68 107 134 165 240 311 349 406
#     4  12  30  49  68 105 156 199 235 297 383 444
#
# _framework density 27.425249999999998
#
# number of rings (size 3 to 8) (size 9 to 14) (size 15 to 20)
#    0.000    1.500    5.000    1.500    7.000    4.000 
#    4.500    0.000    0.000    0.000    0.000    0.000 
#    0.000    0.000    0.000    0.000    0.000    0.000 
#
# Total GULP energy -179150.335601 kJ/mol
# GULP energy per Si atom -5598.447988 kJ/mol
# Density = 2.736283 g / cm^3
# Si number density = 27.425250 Si / 1000 Ang^3
#
#
#
# Elastic Constant Matrix: (Units=GPa)
#
#
# Indices 1 2 3 4 5 6 
#
# 1 200.4128 38.5958 45.0406 0.0000 0.0000 0.0000
# 2 38.5958 99.0892 13.6535 0.0000 0.0000 0.0000
# 3 45.0406 13.6535 113.7164 0.0000 0.0000 0.0000
# 4 0.0000 0.0000 0.0000 30.4693 0.0000 0.0000
# 5 0.0000 0.0000 0.0000 0.0000 39.8711 0.0000
# 6 0.0000 0.0000 0.0000 0.0000 0.0000 16.8178
#
#
#
# Elastic Compliance Matrix: (Units=1/GPa)
#
#
# Indices 1 2 3 4 5 6 
#
# 1 0.005839 -0.001988 -0.002074 0.000000 0.000000 0.000000
# 2 -0.001988 0.010939 -0.000526 0.000000 0.000000 0.000000
# 3 -0.002074 -0.000526 0.009678 0.000000 0.000000 0.000000
# 4 0.000000 0.000000 0.000000 0.032820 0.000000 0.000000
# 5 0.000000 0.000000 0.000000 0.000000 0.025081 0.000000
# 6 0.000000 0.000000 0.000000 0.000000 0.000000 0.059461
#
#
# Mechanical properties :
#
#
# Convention : Reuss Voigt Hill
#
# Bulk Modulus (GPa) = 57.87130 67.53314 62.70222
# Shear Modulus (GPa) = 31.49538 38.49356 34.99447
#
# Velocity S-wave (km/s) = 3.39249 3.75050 3.57598
# Velocity P-wave (km/s) = 6.04091 6.59037 6.32161
#
# Compressibility (1/GPa) = 0.01727972
#
# Stress axis : x y z
#
# Youngs Moduli (GPa) = 171.27057 91.41707 103.32353
#
# Poissons Ratio (x) = 0.18178 0.21428
# Poissons Ratio (y) = 0.34056 0.05433
# Poissons Ratio (z) = 0.35519 0.04807
#
# Static dielectric constant tensor:
#      x y z
#    x 2.241840 0.000000 0.000000 
#    y 0.000000 2.073320 0.000000 
#    z 0.000000 0.000000 2.164400 
# 
# From -- ./inp_files/19009.got.cif
#   From: 2010.05.17/outbox.cif.g08.bks.cpg/sg52_10_cif.got.tgz:19009.got - 2010.06.03 12:15:38.
