data_PCOD9408419
_publ_section_title
;
Structure prediction by ZEFSAII (Michael W. Deem and Ramdas Pophale) SiO2 
 PCOD9408419
Probable space group: P N N A
;
_chemical_formula_sum "Si O2"
_cell_formula_units_Z 32
_cell_length_a 15.164740
_cell_length_b 8.411804
_cell_length_c 11.368237
_cell_angle_alpha 90.000000
_cell_angle_beta 90.000000
_cell_angle_gamma 90.000000
_cell_volume 1450.164377
_symmetry_space_group_name_H-M "P N N A"
_symmetry_group_IT_number 52
_symmetry_cell_setting 'orthorhombic'
loop_
_space_group_symop_operation_xyz
x,y,z
1/2-x,-y,z
x,1/2-y,1/2-z
1/2-x,1/2+y,1/2-z
-x,-y,-z
1/2+x,y,-z
-x,1/2+y,1/2+z
1/2+x,1/2-y,1/2+z
loop_
_atom_site_type_symbol
_atom_site_label
_atom_site_fract_x
_atom_site_fract_y
_atom_site_fract_z
Si Si1 0.655431 0.950222 0.043622
Si Si2 0.968289 0.936332 0.248442
Si Si3 0.674784 0.632406 0.134894
Si Si4 0.844338 0.565671 0.719969
O O1 0.662453 0.759984 0.031443
O O2 0.750000 0.000000 0.098700
O O3 0.573882 0.996923 0.126469
O O4 0.651402 0.038902 0.920491
O O5 0.949785 0.750000 0.250000
O O6 0.913645 0.033602 0.344515
O O7 0.070686 0.971446 0.264835
O O8 0.750000 0.500000 0.120739
O O9 0.687644 0.750000 0.250000
O O10 0.750000 0.500000 0.761550
O O11 0.852756 0.750000 0.750000
#
# Coordination Sequence:
#
# PCOD9408419 Si02
#       4
#     8   8   8   8
#     4  10  21  38  61  90 121 157 198 250 303 358
#     4  11  21  37  61  92 124 156 194 247 307 364
#     4  10  18  33  60  95 127 155 190 245 313 370
#     4  11  24  44  62  81 115 164 211 250 291 352
#
# _framework density 22.066465000000001
#
# number of rings (size 3 to 8) (size 9 to 14) (size 15 to 20)
#    0.000    1.500    0.000    9.000    0.000    0.000 
#    0.000   20.000    0.000    0.000    0.000    0.000 
#    0.000    0.000    0.000    0.000    0.000    0.000 
#
# Total GULP energy -178827.585402 kJ/mol
# GULP energy per Si atom -5588.362044 kJ/mol
# Density = 2.201624 g / cm^3
# Si number density = 22.066465 Si / 1000 Ang^3
#
#
#
# Elastic Constant Matrix: (Units=GPa)
#
#
# Indices 1 2 3 4 5 6 
#
# 1 159.0817 46.8318 18.0732 0.0000 0.0000 0.0000
# 2 46.8318 194.5151 42.4203 0.0000 0.0000 0.0000
# 3 18.0732 42.4203 39.3458 0.0000 0.0000 0.0000
# 4 0.0000 0.0000 0.0000 42.4132 0.0000 0.0000
# 5 0.0000 0.0000 0.0000 0.0000 -7.1706 0.0000
# 6 0.0000 0.0000 0.0000 0.0000 0.0000 42.7025
#
#
#
# Elastic Compliance Matrix: (Units=1/GPa)
#
#
# Indices 1 2 3 4 5 6 
#
# 1 0.006861 -0.001261 -0.001792 0.000000 0.000000 0.000000
# 2 -0.001261 0.006953 -0.006917 0.000000 0.000000 0.000000
# 3 -0.001792 -0.006917 0.033697 0.000000 0.000000 0.000000
# 4 0.000000 0.000000 0.000000 0.023578 0.000000 0.000000
# 5 0.000000 0.000000 0.000000 0.000000 -0.139458 0.000000
# 6 0.000000 0.000000 0.000000 0.000000 0.000000 0.023418
#
#
# Mechanical properties :
#
#
# Convention : Reuss Voigt Hill
#
# Bulk Modulus (GPa) = 36.27104 67.51037 51.89071
# Shear Modulus (GPa) = -316.02115 34.63016 -140.69550
#
# Velocity S-wave (km/s) = -11.98016 3.96581 -7.99364
# Velocity P-wave (km/s) = 13.22470 7.18545 7.85054
#
# Compressibility (1/GPa) = 0.02757021
#
# Stress axis : x y z
#
# Youngs Moduli (GPa) = 145.75354 143.82034 29.67667
#
# Poissons Ratio (x) = 0.18137 0.05318
# Poissons Ratio (y) = 0.18380 0.20528
# Poissons Ratio (z) = 0.26118 0.99483
#
# Static dielectric constant tensor:
#      x y z
#    x 1.827380 0.000000 0.000000 
#    y 0.000000 1.769190 0.000000 
#    z 0.000000 0.000000 1.901400 
# 
# From -- ./inp_files/19011.got.cif
#   From: 2010.05.17/outbox.cif.g08.bks.cpg/sg52_10_cif.got.tgz:19011.got - 2010.06.03 12:15:38.
