data_PCOD9408433
_publ_section_title
;
Structure prediction by ZEFSAII (Michael W. Deem and Ramdas Pophale) SiO2 
 PCOD9408433
Probable space group: P N N A
;
_chemical_formula_sum "Si O2"
_cell_formula_units_Z 60
_cell_length_a 14.540527
_cell_length_b 15.663665
_cell_length_c 9.788132
_cell_angle_alpha 90.000000
_cell_angle_beta 90.000000
_cell_angle_gamma 90.000000
_cell_volume 2229.324818
_symmetry_space_group_name_H-M "P N N A"
_symmetry_group_IT_number 52
_symmetry_cell_setting 'orthorhombic'
loop_
_space_group_symop_operation_xyz
x,y,z
1/2-x,-y,z
x,1/2-y,1/2-z
1/2-x,1/2+y,1/2-z
-x,-y,-z
1/2+x,y,-z
-x,1/2+y,1/2+z
1/2+x,1/2-y,1/2+z
loop_
_atom_site_type_symbol
_atom_site_label
_atom_site_fract_x
_atom_site_fract_y
_atom_site_fract_z
Si Si1 0.320355 0.662561 0.316582
Si Si2 0.545285 0.836227 0.824977
Si Si3 0.968247 0.160681 0.276485
Si Si4 0.250000 0.500000 0.147360
Si Si5 0.515938 0.407207 0.055267
Si Si6 0.833090 0.858099 0.113702
Si Si7 0.594528 0.958537 0.053945
Si Si8 0.730655 0.091851 0.386289
O O1 0.285897 0.750000 0.250000
O O2 0.431130 0.662175 0.293583
O O3 0.292698 0.570974 0.250524
O O4 0.296453 0.678967 0.474282
O O5 0.576838 0.750000 0.750000
O O6 0.532793 0.901590 0.700155
O O7 0.438018 0.823431 0.869014
O O8 0.604186 0.881339 0.943667
O O9 0.920983 0.250000 0.250000
O O10 0.978631 0.153904 0.438195
O O11 0.918513 0.083245 0.202348
O O12 0.215085 0.571210 0.030101
O O13 0.625373 0.395189 0.065450
O O14 0.500000 0.500000 0.000000
O O15 0.773698 0.848726 0.251308
O O16 0.843564 0.958232 0.071156
O O17 0.500000 0.000000 0.000000
O O18 0.750000 0.000000 0.321575
#
# Coordination Sequence:
#
# PCOD9408433 Si02
#       8
#     8   8   8   4   8   8   8   8
#     4  11  23  37  64  95 117 156 212 265 314 374
#     4  10  20  32  51  85 122 156 195 251 305 356
#     4  11  19  32  55  87 123 153 203 258 303 363
#     4  10  22  40  62  88 126 152 202 272 316 376
#     4  11  21  33  57  88 114 159 196 245 308 362
#     4  10  21  36  61  86 119 157 209 253 311 378
#     4  10  18  34  51  84 119 159 194 247 306 378
#     4   9  20  38  58  89 116 159 211 252 316 381
#
# _framework density 26.913976999999999
#
# number of rings (size 3 to 8) (size 9 to 14) (size 15 to 20)
#    0.400    1.333    4.000    3.200    2.800    0.000 
#    0.000    0.000    0.000    6.400    3.467    0.000 
#    0.000    0.000    0.000    0.000    0.000    0.000 
#
# Total GULP energy -334750.604309 kJ/mol
# GULP energy per Si atom -5579.176738 kJ/mol
# Density = 2.685272 g / cm^3
# Si number density = 26.913977 Si / 1000 Ang^3
#
#
#
# Elastic Constant Matrix: (Units=GPa)
#
#
# Indices 1 2 3 4 5 6 
#
# 1 78.5502 14.1543 18.2302 0.0000 0.0000 0.0000
# 2 14.1543 130.0556 28.6405 0.0000 0.0000 0.0000
# 3 18.2302 28.6405 183.4232 0.0000 0.0000 0.0000
# 4 0.0000 0.0000 0.0000 47.4757 0.0000 0.0000
# 5 0.0000 0.0000 0.0000 0.0000 -48.9552 0.0000
# 6 0.0000 0.0000 0.0000 0.0000 0.0000 21.1409
#
#
#
# Elastic Compliance Matrix: (Units=1/GPa)
#
#
# Indices 1 2 3 4 5 6 
#
# 1 0.013207 -0.001189 -0.001127 0.000000 0.000000 0.000000
# 2 -0.001189 0.008070 -0.001142 0.000000 0.000000 0.000000
# 3 -0.001127 -0.001142 0.005742 0.000000 0.000000 0.000000
# 4 0.000000 0.000000 0.000000 0.021063 0.000000 0.000000
# 5 0.000000 0.000000 0.000000 0.000000 -0.020427 0.000000
# 6 0.000000 0.000000 0.000000 0.000000 0.000000 0.047302
#
#
# Mechanical properties :
#
#
# Convention : Reuss Voigt Hill
#
# Bulk Modulus (GPa) = 49.74443 57.11990 53.43216
# Shear Modulus (GPa) = 56.45017 25.99920 41.22468
#
# Velocity S-wave (km/s) = 4.58474 3.11144 3.91797
# Velocity P-wave (km/s) = 6.82271 5.84614 6.35321
#
# Compressibility (1/GPa) = 0.02010275
#
# Stress axis : x y z
#
# Youngs Moduli (GPa) = 75.72014 123.91734 174.15010
#
# Poissons Ratio (x) = 0.14735 0.19625
# Poissons Ratio (y) = 0.09004 0.19886
# Poissons Ratio (z) = 0.08533 0.14150
#
# Static dielectric constant tensor:
#      x y z
#    x 2.164450 0.000000 0.000000 
#    y 0.000000 2.119830 0.000000 
#    z 0.000000 0.000000 2.108000 
# 
# From -- ./inp_files/14465.got.cif
#   From: 2010.05.17/outbox.cif.g08.bks.cpg/sg52_8_cif.got.tgz:14465.got - 2010.06.03 12:15:38.
