data_PCOD9408678
_publ_section_title
;
Structure prediction by ZEFSAII (Michael W. Deem and Ramdas Pophale) SiO2 
 PCOD9408678
Probable space group: P N N A
;
_chemical_formula_sum "Si O2"
_cell_formula_units_Z 64
_cell_length_a 9.378298
_cell_length_b 23.298118
_cell_length_c 13.627880
_cell_angle_alpha 90.000000
_cell_angle_beta 90.000000
_cell_angle_gamma 90.000000
_cell_volume 2977.646719
_symmetry_space_group_name_H-M "P N N A"
_symmetry_group_IT_number 52
_symmetry_cell_setting 'orthorhombic'
loop_
_space_group_symop_operation_xyz
x,y,z
1/2-x,-y,z
x,1/2-y,1/2-z
1/2-x,1/2+y,1/2-z
-x,-y,-z
1/2+x,y,-z
-x,1/2+y,1/2+z
1/2+x,1/2-y,1/2+z
loop_
_atom_site_type_symbol
_atom_site_label
_atom_site_fract_x
_atom_site_fract_y
_atom_site_fract_z
Si Si1 0.078934 0.063174 0.179674
Si Si2 0.586729 0.197394 0.375526
Si Si3 0.586729 0.802606 0.375526
Si Si4 0.082386 0.586770 0.094034
Si Si5 0.589657 0.173840 0.141622
Si Si6 0.089657 0.826160 0.858378
Si Si7 0.578933 0.936826 0.820326
Si Si8 0.917614 0.913230 0.594034
O O1 0.250000 0.067919 0.173417
O O2 0.042511 0.065268 0.296823
O O3 0.008357 0.118324 0.128904
O O4 0.035507 0.000000 0.142501
O O5 0.750000 0.185614 0.411334
O O6 0.463772 0.153518 0.405166
O O7 0.595383 0.186454 0.258451
O O8 0.548752 0.263282 0.397278
O O9 0.595383 0.813546 0.258451
O O10 0.548752 0.736718 0.397278
O O11 0.463772 0.846482 0.405166
O O12 0.042511 0.565268 0.203177
O O13 0.250000 0.578246 0.082224
O O14 0.000000 0.562301 1.000000
O O15 0.750000 0.160806 0.107493
O O16 0.491643 0.118324 0.128904
#
# Coordination Sequence:
#
# PCOD9408678 Si02
#       8
#     8   8   8   8   8   8   8   8
#     4   9  18  30  41  56  81 111 141 172 203 236
#     4   8  14  26  42  59  79 100 126 164 208 248
#     4   8  14  26  42  59  79 100 126 164 208 248
#     4  10  19  29  41  57  79 109 143 174 204 238
#     4   8  14  25  42  61  78  99 128 164 206 247
#     4   8  14  25  42  61  78  99 128 164 206 247
#     4   9  18  30  41  56  81 111 141 172 203 236
#     4  10  19  29  41  57  79 109 143 174 204 238
#
# _framework density 21.493483000000001
#
# number of rings (size 3 to 8) (size 9 to 14) (size 15 to 20)
#    0.000    3.250    0.000    2.250    0.000    3.000 
#    0.000    5.000    0.000    0.000    0.000    0.000 
#    0.000    1.000    0.000    3.250    0.000    4.750 
#
# Total GULP energy -356569.256537 kJ/mol
# GULP energy per Si atom -5571.394633 kJ/mol
# Density = 2.144456 g / cm^3
# Si number density = 21.493483 Si / 1000 Ang^3
#
#
#
# Elastic Constant Matrix: (Units=GPa)
#
#
# Indices 1 2 3 4 5 6 
#
# 1 48.4653 57.9745 9.3047 0.0000 0.0000 0.0000
# 2 57.9745 181.7657 -12.4276 0.0000 0.0000 0.0000
# 3 9.3047 -12.4276 30.2617 0.0000 0.0000 0.0000
# 4 0.0000 0.0000 0.0000 -8.3404 0.0000 0.0000
# 5 0.0000 0.0000 0.0000 0.0000 16.8323 0.0000
# 6 0.0000 0.0000 0.0000 0.0000 0.0000 19.9384
#
#
#
# Elastic Compliance Matrix: (Units=1/GPa)
#
#
# Indices 1 2 3 4 5 6 
#
# 1 0.041687 -0.014582 -0.018806 0.000000 0.000000 0.000000
# 2 -0.014582 0.010761 0.008903 0.000000 0.000000 0.000000
# 3 -0.018806 0.008903 0.042484 0.000000 0.000000 0.000000
# 4 0.000000 0.000000 0.000000 -0.119898 0.000000 0.000000
# 5 0.000000 0.000000 0.000000 0.000000 0.059410 0.000000
# 6 0.000000 0.000000 0.000000 0.000000 0.000000 0.050155
#
#
# Mechanical properties :
#
#
# Convention : Reuss Voigt Hill
#
# Bulk Modulus (GPa) = 21.75729 41.13288 31.44509
# Shear Modulus (GPa) = 33.58232 19.39546 26.48889
#
# Velocity S-wave (km/s) = 3.95706 3.00724 3.51439
# Velocity P-wave (km/s) = 5.56978 5.58900 5.57940
#
# Compressibility (1/GPa) = 0.04596160
#
# Stress axis : x y z
#
# Youngs Moduli (GPa) = 23.98842 92.92639 23.53847
#
# Poissons Ratio (x) = 1.35504 0.44267
# Poissons Ratio (y) = 0.34980 -0.20956
# Poissons Ratio (z) = 0.45113 -0.82731
#
# Static dielectric constant tensor:
#      x y z
#    x 1.739600 0.000000 0.000000 
#    y 0.000000 1.804970 0.000000 
#    z 0.000000 0.000000 1.869810 
# 
# From -- ./inp_files/31658.got.cif
#   From: 2010.05.17/outbox.cif.g08.bks.cpg/sg52_16_cif.got.tgz:31658.got - 2010.06.03 12:15:38.
