data_PCOD9408570
_publ_section_title
;
Structure prediction by ZEFSAII (Michael W. Deem and Ramdas Pophale) SiO2 
 PCOD9408570
Probable space group: P N N A
;
_chemical_formula_sum "Si O2"
_cell_formula_units_Z 36
_cell_length_a 13.263633
_cell_length_b 16.877118
_cell_length_c 8.666842
_cell_angle_alpha 90.000000
_cell_angle_beta 90.000000
_cell_angle_gamma 90.000000
_cell_volume 1940.089042
_symmetry_space_group_name_H-M "P N N A"
_symmetry_group_IT_number 52
_symmetry_cell_setting 'orthorhombic'
loop_
_space_group_symop_operation_xyz
x,y,z
1/2-x,-y,z
x,1/2-y,1/2-z
1/2-x,1/2+y,1/2-z
-x,-y,-z
1/2+x,y,-z
-x,1/2+y,1/2+z
1/2+x,1/2-y,1/2+z
loop_
_atom_site_type_symbol
_atom_site_label
_atom_site_fract_x
_atom_site_fract_y
_atom_site_fract_z
Si Si1 0.349966 0.250000 0.750000
Si Si2 0.909415 0.623764 0.309653
Si Si3 0.244728 0.750000 0.250000
Si Si4 0.833049 0.786902 0.450130
Si Si5 0.750000 0.500000 0.393025
Si Si6 0.115540 0.861877 0.026461
O O1 0.273069 0.200050 0.640347
O O2 0.404065 0.309494 0.630053
O O3 0.860985 0.695679 0.411253
O O4 0.915270 0.660603 0.137909
O O5 0.834737 0.549861 0.303642
O O6 0.014590 0.608110 0.391695
O O7 0.314592 0.797210 0.370554
O O8 0.174230 0.805054 0.145465
O O9 0.812089 0.434800 0.487785
#
# Coordination Sequence:
#
# PCOD9408570 Si02
#       6
#     4   8   4   8   4   8
#     4   8  16  36  56  80 112 146 202 242 290 338
#     4  10  20  36  60  87 117 155 203 245 296 358
#     4  10  18  36  64  84 120 156 198 260 290 352
#     4   9  17  37  59  85 112 154 197 249 295 337
#     4  12  20  38  58  86 130 160 188 246 312 366
#     4  11  21  36  63  89 116 160 207 246 298 362
#
# _framework density 18.555848999999998
#
# number of rings (size 3 to 8) (size 9 to 14) (size 15 to 20)
#    0.000    2.222    6.667    2.000    0.000    0.889 
#    0.000    1.111    0.000    2.667    0.000    0.000 
#    0.000    0.000    0.000    0.000    0.000    0.000 
#
# Total GULP energy -200435.316944 kJ/mol
# GULP energy per Si atom -5567.647693 kJ/mol
# Density = 1.851361 g / cm^3
# Si number density = 18.555849 Si / 1000 Ang^3
#
#
#
# Elastic Constant Matrix: (Units=GPa)
#
#
# Indices 1 2 3 4 5 6 
#
# 1 65.7468 20.5707 29.8204 0.0000 0.0000 0.0000
# 2 20.5707 87.0918 25.2850 0.0000 0.0000 0.0000
# 3 29.8204 25.2850 119.3508 0.0000 0.0000 0.0000
# 4 0.0000 0.0000 0.0000 20.3914 0.0000 0.0000
# 5 0.0000 0.0000 0.0000 0.0000 -4.7936 0.0000
# 6 0.0000 0.0000 0.0000 0.0000 0.0000 18.3315
#
#
#
# Elastic Compliance Matrix: (Units=1/GPa)
#
#
# Indices 1 2 3 4 5 6 
#
# 1 0.017918 -0.003125 -0.003815 0.000000 0.000000 0.000000
# 2 -0.003125 0.012780 -0.001927 0.000000 0.000000 0.000000
# 3 -0.003815 -0.001927 0.009740 0.000000 0.000000 0.000000
# 4 0.000000 0.000000 0.000000 0.049040 0.000000 0.000000
# 5 0.000000 0.000000 0.000000 0.000000 -0.208611 0.000000
# 6 0.000000 0.000000 0.000000 0.000000 0.000000 0.054551
#
#
# Mechanical properties :
#
#
# Convention : Reuss Voigt Hill
#
# Bulk Modulus (GPa) = 44.04317 47.06018 45.55167
# Shear Modulus (GPa) = -127.28635 19.88674 -53.69980
#
# Velocity S-wave (km/s) = -8.29128 3.27727 -5.38539
# Velocity P-wave (km/s) = 8.23853 6.30374 3.75075
#
# Compressibility (1/GPa) = 0.02270500
#
# Stress axis : x y z
#
# Youngs Moduli (GPa) = 55.81050 78.25026 102.66922
#
# Poissons Ratio (x) = 0.24450 0.39167
# Poissons Ratio (y) = 0.17438 0.19781
# Poissons Ratio (z) = 0.21291 0.15077
#
# Static dielectric constant tensor:
#      x y z
#    x 1.700150 0.000000 0.000000 
#    y 0.000000 1.647720 0.000000 
#    z 0.000000 0.000000 1.673200 
# 
# From -- ./inp_files/10000.got.cif
#   From: 2010.05.17/outbox.cif.g08.bks.cpg/sg52_5_cif.got.tgz:10000.got - 2010.06.03 12:15:38.
