data_PCOD9408884
_publ_section_title
;
Structure prediction by ZEFSAII (Michael W. Deem and Ramdas Pophale) SiO2 
 PCOD9408884
Probable space group: P N N A
;
_chemical_formula_sum "Si O2"
_cell_formula_units_Z 32
_cell_length_a 21.401611
_cell_length_b 15.124478
_cell_length_c 5.082760
_cell_angle_alpha 90.000000
_cell_angle_beta 90.000000
_cell_angle_gamma 90.000000
_cell_volume 1645.229409
_symmetry_space_group_name_H-M "P N N A"
_symmetry_group_IT_number 52
_symmetry_cell_setting 'orthorhombic'
loop_
_space_group_symop_operation_xyz
x,y,z
1/2-x,-y,z
x,1/2-y,1/2-z
1/2-x,1/2+y,1/2-z
-x,-y,-z
1/2+x,y,-z
-x,1/2+y,1/2+z
1/2+x,1/2-y,1/2+z
loop_
_atom_site_type_symbol
_atom_site_label
_atom_site_fract_x
_atom_site_fract_y
_atom_site_fract_z
Si Si1 0.104760 0.457852 0.475498
Si Si2 0.509818 0.580672 0.788092
Si Si3 0.676753 0.500599 0.019159
Si Si4 0.612840 0.691377 0.993662
O O1 0.052096 0.399027 0.620676
O O2 0.158525 0.470243 0.689183
O O3 0.062442 0.545581 0.417944
O O4 0.137827 0.443153 0.195481
O O5 0.500000 0.500000 0.000000
O O6 0.541427 0.660548 0.941916
O O7 0.750000 0.500000 0.968067
O O8 0.651528 0.600810 0.004264
O O9 0.618426 0.750000 0.250000
O O10 0.634108 0.750000 0.750000
#
# Coordination Sequence:
#
# PCOD9408884 Si02
#       4
#     8   8   8   8
#     4  10  19  33  59  88 109 149 206 240 279 348
#     4  10  19  35  61  86 123 150 190 242 302 365
#     4  11  22  38  59  88 116 164 209 241 283 359
#     4  11  23  36  58  93 121 146 191 256 311 342
#
# _framework density 19.450174000000001
#
# number of rings (size 3 to 8) (size 9 to 14) (size 15 to 20)
#    0.000    1.500    5.000    3.750    3.500    0.000 
#    0.000    0.000    0.000    6.000    0.000    0.000 
#    0.000    0.000    0.000    0.000    0.000    0.000 
#
# Total GULP energy -178353.497643 kJ/mol
# GULP energy per Si atom -5573.546801 kJ/mol
# Density = 1.940590 g / cm^3
# Si number density = 19.450174 Si / 1000 Ang^3
#
#
#
# Elastic Constant Matrix: (Units=GPa)
#
#
# Indices 1 2 3 4 5 6 
#
# 1 109.8328 3.3063 24.1579 0.0000 0.0000 0.0000
# 2 3.3063 37.5623 19.0444 0.0000 0.0000 0.0000
# 3 24.1579 19.0444 134.3600 0.0000 0.0000 0.0000
# 4 0.0000 0.0000 0.0000 6.0736 0.0000 0.0000
# 5 0.0000 0.0000 0.0000 0.0000 34.0700 0.0000
# 6 0.0000 0.0000 0.0000 0.0000 0.0000 53.6148
#
#
#
# Elastic Compliance Matrix: (Units=1/GPa)
#
#
# Indices 1 2 3 4 5 6 
#
# 1 0.009480 0.000032 -0.001709 0.000000 0.000000 0.000000
# 2 0.000032 0.028684 -0.004071 0.000000 0.000000 0.000000
# 3 -0.001709 -0.004071 0.008327 0.000000 0.000000 0.000000
# 4 0.000000 0.000000 0.000000 0.164646 0.000000 0.000000
# 5 0.000000 0.000000 0.000000 0.000000 0.029351 0.000000
# 6 0.000000 0.000000 0.000000 0.000000 0.000000 0.018652
#
#
# Mechanical properties :
#
#
# Convention : Reuss Voigt Hill
#
# Bulk Modulus (GPa) = 28.57648 41.64138 35.10893
# Shear Modulus (GPa) = 17.71161 34.43479 26.07320
#
# Velocity S-wave (km/s) = 3.02091 4.21219 3.66527
# Velocity P-wave (km/s) = 5.18574 6.71658 6.00018
#
# Compressibility (1/GPa) = 0.03499381
#
# Stress axis : x y z
#
# Youngs Moduli (GPa) = 105.48878 34.86281 120.09038
#
# Poissons Ratio (x) = -0.00112 0.20523
# Poissons Ratio (y) = -0.00338 0.48894
# Poissons Ratio (z) = 0.18028 0.14194
#
# Static dielectric constant tensor:
#      x y z
#    x 1.705510 0.000000 0.000000 
#    y 0.000000 1.687840 0.000000 
#    z 0.000000 0.000000 1.700960 
# 
# From -- ./inp_files/4031.got.cif
#   From: 2010.05.17/outbox.cif.g08.bks.cpg/sg52_3_cif.got.tgz:4031.got - 2010.06.03 12:15:38.
