data_PCOD9408834
_publ_section_title
;
Structure prediction by ZEFSAII (Michael W. Deem and Ramdas Pophale) SiO2 
 PCOD9408834
Probable space group: P N N A
;
_chemical_formula_sum "Si O2"
_cell_formula_units_Z 60
_cell_length_a 13.002708
_cell_length_b 18.265146
_cell_length_c 13.025072
_cell_angle_alpha 90.000000
_cell_angle_beta 90.000000
_cell_angle_gamma 90.000000
_cell_volume 3093.407189
_symmetry_space_group_name_H-M "P N N A"
_symmetry_group_IT_number 52
_symmetry_cell_setting 'orthorhombic'
loop_
_space_group_symop_operation_xyz
x,y,z
1/2-x,-y,z
x,1/2-y,1/2-z
1/2-x,1/2+y,1/2-z
-x,-y,-z
1/2+x,y,-z
-x,1/2+y,1/2+z
1/2+x,1/2-y,1/2+z
loop_
_atom_site_type_symbol
_atom_site_label
_atom_site_fract_x
_atom_site_fract_y
_atom_site_fract_z
Si Si1 0.250000 0.500000 0.070493
Si Si2 0.894327 0.876705 0.502579
Si Si3 0.268884 0.184993 0.624487
Si Si4 0.528650 0.599447 0.179472
Si Si5 0.549226 0.933782 0.662536
Si Si6 0.279758 0.844545 0.845504
Si Si7 0.986077 0.595659 0.389695
Si Si8 0.408620 0.071570 0.901298
O O1 0.331364 0.450943 0.135346
O O2 0.173494 0.450918 0.003670
O O3 0.808945 0.819822 0.468985
O O4 0.936099 0.864645 0.616719
O O5 0.989762 0.886736 0.424262
O O6 0.369337 0.134547 0.628946
O O7 0.205325 0.155225 0.722945
O O8 0.286856 0.271236 0.637078
O O9 0.509906 0.512722 0.161683
O O10 0.535594 0.607920 0.302028
O O11 0.538248 0.901750 0.777377
O O12 0.391622 0.847917 0.894117
O O13 0.210479 0.911687 0.881443
O O14 0.937084 0.513953 0.397671
O O15 0.058050 0.602652 0.488633
#
# Coordination Sequence:
#
# PCOD9408834 Si02
#       8
#     4   8   8   8   8   8   8   8
#     4  10  20  32  50  84 120 140 174 218 276 330
#     4  11  18  32  54  81 109 146 174 220 266 322
#     4  10  20  33  54  79 107 142 183 219 264 322
#     4   9  19  33  52  80 109 140 177 217 268 319
#     4  10  19  33  53  82 113 144 173 222 272 320
#     4  10  20  36  54  77 107 140 181 227 264 315
#     4  10  19  37  56  81 105 138 182 225 271 320
#     4   9  20  36  55  79 104 140 178 224 271 317
#
# _framework density 19.396089
#
# number of rings (size 3 to 8) (size 9 to 14) (size 15 to 20)
#    0.000    2.133    1.333    3.600    0.000    1.067 
#    9.600    0.000    0.000    0.000    0.000    0.000 
#    0.000    0.000    0.000    0.000    0.000    0.000 
#
# Total GULP energy -334096.931310 kJ/mol
# GULP energy per Si atom -5568.282188 kJ/mol
# Density = 1.935194 g / cm^3
# Si number density = 19.396089 Si / 1000 Ang^3
#
#
#
# Elastic Constant Matrix: (Units=GPa)
#
#
# Indices 1 2 3 4 5 6 
#
# 1 72.1136 9.9328 37.3966 0.0000 0.0000 0.0000
# 2 9.9328 20.7118 14.0653 0.0000 0.0000 0.0000
# 3 37.3966 14.0653 89.3548 0.0000 0.0000 0.0000
# 4 0.0000 0.0000 0.0000 10.9168 0.0000 0.0000
# 5 0.0000 0.0000 0.0000 0.0000 27.6669 0.0000
# 6 0.0000 0.0000 0.0000 0.0000 0.0000 18.8953
#
#
#
# Elastic Compliance Matrix: (Units=1/GPa)
#
#
# Indices 1 2 3 4 5 6 
#
# 1 0.017993 -0.003936 -0.006911 0.000000 0.000000 0.000000
# 2 -0.003936 0.054921 -0.006998 0.000000 0.000000 0.000000
# 3 -0.006911 -0.006998 0.015185 0.000000 0.000000 0.000000
# 4 0.000000 0.000000 0.000000 0.091602 0.000000 0.000000
# 5 0.000000 0.000000 0.000000 0.000000 0.036144 0.000000
# 6 0.000000 0.000000 0.000000 0.000000 0.000000 0.052923
#
#
# Mechanical properties :
#
#
# Convention : Reuss Voigt Hill
#
# Bulk Modulus (GPa) = 19.08018 33.88553 26.48285
# Shear Modulus (GPa) = 15.53142 19.54817 17.53980
#
# Velocity S-wave (km/s) = 2.83282 3.17810 3.01041
# Velocity P-wave (km/s) = 4.53413 5.56554 5.07610
#
# Compressibility (1/GPa) = 0.05241040
#
# Stress axis : x y z
#
# Youngs Moduli (GPa) = 55.57739 18.20782 65.85358
#
# Poissons Ratio (x) = 0.07166 0.45510
# Poissons Ratio (y) = 0.21874 0.46084
# Poissons Ratio (z) = 0.38409 0.12742
#
# Static dielectric constant tensor:
#      x y z
#    x 1.671160 0.000000 0.000000 
#    y 0.000000 1.740050 0.000000 
#    z 0.000000 0.000000 1.720350 
# 
# From -- ./inp_files/18410.got.cif
#   From: 2010.05.17/outbox.cif.g08.bks.cpg/sg52_10_cif.got.tgz:18410.got - 2010.06.03 12:15:38.
