data_PCOD9408408
_publ_section_title
;
Structure prediction by ZEFSAII (Michael W. Deem and Ramdas Pophale) SiO2 
 PCOD9408408
Probable space group: P N N A
;
_chemical_formula_sum "Si O2"
_cell_formula_units_Z 44
_cell_length_a 9.243727
_cell_length_b 8.197880
_cell_length_c 31.934366
_cell_angle_alpha 90.000000
_cell_angle_beta 90.000000
_cell_angle_gamma 90.000000
_cell_volume 2419.953194
_symmetry_space_group_name_H-M "P N N A"
_symmetry_group_IT_number 52
_symmetry_cell_setting 'orthorhombic'
loop_
_space_group_symop_operation_xyz
x,y,z
1/2-x,-y,z
x,1/2-y,1/2-z
1/2-x,1/2+y,1/2-z
-x,-y,-z
1/2+x,y,-z
-x,1/2+y,1/2+z
1/2+x,1/2-y,1/2+z
loop_
_atom_site_type_symbol
_atom_site_label
_atom_site_fract_x
_atom_site_fract_y
_atom_site_fract_z
Si Si1 0.136382 0.634559 0.286042
Si Si2 0.581149 0.948163 0.559800
Si Si3 0.250000 0.000000 0.995863
Si Si4 0.993329 0.229519 0.017446
Si Si5 0.411431 0.431494 0.768410
Si Si6 0.086521 0.566949 0.157391
O O1 0.250000 0.500000 0.300507
O O2 0.207194 0.750000 0.250000
O O3 0.083693 0.754409 0.321987
O O4 0.005887 0.544673 0.262561
O O5 0.536244 0.797659 0.529845
O O6 0.551848 0.921337 0.608524
O O7 0.750000 0.000000 0.553918
O O8 0.497013 0.108364 0.544591
O O9 0.140560 0.123402 0.019911
O O10 0.360535 0.113585 0.970915
O O11 0.250000 0.500000 0.770597
O O12 0.412470 0.250000 0.750000
O O13 0.485697 0.452047 0.814005
O O14 0.250000 0.500000 0.161182
#
# Coordination Sequence:
#
# PCOD9408408 Si02
#       6
#     8   8   4   8   8   8
#     4  10  18  33  57  84 110 145 190 231 278 334
#     4  10  20  38  60  85 117 158 194 235 289 349
#     4  10  20  36  60  88 112 144 194 246 280 334
#     4  10  20  38  62  85 116 155 196 230 289 355
#     4  11  21  37  59  80 114 152 189 231 284 341
#     4  10  21  37  57  84 114 148 192 237 278 330
#
# _framework density 18.182169999999999
#
# number of rings (size 3 to 8) (size 9 to 14) (size 15 to 20)
#    0.000    1.818    1.818    5.455    0.000    0.000 
#    4.909    3.636    4.000    0.000    0.000    0.000 
#    0.000    0.000    0.000    0.000    0.000    0.000 
#
# Total GULP energy -245424.156807 kJ/mol
# GULP energy per Si atom -5577.821746 kJ/mol
# Density = 1.814079 g / cm^3
# Si number density = 18.182170 Si / 1000 Ang^3
#
#
#
# Elastic Constant Matrix: (Units=GPa)
#
#
# Indices 1 2 3 4 5 6 
#
# 1 91.5608 32.4139 32.8068 0.0000 0.0000 0.0000
# 2 32.4139 111.6649 50.8269 0.0000 0.0000 0.0000
# 3 32.8068 50.8269 127.6285 0.0000 0.0000 0.0000
# 4 0.0000 0.0000 0.0000 11.4006 0.0000 0.0000
# 5 0.0000 0.0000 0.0000 0.0000 23.0857 0.0000
# 6 0.0000 0.0000 0.0000 0.0000 0.0000 36.1032
#
#
#
# Elastic Compliance Matrix: (Units=1/GPa)
#
#
# Indices 1 2 3 4 5 6 
#
# 1 0.012653 -0.002678 -0.002186 0.000000 0.000000 0.000000
# 2 -0.002678 0.011505 -0.003893 0.000000 0.000000 0.000000
# 3 -0.002186 -0.003893 0.009948 0.000000 0.000000 0.000000
# 4 0.000000 0.000000 0.000000 0.087715 0.000000 0.000000
# 5 0.000000 0.000000 0.000000 0.000000 0.043317 0.000000
# 6 0.000000 0.000000 0.000000 0.000000 0.000000 0.027698
#
#
# Mechanical properties :
#
#
# Convention : Reuss Voigt Hill
#
# Bulk Modulus (GPa) = 60.27362 62.54993 61.41178
# Shear Modulus (GPa) = 23.16098 28.43835 25.79966
#
# Velocity S-wave (km/s) = 3.57295 3.95913 3.77099
# Velocity P-wave (km/s) = 7.08824 7.44151 7.26702
#
# Compressibility (1/GPa) = 0.01659100
#
# Stress axis : x y z
#
# Youngs Moduli (GPa) = 79.03288 86.91989 100.52635
#
# Poissons Ratio (x) = 0.23276 0.21975
# Poissons Ratio (y) = 0.21164 0.39138
# Poissons Ratio (z) = 0.17276 0.33841
#
# Static dielectric constant tensor:
#      x y z
#    x 1.642130 0.000000 0.000000 
#    y 0.000000 1.640570 0.000000 
#    z 0.000000 0.000000 1.608710 
# 
# From -- ./inp_files/44249.got.cif
#   From: 2010.05.17/outbox.cif.g08.bks.cpg/sg52_23_cif.got.tgz:44249.got - 2010.06.03 12:15:38.
