data_PCOD9408906
_publ_section_title
;
Structure prediction by ZEFSAII (Michael W. Deem and Ramdas Pophale) SiO2 
 PCOD9408906
Probable space group: P N N A
;
_chemical_formula_sum "Si O2"
_cell_formula_units_Z 48
_cell_length_a 5.412690
_cell_length_b 15.517852
_cell_length_c 30.325483
_cell_angle_alpha 90.000000
_cell_angle_beta 90.000000
_cell_angle_gamma 90.000000
_cell_volume 2547.138069
_symmetry_space_group_name_H-M "P N N A"
_symmetry_group_IT_number 52
_symmetry_cell_setting 'orthorhombic'
loop_
_space_group_symop_operation_xyz
x,y,z
1/2-x,-y,z
x,1/2-y,1/2-z
1/2-x,1/2+y,1/2-z
-x,-y,-z
1/2+x,y,-z
-x,1/2+y,1/2+z
1/2+x,1/2-y,1/2+z
loop_
_atom_site_type_symbol
_atom_site_label
_atom_site_fract_x
_atom_site_fract_y
_atom_site_fract_z
Si Si1 0.750000 0.500000 0.543392
Si Si2 0.797506 0.849304 0.732484
Si Si3 0.494645 0.313016 0.375612
Si Si4 0.750000 0.500000 0.697747
Si Si5 0.093328 0.687161 0.476546
Si Si6 0.506718 0.581398 0.374940
Si Si7 0.190317 0.194382 0.703970
O O1 0.885373 0.418384 0.521496
O O2 0.556772 0.457245 0.577581
O O3 0.782319 0.750000 0.750000
O O4 0.799111 0.917676 0.771721
O O5 0.537001 0.869984 0.709977
O O6 0.040973 0.849011 0.702178
O O7 0.453659 0.283997 0.426224
O O8 0.223159 0.352677 0.364494
O O9 0.595410 0.250380 0.337243
O O10 0.729392 0.376174 0.378308
O O11 0.525369 0.489840 0.663188
O O12 0.359761 0.715602 0.494530
O O13 0.207099 0.250000 0.750000
#
# Coordination Sequence:
#
# PCOD9408906 Si02
#       7
#     4   8   8   4   8   8   8
#     4   9  20  32  46  68  98 134 182 232 274 311
#     4  10  21  34  51  76 102 138 176 215 265 310
#     4  11  21  37  53  74 103 138 183 227 265 317
#     4  11  22  36  56  78 110 142 184 230 256 317
#     4  11  22  34  49  69  97 137 181 229 276 316
#     4  10  21  32  50  74  99 138 184 226 265 302
#     4  10  19  34  53  73 100 133 172 214 262 316
#
# _framework density 18.84468
#
# number of rings (size 3 to 8) (size 9 to 14) (size 15 to 20)
#    0.000    1.667    0.000    7.500    0.000   10.667 
#    0.000    0.000    0.000    0.000    0.000    0.000 
#    0.000    0.000    0.000   15.000    0.000    0.000 
#
# Total GULP energy -267279.973157 kJ/mol
# GULP energy per Si atom -5568.332774 kJ/mol
# Density = 1.880179 g / cm^3
# Si number density = 18.844680 Si / 1000 Ang^3
#
#
#
# Elastic Constant Matrix: (Units=GPa)
#
#
# Indices 1 2 3 4 5 6 
#
# 1 109.3811 12.9757 -1.4346 0.0000 0.0000 0.0000
# 2 12.9757 26.7254 28.2914 0.0000 0.0000 0.0000
# 3 -1.4346 28.2914 79.5984 0.0000 0.0000 0.0000
# 4 0.0000 0.0000 0.0000 16.9587 0.0000 0.0000
# 5 0.0000 0.0000 0.0000 0.0000 -15.8450 0.0000
# 6 0.0000 0.0000 0.0000 0.0000 0.0000 15.3901
#
#
#
# Elastic Compliance Matrix: (Units=1/GPa)
#
#
# Indices 1 2 3 4 5 6 
#
# 1 0.010158 -0.008218 0.003104 0.000000 0.000000 0.000000
# 2 -0.008218 0.066636 -0.023832 0.000000 0.000000 0.000000
# 3 0.003104 -0.023832 0.021090 0.000000 0.000000 0.000000
# 4 0.000000 0.000000 0.000000 0.058967 0.000000 0.000000
# 5 0.000000 0.000000 0.000000 0.000000 -0.063112 0.000000
# 6 0.000000 0.000000 0.000000 0.000000 0.000000 0.064977
#
#
# Mechanical properties :
#
#
# Convention : Reuss Voigt Hill
#
# Bulk Modulus (GPa) = 25.00524 32.81885 28.91205
# Shear Modulus (GPa) = 21.74490 15.02560 18.38525
#
# Velocity S-wave (km/s) = 3.40060 2.82678 3.12688
# Velocity P-wave (km/s) = 5.35879 5.30165 5.33030
#
# Compressibility (1/GPa) = 0.03999161
#
# Stress axis : x y z
#
# Youngs Moduli (GPa) = 98.44557 15.00680 47.41647
#
# Poissons Ratio (x) = 0.12332 -0.14717
# Poissons Ratio (y) = 0.80898 1.13005
# Poissons Ratio (z) = -0.30556 0.35765
#
# Static dielectric constant tensor:
#      x y z
#    x 1.737770 0.000000 0.000000 
#    y 0.000000 1.717080 0.000000 
#    z 0.000000 0.000000 1.697340 
# 
# From -- ./inp_files/43839.got.cif
#   From: 2010.05.17/outbox.cif.g08.bks.cpg/sg52_22_cif.got.tgz:43839.got - 2010.06.03 12:15:38.
