data_PCOD9408989
_publ_section_title
;
Structure prediction by ZEFSAII (Michael W. Deem and Ramdas Pophale) SiO2 
 PCOD9408989
Probable space group: P N N A
;
_chemical_formula_sum "Si O2"
_cell_formula_units_Z 40
_cell_length_a 5.480642
_cell_length_b 17.877243
_cell_length_c 20.622034
_cell_angle_alpha 90.000000
_cell_angle_beta 90.000000
_cell_angle_gamma 90.000000
_cell_volume 2020.521502
_symmetry_space_group_name_H-M "P N N A"
_symmetry_group_IT_number 52
_symmetry_cell_setting 'orthorhombic'
loop_
_space_group_symop_operation_xyz
x,y,z
1/2-x,-y,z
x,1/2-y,1/2-z
1/2-x,1/2+y,1/2-z
-x,-y,-z
1/2+x,y,-z
-x,1/2+y,1/2+z
1/2+x,1/2-y,1/2+z
loop_
_atom_site_type_symbol
_atom_site_label
_atom_site_fract_x
_atom_site_fract_y
_atom_site_fract_z
Si Si1 0.057091 0.219099 0.175573
Si Si2 0.996010 0.955630 0.304284
Si Si3 0.860010 0.424151 0.659594
Si Si4 0.976382 0.913404 0.025818
Si Si5 0.551028 0.281542 0.174567
O O1 0.048359 0.250000 0.250000
O O2 0.137275 0.132530 0.174521
O O3 0.297689 0.254850 0.144083
O O4 0.800050 0.246065 0.147795
O O5 0.961322 0.870849 0.328547
O O6 0.011805 0.943182 0.226706
O O7 0.750000 0.000000 0.320767
O O8 0.250000 0.000000 0.321379
O O9 0.750000 0.500000 0.632543
O O10 0.044963 0.403015 0.602921
O O11 0.738228 0.879897 0.992767
O O12 0.000000 0.000000 0.000000
O O13 0.542514 0.250000 0.250000
#
# Coordination Sequence:
#
# PCOD9408989 Si02
#       5
#     8   8   8   8   8
#     4  10  20  34  47  68  95 131 165 220 260 313
#     4  11  23  32  50  74  93 131 180 220 253 307
#     4  11  22  33  54  72  98 136 188 220 257 304
#     4  10  21  37  47  68  99 131 171 238 260 286
#     4  10  19  35  45  64 102 122 161 218 257 304
#
# _framework density 19.796868
#
# number of rings (size 3 to 8) (size 9 to 14) (size 15 to 20)
#    0.000    1.600    6.000    1.200   11.200    1.600 
#    0.000    0.000    0.000    0.000    0.000    0.000 
#    0.000    0.000    0.000    0.000    0.000   92.000 
#
# Total GULP energy -222762.646821 kJ/mol
# GULP energy per Si atom -5569.066171 kJ/mol
# Density = 1.975181 g / cm^3
# Si number density = 19.796868 Si / 1000 Ang^3
#
#
#
# Elastic Constant Matrix: (Units=GPa)
#
#
# Indices 1 2 3 4 5 6 
#
# 1 177.4889 56.2815 -2.8927 0.0000 0.0000 0.0000
# 2 56.2815 141.5861 5.0470 0.0000 0.0000 0.0000
# 3 -2.8927 5.0470 13.1822 0.0000 0.0000 0.0000
# 4 0.0000 0.0000 0.0000 6.2576 0.0000 0.0000
# 5 0.0000 0.0000 0.0000 0.0000 10.9493 0.0000
# 6 0.0000 0.0000 0.0000 0.0000 0.0000 37.2782
#
#
#
# Elastic Compliance Matrix: (Units=1/GPa)
#
#
# Indices 1 2 3 4 5 6 
#
# 1 0.006524 -0.002681 0.002458 0.000000 0.000000 0.000000
# 2 -0.002681 0.008262 -0.003752 0.000000 0.000000 0.000000
# 3 0.002458 -0.003752 0.077836 0.000000 0.000000 0.000000
# 4 0.000000 0.000000 0.000000 0.159804 0.000000 0.000000
# 5 0.000000 0.000000 0.000000 0.000000 0.091330 0.000000
# 6 0.000000 0.000000 0.000000 0.000000 0.000000 0.026825
#
#
# Mechanical properties :
#
#
# Convention : Reuss Voigt Hill
#
# Bulk Modulus (GPa) = 11.81011 49.90319 30.85665
# Shear Modulus (GPa) = 12.29239 29.15179 20.72209
#
# Velocity S-wave (km/s) = 2.49454 3.84154 3.23884
# Velocity P-wave (km/s) = 3.77830 6.70365 5.44125
#
# Compressibility (1/GPa) = 0.08467320
#
# Stress axis : x y z
#
# Youngs Moduli (GPa) = 153.27084 121.03110 12.84758
#
# Poissons Ratio (x) = 0.32450 -0.03158
# Poissons Ratio (y) = 0.41094 0.04820
# Poissons Ratio (z) = -0.37677 0.45407
#
# Static dielectric constant tensor:
#      x y z
#    x 1.787870 0.000000 0.000000 
#    y 0.000000 1.797070 0.000000 
#    z 0.000000 0.000000 1.684670 
# 
# From -- ./inp_files/38656.got.cif
#   From: 2010.05.17/outbox.cif.g08.bks.cpg/sg52_20_cif.got.tgz:38656.got - 2010.06.03 12:15:38.
