data_PCOD9408745
_publ_section_title
;
Structure prediction by ZEFSAII (Michael W. Deem and Ramdas Pophale) SiO2 
 PCOD9408745
Probable space group: P N N A
;
_chemical_formula_sum "Si O2"
_cell_formula_units_Z 48
_cell_length_a 21.033205
_cell_length_b 5.576745
_cell_length_c 17.919345
_cell_angle_alpha 90.000000
_cell_angle_beta 90.000000
_cell_angle_gamma 90.000000
_cell_volume 2101.882200
_symmetry_space_group_name_H-M "P N N A"
_symmetry_group_IT_number 52
_symmetry_cell_setting 'orthorhombic'
loop_
_space_group_symop_operation_xyz
x,y,z
1/2-x,-y,z
x,1/2-y,1/2-z
1/2-x,1/2+y,1/2-z
-x,-y,-z
1/2+x,y,-z
-x,1/2+y,1/2+z
1/2+x,1/2-y,1/2+z
loop_
_atom_site_type_symbol
_atom_site_label
_atom_site_fract_x
_atom_site_fract_y
_atom_site_fract_z
Si Si1 0.587576 0.495246 0.675986
Si Si2 0.736357 0.753166 0.473223
Si Si3 0.401139 0.178095 0.457585
Si Si4 0.215984 0.248537 0.140790
Si Si5 0.024215 0.498573 0.782167
Si Si6 0.995499 0.716831 0.929382
O O1 0.610068 0.723255 0.626354
O O2 0.644825 0.304940 0.668804
O O3 0.550590 0.508366 0.754509
O O4 0.527552 0.419321 0.625713
O O5 0.750000 0.500000 0.435469
O O6 0.664425 0.774666 0.501311
O O7 0.778688 0.752789 0.550197
O O8 0.750000 0.000000 0.431180
O O9 0.455439 0.298848 0.508723
O O10 0.431319 0.911978 0.458202
O O11 0.250000 0.500000 0.164444
O O12 0.250000 0.000000 0.164231
O O13 0.051023 0.750000 0.750000
O O14 0.025702 0.521098 0.871646
O O15 0.051288 0.250000 0.750000
#
# Coordination Sequence:
#
# PCOD9408745 Si02
#       6
#     8   8   8   8   8   8
#     4  11  20  35  58  80 116 156 199 245 295 357
#     4  10  19  33  51  79 110 146 184 234 291 335
#     4  11  20  34  57  85 114 153 194 251 297 355
#     4  10  19  31  53  79 108 145 195 238 283 325
#     4  10  21  37  56  76 111 155 191 234 293 351
#     4  10  22  35  53  84 116 151 197 243 302 358
#
# _framework density 22.836675
#
# number of rings (size 3 to 8) (size 9 to 14) (size 15 to 20)
#    0.000    1.667    5.000    2.500    0.000    0.000 
#    0.000    0.000    0.000   19.000    0.000    0.000 
#    0.000   16.000    0.000    0.000    0.000    0.000 
#
# Total GULP energy -267354.699191 kJ/mol
# GULP energy per Si atom -5569.889566 kJ/mol
# Density = 2.278470 g / cm^3
# Si number density = 22.836675 Si / 1000 Ang^3
#
#
#
# Elastic Constant Matrix: (Units=GPa)
#
#
# Indices 1 2 3 4 5 6 
#
# 1 58.1987 12.4192 20.0194 0.0000 0.0000 0.0000
# 2 12.4192 152.0178 10.4097 0.0000 0.0000 0.0000
# 3 20.0194 10.4097 68.3836 0.0000 0.0000 0.0000
# 4 0.0000 0.0000 0.0000 21.2640 0.0000 0.0000
# 5 0.0000 0.0000 0.0000 0.0000 11.7162 0.0000
# 6 0.0000 0.0000 0.0000 0.0000 0.0000 23.9752
#
#
#
# Elastic Compliance Matrix: (Units=1/GPa)
#
#
# Indices 1 2 3 4 5 6 
#
# 1 0.019322 -0.001204 -0.005473 0.000000 0.000000 0.000000
# 2 -0.001204 0.006722 -0.000671 0.000000 0.000000 0.000000
# 3 -0.005473 -0.000671 0.016328 0.000000 0.000000 0.000000
# 4 0.000000 0.000000 0.000000 0.047028 0.000000 0.000000
# 5 0.000000 0.000000 0.000000 0.000000 0.085352 0.000000
# 6 0.000000 0.000000 0.000000 0.000000 0.000000 0.041710
#
#
# Mechanical properties :
#
#
# Convention : Reuss Voigt Hill
#
# Bulk Modulus (GPa) = 36.13184 40.47741 38.30463
# Shear Modulus (GPa) = 20.80010 27.10786 23.95398
#
# Velocity S-wave (km/s) = 3.02125 3.44907 3.24223
# Velocity P-wave (km/s) = 5.29404 5.79868 5.55209
#
# Compressibility (1/GPa) = 0.02767642
#
# Stress axis : x y z
#
# Youngs Moduli (GPa) = 51.75418 148.75506 61.24504
#
# Poissons Ratio (x) = 0.17906 0.33521
# Poissons Ratio (y) = 0.06230 0.04109
# Poissons Ratio (z) = 0.28327 0.09980
#
# Static dielectric constant tensor:
#      x y z
#    x 1.858680 0.000000 0.000000 
#    y 0.000000 2.257050 0.000000 
#    z 0.000000 0.000000 1.903130 
# 
# From -- ./inp_files/37840.got.cif
#   From: 2010.05.17/outbox.cif.g08.bks.cpg/sg52_19_cif.got.tgz:37840.got - 2010.06.03 12:15:38.
