data_PCOD9408615
_publ_section_title
;
Structure prediction by ZEFSAII (Michael W. Deem and Ramdas Pophale) SiO2 
 PCOD9408615
Probable space group: P N N A
;
_chemical_formula_sum "Si O2"
_cell_formula_units_Z 40
_cell_length_a 12.094148
_cell_length_b 11.130373
_cell_length_c 16.568627
_cell_angle_alpha 90.000000
_cell_angle_beta 90.000000
_cell_angle_gamma 90.000000
_cell_volume 2230.342287
_symmetry_space_group_name_H-M "P N N A"
_symmetry_group_IT_number 52
_symmetry_cell_setting 'orthorhombic'
loop_
_space_group_symop_operation_xyz
x,y,z
1/2-x,-y,z
x,1/2-y,1/2-z
1/2-x,1/2+y,1/2-z
-x,-y,-z
1/2+x,y,-z
-x,1/2+y,1/2+z
1/2+x,1/2-y,1/2+z
loop_
_atom_site_type_symbol
_atom_site_label
_atom_site_fract_x
_atom_site_fract_y
_atom_site_fract_z
Si Si1 0.613131 0.700472 0.510673
Si Si2 0.507615 0.440765 0.630108
Si Si3 0.952153 0.710478 0.343424
Si Si4 0.585549 0.750000 0.250000
Si Si5 0.250000 0.000000 0.081567
Si Si6 0.267154 0.359179 0.885948
O O1 0.532518 0.618897 0.454313
O O2 0.551408 0.736143 0.593120
O O3 0.717143 0.615233 0.529479
O O4 0.659480 0.810173 0.459634
O O5 0.442560 0.564785 0.649772
O O6 0.484259 0.339935 0.695832
O O7 0.637167 0.472168 0.628435
O O8 0.971794 0.750000 0.250000
O O9 0.845293 0.782389 0.375476
O O10 0.663123 0.669893 0.193715
O O11 0.250000 0.500000 0.893774
#
# Coordination Sequence:
#
# PCOD9408615 Si02
#       6
#     8   8   8   4   4   8
#     4  10  21  37  62  87 117 156 201 251 297 365
#     4  10  21  38  60  88 118 155 203 249 299 364
#     4  11  21  37  61  88 118 154 203 251 300 359
#     4  10  22  36  58  88 118 152 198 260 288 356
#     4  10  18  38  60  84 110 154 202 236 298 358
#     4  11  22  37  59  88 120 159 200 244 306 354
#
# _framework density 17.934466
#
# number of rings (size 3 to 8) (size 9 to 14) (size 15 to 20)
#    0.000    1.600    1.000    6.000    0.000    2.400 
#    7.200    2.000    2.200    0.000    0.000    0.000 
#    0.000    0.000    0.000    0.000    0.000    0.000 
#
# Total GULP energy -223129.392305 kJ/mol
# GULP energy per Si atom -5578.234808 kJ/mol
# Density = 1.789365 g / cm^3
# Si number density = 17.934466 Si / 1000 Ang^3
#
#
#
# Elastic Constant Matrix: (Units=GPa)
#
#
# Indices 1 2 3 4 5 6 
#
# 1 89.7174 60.0153 36.8339 0.0000 0.0000 0.0000
# 2 60.0153 139.1642 52.6220 0.0000 0.0000 0.0000
# 3 36.8339 52.6220 115.7314 0.0000 0.0000 0.0000
# 4 0.0000 0.0000 0.0000 20.8322 0.0000 0.0000
# 5 0.0000 0.0000 0.0000 0.0000 18.7062 0.0000
# 6 0.0000 0.0000 0.0000 0.0000 0.0000 1.6373
#
#
#
# Elastic Compliance Matrix: (Units=1/GPa)
#
#
# Indices 1 2 3 4 5 6 
#
# 1 0.016195 -0.006080 -0.002390 0.000000 0.000000 0.000000
# 2 -0.006080 0.010961 -0.003049 0.000000 0.000000 0.000000
# 3 -0.002390 -0.003049 0.010787 0.000000 0.000000 0.000000
# 4 0.000000 0.000000 0.000000 0.048003 0.000000 0.000000
# 5 0.000000 0.000000 0.000000 0.000000 0.053458 0.000000
# 6 0.000000 0.000000 0.000000 0.000000 0.000000 0.610772
#
#
# Mechanical properties :
#
#
# Convention : Reuss Voigt Hill
#
# Bulk Modulus (GPa) = 67.08861 71.50615 69.29738
# Shear Modulus (GPa) = 6.42524 21.24458 13.83491
#
# Velocity S-wave (km/s) = 1.89484 3.44549 2.78045
# Velocity P-wave (km/s) = 6.50200 7.46899 7.00221
#
# Compressibility (1/GPa) = 0.01490566
#
# Stress axis : x y z
#
# Youngs Moduli (GPa) = 61.74909 91.23502 92.70127
#
# Poissons Ratio (x) = 0.55475 0.22151
# Poissons Ratio (y) = 0.37546 0.28260
# Poissons Ratio (z) = 0.14755 0.27813
#
# Static dielectric constant tensor:
#      x y z
#    x 1.607660 0.000000 0.000000 
#    y 0.000000 1.538540 0.000000 
#    z 0.000000 0.000000 1.639510 
# 
# From -- ./inp_files/25883.got.cif
#   From: 2010.05.17/outbox.cif.g08.bks.cpg/sg52_13_cif.got.tgz:25883.got - 2010.06.03 12:15:38.
