data_PCOD9408598
_publ_section_title
;
Structure prediction by ZEFSAII (Michael W. Deem and Ramdas Pophale) SiO2 
 PCOD9408598
Probable space group: P N N A
;
_chemical_formula_sum "Si O2"
_cell_formula_units_Z 56
_cell_length_a 19.281870
_cell_length_b 20.150225
_cell_length_c 7.742559
_cell_angle_alpha 90.000000
_cell_angle_beta 90.000000
_cell_angle_gamma 90.000000
_cell_volume 3008.247565
_symmetry_space_group_name_H-M "P N N A"
_symmetry_group_IT_number 52
_symmetry_cell_setting 'orthorhombic'
loop_
_space_group_symop_operation_xyz
x,y,z
1/2-x,-y,z
x,1/2-y,1/2-z
1/2-x,1/2+y,1/2-z
-x,-y,-z
1/2+x,y,-z
-x,1/2+y,1/2+z
1/2+x,1/2-y,1/2+z
loop_
_atom_site_type_symbol
_atom_site_label
_atom_site_fract_x
_atom_site_fract_y
_atom_site_fract_z
Si Si1 0.238524 0.178270 0.191069
Si Si2 0.599357 0.973166 0.110361
Si Si3 0.528461 0.394256 0.526692
Si Si4 0.815479 0.044293 0.791521
Si Si5 0.117206 0.276470 0.563659
Si Si6 0.583555 0.002604 0.490320
Si Si7 0.394526 0.641055 0.114297
O O1 0.265625 0.250000 0.250000
O O2 0.295140 0.121035 0.182575
O O3 0.184937 0.150299 0.332423
O O4 0.185001 0.192339 0.031634
O O5 0.552063 0.910789 0.051872
O O6 0.609939 0.969338 0.314331
O O7 0.663601 0.978871 0.982980
O O8 0.557593 0.040712 0.068659
O O9 0.556553 0.330799 0.425316
O O10 0.562028 0.382735 0.717693
O O11 0.877947 0.028959 0.657164
O O12 0.750000 0.000000 0.733314
O O13 0.137436 0.250000 0.750000
O O14 0.087639 0.214051 0.454291
O O15 0.500000 0.000000 0.500000
O O16 0.600246 0.080827 0.483004
#
# Coordination Sequence:
#
# PCOD9408598 Si02
#       7
#     8   8   8   8   8   8   8
#     4   9  20  40  62  83 125 170 205 264 325 365
#     4  11  22  36  62  89 124 165 204 257 319 388
#     4  10  18  38  57  90 126 153 198 263 325 366
#     4  12  23  42  62  89 132 168 214 268 324 385
#     4  10  20  35  63  95 119 162 221 265 310 394
#     4  12  22  39  65  98 125 165 217 264 326 382
#     4  10  18  37  64  86 121 165 202 265 317 376
#
# _framework density 18.615490000000001
#
# number of rings (size 3 to 8) (size 9 to 14) (size 15 to 20)
#    0.000    1.429    4.286    3.857    0.000    0.571 
#    5.143    2.143    0.000    0.000    0.000    0.000 
#    0.000    0.000    0.000    0.000    0.000    0.000 
#
# Total GULP energy -312035.421951 kJ/mol
# GULP energy per Si atom -5572.061106 kJ/mol
# Density = 1.857312 g / cm^3
# Si number density = 18.615490 Si / 1000 Ang^3
#
#
#
# Elastic Constant Matrix: (Units=GPa)
#
#
# Indices 1 2 3 4 5 6 
#
# 1 56.1034 29.0887 30.9466 0.0000 0.0000 0.0000
# 2 29.0887 101.0482 27.6713 0.0000 0.0000 0.0000
# 3 30.9466 27.6713 88.0779 0.0000 0.0000 0.0000
# 4 0.0000 0.0000 0.0000 34.5473 0.0000 0.0000
# 5 0.0000 0.0000 0.0000 0.0000 14.4515 0.0000
# 6 0.0000 0.0000 0.0000 0.0000 0.0000 30.3019
#
#
#
# Elastic Compliance Matrix: (Units=1/GPa)
#
#
# Indices 1 2 3 4 5 6 
#
# 1 0.024290 -0.005093 -0.006934 0.000000 0.000000 0.000000
# 2 -0.005093 0.011896 -0.001948 0.000000 0.000000 0.000000
# 3 -0.006934 -0.001948 0.014402 0.000000 0.000000 0.000000
# 4 0.000000 0.000000 0.000000 0.028946 0.000000 0.000000
# 5 0.000000 0.000000 0.000000 0.000000 0.069197 0.000000
# 6 0.000000 0.000000 0.000000 0.000000 0.000000 0.033001
#
#
# Mechanical properties :
#
#
# Convention : Reuss Voigt Hill
#
# Bulk Modulus (GPa) = 44.17546 46.73809 45.45677
# Shear Modulus (GPa) = 23.01729 26.36167 24.68948
#
# Velocity S-wave (km/s) = 3.52015 3.76721 3.64577
# Velocity P-wave (km/s) = 6.34854 6.63959 6.49569
#
# Compressibility (1/GPa) = 0.02263700
#
# Stress axis : x y z
#
# Youngs Moduli (GPa) = 41.16916 84.06272 69.43545
#
# Poissons Ratio (x) = 0.42817 0.48148
# Poissons Ratio (y) = 0.20969 0.13524
# Poissons Ratio (z) = 0.28548 0.16373
#
# Static dielectric constant tensor:
#      x y z
#    x 1.642340 0.000000 0.000000 
#    y 0.000000 1.692250 0.000000 
#    z 0.000000 0.000000 1.688530 
# 
# From -- ./inp_files/12540.got.cif
#   From: 2010.05.17/outbox.cif.g08.bks.cpg/sg52_7_cif.got.tgz:12540.got - 2010.06.03 12:15:38.
