data_PCOD9408863
_publ_section_title
;
Structure prediction by ZEFSAII (Michael W. Deem and Ramdas Pophale) SiO2 
 PCOD9408863
Probable space group: P N N A
;
_chemical_formula_sum "Si O2"
_cell_formula_units_Z 32
_cell_length_a 19.815150
_cell_length_b 5.067805
_cell_length_c 18.279739
_cell_angle_alpha 90.000000
_cell_angle_beta 90.000000
_cell_angle_gamma 90.000000
_cell_volume 1835.638892
_symmetry_space_group_name_H-M "P N N A"
_symmetry_group_IT_number 52
_symmetry_cell_setting 'orthorhombic'
loop_
_space_group_symop_operation_xyz
x,y,z
1/2-x,-y,z
x,1/2-y,1/2-z
1/2-x,1/2+y,1/2-z
-x,-y,-z
1/2+x,y,-z
-x,1/2+y,1/2+z
1/2+x,1/2-y,1/2+z
loop_
_atom_site_type_symbol
_atom_site_label
_atom_site_fract_x
_atom_site_fract_y
_atom_site_fract_z
Si Si1 0.016352 0.291282 0.933771
Si Si2 0.826627 0.542146 0.915865
Si Si3 0.948655 0.999491 0.698289
Si Si4 0.115024 0.542583 0.483001
O O1 0.009443 0.452648 0.859298
O O2 0.082237 0.113045 0.948122
O O3 0.952995 0.089359 0.935173
O O4 0.000000 0.500000 0.000000
O O5 0.750000 0.500000 0.892837
O O6 0.880834 0.519655 0.850716
O O7 0.835590 0.833737 0.947011
O O8 0.848878 0.326475 0.977921
O O9 0.943141 0.250000 0.750000
O O10 0.957515 0.750000 0.750000
#
# Coordination Sequence:
#
# PCOD9408863 Si02
#       4
#     8   8   8   8
#     4  10  19  35  59  75 102 144 186 237 289 315
#     4  11  22  36  52  76 113 155 191 222 256 324
#     4  11  23  34  51  80 113 148 186 221 274 331
#     4  10  19  33  56  78  96 142 193 233 276 310
#
# _framework density 17.432624000000001
#
# number of rings (size 3 to 8) (size 9 to 14) (size 15 to 20)
#    0.000    1.500    5.000    3.750    3.500    1.000 
#    0.000    0.000    0.000    0.000    0.000    0.000 
#    0.000    6.000    2.000    0.000    0.000    0.000 
#
# Total GULP energy -178193.758206 kJ/mol
# GULP energy per Si atom -5568.554944 kJ/mol
# Density = 1.739295 g / cm^3
# Si number density = 17.432624 Si / 1000 Ang^3
#
#
#
# Elastic Constant Matrix: (Units=GPa)
#
#
# Indices 1 2 3 4 5 6 
#
# 1 15.3049 14.7215 38.0614 0.0000 0.0000 0.0000
# 2 14.7215 113.3290 23.1431 0.0000 0.0000 0.0000
# 3 38.0614 23.1431 58.6311 0.0000 0.0000 0.0000
# 4 0.0000 0.0000 0.0000 24.4820 0.0000 0.0000
# 5 0.0000 0.0000 0.0000 0.0000 20.3109 0.0000
# 6 0.0000 0.0000 0.0000 0.0000 0.0000 29.2484
#
#
#
# Elastic Compliance Matrix: (Units=1/GPa)
#
#
# Indices 1 2 3 4 5 6 
#
# 1 -0.106335 -0.000308 0.069151 0.000000 0.000000 0.000000
# 2 -0.000308 0.009597 -0.003588 0.000000 0.000000 0.000000
# 3 0.069151 -0.003588 -0.026419 0.000000 0.000000 0.000000
# 4 0.000000 0.000000 0.000000 0.040846 0.000000 0.000000
# 5 0.000000 0.000000 0.000000 0.000000 0.049235 0.000000
# 6 0.000000 0.000000 0.000000 0.000000 0.000000 0.034190
#
#
# Mechanical properties :
#
#
# Convention : Reuss Voigt Hill
#
# Bulk Modulus (GPa) = 136.00780 37.67966 86.84373
# Shear Modulus (GPa) = -39.38740 22.23087 -8.57826
#
# Velocity S-wave (km/s) = -4.75848 3.57493 -2.22070
# Velocity P-wave (km/s) = 6.92803 6.22106 6.58404
#
# Compressibility (1/GPa) = 0.00735252
#
# Stress axis : x y z
#
# Youngs Moduli (GPa) = -9.40427 104.20353 -37.85224
#
# Poissons Ratio (x) = 0.03215 2.61751
# Poissons Ratio (y) = -0.00290 -0.13580
# Poissons Ratio (z) = 0.65031 0.37386
#
# Static dielectric constant tensor:
#      x y z
#    x 1.601430 0.000000 0.000000 
#    y 0.000000 1.649570 0.000000 
#    z 0.000000 0.000000 1.621210 
# 
# From -- ./inp_files/28427.got.cif
#   From: 2010.05.17/outbox.cif.g08.bks.cpg/sg52_15_cif.got.tgz:28427.got - 2010.06.03 12:15:38.
