data_PCOD9408189
_publ_section_title
;
Structure prediction by ZEFSAII (Michael W. Deem and Ramdas Pophale) SiO2 
 PCOD9408189
Probable space group: P N N A
;
_chemical_formula_sum "Si O2"
_cell_formula_units_Z 32
_cell_length_a 8.667164
_cell_length_b 13.068255
_cell_length_c 11.446108
_cell_angle_alpha 90.000000
_cell_angle_beta 90.000000
_cell_angle_gamma 90.000000
_cell_volume 1296.440095
_symmetry_space_group_name_H-M "P N N A"
_symmetry_group_IT_number 52
_symmetry_cell_setting 'orthorhombic'
loop_
_space_group_symop_operation_xyz
x,y,z
1/2-x,-y,z
x,1/2-y,1/2-z
1/2-x,1/2+y,1/2-z
-x,-y,-z
1/2+x,y,-z
-x,1/2+y,1/2+z
1/2+x,1/2-y,1/2+z
loop_
_atom_site_type_symbol
_atom_site_label
_atom_site_fract_x
_atom_site_fract_y
_atom_site_fract_z
Si Si1 0.990857 0.750000 0.750000
Si Si2 0.409871 0.469442 0.676072
Si Si3 0.070581 0.089579 0.583515
Si Si4 0.731098 0.829550 0.606939
Si Si5 0.250000 0.000000 0.189824
O O1 0.871507 0.756750 0.640533
O O2 0.087400 0.648261 0.721877
O O3 0.250000 0.500000 0.612778
O O4 0.406554 0.540333 0.791618
O O5 0.583422 0.492064 0.627272
O O6 0.221259 0.125075 0.517235
O O7 0.951063 0.184713 0.596815
O O8 0.000000 0.000000 0.500000
O O9 0.743656 0.907193 0.716479
#
# Coordination Sequence:
#
# PCOD9408189 Si02
#       5
#     4   8   8   8   4
#     4  10  20  32  46  80 122 146 174 240 292 334
#     4  10  19  31  50  74 112 146 184 220 286 334
#     4  11  16  29  54  79 101 143 179 227 280 342
#     4  10  18  29  50  76 114 138 179 226 290 332
#     4   8  16  28  46  70  98 132 166 218 272 326
#
# _framework density 24.682976
#
# number of rings (size 3 to 8) (size 9 to 14) (size 15 to 20)
#    0.000    2.000    7.500    1.500    0.000    0.000 
#    0.000   11.250    0.000    0.000    0.000    1.750 
#    0.000    0.000    0.000    0.000    0.000    0.000 
#
# Total GULP energy -178244.109359 kJ/mol
# GULP energy per Si atom -5570.128417 kJ/mol
# Density = 2.462680 g / cm^3
# Si number density = 24.682976 Si / 1000 Ang^3
#
#
#
# Elastic Constant Matrix: (Units=GPa)
#
#
# Indices 1 2 3 4 5 6 
#
# 1 215.5228 49.1731 33.0212 0.0000 0.0000 0.0000
# 2 49.1731 75.6089 4.8997 0.0000 0.0000 0.0000
# 3 33.0212 4.8997 58.2210 0.0000 0.0000 0.0000
# 4 0.0000 0.0000 0.0000 10.6531 0.0000 0.0000
# 5 0.0000 0.0000 0.0000 0.0000 15.4719 0.0000
# 6 0.0000 0.0000 0.0000 0.0000 0.0000 29.9895
#
#
#
# Elastic Compliance Matrix: (Units=1/GPa)
#
#
# Indices 1 2 3 4 5 6 
#
# 1 0.005946 -0.003669 -0.003064 0.000000 0.000000 0.000000
# 2 -0.003669 0.015562 0.000771 0.000000 0.000000 0.000000
# 3 -0.003064 0.000771 0.018849 0.000000 0.000000 0.000000
# 4 0.000000 0.000000 0.000000 0.093870 0.000000 0.000000
# 5 0.000000 0.000000 0.000000 0.000000 0.064633 0.000000
# 6 0.000000 0.000000 0.000000 0.000000 0.000000 0.033345
#
#
# Mechanical properties :
#
#
# Convention : Reuss Voigt Hill
#
# Bulk Modulus (GPa) = 35.16885 58.17118 46.67001
# Shear Modulus (GPa) = 19.71561 28.70680 24.21121
#
# Velocity S-wave (km/s) = 2.82929 3.41401 3.13531
# Velocity P-wave (km/s) = 4.99523 6.25772 5.66178
#
# Compressibility (1/GPa) = 0.02843426
#
# Stress axis : x y z
#
# Youngs Moduli (GPa) = 168.17020 64.25916 53.05387
#
# Poissons Ratio (x) = 0.23575 0.16255
# Poissons Ratio (y) = 0.61697 -0.04091
# Poissons Ratio (z) = 0.51525 -0.04955
#
# Static dielectric constant tensor:
#      x y z
#    x 2.068860 0.000000 0.000000 
#    y 0.000000 2.096920 0.000000 
#    z 0.000000 0.000000 1.923320 
# 
# From -- ./inp_files/30999.got.cif
#   From: 2010.05.17/outbox.cif.g08.bks.cpg/sg52_16_cif.got.tgz:30999.got - 2010.06.03 12:15:38.
