data_PCOD9408540
_publ_section_title
;
Structure prediction by ZEFSAII (Michael W. Deem and Ramdas Pophale) SiO2 
 PCOD9408540
Probable space group: P N N A
;
_chemical_formula_sum "Si O2"
_cell_formula_units_Z 56
_cell_length_a 7.703752
_cell_length_b 17.745369
_cell_length_c 21.227882
_cell_angle_alpha 90.000000
_cell_angle_beta 90.000000
_cell_angle_gamma 90.000000
_cell_volume 2901.977179
_symmetry_space_group_name_H-M "P N N A"
_symmetry_group_IT_number 52
_symmetry_cell_setting 'orthorhombic'
loop_
_space_group_symop_operation_xyz
x,y,z
1/2-x,-y,z
x,1/2-y,1/2-z
1/2-x,1/2+y,1/2-z
-x,-y,-z
1/2+x,y,-z
-x,1/2+y,1/2+z
1/2+x,1/2-y,1/2+z
loop_
_atom_site_type_symbol
_atom_site_label
_atom_site_fract_x
_atom_site_fract_y
_atom_site_fract_z
Si Si1 0.947912 0.015320 0.295537
Si Si2 0.383907 0.235817 0.142680
Si Si3 0.904402 0.707491 0.951915
Si Si4 0.554818 0.861951 0.746524
Si Si5 0.766400 0.731471 0.086926
Si Si6 0.441204 0.968534 0.432330
Si Si7 0.160992 0.828136 0.721293
O O1 0.971966 0.102349 0.276277
O O2 0.953984 0.005878 0.371021
O O3 0.750000 0.000000 0.275695
O O4 0.066913 0.950303 0.266782
O O5 0.246802 0.254067 0.088581
O O6 0.348019 0.169599 0.192389
O O7 0.394318 0.311323 0.186082
O O8 0.573646 0.219470 0.112787
O O9 0.939149 0.621745 0.931418
O O10 0.078539 0.755995 0.939330
O O11 0.851724 0.696285 0.024626
O O12 0.347056 0.843931 0.754454
O O13 0.715059 0.682795 0.148244
O O14 0.250000 0.000000 0.422108
O O15 0.500000 0.000000 0.500000
O O16 0.091916 0.750000 0.750000
#
# Coordination Sequence:
#
# PCOD9408540 Si02
#       7
#     8   8   8   8   8   8   8
#     4  10  21  35  58  82 113 155 200 230 295 355
#     4  10  20  38  58  81 115 152 206 243 295 341
#     4  12  23  36  56  83 114 164 197 240 293 352
#     4   9  18  36  58  78 114 159 193 255 289 343
#     4  11  21  36  56  81 117 150 199 242 286 352
#     4  12  25  35  49  79 123 160 194 235 286 354
#     4  10  18  36  58  82 118 152 195 244 293 355
#
# _framework density 19.297190000000001
#
# number of rings (size 3 to 8) (size 9 to 14) (size 15 to 20)
#    0.000    1.429    5.714    2.143    6.000    0.000 
#    2.571    0.000    0.000    0.000    0.000    1.000 
#    4.286    0.143    0.000    0.000    0.000    0.000 
#
# Total GULP energy -312083.488463 kJ/mol
# GULP energy per Si atom -5572.919437 kJ/mol
# Density = 1.925327 g / cm^3
# Si number density = 19.297190 Si / 1000 Ang^3
#
#
#
# Elastic Constant Matrix: (Units=GPa)
#
#
# Indices 1 2 3 4 5 6 
#
# 1 67.8678 14.7662 21.9801 0.0000 0.0000 0.0000
# 2 14.7662 96.7132 44.8490 0.0000 0.0000 0.0000
# 3 21.9801 44.8490 88.1886 0.0000 0.0000 0.0000
# 4 0.0000 0.0000 0.0000 14.2801 0.0000 0.0000
# 5 0.0000 0.0000 0.0000 0.0000 24.7356 0.0000
# 6 0.0000 0.0000 0.0000 0.0000 0.0000 14.3596
#
#
#
# Elastic Compliance Matrix: (Units=1/GPa)
#
#
# Indices 1 2 3 4 5 6 
#
# 1 0.016073 -0.000780 -0.003609 0.000000 0.000000 0.000000
# 2 -0.000780 0.013569 -0.006706 0.000000 0.000000 0.000000
# 3 -0.003609 -0.006706 0.015649 0.000000 0.000000 0.000000
# 4 0.000000 0.000000 0.000000 0.070028 0.000000 0.000000
# 5 0.000000 0.000000 0.000000 0.000000 0.040428 0.000000
# 6 0.000000 0.000000 0.000000 0.000000 0.000000 0.069640
#
#
# Mechanical properties :
#
#
# Convention : Reuss Voigt Hill
#
# Bulk Modulus (GPa) = 43.28983 46.21779 44.75381
# Shear Modulus (GPa) = 19.58650 22.08666 20.83658
#
# Velocity S-wave (km/s) = 3.18935 3.38680 3.28955
# Velocity P-wave (km/s) = 6.00371 6.26868 6.13763
#
# Compressibility (1/GPa) = 0.02310011
#
# Stress axis : x y z
#
# Youngs Moduli (GPa) = 62.21531 73.69853 63.90060
#
# Poissons Ratio (x) = 0.05751 0.23063
# Poissons Ratio (y) = 0.04855 0.42852
# Poissons Ratio (z) = 0.22455 0.49422
#
# Static dielectric constant tensor:
#      x y z
#    x 1.733980 0.000000 0.000000 
#    y 0.000000 1.686310 0.000000 
#    z 0.000000 0.000000 1.697960 
# 
# From -- ./inp_files/36125.got.cif
#   From: 2010.05.17/outbox.cif.g08.bks.cpg/sg52_19_cif.got.tgz:36125.got - 2010.06.03 12:15:38.
