data_PCOD9408831
_publ_section_title
;
Structure prediction by ZEFSAII (Michael W. Deem and Ramdas Pophale) SiO2 
 PCOD9408831
Probable space group: P N N A
;
_chemical_formula_sum "Si O2"
_cell_formula_units_Z 60
_cell_length_a 8.663493
_cell_length_b 14.921601
_cell_length_c 25.542072
_cell_angle_alpha 90.000000
_cell_angle_beta 90.000000
_cell_angle_gamma 90.000000
_cell_volume 3301.905020
_symmetry_space_group_name_H-M "P N N A"
_symmetry_group_IT_number 52
_symmetry_cell_setting 'orthorhombic'
loop_
_space_group_symop_operation_xyz
x,y,z
1/2-x,-y,z
x,1/2-y,1/2-z
1/2-x,1/2+y,1/2-z
-x,-y,-z
1/2+x,y,-z
-x,1/2+y,1/2+z
1/2+x,1/2-y,1/2+z
loop_
_atom_site_type_symbol
_atom_site_label
_atom_site_fract_x
_atom_site_fract_y
_atom_site_fract_z
Si Si1 0.202038 0.853426 0.804097
Si Si2 0.998378 0.593075 0.466220
Si Si3 0.592663 0.946103 0.298790
Si Si4 0.018964 0.284029 0.148844
Si Si5 0.339547 0.661015 0.436966
Si Si6 0.044713 0.906805 0.225319
Si Si7 0.226169 0.250000 0.250000
Si Si8 0.488355 0.491719 0.629237
O O1 0.128258 0.872169 0.746783
O O2 0.383059 0.859161 0.791668
O O3 0.139655 0.769525 0.837205
O O4 0.134414 0.936052 0.837403
O O5 0.162080 0.634174 0.448141
O O6 0.918879 0.562147 0.412357
O O7 0.000000 0.500000 0.500000
O O8 0.915216 0.660741 0.505336
O O9 0.518528 0.889335 0.345615
O O10 0.750000 0.000000 0.311522
O O11 0.487164 0.019641 0.270000
O O12 0.105330 0.246662 0.097155
O O13 0.127716 0.257683 0.197480
O O14 0.411868 0.579020 0.403489
O O15 0.167522 0.836568 0.244354
O O16 0.089206 0.956153 0.171827
#
# Coordination Sequence:
#
# PCOD9408831 Si02
#       8
#     8   8   8   8   8   8   4   8
#     4   9  18  33  54  75 112 154 198 232 267 344
#     4  10  19  33  52  82 112 150 191 238 291 354
#     4   9  18  34  57  77 105 150 202 238 272 342
#     4  11  21  38  53  81 114 159 191 243 296 345
#     4  10  22  35  57  80 118 153 195 241 292 357
#     4  10  22  33  51  83 115 154 195 228 280 352
#     4  12  24  32  52  80 124 154 182 242 302 342
#     4   9  17  32  52  81 112 148 185 228 282 347
#
# _framework density 18.171327999999999
#
# number of rings (size 3 to 8) (size 9 to 14) (size 15 to 20)
#    0.000    2.133    1.333    3.600    3.733    6.933 
#    0.000    0.000    0.000    0.000    0.000    0.933 
#    0.000    0.000    0.000    0.000    0.000    0.000 
#
# Total GULP energy -334422.680960 kJ/mol
# GULP energy per Si atom -5573.711349 kJ/mol
# Density = 1.812997 g / cm^3
# Si number density = 18.171328 Si / 1000 Ang^3
#
#
#
# Elastic Constant Matrix: (Units=GPa)
#
#
# Indices 1 2 3 4 5 6 
#
# 1 58.4781 15.1168 23.8167 0.0000 0.0000 0.0000
# 2 15.1168 67.2394 36.9561 0.0000 0.0000 0.0000
# 3 23.8167 36.9561 94.1456 0.0000 0.0000 0.0000
# 4 0.0000 0.0000 0.0000 33.8499 0.0000 0.0000
# 5 0.0000 0.0000 0.0000 0.0000 21.6925 0.0000
# 6 0.0000 0.0000 0.0000 0.0000 0.0000 26.7888
#
#
#
# Elastic Compliance Matrix: (Units=1/GPa)
#
#
# Indices 1 2 3 4 5 6 
#
# 1 0.019297 -0.002111 -0.004053 0.000000 0.000000 0.000000
# 2 -0.002111 0.019194 -0.007001 0.000000 0.000000 0.000000
# 3 -0.004053 -0.007001 0.014395 0.000000 0.000000 0.000000
# 4 0.000000 0.000000 0.000000 0.029542 0.000000 0.000000
# 5 0.000000 0.000000 0.000000 0.000000 0.046099 0.000000
# 6 0.000000 0.000000 0.000000 0.000000 0.000000 0.037329
#
#
# Mechanical properties :
#
#
# Convention : Reuss Voigt Hill
#
# Bulk Modulus (GPa) = 37.65404 41.29361 39.47382
# Shear Modulus (GPa) = 24.87090 26.06446 25.46768
#
# Velocity S-wave (km/s) = 3.70359 3.79142 3.74776
# Velocity P-wave (km/s) = 6.24944 6.47614 6.36380
#
# Compressibility (1/GPa) = 0.02655758
#
# Stress axis : x y z
#
# Youngs Moduli (GPa) = 51.82217 52.09836 69.46728
#
# Poissons Ratio (x) = 0.10996 0.28156
# Poissons Ratio (y) = 0.10938 0.48632
# Poissons Ratio (z) = 0.21004 0.36473
#
# Static dielectric constant tensor:
#      x y z
#    x 1.677330 0.000000 0.000000 
#    y 0.000000 1.668550 0.000000 
#    z 0.000000 0.000000 1.780290 
# 
# From -- ./inp_files/39619.got.cif
#   From: 2010.05.17/outbox.cif.g08.bks.cpg/sg52_20_cif.got.tgz:39619.got - 2010.06.03 12:15:38.
