data_PCOD9408373
_publ_section_title
;
Structure prediction by ZEFSAII (Michael W. Deem and Ramdas Pophale) SiO2 
 PCOD9408373
Probable space group: P N N A
;
_chemical_formula_sum "Si O2"
_cell_formula_units_Z 48
_cell_length_a 30.527929
_cell_length_b 5.563562
_cell_length_c 12.409673
_cell_angle_alpha 90.000000
_cell_angle_beta 90.000000
_cell_angle_gamma 90.000000
_cell_volume 2107.708820
_symmetry_space_group_name_H-M "P N N A"
_symmetry_group_IT_number 52
_symmetry_cell_setting 'orthorhombic'
loop_
_space_group_symop_operation_xyz
x,y,z
1/2-x,-y,z
x,1/2-y,1/2-z
1/2-x,1/2+y,1/2-z
-x,-y,-z
1/2+x,y,-z
-x,1/2+y,1/2+z
1/2+x,1/2-y,1/2+z
loop_
_atom_site_type_symbol
_atom_site_label
_atom_site_fract_x
_atom_site_fract_y
_atom_site_fract_z
Si Si1 0.451162 0.433443 0.534762
Si Si2 0.189112 0.640713 0.628760
Si Si3 0.750000 0.500000 0.010147
Si Si4 0.158103 0.115067 0.404763
Si Si5 0.346242 0.750000 0.750000
Si Si6 0.912784 0.570649 0.099571
Si Si7 0.367631 0.121532 0.091801
O O1 0.500000 0.500000 0.500000
O O2 0.436793 0.669902 0.602947
O O3 0.418976 0.414326 0.431005
O O4 0.442658 0.168439 0.588154
O O5 0.186033 0.750000 0.750000
O O6 0.184227 0.361428 0.659245
O O7 0.153412 0.652737 0.530927
O O8 0.229894 0.779740 0.578378
O O9 0.791737 0.589526 0.942196
O O10 0.120588 0.107827 0.499263
O O11 0.152235 0.380345 0.359388
O O12 0.144991 0.866184 0.349989
O O13 0.379654 0.557667 0.800531
#
# Coordination Sequence:
#
# PCOD9408373 Si02
#       7
#     8   8   4   8   4   8   8
#     4  10  18  33  51  68  84 100 138 186 234 290
#     4  11  22  33  42  56  79 114 151 194 224 279
#     4  10  22  32  42  56  76 110 160 194 224 252
#     4   9  17  32  41  54  80 102 141 181 216 263
#     4  12  20  34  52  58  94 120 150 190 242 314
#     4  10  21  33  48  68  84 116 141 178 244 284
#     4   9  18  32  42  58  76 100 131 171 233 268
#
# _framework density 22.773544999999999
#
# number of rings (size 3 to 8) (size 9 to 14) (size 15 to 20)
#    0.000    2.000    3.333    3.500    0.000    4.000 
#    1.500    0.000    0.000    0.000    0.000    0.000 
#    0.000    0.000    0.000    0.000    0.000    0.000 
#
# Total GULP energy -267225.873932 kJ/mol
# GULP energy per Si atom -5567.205707 kJ/mol
# Density = 2.272171 g / cm^3
# Si number density = 22.773545 Si / 1000 Ang^3
#
#
#
# Elastic Constant Matrix: (Units=GPa)
#
#
# Indices 1 2 3 4 5 6 
#
# 1 168.7649 78.5388 27.5872 0.0000 0.0000 0.0000
# 2 78.5388 224.8472 31.0365 0.0000 0.0000 0.0000
# 3 27.5872 31.0365 47.6300 0.0000 0.0000 0.0000
# 4 0.0000 0.0000 0.0000 44.9247 0.0000 0.0000
# 5 0.0000 0.0000 0.0000 0.0000 -0.2216 0.0000
# 6 0.0000 0.0000 0.0000 0.0000 0.0000 41.5217
#
#
#
# Elastic Compliance Matrix: (Units=1/GPa)
#
#
# Indices 1 2 3 4 5 6 
#
# 1 0.007415 -0.002195 -0.002865 0.000000 0.000000 0.000000
# 2 -0.002195 0.005537 -0.002337 0.000000 0.000000 0.000000
# 3 -0.002865 -0.002337 0.024177 0.000000 0.000000 0.000000
# 4 0.000000 0.000000 0.000000 0.022259 0.000000 0.000000
# 5 0.000000 0.000000 0.000000 0.000000 -4.513607 0.000000
# 6 0.000000 0.000000 0.000000 0.000000 0.000000 0.024084
#
#
# Mechanical properties :
#
#
# Convention : Reuss Voigt Hill
#
# Bulk Modulus (GPa) = 44.76938 79.50745 62.13841
# Shear Modulus (GPa) = -1.13433 37.51693 18.19130
#
# Velocity S-wave (km/s) = -0.70652 4.06321 2.82936
# Velocity P-wave (km/s) = 4.36298 7.54989 6.16589
#
# Compressibility (1/GPa) = 0.02233670
#
# Stress axis : x y z
#
# Youngs Moduli (GPa) = 134.86176 180.61712 41.36167
#
# Poissons Ratio (x) = 0.39639 0.11849
# Poissons Ratio (y) = 0.29597 0.09665
# Poissons Ratio (z) = 0.38634 0.42203
#
# Static dielectric constant tensor:
#      x y z
#    x 1.840890 0.000000 0.000000 
#    y 0.000000 2.070430 0.000000 
#    z 0.000000 0.000000 2.007220 
# 
# From -- ./inp_files/38230.got.cif
#   From: 2010.05.17/outbox.cif.g08.bks.cpg/sg52_20_cif.got.tgz:38230.got - 2010.06.03 12:15:38.
