data_PCOD9408817
_publ_section_title
;
Structure prediction by ZEFSAII (Michael W. Deem and Ramdas Pophale) SiO2 
 PCOD9408817
Probable space group: P N N A
;
_chemical_formula_sum "Si O2"
_cell_formula_units_Z 48
_cell_length_a 8.876588
_cell_length_b 29.822860
_cell_length_c 7.812199
_cell_angle_alpha 90.000000
_cell_angle_beta 90.000000
_cell_angle_gamma 90.000000
_cell_volume 2068.086265
_symmetry_space_group_name_H-M "P N N A"
_symmetry_group_IT_number 52
_symmetry_cell_setting 'orthorhombic'
loop_
_space_group_symop_operation_xyz
x,y,z
1/2-x,-y,z
x,1/2-y,1/2-z
1/2-x,1/2+y,1/2-z
-x,-y,-z
1/2+x,y,-z
-x,1/2+y,1/2+z
1/2+x,1/2-y,1/2+z
loop_
_atom_site_type_symbol
_atom_site_label
_atom_site_fract_x
_atom_site_fract_y
_atom_site_fract_z
Si Si1 0.357779 0.400208 0.355696
Si Si2 0.310658 0.760243 0.508370
Si Si3 0.002064 0.412321 0.272191
Si Si4 0.941547 0.319915 0.175915
Si Si5 0.430065 0.006457 0.189203
Si Si6 0.440914 0.304583 0.417572
O O1 0.177307 0.401946 0.325536
O O2 0.397373 0.408878 0.557170
O O3 0.442675 0.441340 0.261382
O O4 0.419514 0.350618 0.316235
O O5 0.423567 0.791316 0.403146
O O6 0.203869 0.794422 0.608111
O O7 0.201025 0.727604 0.402790
O O8 0.410983 0.724076 0.610968
O O9 0.002645 0.463973 0.209313
O O10 0.951567 0.373104 0.144179
O O11 0.948231 0.315976 0.380583
O O12 0.250000 0.000000 0.177591
O O13 0.500000 0.000000 0.000000
#
# Coordination Sequence:
#
# PCOD9408817 Si02
#       6
#     8   8   8   8   8   8
#     4   9  16  28  49  77 105 135 165 204 260 315
#     4  10  19  33  49  67  99 139 174 205 243 298
#     4   9  17  31  49  74 109 137 164 208 257 309
#     4  10  21  36  50  69 100 138 173 210 255 300
#     4   8  14  25  45  73 102 131 159 198 254 309
#     4  10  19  33  49  70 103 136 163 209 259 299
#
# _framework density 23.209862000000001
#
# number of rings (size 3 to 8) (size 9 to 14) (size 15 to 20)
#    0.000    2.667    0.000    4.000    0.000    0.000 
#    0.000   26.667    0.000    0.000    0.000   10.500 
#    0.000   12.000    0.000   52.667    0.000    0.000 
#
# Total GULP energy -267959.624640 kJ/mol
# GULP energy per Si atom -5582.492180 kJ/mol
# Density = 2.315704 g / cm^3
# Si number density = 23.209862 Si / 1000 Ang^3
#
#
#
# Elastic Constant Matrix: (Units=GPa)
#
#
# Indices 1 2 3 4 5 6 
#
# 1 96.1311 50.3233 18.9886 0.0000 0.0000 0.0000
# 2 50.3233 238.2172 39.0206 0.0000 0.0000 0.0000
# 3 18.9886 39.0206 25.5611 0.0000 0.0000 0.0000
# 4 0.0000 0.0000 0.0000 23.9550 0.0000 0.0000
# 5 0.0000 0.0000 0.0000 0.0000 16.4621 0.0000
# 6 0.0000 0.0000 0.0000 0.0000 0.0000 -7.3307
#
#
#
# Elastic Compliance Matrix: (Units=1/GPa)
#
#
# Indices 1 2 3 4 5 6 
#
# 1 0.012582 -0.001503 -0.007053 0.000000 0.000000 0.000000
# 2 -0.001503 0.005777 -0.007703 0.000000 0.000000 0.000000
# 3 -0.007053 -0.007703 0.056120 0.000000 0.000000 0.000000
# 4 0.000000 0.000000 0.000000 0.041745 0.000000 0.000000
# 5 0.000000 0.000000 0.000000 0.000000 0.060746 0.000000
# 6 0.000000 0.000000 0.000000 0.000000 0.000000 -0.136412
#
#
# Mechanical properties :
#
#
# Convention : Reuss Voigt Hill
#
# Bulk Modulus (GPa) = 23.83081 64.06381 43.94731
# Shear Modulus (GPa) = 57.43039 23.38906 40.40973
#
# Velocity S-wave (km/s) = 4.97973 3.17791 4.17713
# Velocity P-wave (km/s) = 6.58433 6.41306 6.49926
#
# Compressibility (1/GPa) = 0.04196248
#
# Stress axis : x y z
#
# Youngs Moduli (GPa) = 79.47688 173.10010 17.81898
#
# Poissons Ratio (x) = 0.26012 0.12568
# Poissons Ratio (y) = 0.11943 0.13725
# Poissons Ratio (z) = 0.56055 1.33333
#
# Static dielectric constant tensor:
#      x y z
#    x 1.838980 0.000000 0.000000 
#    y 0.000000 0.624120 0.000000 
#    z 0.000000 0.000000 1.897680 
# 
# From -- ./inp_files/7707.got.cif
#   From: 2010.05.17/outbox.cif.g08.bks.cpg/sg52_4_cif.got.tgz:7707.got - 2010.06.03 12:15:38.
