data_PCOD9408787
_publ_section_title
;
Structure prediction by ZEFSAII (Michael W. Deem and Ramdas Pophale) SiO2 
 PCOD9408787
Probable space group: P N N A
;
_chemical_formula_sum "Si O2"
_cell_formula_units_Z 52
_cell_length_a 5.658347
_cell_length_b 24.641083
_cell_length_c 14.676488
_cell_angle_alpha 90.000000
_cell_angle_beta 90.000000
_cell_angle_gamma 90.000000
_cell_volume 2046.310405
_symmetry_space_group_name_H-M "P N N A"
_symmetry_group_IT_number 52
_symmetry_cell_setting 'orthorhombic'
loop_
_space_group_symop_operation_xyz
x,y,z
1/2-x,-y,z
x,1/2-y,1/2-z
1/2-x,1/2+y,1/2-z
-x,-y,-z
1/2+x,y,-z
-x,1/2+y,1/2+z
1/2+x,1/2-y,1/2+z
loop_
_atom_site_type_symbol
_atom_site_label
_atom_site_fract_x
_atom_site_fract_y
_atom_site_fract_z
Si Si1 0.229882 0.829196 0.851624
Si Si2 0.247423 0.124336 0.354557
Si Si3 0.750000 0.500000 0.292855
Si Si4 0.750000 0.500000 0.807501
Si Si5 0.749207 0.122035 0.357729
Si Si6 0.267847 0.199447 0.187354
Si Si7 0.250000 0.500000 0.943722
Si Si8 0.349708 0.428554 0.541514
O O1 0.247566 0.859230 0.749862
O O2 0.494346 0.808221 0.869979
O O3 0.160814 0.865536 0.938106
O O4 0.000060 0.790750 0.845258
O O5 0.243989 0.058842 0.355628
O O6 0.497901 0.142507 0.393499
O O7 0.247636 0.145023 0.249892
O O8 0.998841 0.142947 0.394686
O O9 0.493267 0.497290 0.247666
O O10 0.725952 0.549381 0.361229
O O11 0.749554 0.056957 0.385126
O O12 0.329547 0.250000 0.250000
O O13 0.500000 0.500000 0.000000
O O14 0.620566 0.444455 0.519405
#
# Coordination Sequence:
#
# PCOD9408787 Si02
#       8
#     8   8   4   4   8   8   4   8
#     4  10  21  37  59  86 115 154 197 241 299 345
#     4  10  19  32  54  85 113 146 185 228 285 344
#     4  12  22  34  48  71 110 157 202 242 286 328
#     4  12  20  32  54  79 114 153 190 238 284 344
#     4  10  20  36  55  80 112 145 189 235 281 348
#     4  10  19  34  57  90 117 141 188 253 301 338
#     4  12  24  38  56  86 118 152 192 238 294 360
#     4  12  24  39  55  81 120 164 205 246 286 340
#
# _framework density 25.411591000000001
#
# number of rings (size 3 to 8) (size 9 to 14) (size 15 to 20)
#    0.000    1.231    0.000    9.231    0.000    0.615 
#    0.000    0.000    0.000    0.000    0.000   86.154 
#    0.000    0.000    0.000    0.000    0.000    0.000 
#
# Total GULP energy -289517.012492 kJ/mol
# GULP energy per Si atom -5567.634856 kJ/mol
# Density = 2.535375 g / cm^3
# Si number density = 25.411591 Si / 1000 Ang^3
#
#
#
# Elastic Constant Matrix: (Units=GPa)
#
#
# Indices 1 2 3 4 5 6 
#
# 1 292.9941 3.5083 61.6951 0.0000 0.0000 0.0000
# 2 3.5083 33.2019 -6.9371 0.0000 0.0000 0.0000
# 3 61.6951 -6.9371 28.3137 0.0000 0.0000 0.0000
# 4 0.0000 0.0000 0.0000 31.2303 0.0000 0.0000
# 5 0.0000 0.0000 0.0000 0.0000 35.1088 0.0000
# 6 0.0000 0.0000 0.0000 0.0000 0.0000 6.6003
#
#
#
# Elastic Compliance Matrix: (Units=1/GPa)
#
#
# Indices 1 2 3 4 5 6 
#
# 1 0.006777 -0.004007 -0.015749 0.000000 0.000000 0.000000
# 2 -0.004007 0.034113 0.017089 0.000000 0.000000 0.000000
# 3 -0.015749 0.017089 0.073823 0.000000 0.000000 0.000000
# 4 0.000000 0.000000 0.000000 0.032020 0.000000 0.000000
# 5 0.000000 0.000000 0.000000 0.000000 0.028483 0.000000
# 6 0.000000 0.000000 0.000000 0.000000 0.000000 0.151509
#
#
# Mechanical properties :
#
#
# Convention : Reuss Voigt Hill
#
# Bulk Modulus (GPa) = 9.14263 52.33801 30.74032
# Shear Modulus (GPa) = 13.56781 34.33743 23.95262
#
# Velocity S-wave (km/s) = 2.31318 3.67992 3.07349
# Velocity P-wave (km/s) = 3.27720 6.22066 4.97175
#
# Compressibility (1/GPa) = 0.10937771
#
# Stress axis : x y z
#
# Youngs Moduli (GPa) = 147.55108 29.31475 13.54592
#
# Poissons Ratio (x) = 0.11746 0.21334
# Poissons Ratio (y) = 0.59120 -0.23148
# Poissons Ratio (z) = 2.32383 -0.50095
#
# Static dielectric constant tensor:
#      x y z
#    x 2.029630 0.000000 0.000000 
#    y 0.000000 2.086470 0.000000 
#    z 0.000000 0.000000 2.116590 
# 
# From -- ./inp_files/30342.got.cif
#   From: 2010.05.17/outbox.cif.g08.bks.cpg/sg52_16_cif.got.tgz:30342.got - 2010.06.03 12:15:38.
