data_PCOD9408054
_publ_section_title
;
Structure prediction by ZEFSAII (Michael W. Deem and Ramdas Pophale) SiO2 
 PCOD9408054
Probable space group: P N N A
;
_chemical_formula_sum "Si O2"
_cell_formula_units_Z 52
_cell_length_a 5.104746
_cell_length_b 13.676296
_cell_length_c 29.118488
_cell_angle_alpha 90.000000
_cell_angle_beta 90.000000
_cell_angle_gamma 90.000000
_cell_volume 2032.878625
_symmetry_space_group_name_H-M "P N N A"
_symmetry_group_IT_number 52
_symmetry_cell_setting 'orthorhombic'
loop_
_space_group_symop_operation_xyz
x,y,z
1/2-x,-y,z
x,1/2-y,1/2-z
1/2-x,1/2+y,1/2-z
-x,-y,-z
1/2+x,y,-z
-x,1/2+y,1/2+z
1/2+x,1/2-y,1/2+z
loop_
_atom_site_type_symbol
_atom_site_label
_atom_site_fract_x
_atom_site_fract_y
_atom_site_fract_z
Si Si1 0.606706 0.358250 0.210775
Si Si2 0.809611 0.358151 0.023125
Si Si3 0.071006 0.373438 0.689668
Si Si4 0.612743 0.131314 0.655392
Si Si5 0.075534 0.359461 0.369972
Si Si6 0.250000 0.000000 0.596688
Si Si7 0.116413 0.875844 0.972432
O O1 0.544978 0.412087 0.258619
O O2 0.558804 0.241712 0.203808
O O3 0.912084 0.367720 0.198745
O O4 0.400683 0.393039 0.172873
O O5 0.664564 0.409592 0.064953
O O6 0.834458 0.241867 0.026954
O O7 0.610712 0.387990 0.982599
O O8 0.848391 0.394063 0.652202
O O9 0.347725 0.390064 0.665384
O O10 0.595096 0.239926 0.632361
O O11 0.479752 0.053503 0.622971
O O12 0.995821 0.394000 0.421161
O O13 0.404729 0.907452 0.988982
#
# Coordination Sequence:
#
# PCOD9408054 Si02
#       7
#     8   8   8   8   8   4   8
#     4   9  18  33  43  68  80 107 124 186 231 278
#     4  10  22  35  47  59  79 114 160 200 233 262
#     4   9  17  28  52  61  85  98 138 172 236 266
#     4  10  21  30  46  60  90 104 148 179 233 264
#     4  10  17  31  44  69  78 113 140 186 212 279
#     4  12  22  36  46  66  82 124 148 204 222 282
#     4  10  19  31  44  61  89 116 144 189 229 260
#
# _framework density 25.579488999999999
#
# number of rings (size 3 to 8) (size 9 to 14) (size 15 to 20)
#    0.000    2.154    1.538    2.308    0.000    6.769 
#    0.000    0.000    0.000    0.000    0.000    0.000 
#    0.000    0.000    0.000    0.000    0.000    0.000 
#
# Total GULP energy -290432.739917 kJ/mol
# GULP energy per Si atom -5585.244998 kJ/mol
# Density = 2.552127 g / cm^3
# Si number density = 25.579489 Si / 1000 Ang^3
#
#
#
# Elastic Constant Matrix: (Units=GPa)
#
#
# Indices 1 2 3 4 5 6 
#
# 1 62.1399 25.5047 -15.6606 0.0000 0.0000 0.0000
# 2 25.5047 73.3600 8.0327 0.0000 0.0000 0.0000
# 3 -15.6606 8.0327 95.9615 0.0000 0.0000 0.0000
# 4 0.0000 0.0000 0.0000 0.5049 0.0000 0.0000
# 5 0.0000 0.0000 0.0000 0.0000 -9.3354 0.0000
# 6 0.0000 0.0000 0.0000 0.0000 0.0000 28.8791
#
#
#
# Elastic Compliance Matrix: (Units=1/GPa)
#
#
# Indices 1 2 3 4 5 6 
#
# 1 0.020124 -0.007424 0.003906 0.000000 0.000000 0.000000
# 2 -0.007424 0.016496 -0.002592 0.000000 0.000000 0.000000
# 3 0.003906 -0.002592 0.011275 0.000000 0.000000 0.000000
# 4 0.000000 0.000000 0.000000 1.980692 0.000000 0.000000
# 5 0.000000 0.000000 0.000000 0.000000 -0.107119 0.000000
# 6 0.000000 0.000000 0.000000 0.000000 0.000000 0.034627
#
#
# Mechanical properties :
#
#
# Convention : Reuss Voigt Hill
#
# Bulk Modulus (GPa) = 28.03166 29.69055 28.86111
# Shear Modulus (GPa) = 2.52499 18.24869 10.38684
#
# Velocity S-wave (km/s) = 0.99461 2.67387 2.01728
# Velocity P-wave (km/s) = 3.50734 4.60056 4.09064
#
# Compressibility (1/GPa) = 0.03567395
#
# Stress axis : x y z
#
# Youngs Moduli (GPa) = 49.69140 60.61933 88.68983
#
# Poissons Ratio (x) = 0.45005 -0.34639
# Poissons Ratio (y) = 0.36892 0.22993
# Poissons Ratio (z) = -0.19408 0.15715
#
# Static dielectric constant tensor:
#      x y z
#    x 2.068450 0.000000 0.000000 
#    y 0.000000 2.210220 0.000000 
#    z 0.000000 0.000000 2.102380 
# 
# From -- ./inp_files/41780.got.cif
#   From: 2010.05.17/outbox.cif.g08.bks.cpg/sg52_21_cif.got.tgz:41780.got - 2010.06.03 12:15:38.
