data_PCOD9408202
_publ_section_title
;
Structure prediction by ZEFSAII (Michael W. Deem and Ramdas Pophale) SiO2 
 PCOD9408202
Probable space group: P N N A
;
_chemical_formula_sum "Si O2"
_cell_formula_units_Z 32
_cell_length_a 5.446718
_cell_length_b 25.925208
_cell_length_c 8.919718
_cell_angle_alpha 90.000000
_cell_angle_beta 90.000000
_cell_angle_gamma 90.000000
_cell_volume 1259.529269
_symmetry_space_group_name_H-M "P N N A"
_symmetry_group_IT_number 52
_symmetry_cell_setting 'orthorhombic'
loop_
_space_group_symop_operation_xyz
x,y,z
1/2-x,-y,z
x,1/2-y,1/2-z
1/2-x,1/2+y,1/2-z
-x,-y,-z
1/2+x,y,-z
-x,1/2+y,1/2+z
1/2+x,1/2-y,1/2+z
loop_
_atom_site_type_symbol
_atom_site_label
_atom_site_fract_x
_atom_site_fract_y
_atom_site_fract_z
Si Si1 0.292177 0.440307 0.685375
Si Si2 0.707371 0.600408 0.650667
Si Si3 0.381490 0.188561 0.568834
Si Si4 0.912660 0.789671 0.867536
O O1 0.250000 0.500000 0.717827
O O2 0.556622 0.420544 0.739453
O O3 0.310512 0.431328 0.504958
O O4 0.049181 0.409150 0.731954
O O5 0.756167 0.659491 0.600107
O O6 0.139255 0.167763 0.492718
O O7 0.383192 0.187396 0.747907
O O8 0.418931 0.250969 0.533418
O O9 0.781302 0.750000 0.750000
#
# Coordination Sequence:
#
# PCOD9408202 Si02
#       4
#     8   8   8   8
#     4  10  20  31  50  73 102 132 171 208 262 315
#     4  10  18  30  47  68 101 133 161 204 253 299
#     4   9  20  34  50  65 106 135 172 218 250 275
#     4   8  22  32  50  80  99 138 191 201 246 328
#
# _framework density 25.406316
#
# number of rings (size 3 to 8) (size 9 to 14) (size 15 to 20)
#    1.500    1.000    0.000    3.750    7.000    6.000 
#    0.000    0.000    0.000    0.000    0.000    0.000 
#    0.000   34.000    0.000    0.000    0.000    0.000 
#
# Total GULP energy -178353.153663 kJ/mol
# GULP energy per Si atom -5573.536052 kJ/mol
# Density = 2.534849 g / cm^3
# Si number density = 25.406316 Si / 1000 Ang^3
#
#
#
# Elastic Constant Matrix: (Units=GPa)
#
#
# Indices 1 2 3 4 5 6 
#
# 1 198.6834 30.4515 10.1202 0.0000 0.0000 0.0000
# 2 30.4515 130.2019 4.8654 0.0000 0.0000 0.0000
# 3 10.1202 4.8654 45.9050 0.0000 0.0000 0.0000
# 4 0.0000 0.0000 0.0000 22.5922 0.0000 0.0000
# 5 0.0000 0.0000 0.0000 0.0000 -1.9763 0.0000
# 6 0.0000 0.0000 0.0000 0.0000 0.0000 16.0329
#
#
#
# Elastic Compliance Matrix: (Units=1/GPa)
#
#
# Indices 1 2 3 4 5 6 
#
# 1 0.005269 -0.001194 -0.001035 0.000000 0.000000 0.000000
# 2 -0.001194 0.007981 -0.000583 0.000000 0.000000 0.000000
# 3 -0.001035 -0.000583 0.022074 0.000000 0.000000 0.000000
# 4 0.000000 0.000000 0.000000 0.044263 0.000000 0.000000
# 5 0.000000 0.000000 0.000000 0.000000 -0.506007 0.000000
# 6 0.000000 0.000000 0.000000 0.000000 0.000000 0.062372
#
#
# Mechanical properties :
#
#
# Convention : Reuss Voigt Hill
#
# Bulk Modulus (GPa) = 33.66852 51.74050 42.70451
# Shear Modulus (GPa) = -14.34620 29.28664 7.47022
#
# Velocity S-wave (km/s) = -2.37886 3.39887 1.71659
# Velocity P-wave (km/s) = 2.39489 5.98436 4.55785
#
# Compressibility (1/GPa) = 0.02970133
#
# Stress axis : x y z
#
# Youngs Moduli (GPa) = 189.79683 125.29266 45.30202
#
# Poissons Ratio (x) = 0.14955 0.04689
# Poissons Ratio (y) = 0.22654 0.02640
# Poissons Ratio (z) = 0.19645 0.07302
#
# Static dielectric constant tensor:
#      x y z
#    x 2.206140 0.000000 0.000000 
#    y 0.000000 2.651870 0.000000 
#    z 0.000000 0.000000 2.122300 
# 
# From -- ./inp_files/16038.got.cif
#   From: 2010.05.17/outbox.cif.g08.bks.cpg/sg52_9_cif.got.tgz:16038.got - 2010.06.03 12:15:38.
