data_PCOD9408709
_publ_section_title
;
Structure prediction by ZEFSAII (Michael W. Deem and Ramdas Pophale) SiO2 
 PCOD9408709
Probable space group: P N N A
;
_chemical_formula_sum "Si O2"
_cell_formula_units_Z 48
_cell_length_a 12.883369
_cell_length_b 4.934295
_cell_length_c 27.615267
_cell_angle_alpha 90.000000
_cell_angle_beta 90.000000
_cell_angle_gamma 90.000000
_cell_volume 1755.512002
_symmetry_space_group_name_H-M "P N N A"
_symmetry_group_IT_number 52
_symmetry_cell_setting 'orthorhombic'
loop_
_space_group_symop_operation_xyz
x,y,z
1/2-x,-y,z
x,1/2-y,1/2-z
1/2-x,1/2+y,1/2-z
-x,-y,-z
1/2+x,y,-z
-x,1/2+y,1/2+z
1/2+x,1/2-y,1/2+z
loop_
_atom_site_type_symbol
_atom_site_label
_atom_site_fract_x
_atom_site_fract_y
_atom_site_fract_z
Si Si1 0.638982 0.490652 0.685652
Si Si2 0.370839 0.598703 0.863164
Si Si3 0.621876 0.214930 0.465957
Si Si4 0.898361 0.380008 0.300459
Si Si5 0.381234 0.193996 0.029244
Si Si6 0.889092 0.003463 0.624138
O O1 0.750000 0.500000 0.712829
O O2 0.525957 0.387410 0.703223
O O3 0.625599 0.799400 0.669661
O O4 0.651709 0.290948 0.638942
O O5 0.327489 0.722019 0.913091
O O6 0.340292 0.315626 0.839091
O O7 0.486555 0.500241 0.880911
O O8 0.378213 0.819687 0.820564
O O9 0.504819 0.326846 0.460027
O O10 0.656751 0.403497 0.510640
O O11 0.627418 0.909112 0.485418
O O12 0.863270 0.250000 0.250000
O O13 0.344198 0.344004 0.077555
#
# Coordination Sequence:
#
# PCOD9408709 Si02
#       6
#     8   8   8   8   8   8
#     4  10  19  31  43  55  71  96 130 170 213 246
#     4   9  17  28  41  56  75  95 118 152 196 242
#     4   9  15  23  37  57  77  95 113 136 176 233
#     4  10  19  31  43  55  71  96 130 170 213 246
#     4   9  15  23  37  57  77  95 113 136 176 233
#     4   9  17  28  41  56  75  95 118 152 196 242
#
# _framework density 27.342448000000001
#
# number of rings (size 3 to 8) (size 9 to 14) (size 15 to 20)
#    0.000    2.667    0.000    3.000    0.000    8.000 
#    0.000    5.000    0.000    0.000    0.000    0.000 
#    0.000    0.000    0.000    0.000    0.000    0.000 
#
# Total GULP energy -267902.498974 kJ/mol
# GULP energy per Si atom -5581.302062 kJ/mol
# Density = 2.728022 g / cm^3
# Si number density = 27.342448 Si / 1000 Ang^3
#
#
#
# Elastic Constant Matrix: (Units=GPa)
#
#
# Indices 1 2 3 4 5 6 
#
# 1 94.3161 18.6521 30.4190 0.0000 0.0000 0.0000
# 2 18.6521 143.1300 19.1691 0.0000 0.0000 0.0000
# 3 30.4190 19.1691 100.9933 0.0000 0.0000 0.0000
# 4 0.0000 0.0000 0.0000 22.2022 0.0000 0.0000
# 5 0.0000 0.0000 0.0000 0.0000 7.2450 0.0000
# 6 0.0000 0.0000 0.0000 0.0000 0.0000 7.4136
#
#
#
# Elastic Compliance Matrix: (Units=1/GPa)
#
#
# Indices 1 2 3 4 5 6 
#
# 1 0.011910 -0.001100 -0.003378 0.000000 0.000000 0.000000
# 2 -0.001100 0.007270 -0.001049 0.000000 0.000000 0.000000
# 3 -0.003378 -0.001049 0.011118 0.000000 0.000000 0.000000
# 4 0.000000 0.000000 0.000000 0.045041 0.000000 0.000000
# 5 0.000000 0.000000 0.000000 0.000000 0.138026 0.000000
# 6 0.000000 0.000000 0.000000 0.000000 0.000000 0.134887
#
#
# Mechanical properties :
#
#
# Convention : Reuss Voigt Hill
#
# Bulk Modulus (GPa) = 51.96210 52.76887 52.36548
# Shear Modulus (GPa) = 13.67162 25.38543 19.52853
#
# Velocity S-wave (km/s) = 2.23853 3.05031 2.67539
# Velocity P-wave (km/s) = 5.07216 5.63445 5.36068
#
# Compressibility (1/GPa) = 0.01924480
#
# Stress axis : x y z
#
# Youngs Moduli (GPa) = 83.96493 137.54385 89.94177
#
# Poissons Ratio (x) = 0.15124 0.30387
# Poissons Ratio (y) = 0.09232 0.09433
# Poissons Ratio (z) = 0.28367 0.14425
#
# Static dielectric constant tensor:
#      x y z
#    x 2.391430 0.000000 0.000000 
#    y 0.000000 2.041210 0.000000 
#    z 0.000000 0.000000 2.144250 
# 
# From -- ./inp_files/38099.got.cif
#   From: 2010.05.17/outbox.cif.g08.bks.cpg/sg52_20_cif.got.tgz:38099.got - 2010.06.03 12:15:38.
