data_PCOD9408518
_publ_section_title
;
Structure prediction by ZEFSAII (Michael W. Deem and Ramdas Pophale) SiO2 
 PCOD9408518
Probable space group: P N N A
;
_chemical_formula_sum "Si O2"
_cell_formula_units_Z 32
_cell_length_a 9.135959
_cell_length_b 16.803254
_cell_length_c 10.090649
_cell_angle_alpha 90.000000
_cell_angle_beta 90.000000
_cell_angle_gamma 90.000000
_cell_volume 1549.054272
_symmetry_space_group_name_H-M "P N N A"
_symmetry_group_IT_number 52
_symmetry_cell_setting 'orthorhombic'
loop_
_space_group_symop_operation_xyz
x,y,z
1/2-x,-y,z
x,1/2-y,1/2-z
1/2-x,1/2+y,1/2-z
-x,-y,-z
1/2+x,y,-z
-x,1/2+y,1/2+z
1/2+x,1/2-y,1/2+z
loop_
_atom_site_type_symbol
_atom_site_label
_atom_site_fract_x
_atom_site_fract_y
_atom_site_fract_z
Si Si1 0.468368 0.229325 0.893022
Si Si2 0.151582 0.178177 0.857026
Si Si3 0.837934 0.101018 0.462245
Si Si4 0.450420 0.948210 0.664037
O O1 0.536792 0.250000 0.750000
O O2 0.327220 0.172976 0.869528
O O3 0.393082 0.310472 0.943997
O O4 0.579047 0.198887 0.003121
O O5 0.123111 0.250000 0.750000
O O6 0.083046 0.097197 0.798818
O O7 0.665892 0.093523 0.437628
O O8 0.891504 0.069625 0.604067
O O9 0.910257 0.040446 0.354671
#
# Coordination Sequence:
#
# PCOD9408518 Si02
#       4
#     8   8   8   8
#     4  11  21  37  58  85 115 151 190 234 293 343
#     4  11  21  38  57  86 116 147 193 244 289 339
#     4  10  18  35  60  84 112 150 189 234 287 343
#     4  10  20  35  59  85 116 146 191 241 287 340
#
# _framework density 20.657765999999999
#
# number of rings (size 3 to 8) (size 9 to 14) (size 15 to 20)
#    0.000    1.500    7.500    0.000    0.000    1.000 
#    4.500    1.250    0.000    0.000    0.000    0.000 
#    0.000    0.000    0.000    0.000    0.000    0.000 
#
# Total GULP energy -178596.610263 kJ/mol
# GULP energy per Si atom -5581.144071 kJ/mol
# Density = 2.061075 g / cm^3
# Si number density = 20.657766 Si / 1000 Ang^3
#
#
#
# Elastic Constant Matrix: (Units=GPa)
#
#
# Indices 1 2 3 4 5 6 
#
# 1 50.6400 -4.8072 49.3935 0.0000 0.0000 0.0000
# 2 -4.8072 49.3833 6.9288 0.0000 0.0000 0.0000
# 3 49.3935 6.9288 133.0641 0.0000 0.0000 0.0000
# 4 0.0000 0.0000 0.0000 35.1292 0.0000 0.0000
# 5 0.0000 0.0000 0.0000 0.0000 39.7466 0.0000
# 6 0.0000 0.0000 0.0000 0.0000 0.0000 7.0224
#
#
#
# Elastic Compliance Matrix: (Units=1/GPa)
#
#
# Indices 1 2 3 4 5 6 
#
# 1 0.032057 0.004825 -0.012151 0.000000 0.000000 0.000000
# 2 0.004825 0.021125 -0.002891 0.000000 0.000000 0.000000
# 3 -0.012151 -0.002891 0.012176 0.000000 0.000000 0.000000
# 4 0.000000 0.000000 0.000000 0.028466 0.000000 0.000000
# 5 0.000000 0.000000 0.000000 0.000000 0.025159 0.000000
# 6 0.000000 0.000000 0.000000 0.000000 0.000000 0.142402
#
#
# Mechanical properties :
#
#
# Convention : Reuss Voigt Hill
#
# Bulk Modulus (GPa) = 22.25928 37.34639 29.80283
# Shear Modulus (GPa) = 16.84665 28.48444 22.66554
#
# Velocity S-wave (km/s) = 2.85881 3.71735 3.31598
# Velocity P-wave (km/s) = 4.65787 6.04506 5.39623
#
# Compressibility (1/GPa) = 0.04492509
#
# Stress axis : x y z
#
# Youngs Moduli (GPa) = 31.19430 47.33691 82.12771
#
# Poissons Ratio (x) = -0.22842 0.99793
# Poissons Ratio (y) = -0.15053 0.23745
# Poissons Ratio (z) = 0.37904 0.13686
#
# Static dielectric constant tensor:
#      x y z
#    x 1.752080 0.000000 0.000000 
#    y 0.000000 1.783000 0.000000 
#    z 0.000000 0.000000 1.752140 
# 
# From -- ./inp_files/7209.got.cif
#   From: 2010.05.17/outbox.cif.g08.bks.cpg/sg52_4_cif.got.tgz:7209.got - 2010.06.03 12:15:38.
