data_PCOD9408178
_publ_section_title
;
Structure prediction by ZEFSAII (Michael W. Deem and Ramdas Pophale) SiO2 
 PCOD9408178
Probable space group: P N N A
;
_chemical_formula_sum "Si O2"
_cell_formula_units_Z 48
_cell_length_a 31.291928
_cell_length_b 5.049889
_cell_length_c 15.725988
_cell_angle_alpha 90.000000
_cell_angle_beta 90.000000
_cell_angle_gamma 90.000000
_cell_volume 2485.032623
_symmetry_space_group_name_H-M "P N N A"
_symmetry_group_IT_number 52
_symmetry_cell_setting 'orthorhombic'
loop_
_space_group_symop_operation_xyz
x,y,z
1/2-x,-y,z
x,1/2-y,1/2-z
1/2-x,1/2+y,1/2-z
-x,-y,-z
1/2+x,y,-z
-x,1/2+y,1/2+z
1/2+x,1/2-y,1/2+z
loop_
_atom_site_type_symbol
_atom_site_label
_atom_site_fract_x
_atom_site_fract_y
_atom_site_fract_z
Si Si1 0.927813 0.721178 0.654245
Si Si2 0.281070 0.750476 0.153615
Si Si3 0.642142 0.218548 0.975789
Si Si4 0.529357 0.738912 0.913131
Si Si5 0.954225 0.006370 0.308870
Si Si6 0.400752 0.241668 0.552013
O O1 0.915765 0.750000 0.750000
O O2 0.888663 0.619571 0.599817
O O3 0.964951 0.510755 0.637028
O O4 0.941032 0.009375 0.624075
O O5 0.250000 0.500000 0.148044
O O6 0.301264 0.750000 0.250000
O O7 0.313074 0.758441 0.073207
O O8 0.250000 0.000000 0.150030
O O9 0.625044 0.502052 0.007392
O O10 0.629653 0.999262 0.046539
O O11 0.483496 0.616128 0.887014
O O12 0.552696 0.794047 0.004081
O O13 0.946203 0.750000 0.250000
O O14 0.971976 0.250000 0.250000
O O15 0.914055 0.138724 0.355617
#
# Coordination Sequence:
#
# PCOD9408178 Si02
#       6
#     8   8   8   8   8   8
#     4  10  18  29  47  72 100 135 181 219 257 306
#     4  10  20  34  55  85 118 148 177 210 254 310
#     4  10  20  35  53  74 107 145 177 215 259 311
#     4  10  20  33  50  71  99 136 177 226 273 312
#     4  12  23  36  54  75 103 137 181 234 286 327
#     4  10  22  37  53  75 104 141 183 224 270 324
#
# _framework density 19.315639999999998
#
# number of rings (size 3 to 8) (size 9 to 14) (size 15 to 20)
#    0.000    1.667    0.000    6.000    0.000    0.000 
#    0.000   11.667    0.000    0.000    0.000    0.000 
#    0.000   37.333    0.000    0.000    0.000    0.000 
#
# Total GULP energy -267254.468243 kJ/mol
# GULP energy per Si atom -5567.801422 kJ/mol
# Density = 1.927168 g / cm^3
# Si number density = 19.315640 Si / 1000 Ang^3
#
#
#
# Elastic Constant Matrix: (Units=GPa)
#
#
# Indices 1 2 3 4 5 6 
#
# 1 71.2439 29.6542 18.0211 0.0000 0.0000 0.0000
# 2 29.6542 128.3435 9.5594 0.0000 0.0000 0.0000
# 3 18.0211 9.5594 48.5532 0.0000 0.0000 0.0000
# 4 0.0000 0.0000 0.0000 24.2734 0.0000 0.0000
# 5 0.0000 0.0000 0.0000 0.0000 21.4370 0.0000
# 6 0.0000 0.0000 0.0000 0.0000 0.0000 19.1280
#
#
#
# Elastic Compliance Matrix: (Units=1/GPa)
#
#
# Indices 1 2 3 4 5 6 
#
# 1 0.016902 -0.003489 -0.005586 0.000000 0.000000 0.000000
# 2 -0.003489 0.008628 -0.000404 0.000000 0.000000 0.000000
# 3 -0.005586 -0.000404 0.022749 0.000000 0.000000 0.000000
# 4 0.000000 0.000000 0.000000 0.041197 0.000000 0.000000
# 5 0.000000 0.000000 0.000000 0.000000 0.046648 0.000000
# 6 0.000000 0.000000 0.000000 0.000000 0.000000 0.052279
#
#
# Mechanical properties :
#
#
# Convention : Reuss Voigt Hill
#
# Bulk Modulus (GPa) = 34.10617 40.29001 37.19809
# Shear Modulus (GPa) = 23.02715 25.69473 24.36094
#
# Velocity S-wave (km/s) = 3.45650 3.65122 3.55519
# Velocity P-wave (km/s) = 5.79875 6.21927 6.01268
#
# Compressibility (1/GPa) = 0.02932021
#
# Stress axis : x y z
#
# Youngs Moduli (GPa) = 59.16592 115.90409 43.95821
#
# Poissons Ratio (x) = 0.40440 0.24556
# Poissons Ratio (y) = 0.20644 0.01774
# Poissons Ratio (z) = 0.33052 0.04679
#
# Static dielectric constant tensor:
#      x y z
#    x 1.692140 0.000000 0.000000 
#    y 0.000000 1.694370 0.000000 
#    z 0.000000 0.000000 1.743690 
# 
# From -- ./inp_files/29424.got.cif
#   From: 2010.05.17/outbox.cif.g08.bks.cpg/sg52_15_cif.got.tgz:29424.got - 2010.06.03 12:15:38.
