data_PCOD9408015
_publ_section_title
;
Structure prediction by ZEFSAII (Michael W. Deem and Ramdas Pophale) SiO2 
 PCOD9408015
Probable space group: P N N A
;
_chemical_formula_sum "Si O2"
_cell_formula_units_Z 40
_cell_length_a 10.149671
_cell_length_b 7.606925
_cell_length_c 21.672446
_cell_angle_alpha 90.000000
_cell_angle_beta 90.000000
_cell_angle_gamma 90.000000
_cell_volume 1673.281574
_symmetry_space_group_name_H-M "P N N A"
_symmetry_group_IT_number 52
_symmetry_cell_setting 'orthorhombic'
loop_
_space_group_symop_operation_xyz
x,y,z
1/2-x,-y,z
x,1/2-y,1/2-z
1/2-x,1/2+y,1/2-z
-x,-y,-z
1/2+x,y,-z
-x,1/2+y,1/2+z
1/2+x,1/2-y,1/2+z
loop_
_atom_site_type_symbol
_atom_site_label
_atom_site_fract_x
_atom_site_fract_y
_atom_site_fract_z
Si Si1 0.594965 0.511793 0.725873
Si Si2 0.832436 0.740447 0.417294
Si Si3 0.937328 0.145385 0.122476
Si Si4 0.926346 0.137797 0.646463
Si Si5 0.793322 0.705918 0.559076
O O1 0.750000 0.500000 0.710872
O O2 0.499845 0.382398 0.689481
O O3 0.557167 0.693338 0.691613
O O4 0.588425 0.495404 0.799728
O O5 0.897233 0.545140 0.407966
O O6 0.699740 0.747048 0.377581
O O7 0.790316 0.760575 0.487964
O O8 0.943871 0.873365 0.394758
O O9 0.056658 0.220264 0.081916
O O10 0.804845 0.182863 0.601975
O O11 0.750000 0.500000 0.563316
#
# Coordination Sequence:
#
# PCOD9408015 Si02
#       5
#     8   8   8   8   8
#     4  10  18  34  53  69 104 138 179 207 240 304
#     4  10  19  27  48  78 108 131 157 206 273 315
#     4  10  17  28  48  73 103 136 153 203 262 306
#     4  10  20  31  52  77 100 138 172 207 251 305
#     4  12  16  29  49  79 107 131 163 210 260 314
#
# _framework density 23.905121000000001
#
# number of rings (size 3 to 8) (size 9 to 14) (size 15 to 20)
#    0.000    1.600    8.000    1.800    0.000    0.000 
#    0.000    0.000   30.800    1.200    0.000    0.000 
#    0.000    0.000    0.000    0.000    0.000    0.000 
#
# Total GULP energy -223661.855568 kJ/mol
# GULP energy per Si atom -5591.546389 kJ/mol
# Density = 2.385071 g / cm^3
# Si number density = 23.905121 Si / 1000 Ang^3
#
#
#
# Elastic Constant Matrix: (Units=GPa)
#
#
# Indices 1 2 3 4 5 6 
#
# 1 205.2362 22.1003 85.4264 0.0000 0.0000 0.0000
# 2 22.1003 58.9943 28.6713 0.0000 0.0000 0.0000
# 3 85.4264 28.6713 204.8971 0.0000 0.0000 0.0000
# 4 0.0000 0.0000 0.0000 9.0521 0.0000 0.0000
# 5 0.0000 0.0000 0.0000 0.0000 -155.1828 0.0000
# 6 0.0000 0.0000 0.0000 0.0000 0.0000 7.4872
#
#
#
# Elastic Compliance Matrix: (Units=1/GPa)
#
#
# Indices 1 2 3 4 5 6 
#
# 1 0.005961 -0.001100 -0.002331 0.000000 0.000000 0.000000
# 2 -0.001100 0.018391 -0.002115 0.000000 0.000000 0.000000
# 3 -0.002331 -0.002115 0.006148 0.000000 0.000000 0.000000
# 4 0.000000 0.000000 0.000000 0.110471 0.000000 0.000000
# 5 0.000000 0.000000 0.000000 0.000000 -0.006444 0.000000
# 6 0.000000 0.000000 0.000000 0.000000 0.000000 0.133562
#
#
# Mechanical properties :
#
#
# Convention : Reuss Voigt Hill
#
# Bulk Modulus (GPa) = 51.52571 82.39151 66.95861
# Shear Modulus (GPa) = 17.50383 -5.53339 5.98522
#
# Velocity S-wave (km/s) = 2.70889 -1.52307 1.58404
# Velocity P-wave (km/s) = 5.60225 5.60784 5.60504
#
# Compressibility (1/GPa) = 0.01940779
#
# Stress axis : x y z
#
# Youngs Moduli (GPa) = 167.74754 54.37538 162.64225
#
# Poissons Ratio (x) = 0.05982 0.37920
# Poissons Ratio (y) = 0.18454 0.34395
# Poissons Ratio (z) = 0.39110 0.11499
#
# Static dielectric constant tensor:
#      x y z
#    x 1.850400 0.000000 0.000000 
#    y 0.000000 2.144540 0.000000 
#    z 0.000000 0.000000 1.900720 
# 
# From -- ./inp_files/35783.got.cif
#   From: 2010.05.17/outbox.cif.g08.bks.cpg/sg52_18_cif.got.tgz:35783.got - 2010.06.03 12:15:38.
