data_PCOD9408721
_publ_section_title
;
Structure prediction by ZEFSAII (Michael W. Deem and Ramdas Pophale) SiO2 
 PCOD9408721
Probable space group: P N N A
;
_chemical_formula_sum "Si O2"
_cell_formula_units_Z 64
_cell_length_a 13.197498
_cell_length_b 29.271123
_cell_length_c 5.666233
_cell_angle_alpha 90.000000
_cell_angle_beta 90.000000
_cell_angle_gamma 90.000000
_cell_volume 2188.897467
_symmetry_space_group_name_H-M "P N N A"
_symmetry_group_IT_number 52
_symmetry_cell_setting 'orthorhombic'
loop_
_space_group_symop_operation_xyz
x,y,z
1/2-x,-y,z
x,1/2-y,1/2-z
1/2-x,1/2+y,1/2-z
-x,-y,-z
1/2+x,y,-z
-x,1/2+y,1/2+z
1/2+x,1/2-y,1/2+z
loop_
_atom_site_type_symbol
_atom_site_label
_atom_site_fract_x
_atom_site_fract_y
_atom_site_fract_z
Si Si1 0.127105 0.575818 0.123104
Si Si2 0.901939 0.697160 0.808842
Si Si3 0.389221 0.564712 0.879105
Si Si4 0.072791 0.039746 0.103347
Si Si5 0.324432 0.309036 0.625642
Si Si6 0.602717 0.168701 0.198078
Si Si7 0.139911 0.582267 0.624685
Si Si8 0.841512 0.315431 0.871854
O O1 0.170651 0.561677 0.373772
O O2 0.126739 0.631130 0.124840
O O3 0.012286 0.559043 0.117457
O O4 0.176735 0.562504 0.875500
O O5 0.908596 0.750000 0.750000
O O6 0.939218 0.669816 0.572614
O O7 0.782914 0.683785 0.849367
O O8 0.949984 0.689812 0.070391
O O9 0.356925 0.544299 0.626689
O O10 0.374839 0.618449 0.811305
O O11 0.370221 0.544224 0.142470
O O12 0.983225 0.078085 0.129163
O O13 0.000000 0.000000 0.000000
O O14 0.204152 0.301977 0.648268
O O15 0.332349 0.364439 0.620403
O O16 0.369063 0.293739 0.378389
O O17 0.365442 0.293800 0.876201
#
# Coordination Sequence:
#
# PCOD9408721 Si02
#       8
#     8   8   8   8   8   8   8   8
#     4   8  14  25  42  64  87 111 146 191 229 264
#     4  10  19  31  48  69  94 122 154 194 237 282
#     4  10  19  31  48  71  97 126 162 199 239 294
#     4  10  19  31  48  71  97 125 160 207 254 289
#     4   8  14  25  42  64  87 113 151 190 221 262
#     4  10  19  31  48  71  95 125 161 195 234 290
#     4   8  14  25  42  64  87 114 149 188 232 275
#     4   8  14  25  42  64  86 110 145 188 226 260
#
# _framework density 29.238461999999998
#
# number of rings (size 3 to 8) (size 9 to 14) (size 15 to 20)
#    0.000    3.000    0.000    1.500    0.000    0.000 
#    0.000    0.000    0.000    2.250    0.000    1.750 
#    0.000    0.000    0.000    0.000    0.000    0.000 
#
# Total GULP energy -357210.467665 kJ/mol
# GULP energy per Si atom -5581.413557 kJ/mol
# Density = 2.917191 g / cm^3
# Si number density = 29.238462 Si / 1000 Ang^3
#
#
#
# Elastic Constant Matrix: (Units=GPa)
#
#
# Indices 1 2 3 4 5 6 
#
# 1 77.2928 6.7672 37.7505 0.0000 0.0000 0.0000
# 2 6.7672 97.7501 60.4355 0.0000 0.0000 0.0000
# 3 37.7505 60.4355 433.5381 0.0000 0.0000 0.0000
# 4 0.0000 0.0000 0.0000 53.0971 0.0000 0.0000
# 5 0.0000 0.0000 0.0000 0.0000 43.5244 0.0000
# 6 0.0000 0.0000 0.0000 0.0000 0.0000 63.6876
#
#
#
# Elastic Compliance Matrix: (Units=1/GPa)
#
#
# Indices 1 2 3 4 5 6 
#
# 1 0.013517 -0.000228 -0.001145 0.000000 0.000000 0.000000
# 2 -0.000228 0.011199 -0.001541 0.000000 0.000000 0.000000
# 3 -0.001145 -0.001541 0.002621 0.000000 0.000000 0.000000
# 4 0.000000 0.000000 0.000000 0.018833 0.000000 0.000000
# 5 0.000000 0.000000 0.000000 0.000000 0.022976 0.000000
# 6 0.000000 0.000000 0.000000 0.000000 0.000000 0.015702
#
#
# Mechanical properties :
#
#
# Convention : Reuss Voigt Hill
#
# Bulk Modulus (GPa) = 46.49300 90.94306 68.71803
# Shear Modulus (GPa) = 51.10076 65.63701 58.36888
#
# Velocity S-wave (km/s) = 4.18511 4.74316 4.47285
# Velocity P-wave (km/s) = 6.26813 7.82101 7.08723
#
# Compressibility (1/GPa) = 0.02150861
#
# Stress axis : x y z
#
# Youngs Moduli (GPa) = 73.98034 89.29478 381.50676
#
# Poissons Ratio (x) = 0.02033 0.43693
# Poissons Ratio (y) = 0.01685 0.58802
# Poissons Ratio (z) = 0.08473 0.13763
#
# Static dielectric constant tensor:
#      x y z
#    x 2.397510 0.000000 0.000000 
#    y 0.000000 2.252230 0.000000 
#    z 0.000000 0.000000 1.622700 
# 
# From -- ./inp_files/3670.got.cif
#   From: 2010.05.17/outbox.cif.g08.bks.cpg/sg52_2_cif.got.tgz:3670.got - 2010.06.03 12:15:38.
