data_PCOD9408530
_publ_section_title
;
Structure prediction by ZEFSAII (Michael W. Deem and Ramdas Pophale) SiO2 
 PCOD9408530
Probable space group: P N N A
;
_chemical_formula_sum "Si O2"
_cell_formula_units_Z 44
_cell_length_a 25.762443
_cell_length_b 5.944099
_cell_length_c 10.925114
_cell_angle_alpha 90.000000
_cell_angle_beta 90.000000
_cell_angle_gamma 90.000000
_cell_volume 1673.011997
_symmetry_space_group_name_H-M "P N N A"
_symmetry_group_IT_number 52
_symmetry_cell_setting 'orthorhombic'
loop_
_space_group_symop_operation_xyz
x,y,z
1/2-x,-y,z
x,1/2-y,1/2-z
1/2-x,1/2+y,1/2-z
-x,-y,-z
1/2+x,y,-z
-x,1/2+y,1/2+z
1/2+x,1/2-y,1/2+z
loop_
_atom_site_type_symbol
_atom_site_label
_atom_site_fract_x
_atom_site_fract_y
_atom_site_fract_z
Si Si1 0.750000 0.500000 0.584656
Si Si2 0.980606 0.304951 0.407319
Si Si3 0.607129 0.074957 0.147773
Si Si4 0.306115 0.904123 0.404135
Si Si5 0.803040 0.289250 0.118568
Si Si6 0.418080 0.932217 0.439412
O O1 0.701276 0.357435 0.632671
O O2 0.774535 0.322695 0.493874
O O3 0.946782 0.455092 0.314177
O O4 0.000000 0.500000 0.500000
O O5 0.030853 0.159614 0.371074
O O6 0.941000 0.138995 0.480758
O O7 0.624021 0.250000 0.250000
O O8 0.646998 0.870772 0.133874
O O9 0.598046 0.222634 0.026886
O O10 0.364108 0.989113 0.369562
O O11 0.250000 0.000000 0.353438
O O12 0.308721 0.966960 0.553077
O O13 0.776299 0.250000 0.250000
#
# Coordination Sequence:
#
# PCOD9408530 Si02
#       6
#     4   8   8   8   8   8
#     4  10  22  32  42  62  94 130 176 210 250 278
#     4   9  20  33  51  69  88 128 175 208 252 318
#     4  11  21  31  48  71  96 127 174 215 259 303
#     4  10  20  32  45  65  89 124 170 214 254 302
#     4  11  22  29  42  62  93 129 172 210 250 289
#     4  10  18  36  50  65  95 130 175 205 261 316
#
# _framework density 26.299872000000001
#
# number of rings (size 3 to 8) (size 9 to 14) (size 15 to 20)
#    0.000    1.818    3.636    1.091    3.818    0.000 
#    0.000    0.000    0.000    0.000    0.000    0.000 
#    0.000    0.000    0.000    0.000  469.818    0.000 
#
# Total GULP energy -244942.504574 kJ/mol
# GULP energy per Si atom -5566.875104 kJ/mol
# Density = 2.624001 g / cm^3
# Si number density = 26.299872 Si / 1000 Ang^3
#
#
#
# Elastic Constant Matrix: (Units=GPa)
#
#
# Indices 1 2 3 4 5 6 
#
# 1 200.5913 60.5804 12.0969 0.0000 0.0000 0.0000
# 2 60.5804 126.9629 27.1091 0.0000 0.0000 0.0000
# 3 12.0969 27.1091 49.3769 0.0000 0.0000 0.0000
# 4 0.0000 0.0000 0.0000 36.4110 0.0000 0.0000
# 5 0.0000 0.0000 0.0000 0.0000 31.5146 0.0000
# 6 0.0000 0.0000 0.0000 0.0000 0.0000 65.1416
#
#
#
# Elastic Compliance Matrix: (Units=1/GPa)
#
#
# Indices 1 2 3 4 5 6 
#
# 1 0.005825 -0.002803 0.000112 0.000000 0.000000 0.000000
# 2 -0.002803 0.010271 -0.004952 0.000000 0.000000 0.000000
# 3 0.000112 -0.004952 0.022944 0.000000 0.000000 0.000000
# 4 0.000000 0.000000 0.000000 0.027464 0.000000 0.000000
# 5 0.000000 0.000000 0.000000 0.000000 0.031731 0.000000
# 6 0.000000 0.000000 0.000000 0.000000 0.000000 0.015351
#
#
# Mechanical properties :
#
#
# Convention : Reuss Voigt Hill
#
# Bulk Modulus (GPa) = 42.10017 64.05599 53.07808
# Shear Modulus (GPa) = 36.55173 45.08976 40.82075
#
# Velocity S-wave (km/s) = 3.73206 4.14508 3.94398
# Velocity P-wave (km/s) = 5.88332 6.87879 6.40044
#
# Compressibility (1/GPa) = 0.02375287
#
# Stress axis : x y z
#
# Youngs Moduli (GPa) = 171.66925 97.35773 43.58452
#
# Poissons Ratio (x) = 0.27293 -0.00488
# Poissons Ratio (y) = 0.48126 0.21585
# Poissons Ratio (z) = -0.01923 0.48216
#
# Static dielectric constant tensor:
#      x y z
#    x 2.274480 0.000000 0.000000 
#    y 0.000000 1.421910 0.000000 
#    z 0.000000 0.000000 2.199840 
# 
# From -- ./inp_files/29353.got.cif
#   From: 2010.05.17/outbox.cif.g08.bks.cpg/sg52_15_cif.got.tgz:29353.got - 2010.06.03 12:15:38.
