data_PCOD9408445
_publ_section_title
;
Structure prediction by ZEFSAII (Michael W. Deem and Ramdas Pophale) SiO2 
 PCOD9408445
Probable space group: P N N A
;
_chemical_formula_sum "Si O2"
_cell_formula_units_Z 36
_cell_length_a 16.987927
_cell_length_b 14.268795
_cell_length_c 7.326251
_cell_angle_alpha 90.000000
_cell_angle_beta 90.000000
_cell_angle_gamma 90.000000
_cell_volume 1775.863079
_symmetry_space_group_name_H-M "P N N A"
_symmetry_group_IT_number 52
_symmetry_cell_setting 'orthorhombic'
loop_
_space_group_symop_operation_xyz
x,y,z
1/2-x,-y,z
x,1/2-y,1/2-z
1/2-x,1/2+y,1/2-z
-x,-y,-z
1/2+x,y,-z
-x,1/2+y,1/2+z
1/2+x,1/2-y,1/2+z
loop_
_atom_site_type_symbol
_atom_site_label
_atom_site_fract_x
_atom_site_fract_y
_atom_site_fract_z
Si Si1 0.526739 0.131457 0.639798
Si Si2 0.501548 0.389668 0.455881
Si Si3 0.141442 0.156737 0.673772
Si Si4 0.901066 0.419582 0.856984
Si Si5 0.250000 0.500000 0.981593
O O1 0.510653 0.340662 0.651559
O O2 0.595201 0.176606 0.515732
O O3 0.446616 0.131014 0.522437
O O4 0.558680 0.023250 0.648240
O O5 0.500000 0.500000 0.500000
O O6 0.574030 0.369625 0.320303
O O7 0.424451 0.370419 0.332939
O O8 0.181595 0.250000 0.750000
O O9 0.198410 0.070235 0.639450
O O10 0.810307 0.438569 0.897945
#
# Coordination Sequence:
#
# PCOD9408445 Si02
#       5
#     8   8   8   8   4
#     4   8  15  31  53  78 104 142 193 243 278 329
#     4   9  16  32  58  80 102 141 200 242 282 345
#     4  10  21  35  56  83 116 157 197 242 291 356
#     4   8  15  28  51  81 106 143 182 230 288 346
#     4  10  18  34  56  80 124 160 180 236 310 358
#
# _framework density 20.271833000000001
#
# number of rings (size 3 to 8) (size 9 to 14) (size 15 to 20)
#    0.000    3.111    0.000    4.000    0.000    0.889 
#    0.000   17.778   19.556    0.000    0.000    0.000 
#    0.000    0.000    0.000    0.000    0.000    0.000 
#
# Total GULP energy -200651.426526 kJ/mol
# GULP energy per Si atom -5573.650737 kJ/mol
# Density = 2.022569 g / cm^3
# Si number density = 20.271833 Si / 1000 Ang^3
#
#
#
# Elastic Constant Matrix: (Units=GPa)
#
#
# Indices 1 2 3 4 5 6 
#
# 1 95.8556 17.9995 52.6445 0.0000 0.0000 0.0000
# 2 17.9995 65.3140 36.0202 0.0000 0.0000 0.0000
# 3 52.6445 36.0202 176.2065 0.0000 0.0000 0.0000
# 4 0.0000 0.0000 0.0000 28.2068 0.0000 0.0000
# 5 0.0000 0.0000 0.0000 0.0000 7.0604 0.0000
# 6 0.0000 0.0000 0.0000 0.0000 0.0000 20.2943
#
#
#
# Elastic Compliance Matrix: (Units=1/GPa)
#
#
# Indices 1 2 3 4 5 6 
#
# 1 0.012623 -0.001577 -0.003449 0.000000 0.000000 0.000000
# 2 -0.001577 0.017453 -0.003097 0.000000 0.000000 0.000000
# 3 -0.003449 -0.003097 0.007339 0.000000 0.000000 0.000000
# 4 0.000000 0.000000 0.000000 0.035453 0.000000 0.000000
# 5 0.000000 0.000000 0.000000 0.000000 0.141635 0.000000
# 6 0.000000 0.000000 0.000000 0.000000 0.000000 0.049275
#
#
# Mechanical properties :
#
#
# Convention : Reuss Voigt Hill
#
# Bulk Modulus (GPa) = 47.23715 61.18938 54.21326
# Shear Modulus (GPa) = 17.41689 26.49309 21.95499
#
# Velocity S-wave (km/s) = 2.93434 3.61902 3.29451
# Velocity P-wave (km/s) = 5.90194 6.90746 6.42440
#
# Compressibility (1/GPa) = 0.02116978
#
# Stress axis : x y z
#
# Youngs Moduli (GPa) = 79.22324 57.29691 136.26560
#
# Poissons Ratio (x) = 0.09033 0.46997
# Poissons Ratio (y) = 0.12490 0.42198
# Poissons Ratio (z) = 0.27323 0.17743
#
# Static dielectric constant tensor:
#      x y z
#    x 1.685140 0.000000 0.000000 
#    y 0.000000 1.837250 0.000000 
#    z 0.000000 0.000000 1.754440 
# 
# From -- ./inp_files/19180.got.cif
#   From: 2010.05.17/outbox.cif.g08.bks.cpg/sg52_10_cif.got.tgz:19180.got - 2010.06.03 12:15:38.
