data_PCOD9408861
_publ_section_title
;
Structure prediction by ZEFSAII (Michael W. Deem and Ramdas Pophale) SiO2 
 PCOD9408861
Probable space group: P N N A
;
_chemical_formula_sum "Si O2"
_cell_formula_units_Z 40
_cell_length_a 23.714051
_cell_length_b 16.491697
_cell_length_c 4.881985
_cell_angle_alpha 90.000000
_cell_angle_beta 90.000000
_cell_angle_gamma 90.000000
_cell_volume 1909.270829
_symmetry_space_group_name_H-M "P N N A"
_symmetry_group_IT_number 52
_symmetry_cell_setting 'orthorhombic'
loop_
_space_group_symop_operation_xyz
x,y,z
1/2-x,-y,z
x,1/2-y,1/2-z
1/2-x,1/2+y,1/2-z
-x,-y,-z
1/2+x,y,-z
-x,1/2+y,1/2+z
1/2+x,1/2-y,1/2+z
loop_
_atom_site_type_symbol
_atom_site_label
_atom_site_fract_x
_atom_site_fract_y
_atom_site_fract_z
Si Si1 0.436949 0.805537 0.998327
Si Si2 0.815510 0.016697 0.256531
Si Si3 0.618610 0.455168 0.749692
Si Si4 0.046987 0.600997 0.366922
Si Si5 0.887512 0.160995 0.369165
O O1 0.460179 0.750000 0.250000
O O2 0.393138 0.865886 0.141038
O O3 0.415264 0.750000 0.750000
O O4 0.484986 0.862276 0.862142
O O5 0.831088 0.108148 0.344316
O O6 0.750000 0.000000 0.287485
O O7 0.854839 0.961076 0.451045
O O8 0.836933 0.999696 0.950191
O O9 0.561354 0.509474 0.726678
O O10 0.068483 0.612901 0.675437
O O11 0.086789 0.655131 0.170599
O O12 0.881475 0.250000 0.250000
#
# Coordination Sequence:
#
# PCOD9408861 Si02
#       5
#     8   8   8   8   8
#     4  12  23  36  56  85 119 154 183 220 275 341
#     4  10  21  39  61  81 108 150 192 235 287 336
#     4  10  22  39  58  82 113 147 190 234 277 338
#     4  10  20  35  57  81 113 149 182 223 276 332
#     4  10  19  33  55  85 111 138 185 240 279 319
#
# _framework density 20.950405
#
# number of rings (size 3 to 8) (size 9 to 14) (size 15 to 20)
#    0.000    1.600    0.000    6.000    0.000    0.000 
#    0.000   11.000    0.000    2.400    0.000    0.000 
#    0.000    0.000    0.000    0.000    0.000    0.000 
#
# Total GULP energy -223533.826274 kJ/mol
# GULP energy per Si atom -5588.345657 kJ/mol
# Density = 2.090272 g / cm^3
# Si number density = 20.950405 Si / 1000 Ang^3
#
#
#
# Elastic Constant Matrix: (Units=GPa)
#
#
# Indices 1 2 3 4 5 6 
#
# 1 39.0397 16.4693 -11.0002 0.0000 0.0000 0.0000
# 2 16.4693 78.6811 8.4012 0.0000 0.0000 0.0000
# 3 -11.0002 8.4012 79.6436 0.0000 0.0000 0.0000
# 4 0.0000 0.0000 0.0000 31.0518 0.0000 0.0000
# 5 0.0000 0.0000 0.0000 0.0000 12.5825 0.0000
# 6 0.0000 0.0000 0.0000 0.0000 0.0000 16.2688
#
#
#
# Elastic Compliance Matrix: (Units=1/GPa)
#
#
# Indices 1 2 3 4 5 6 
#
# 1 0.029828 -0.006760 0.004833 0.000000 0.000000 0.000000
# 2 -0.006760 0.014386 -0.002451 0.000000 0.000000 0.000000
# 3 0.004833 -0.002451 0.013482 0.000000 0.000000 0.000000
# 4 0.000000 0.000000 0.000000 0.032204 0.000000 0.000000
# 5 0.000000 0.000000 0.000000 0.000000 0.079475 0.000000
# 6 0.000000 0.000000 0.000000 0.000000 0.000000 0.061467
#
#
# Mechanical properties :
#
#
# Convention : Reuss Voigt Hill
#
# Bulk Modulus (GPa) = 20.43289 25.01166 22.72228
# Shear Modulus (GPa) = 19.53791 24.21356 21.87573
#
# Velocity S-wave (km/s) = 3.05713 3.40333 3.23486
# Velocity P-wave (km/s) = 4.71546 5.23526 4.98214
#
# Compressibility (1/GPa) = 0.04894069
#
# Stress axis : x y z
#
# Youngs Moduli (GPa) = 33.52520 69.51128 74.17297
#
# Poissons Ratio (x) = 0.46987 -0.35847
# Poissons Ratio (y) = 0.22662 0.18181
# Poissons Ratio (z) = -0.16202 0.17038
#
# Static dielectric constant tensor:
#      x y z
#    x 1.721300 0.000000 0.000000 
#    y 0.000000 1.801530 0.000000 
#    z 0.000000 0.000000 1.736010 
# 
# From -- ./inp_files/5011.got.cif
#   From: 2010.05.17/outbox.cif.g08.bks.cpg/sg52_3_cif.got.tgz:5011.got - 2010.06.03 12:15:38.
