data_PCOD9408849
_publ_section_title
;
Structure prediction by ZEFSAII (Michael W. Deem and Ramdas Pophale) SiO2 
 PCOD9408849
Probable space group: P N N A
;
_chemical_formula_sum "Si O2"
_cell_formula_units_Z 40
_cell_length_a 22.619655
_cell_length_b 4.910377
_cell_length_c 16.752704
_cell_angle_alpha 90.000000
_cell_angle_beta 90.000000
_cell_angle_gamma 90.000000
_cell_volume 1860.740150
_symmetry_space_group_name_H-M "P N N A"
_symmetry_group_IT_number 52
_symmetry_cell_setting 'orthorhombic'
loop_
_space_group_symop_operation_xyz
x,y,z
1/2-x,-y,z
x,1/2-y,1/2-z
1/2-x,1/2+y,1/2-z
-x,-y,-z
1/2+x,y,-z
-x,1/2+y,1/2+z
1/2+x,1/2-y,1/2+z
loop_
_atom_site_type_symbol
_atom_site_label
_atom_site_fract_x
_atom_site_fract_y
_atom_site_fract_z
Si Si1 0.119713 0.171847 0.543609
Si Si2 0.048255 0.983786 0.697134
Si Si3 0.345262 0.132196 0.169127
Si Si4 0.193320 0.670732 0.507578
Si Si5 0.423289 0.877387 0.368732
O O1 0.086405 0.086977 0.622835
O O2 0.139169 0.484973 0.538634
O O3 0.080337 0.129737 0.464384
O O4 0.177325 0.976402 0.532927
O O5 0.034801 0.250000 0.750000
O O6 0.079146 0.750000 0.750000
O O7 0.988642 0.841469 0.664014
O O8 0.316150 0.250000 0.250000
O O9 0.401625 0.327330 0.157719
O O10 0.373961 0.833022 0.164520
O O11 0.306988 0.170728 0.089269
O O12 0.250000 0.500000 0.534883
#
# Coordination Sequence:
#
# PCOD9408849 Si02
#       5
#     8   8   8   8   8
#     4  10  22  39  59  83 113 146 189 234 273 337
#     4  12  23  36  58  86 117 147 182 230 283 334
#     4  10  19  33  54  84 118 145 180 223 265 324
#     4  10  21  39  61  81 106 150 195 235 283 329
#     4  10  20  35  56  82 115 154 181 208 267 338
#
# _framework density 21.49682
#
# number of rings (size 3 to 8) (size 9 to 14) (size 15 to 20)
#    0.000    1.600    0.000    6.000    0.000    0.000 
#    0.000   14.000    0.000   12.000    0.000    0.000 
#    0.000    0.000    0.000    0.000    0.000    0.000 
#
# Total GULP energy -223385.488298 kJ/mol
# GULP energy per Si atom -5584.637207 kJ/mol
# Density = 2.144789 g / cm^3
# Si number density = 21.496820 Si / 1000 Ang^3
#
#
#
# Elastic Constant Matrix: (Units=GPa)
#
#
# Indices 1 2 3 4 5 6 
#
# 1 27.6865 -5.0517 9.7304 0.0000 0.0000 0.0000
# 2 -5.0517 91.7291 28.2772 0.0000 0.0000 0.0000
# 3 9.7304 28.2772 96.8446 0.0000 0.0000 0.0000
# 4 0.0000 0.0000 0.0000 34.9390 0.0000 0.0000
# 5 0.0000 0.0000 0.0000 0.0000 -3.6041 0.0000
# 6 0.0000 0.0000 0.0000 0.0000 0.0000 16.7163
#
#
#
# Elastic Compliance Matrix: (Units=1/GPa)
#
#
# Indices 1 2 3 4 5 6 
#
# 1 0.038517 0.003642 -0.004933 0.000000 0.000000 0.000000
# 2 0.003642 0.012324 -0.003964 0.000000 0.000000 0.000000
# 3 -0.004933 -0.003964 0.011979 0.000000 0.000000 0.000000
# 4 0.000000 0.000000 0.000000 0.028621 0.000000 0.000000
# 5 0.000000 0.000000 0.000000 0.000000 -0.277461 0.000000
# 6 0.000000 0.000000 0.000000 0.000000 0.000000 0.059822
#
#
# Mechanical properties :
#
#
# Convention : Reuss Voigt Hill
#
# Bulk Modulus (GPa) = 19.11720 31.35241 25.23481
# Shear Modulus (GPa) = -50.89086 21.83053 -14.53016
#
# Velocity S-wave (km/s) = -4.87084 3.19019 -2.60267
# Velocity P-wave (km/s) = 4.76666 5.30905 1.65302
#
# Compressibility (1/GPa) = 0.05230891
#
# Stress axis : x y z
#
# Youngs Moduli (GPa) = 25.96249 81.14017 83.47901
#
# Poissons Ratio (x) = -0.29552 0.41183
# Poissons Ratio (y) = -0.09456 0.33095
# Poissons Ratio (z) = 0.12808 0.32168
#
# Static dielectric constant tensor:
#      x y z
#    x 1.766000 0.000000 0.000000 
#    y 0.000000 1.768640 0.000000 
#    z 0.000000 0.000000 1.800550 
# 
# From -- ./inp_files/29008.got.cif
#   From: 2010.05.17/outbox.cif.g08.bks.cpg/sg52_15_cif.got.tgz:29008.got - 2010.06.03 12:15:38.
