data_PCOD9408171
_publ_section_title
;
Structure prediction by ZEFSAII (Michael W. Deem and Ramdas Pophale) SiO2 
 PCOD9408171
Probable space group: P N N A
;
_chemical_formula_sum "Si O2"
_cell_formula_units_Z 40
_cell_length_a 5.026884
_cell_length_b 18.952861
_cell_length_c 22.837639
_cell_angle_alpha 90.000000
_cell_angle_beta 90.000000
_cell_angle_gamma 90.000000
_cell_volume 2175.829421
_symmetry_space_group_name_H-M "P N N A"
_symmetry_group_IT_number 52
_symmetry_cell_setting 'orthorhombic'
loop_
_space_group_symop_operation_xyz
x,y,z
1/2-x,-y,z
x,1/2-y,1/2-z
1/2-x,1/2+y,1/2-z
-x,-y,-z
1/2+x,y,-z
-x,1/2+y,1/2+z
1/2+x,1/2-y,1/2+z
loop_
_atom_site_type_symbol
_atom_site_label
_atom_site_fract_x
_atom_site_fract_y
_atom_site_fract_z
Si Si1 0.321810 0.924973 0.809820
Si Si2 0.168055 0.688866 0.141639
Si Si3 0.177808 0.073095 0.266138
Si Si4 0.292596 0.919673 0.460846
Si Si5 0.157880 0.732076 0.679424
O O1 0.628198 0.925685 0.790327
O O2 0.248270 0.848062 0.833554
O O3 0.127498 0.927108 0.752709
O O4 0.250000 0.000000 0.840398
O O5 0.243853 0.638721 0.195678
O O6 0.221067 0.641201 0.084991
O O7 0.371521 0.753348 0.151140
O O8 0.869912 0.715724 0.149653
O O9 0.250000 0.000000 0.297165
O O10 0.592683 0.913274 0.484013
O O11 0.250000 0.000000 0.438263
O O12 0.157538 0.750000 0.750000
#
# Coordination Sequence:
#
# PCOD9408171 Si02
#       5
#     8   8   8   8   8
#     4  10  20  32  45  66 102 142 172 203 248 302
#     4  12  21  33  54  76 103 140 183 219 268 320
#     4  10  18  29  45  68  97 135 177 207 239 302
#     4  10  22  40  58  79 110 144 184 234 278 316
#     4  12  21  33  50  76 110 140 177 225 261 314
#
# _framework density 18.383794000000002
#
# number of rings (size 3 to 8) (size 9 to 14) (size 15 to 20)
#    0.000    1.200    4.000    3.600    0.000    0.000 
#    0.000    8.000    0.000    0.000    0.000    0.000 
#    0.000   16.000    0.000    0.000    0.000    0.000 
#
# Total GULP energy -223076.502687 kJ/mol
# GULP energy per Si atom -5576.912567 kJ/mol
# Density = 1.834195 g / cm^3
# Si number density = 18.383794 Si / 1000 Ang^3
#
#
#
# Elastic Constant Matrix: (Units=GPa)
#
#
# Indices 1 2 3 4 5 6 
#
# 1 50.1132 -14.6127 0.5527 0.0000 0.0000 0.0000
# 2 -14.6127 100.1499 15.4276 0.0000 0.0000 0.0000
# 3 0.5527 15.4276 31.1216 0.0000 0.0000 0.0000
# 4 0.0000 0.0000 0.0000 16.2520 0.0000 0.0000
# 5 0.0000 0.0000 0.0000 0.0000 8.5444 0.0000
# 6 0.0000 0.0000 0.0000 0.0000 0.0000 37.0714
#
#
#
# Elastic Compliance Matrix: (Units=1/GPa)
#
#
# Indices 1 2 3 4 5 6 
#
# 1 0.020961 0.003373 -0.002044 0.000000 0.000000 0.000000
# 2 0.003373 0.011353 -0.005688 0.000000 0.000000 0.000000
# 3 -0.002044 -0.005688 0.034988 0.000000 0.000000 0.000000
# 4 0.000000 0.000000 0.000000 0.061531 0.000000 0.000000
# 5 0.000000 0.000000 0.000000 0.000000 0.117036 0.000000
# 6 0.000000 0.000000 0.000000 0.000000 0.000000 0.026975
#
#
# Mechanical properties :
#
#
# Convention : Reuss Voigt Hill
#
# Bulk Modulus (GPa) = 17.06946 20.45775 18.76360
# Shear Modulus (GPa) = 16.60627 24.37469 20.49048
#
# Velocity S-wave (km/s) = 3.00877 3.64521 3.34218
# Velocity P-wave (km/s) = 4.62336 5.37299 5.01221
#
# Compressibility (1/GPa) = 0.05858417
#
# Stress axis : x y z
#
# Youngs Moduli (GPa) = 47.70760 88.07892 28.58117
#
# Poissons Ratio (x) = -0.29712 0.05843
# Poissons Ratio (y) = -0.16093 0.16257
# Poissons Ratio (z) = 0.09754 0.50100
#
# Static dielectric constant tensor:
#      x y z
#    x 1.640110 0.000000 0.000000 
#    y 0.000000 1.714840 0.000000 
#    z 0.000000 0.000000 1.603970 
# 
# From -- ./inp_files/30127.got.cif
#   From: 2010.05.17/outbox.cif.g08.bks.cpg/sg52_16_cif.got.tgz:30127.got - 2010.06.03 12:15:38.
