data_PCOD9408148
_publ_section_title
;
Structure prediction by ZEFSAII (Michael W. Deem and Ramdas Pophale) SiO2 
 PCOD9408148
Probable space group: P N N A
;
_chemical_formula_sum "Si O2"
_cell_formula_units_Z 44
_cell_length_a 6.901973
_cell_length_b 10.688404
_cell_length_c 24.928974
_cell_angle_alpha 90.000000
_cell_angle_beta 90.000000
_cell_angle_gamma 90.000000
_cell_volume 1839.037231
_symmetry_space_group_name_H-M "P N N A"
_symmetry_group_IT_number 52
_symmetry_cell_setting 'orthorhombic'
loop_
_space_group_symop_operation_xyz
x,y,z
1/2-x,-y,z
x,1/2-y,1/2-z
1/2-x,1/2+y,1/2-z
-x,-y,-z
1/2+x,y,-z
-x,1/2+y,1/2+z
1/2+x,1/2-y,1/2+z
loop_
_atom_site_type_symbol
_atom_site_label
_atom_site_fract_x
_atom_site_fract_y
_atom_site_fract_z
Si Si1 0.540144 0.556781 0.781242
Si Si2 0.978672 0.538488 0.891949
Si Si3 0.532740 0.329015 0.324649
Si Si4 0.399365 0.776406 0.572527
Si Si5 0.250000 0.500000 0.390902
Si Si6 0.846812 0.723826 0.549185
O O1 0.750000 0.500000 0.765571
O O2 0.466431 0.464629 0.828675
O O3 0.413488 0.596508 0.729504
O O4 0.559398 0.694160 0.808852
O O5 0.750000 0.500000 0.892137
O O6 0.094673 0.425274 0.919398
O O7 0.981068 0.667715 0.924986
O O8 0.675676 0.292317 0.373545
O O9 0.376863 0.417355 0.351679
O O10 0.629114 0.747425 0.569321
O O11 0.330447 0.733526 0.514635
O O12 0.113423 0.414191 0.428546
#
# Coordination Sequence:
#
# PCOD9408148 Si02
#       6
#     8   8   8   8   4   8
#     4   9  14  25  42  60  89 114 145 182 238 269
#     4   8  15  28  45  67  89 115 148 197 234 271
#     4   9  17  25  39  63  90 116 144 185 226 276
#     4   9  18  31  46  65  93 118 157 188 230 271
#     4  10  18  28  40  66  96 122 148 180 222 282
#     4  10  19  30  45  64  96 123 151 190 227 276
#
# _framework density 23.925564000000001
#
# number of rings (size 3 to 8) (size 9 to 14) (size 15 to 20)
#    0.000    2.909    0.909    3.818    0.000    2.909 
#    0.000    0.000    0.000    0.000    0.000    0.000 
#   60.000    0.000    0.000    0.000    0.000    0.000 
#
# Total GULP energy -245244.996860 kJ/mol
# GULP energy per Si atom -5573.749929 kJ/mol
# Density = 2.387111 g / cm^3
# Si number density = 23.925564 Si / 1000 Ang^3
#
#
#
# Elastic Constant Matrix: (Units=GPa)
#
#
# Indices 1 2 3 4 5 6 
#
# 1 31.2269 13.6564 4.9232 0.0000 0.0000 0.0000
# 2 13.6564 104.0677 87.9298 0.0000 0.0000 0.0000
# 3 4.9232 87.9298 211.0249 0.0000 0.0000 0.0000
# 4 0.0000 0.0000 0.0000 3.0347 0.0000 0.0000
# 5 0.0000 0.0000 0.0000 0.0000 10.8182 0.0000
# 6 0.0000 0.0000 0.0000 0.0000 0.0000 26.9374
#
#
#
# Elastic Compliance Matrix: (Units=1/GPa)
#
#
# Indices 1 2 3 4 5 6 
#
# 1 0.034347 -0.005911 0.001662 0.000000 0.000000 0.000000
# 2 -0.005911 0.015848 -0.006466 0.000000 0.000000 0.000000
# 3 0.001662 -0.006466 0.007394 0.000000 0.000000 0.000000
# 4 0.000000 0.000000 0.000000 0.329524 0.000000 0.000000
# 5 0.000000 0.000000 0.000000 0.000000 0.092437 0.000000
# 6 0.000000 0.000000 0.000000 0.000000 0.000000 0.037123
#
#
# Mechanical properties :
#
#
# Convention : Reuss Voigt Hill
#
# Bulk Modulus (GPa) = 27.65590 62.14867 44.90229
# Shear Modulus (GPa) = 9.08833 24.14539 16.61686
#
# Velocity S-wave (km/s) = 1.95111 3.18022 2.63824
# Velocity P-wave (km/s) = 4.08167 6.28628 5.29987
#
# Compressibility (1/GPa) = 0.03615865
#
# Stress axis : x y z
#
# Youngs Moduli (GPa) = 29.11473 63.10037 135.24360
#
# Poissons Ratio (x) = 0.37301 -0.22475
# Poissons Ratio (y) = 0.17211 0.87442
# Poissons Ratio (z) = -0.04838 0.40798
#
# Static dielectric constant tensor:
#      x y z
#    x 1.990620 0.000000 0.000000 
#    y 0.000000 1.979900 0.000000 
#    z 0.000000 0.000000 1.992740 
# 
# From -- ./inp_files/36719.got.cif
#   From: 2010.05.17/outbox.cif.g08.bks.cpg/sg52_19_cif.got.tgz:36719.got - 2010.06.03 12:15:38.
