data_PCOD9408150
_publ_section_title
;
Structure prediction by ZEFSAII (Michael W. Deem and Ramdas Pophale) SiO2 
 PCOD9408150
Probable space group: P N N A
;
_chemical_formula_sum "Si O2"
_cell_formula_units_Z 36
_cell_length_a 20.040019
_cell_length_b 5.008063
_cell_length_c 13.672437
_cell_angle_alpha 90.000000
_cell_angle_beta 90.000000
_cell_angle_gamma 90.000000
_cell_volume 1372.188715
_symmetry_space_group_name_H-M "P N N A"
_symmetry_group_IT_number 52
_symmetry_cell_setting 'orthorhombic'
loop_
_space_group_symop_operation_xyz
x,y,z
1/2-x,-y,z
x,1/2-y,1/2-z
1/2-x,1/2+y,1/2-z
-x,-y,-z
1/2+x,y,-z
-x,1/2+y,1/2+z
1/2+x,1/2-y,1/2+z
loop_
_atom_site_type_symbol
_atom_site_label
_atom_site_fract_x
_atom_site_fract_y
_atom_site_fract_z
Si Si1 0.771033 0.250000 0.250000
Si Si2 0.132468 0.394761 0.879975
Si Si3 0.411292 0.078828 0.120452
Si Si4 0.173387 0.082380 0.392802
Si Si5 0.053153 0.896606 0.887034
O O1 0.750000 0.500000 0.323904
O O2 0.812151 0.463375 0.184346
O O3 0.107951 0.104507 0.848938
O O4 0.068574 0.588294 0.870687
O O5 0.160761 0.405462 0.989871
O O6 0.352000 0.870622 0.141211
O O7 0.380632 0.365421 0.143836
O O8 0.482773 0.982326 0.158090
O O9 0.432338 0.075835 0.004250
O O10 0.250000 0.000000 0.372783
#
# Coordination Sequence:
#
# PCOD9408150 Si02
#       5
#     4   8   8   8   8
#     4  12  24  36  48  66  94 128 166 202 234 266
#     4  10  20  32  47  63  87 123 161 198 227 260
#     4   9  17  28  45  65  87 115 150 190 229 277
#     4  10  18  28  43  66  94 123 151 182 226 280
#     4   9  17  31  47  64  83 113 157 196 233 269
#
# _framework density 26.235455999999999
#
# number of rings (size 3 to 8) (size 9 to 14) (size 15 to 20)
#    0.000    2.222    0.000    4.000    0.000    8.889 
#    0.000    0.000    0.000    0.000    0.000    0.000 
#    0.000    0.000    0.000   56.000    0.000    0.000 
#
# Total GULP energy -200985.243227 kJ/mol
# GULP energy per Si atom -5582.923423 kJ/mol
# Density = 2.617574 g / cm^3
# Si number density = 26.235456 Si / 1000 Ang^3
#
#
#
# Elastic Constant Matrix: (Units=GPa)
#
#
# Indices 1 2 3 4 5 6 
#
# 1 149.8190 -9.8468 -22.1520 0.0000 0.0000 0.0000
# 2 -9.8468 102.7030 -2.1318 0.0000 0.0000 0.0000
# 3 -22.1520 -2.1318 70.9974 0.0000 0.0000 0.0000
# 4 0.0000 0.0000 0.0000 28.2989 0.0000 0.0000
# 5 0.0000 0.0000 0.0000 0.0000 17.2151 0.0000
# 6 0.0000 0.0000 0.0000 0.0000 0.0000 28.7911
#
#
#
# Elastic Compliance Matrix: (Units=1/GPa)
#
#
# Indices 1 2 3 4 5 6 
#
# 1 0.007051 0.000722 0.002222 0.000000 0.000000 0.000000
# 2 0.000722 0.009817 0.000520 0.000000 0.000000 0.000000
# 3 0.002222 0.000520 0.014794 0.000000 0.000000 0.000000
# 4 0.000000 0.000000 0.000000 0.035337 0.000000 0.000000
# 5 0.000000 0.000000 0.000000 0.000000 0.058088 0.000000
# 6 0.000000 0.000000 0.000000 0.000000 0.000000 0.034733
#
#
# Mechanical properties :
#
#
# Convention : Reuss Voigt Hill
#
# Bulk Modulus (GPa) = 25.91427 28.36203 27.13815
# Shear Modulus (GPa) = 30.16496 38.70435 34.43466
#
# Velocity S-wave (km/s) = 3.39452 3.84509 3.62681
# Velocity P-wave (km/s) = 5.02620 5.52693 5.28250
#
# Compressibility (1/GPa) = 0.03858877
#
# Stress axis : x y z
#
# Youngs Moduli (GPa) = 141.83079 101.86573 67.59589
#
# Poissons Ratio (x) = -0.07356 -0.15017
# Poissons Ratio (y) = -0.10242 -0.03515
# Poissons Ratio (z) = -0.31509 -0.05298
#
# Static dielectric constant tensor:
#      x y z
#    x 2.593960 0.000000 0.000000 
#    y 0.000000 1.761810 0.000000 
#    z 0.000000 0.000000 2.265550 
# 
# From -- ./inp_files/37502.got.cif
#   From: 2010.05.17/outbox.cif.g08.bks.cpg/sg52_19_cif.got.tgz:37502.got - 2010.06.03 12:15:38.
