data_PCOD9408770
_publ_section_title
;
Structure prediction by ZEFSAII (Michael W. Deem and Ramdas Pophale) SiO2 
 PCOD9408770
Probable space group: P N N A
;
_chemical_formula_sum "Si O2"
_cell_formula_units_Z 40
_cell_length_a 37.582598
_cell_length_b 7.557158
_cell_length_c 7.211419
_cell_angle_alpha 90.000000
_cell_angle_beta 90.000000
_cell_angle_gamma 90.000000
_cell_volume 2048.170142
_symmetry_space_group_name_H-M "P N N A"
_symmetry_group_IT_number 52
_symmetry_cell_setting 'orthorhombic'
loop_
_space_group_symop_operation_xyz
x,y,z
1/2-x,-y,z
x,1/2-y,1/2-z
1/2-x,1/2+y,1/2-z
-x,-y,-z
1/2+x,y,-z
-x,1/2+y,1/2+z
1/2+x,1/2-y,1/2+z
loop_
_atom_site_type_symbol
_atom_site_label
_atom_site_fract_x
_atom_site_fract_y
_atom_site_fract_z
Si Si1 0.824219 0.750000 0.974476
Si Si2 0.959166 0.055040 0.529115
Si Si3 0.292252 0.035262 0.750000
Si Si4 0.959166 0.055039 0.970885
Si Si5 0.092432 0.250000 0.024969
O O1 0.819468 0.750000 0.750000
O O2 0.866250 0.750000 0.020822
O O3 0.807816 0.574623 0.073039
O O4 0.807816 0.925377 0.073039
O O5 0.954586 0.061058 0.750000
O O6 0.953861 0.250000 0.454063
O O7 0.930238 0.917552 0.459367
O O8 0.000000 0.000000 0.500000
O O9 0.298860 0.250000 0.750000
O O10 0.250000 0.000000 0.750000
O O11 0.930238 0.917552 0.040633
O O12 0.000000 0.000000 0.000000
O O13 0.091213 0.250000 0.250000
#
# Coordination Sequence:
#
# PCOD9408770 Si02
#       5
#     8   8   8   8   8
#     4  10  23  43  70 101 133 179 223 263 337 402
#     4  10  19  32  52  77 109 152 202 254 307 364
#     4  11  23  46  69 101 144 169 211 282 331 397
#     4  10  19  32  52  77 109 152 202 254 307 364
#     4   9  19  37  57  80 119 154 200 269 312 373
#
# _framework density 19.529629
#
# number of rings (size 3 to 8) (size 9 to 14) (size 15 to 20)
#    0.000    2.000    4.000    0.000    0.000    3.200 
#    7.200    4.000    0.000    0.000    0.000    0.000 
#    0.000    0.000    0.000    0.000    0.000    0.000 
#
# Total GULP energy -223102.867105 kJ/mol
# GULP energy per Si atom -5577.571678 kJ/mol
# Density = 1.948518 g / cm^3
# Si number density = 19.529629 Si / 1000 Ang^3
#
#
#
# Elastic Constant Matrix: (Units=GPa)
#
#
# Indices 1 2 3 4 5 6 
#
# 1 193.7118 108.2677 39.3917 0.0000 0.0000 0.0000
# 2 108.2677 229.1881 54.1095 0.0000 0.0000 0.0000
# 3 39.3917 54.1095 144.4820 0.0000 0.0000 0.0000
# 4 0.0000 0.0000 0.0000 16.9393 0.0000 0.0000
# 5 0.0000 0.0000 0.0000 0.0000 29.3273 0.0000
# 6 0.0000 0.0000 0.0000 0.0000 0.0000 35.6702
#
#
#
# Elastic Compliance Matrix: (Units=1/GPa)
#
#
# Indices 1 2 3 4 5 6 
#
# 1 0.007086 -0.003172 -0.000744 0.000000 0.000000 0.000000
# 2 -0.003172 0.006206 -0.001459 0.000000 0.000000 0.000000
# 3 -0.000744 -0.001459 0.007671 0.000000 0.000000 0.000000
# 4 0.000000 0.000000 0.000000 0.059034 0.000000 0.000000
# 5 0.000000 0.000000 0.000000 0.000000 0.034098 0.000000
# 6 0.000000 0.000000 0.000000 0.000000 0.000000 0.028035
#
#
# Mechanical properties :
#
#
# Convention : Reuss Voigt Hill
#
# Bulk Modulus (GPa) = 97.92103 107.87997 102.90050
# Shear Modulus (GPa) = 31.99271 40.76156 36.37714
#
# Velocity S-wave (km/s) = 4.05181 4.57351 4.32054
# Velocity P-wave (km/s) = 8.49342 9.12405 8.81438
#
# Compressibility (1/GPa) = 0.01021231
#
# Stress axis : x y z
#
# Youngs Moduli (GPa) = 141.11418 161.12907 130.36550
#
# Poissons Ratio (x) = 0.51109 0.09701
# Poissons Ratio (y) = 0.44760 0.19026
# Poissons Ratio (z) = 0.10501 0.23516
#
# Static dielectric constant tensor:
#      x y z
#    x 1.642300 0.000000 0.000000 
#    y 0.000000 1.713370 0.000000 
#    z 0.000000 0.000000 1.749770 
# 
# From -- ./inp_files/14833.got.cif
#   From: 2010.05.17/outbox.cif.g08.bks.cpg/sg52_8_cif.got.tgz:14833.got - 2010.06.03 12:15:38.
