data_PCOD9408749
_publ_section_title
;
Structure prediction by ZEFSAII (Michael W. Deem and Ramdas Pophale) SiO2 
 PCOD9408749
Probable space group: P N N A
;
_chemical_formula_sum "Si O2"
_cell_formula_units_Z 40
_cell_length_a 8.629924
_cell_length_b 15.006958
_cell_length_c 11.256978
_cell_angle_alpha 90.000000
_cell_angle_beta 90.000000
_cell_angle_gamma 90.000000
_cell_volume 1457.878917
_symmetry_space_group_name_H-M "P N N A"
_symmetry_group_IT_number 52
_symmetry_cell_setting 'orthorhombic'
loop_
_space_group_symop_operation_xyz
x,y,z
1/2-x,-y,z
x,1/2-y,1/2-z
1/2-x,1/2+y,1/2-z
-x,-y,-z
1/2+x,y,-z
-x,1/2+y,1/2+z
1/2+x,1/2-y,1/2+z
loop_
_atom_site_type_symbol
_atom_site_label
_atom_site_fract_x
_atom_site_fract_y
_atom_site_fract_z
Si Si1 0.026437 0.236408 0.060965
Si Si2 0.353132 0.367776 0.749494
Si Si3 0.987320 0.938566 0.243302
Si Si4 0.191904 0.904365 0.012035
Si Si5 0.315122 0.305285 0.131509
O O1 0.162407 0.154159 0.054897
O O2 0.165253 0.313150 0.052568
O O3 0.923846 0.297747 0.159178
O O4 0.942095 0.245386 0.933623
O O5 0.168237 0.378284 0.748752
O O6 0.434186 0.462115 0.771934
O O7 0.387874 0.354500 0.603988
O O8 0.076106 0.933773 0.116574
O O9 0.111002 0.897634 0.332431
O O10 0.250000 0.000000 0.961964
O O11 0.268045 0.250000 0.250000
#
# Coordination Sequence:
#
# PCOD9408749 Si02
#       5
#     8   8   8   8   8
#     4  10  24  42  68 106 157 196 250 312 394 458
#     4   9  20  36  66 106 142 195 252 324 364 449
#     4  11  20  36  65 106 153 192 251 305 393 454
#     4  10  19  31  68 108 151 180 241 322 381 438
#     4  12  25  45  67 108 157 208 247 318 398 473
#
# _framework density 27.43712
#
# number of rings (size 3 to 8) (size 9 to 14) (size 15 to 20)
#    1.200    0.400    4.000    1.800    2.800    0.000 
#    3.600    0.000    0.000    4.800    0.000    0.000 
#    0.000    0.000    0.000    0.000    0.000    0.000 
#
# Total GULP energy -223781.511276 kJ/mol
# GULP energy per Si atom -5594.537782 kJ/mol
# Density = 2.737467 g / cm^3
# Si number density = 27.437120 Si / 1000 Ang^3
#
#
#
# Elastic Constant Matrix: (Units=GPa)
#
#
# Indices 1 2 3 4 5 6 
#
# 1 218.3480 77.2151 49.1648 0.0000 0.0000 0.0000
# 2 77.2151 182.0661 63.6762 0.0000 0.0000 0.0000
# 3 49.1648 63.6762 56.2054 0.0000 0.0000 0.0000
# 4 0.0000 0.0000 0.0000 62.1933 0.0000 0.0000
# 5 0.0000 0.0000 0.0000 0.0000 63.3338 0.0000
# 6 0.0000 0.0000 0.0000 0.0000 0.0000 53.8602
#
#
#
# Elastic Compliance Matrix: (Units=1/GPa)
#
#
# Indices 1 2 3 4 5 6 
#
# 1 0.005843 -0.001144 -0.003816 0.000000 0.000000 0.000000
# 2 -0.001144 0.009321 -0.009559 0.000000 0.000000 0.000000
# 3 -0.003816 -0.009559 0.031960 0.000000 0.000000 0.000000
# 4 0.000000 0.000000 0.000000 0.016079 0.000000 0.000000
# 5 0.000000 0.000000 0.000000 0.000000 0.015789 0.000000
# 6 0.000000 0.000000 0.000000 0.000000 0.000000 0.018567
#
#
# Mechanical properties :
#
#
# Convention : Reuss Voigt Hill
#
# Bulk Modulus (GPa) = 55.29033 92.97020 74.13026
# Shear Modulus (GPa) = 37.70018 53.64834 45.67426
#
# Velocity S-wave (km/s) = 3.71085 4.42670 4.08449
# Velocity P-wave (km/s) = 6.20934 7.75151 7.02289
#
# Compressibility (1/GPa) = 0.01808634
#
# Stress axis : x y z
#
# Youngs Moduli (GPa) = 171.13071 107.28596 31.28943
#
# Poissons Ratio (x) = 0.12270 0.11939
# Poissons Ratio (y) = 0.19573 0.29911
# Poissons Ratio (z) = 0.65299 1.02559
#
# Static dielectric constant tensor:
#      x y z
#    x 2.133720 0.000000 0.000000 
#    y 0.000000 2.353570 0.000000 
#    z 0.000000 0.000000 2.243060 
# 
# From -- ./inp_files/16654.got.cif
#   From: 2010.05.17/outbox.cif.g08.bks.cpg/sg52_9_cif.got.tgz:16654.got - 2010.06.03 12:15:38.
