data_PCOD9408380
_publ_section_title
;
Structure prediction by ZEFSAII (Michael W. Deem and Ramdas Pophale) SiO2 
 PCOD9408380
Probable space group: P N N A
;
_chemical_formula_sum "Si O2"
_cell_formula_units_Z 64
_cell_length_a 19.924616
_cell_length_b 5.790434
_cell_length_c 23.399231
_cell_angle_alpha 90.000000
_cell_angle_beta 90.000000
_cell_angle_gamma 90.000000
_cell_volume 2699.620149
_symmetry_space_group_name_H-M "P N N A"
_symmetry_group_IT_number 52
_symmetry_cell_setting 'orthorhombic'
loop_
_space_group_symop_operation_xyz
x,y,z
1/2-x,-y,z
x,1/2-y,1/2-z
1/2-x,1/2+y,1/2-z
-x,-y,-z
1/2+x,y,-z
-x,1/2+y,1/2+z
1/2+x,1/2-y,1/2+z
loop_
_atom_site_type_symbol
_atom_site_label
_atom_site_fract_x
_atom_site_fract_y
_atom_site_fract_z
Si Si1 0.949739 0.486546 0.613546
Si Si2 0.125344 0.360532 0.191717
Si Si3 0.156912 0.590187 0.082628
Si Si4 0.318891 0.297975 0.527030
Si Si5 0.225639 0.246461 0.866303
Si Si6 0.919706 0.707344 0.507549
Si Si7 0.590184 0.449041 0.099391
Si Si8 0.509155 0.358138 0.193973
O O1 0.910168 0.660766 0.654819
O O2 0.897352 0.287618 0.596027
O O3 0.970580 0.607330 0.554569
O O4 0.003432 0.358675 0.651647
O O5 0.153744 0.250000 0.250000
O O6 0.172923 0.486463 0.145116
O O7 0.063794 0.534141 0.207974
O O8 0.120920 0.393890 0.045171
O O9 0.204729 0.708799 0.035681
O O10 0.256025 0.276532 0.569571
O O11 0.364299 0.521803 0.513251
O O12 0.369736 0.140862 0.564258
O O13 0.250000 0.500000 0.843291
O O14 0.146240 0.277714 0.873571
O O15 0.250000 0.000000 0.839131
O O16 0.950372 0.826894 0.451896
O O17 0.548138 0.537059 0.153422
O O18 0.541166 0.250000 0.250000
#
# Coordination Sequence:
#
# PCOD9408380 Si02
#       8
#     8   8   8   8   8   8   8   8
#     4   9  18  33  51  72 105 147 181 235 275 338
#     4  10  18  33  52  73 105 156 202 234 282 334
#     4   8  17  29  51  79 107 141 180 234 284 351
#     4   9  17  33  53  78 111 140 176 236 303 368
#     4  10  19  35  58  84 112 150 184 233 305 371
#     4   9  16  32  52  77 104 137 179 223 293 351
#     4  10  21  33  52  80 107 145 187 240 296 361
#     4  11  22  36  50  73 107 148 205 242 285 333
#
# _framework density 23.707039000000002
#
# number of rings (size 3 to 8) (size 9 to 14) (size 15 to 20)
#    0.000    2.500    2.500    0.000    0.000    1.500 
#    0.000   21.250    0.000    2.250    0.000    0.000 
#    0.000    0.000  476.000    1.875    0.000    0.625 
#
# Total GULP energy -356624.681486 kJ/mol
# GULP energy per Si atom -5572.260648 kJ/mol
# Density = 2.365308 g / cm^3
# Si number density = 23.707039 Si / 1000 Ang^3
#
#
#
# Elastic Constant Matrix: (Units=GPa)
#
#
# Indices 1 2 3 4 5 6 
#
# 1 52.0655 7.8333 11.8458 0.0000 0.0000 0.0000
# 2 7.8333 97.5574 12.4221 0.0000 0.0000 0.0000
# 3 11.8458 12.4221 124.6651 0.0000 0.0000 0.0000
# 4 0.0000 0.0000 0.0000 26.1824 0.0000 0.0000
# 5 0.0000 0.0000 0.0000 0.0000 12.8423 0.0000
# 6 0.0000 0.0000 0.0000 0.0000 0.0000 22.5017
#
#
#
# Elastic Compliance Matrix: (Units=1/GPa)
#
#
# Indices 1 2 3 4 5 6 
#
# 1 0.019810 -0.001368 -0.001746 0.000000 0.000000 0.000000
# 2 -0.001368 0.010477 -0.000914 0.000000 0.000000 0.000000
# 3 -0.001746 -0.000914 0.008278 0.000000 0.000000 0.000000
# 4 0.000000 0.000000 0.000000 0.038194 0.000000 0.000000
# 5 0.000000 0.000000 0.000000 0.000000 0.077867 0.000000
# 6 0.000000 0.000000 0.000000 0.000000 0.000000 0.044441
#
#
# Mechanical properties :
#
#
# Convention : Reuss Voigt Hill
#
# Bulk Modulus (GPa) = 32.77789 37.61004 35.19396
# Shear Modulus (GPa) = 23.01045 28.45108 25.73076
#
# Velocity S-wave (km/s) = 3.11885 3.46802 3.29806
# Velocity P-wave (km/s) = 5.17937 5.65112 5.42038
#
# Compressibility (1/GPa) = 0.03050837
#
# Stress axis : x y z
#
# Youngs Moduli (GPa) = 50.48041 95.45073 120.79535
#
# Poissons Ratio (x) = 0.13060 0.21091
# Poissons Ratio (y) = 0.06907 0.11040
# Poissons Ratio (z) = 0.08814 0.08723
#
# Static dielectric constant tensor:
#      x y z
#    x 1.926100 0.000000 0.000000 
#    y 0.000000 2.099460 0.000000 
#    z 0.000000 0.000000 1.910920 
# 
# From -- ./inp_files/41164.got.cif
#   From: 2010.05.17/outbox.cif.g08.bks.cpg/sg52_21_cif.got.tgz:41164.got - 2010.06.03 12:15:38.
