data_PCOD9408874
_publ_section_title
;
Structure prediction by ZEFSAII (Michael W. Deem and Ramdas Pophale) SiO2 
 PCOD9408874
Probable space group: P N N A
;
_chemical_formula_sum "Si O2"
_cell_formula_units_Z 44
_cell_length_a 15.539036
_cell_length_b 14.506402
_cell_length_c 9.784526
_cell_angle_alpha 90.000000
_cell_angle_beta 90.000000
_cell_angle_gamma 90.000000
_cell_volume 2205.583849
_symmetry_space_group_name_H-M "P N N A"
_symmetry_group_IT_number 52
_symmetry_cell_setting 'orthorhombic'
loop_
_space_group_symop_operation_xyz
x,y,z
1/2-x,-y,z
x,1/2-y,1/2-z
1/2-x,1/2+y,1/2-z
-x,-y,-z
1/2+x,y,-z
-x,1/2+y,1/2+z
1/2+x,1/2-y,1/2+z
loop_
_atom_site_type_symbol
_atom_site_label
_atom_site_fract_x
_atom_site_fract_y
_atom_site_fract_z
Si Si1 0.649225 0.523163 0.958507
Si Si2 0.517982 0.750000 0.750000
Si Si3 0.614512 0.997734 0.134636
Si Si4 0.918566 0.052332 0.836880
Si Si5 0.174183 0.662471 0.832977
Si Si6 0.130691 0.358944 0.851286
O O1 0.750000 0.500000 0.976057
O O2 0.626051 0.520539 0.801538
O O3 0.631402 0.622151 0.029044
O O4 0.607183 0.442617 0.047734
O O5 0.567343 0.837081 0.815695
O O6 0.449338 0.708713 0.857799
O O7 0.661901 0.922801 0.228588
O O8 0.511000 0.000769 0.154949
O O9 0.638443 0.096331 0.199281
O O10 0.629558 0.974425 0.976529
O O11 0.140011 0.750000 0.750000
O O12 0.273986 0.680411 0.874010
#
# Coordination Sequence:
#
# PCOD9408874 Si02
#       6
#     8   4   8   8   8   8
#     4   9  20  36  58  81 108 145 187 223 281 325
#     4  10  20  32  56  80 110 140 178 228 276 314
#     4   9  20  35  54  78 109 149 180 214 274 332
#     4  10  21  37  54  81 114 146 181 222 278 330
#     4  10  19  33  57  85 107 137 189 231 263 321
#     4   9  18  37  56  79 107 147 180 224 272 326
#
# _framework density 19.949366999999999
#
# number of rings (size 3 to 8) (size 9 to 14) (size 15 to 20)
#    0.000    2.545    0.909    1.636    2.545    8.000 
#    0.000    0.000    0.000    0.000    0.000    0.000 
#    0.000    0.000    0.000    0.000    0.000    0.000 
#
# Total GULP energy -245002.225041 kJ/mol
# GULP energy per Si atom -5568.232387 kJ/mol
# Density = 1.990396 g / cm^3
# Si number density = 19.949367 Si / 1000 Ang^3
#
#
#
# Elastic Constant Matrix: (Units=GPa)
#
#
# Indices 1 2 3 4 5 6 
#
# 1 16.8191 -2.8158 0.6524 0.0000 0.0000 0.0000
# 2 -2.8158 77.2510 20.6472 0.0000 0.0000 0.0000
# 3 0.6524 20.6472 126.7397 0.0000 0.0000 0.0000
# 4 0.0000 0.0000 0.0000 11.0662 0.0000 0.0000
# 5 0.0000 0.0000 0.0000 0.0000 32.8413 0.0000
# 6 0.0000 0.0000 0.0000 0.0000 0.0000 21.1813
#
#
#
# Elastic Compliance Matrix: (Units=1/GPa)
#
#
# Indices 1 2 3 4 5 6 
#
# 1 0.059880 0.002368 -0.000694 0.000000 0.000000 0.000000
# 2 0.002368 0.013628 -0.002232 0.000000 0.000000 0.000000
# 3 -0.000694 -0.002232 0.008257 0.000000 0.000000 0.000000
# 4 0.000000 0.000000 0.000000 0.090365 0.000000 0.000000
# 5 0.000000 0.000000 0.000000 0.000000 0.030449 0.000000
# 6 0.000000 0.000000 0.000000 0.000000 0.000000 0.047212
#
#
# Mechanical properties :
#
#
# Convention : Reuss Voigt Hill
#
# Bulk Modulus (GPa) = 12.39949 28.64192 20.52071
# Shear Modulus (GPa) = 17.99917 26.50614 22.25266
#
# Velocity S-wave (km/s) = 3.00699 3.64905 3.34347
# Velocity P-wave (km/s) = 4.27610 5.66944 5.02133
#
# Compressibility (1/GPa) = 0.08064847
#
# Stress axis : x y z
#
# Youngs Moduli (GPa) = 16.70016 73.37960 121.10314
#
# Poissons Ratio (x) = -0.17377 0.08405
# Poissons Ratio (y) = -0.03955 0.27034
# Poissons Ratio (z) = 0.01159 0.16380
#
# Static dielectric constant tensor:
#      x y z
#    x 1.738890 0.000000 0.000000 
#    y 0.000000 1.753170 0.000000 
#    z 0.000000 0.000000 1.711010 
# 
# From -- ./inp_files/11943.got.cif
#   From: 2010.05.17/outbox.cif.g08.bks.cpg/sg52_6_cif.got.tgz:11943.got - 2010.06.03 12:15:38.
