data_PCOD9408222
_publ_section_title
;
Structure prediction by ZEFSAII (Michael W. Deem and Ramdas Pophale) SiO2 
 PCOD9408222
Probable space group: P N N A
;
_chemical_formula_sum "Si O2"
_cell_formula_units_Z 48
_cell_length_a 13.189482
_cell_length_b 13.621381
_cell_length_c 9.578564
_cell_angle_alpha 90.000000
_cell_angle_beta 90.000000
_cell_angle_gamma 90.000000
_cell_volume 1720.874842
_symmetry_space_group_name_H-M "P N N A"
_symmetry_group_IT_number 52
_symmetry_cell_setting 'orthorhombic'
loop_
_space_group_symop_operation_xyz
x,y,z
1/2-x,-y,z
x,1/2-y,1/2-z
1/2-x,1/2+y,1/2-z
-x,-y,-z
1/2+x,y,-z
-x,1/2+y,1/2+z
1/2+x,1/2-y,1/2+z
loop_
_atom_site_type_symbol
_atom_site_label
_atom_site_fract_x
_atom_site_fract_y
_atom_site_fract_z
Si Si1 0.662841 0.052988 0.926181
Si Si2 0.708550 0.270933 0.900154
Si Si3 0.561575 0.368354 0.233101
Si Si4 0.953798 0.384983 0.471267
Si Si5 0.016152 0.659027 0.933524
Si Si6 0.784276 0.144576 0.327355
O O1 0.697933 0.162480 0.967168
O O2 0.750000 0.000000 0.834433
O O3 0.638760 0.961519 0.031365
O O4 0.549871 0.081330 0.880147
O O5 0.757019 0.250000 0.750000
O O6 0.597411 0.318189 0.879603
O O7 0.763418 0.340535 0.007430
O O8 0.571436 0.250000 0.250000
O O9 0.497707 0.392895 0.370002
O O10 0.678909 0.403968 0.223752
O O11 0.503039 0.386599 0.087136
O O12 0.938944 0.270122 0.450884
O O13 0.099051 0.608047 0.833570
O O14 0.786213 0.250000 0.250000
#
# Coordination Sequence:
#
# PCOD9408222 Si02
#       6
#     8   8   8   8   8   8
#     4  10  19  31  50  77 108 143 181 223 272 322
#     4  10  21  35  51  78 110 136 174 223 266 315
#     4   8  16  30  47  73 106 136 167 212 265 315
#     4   9  18  32  50  77 112 141 175 227 274 316
#     4   9  17  30  51  77 104 136 175 216 266 316
#     4  10  18  30  51  76 104 137 176 219 260 310
#
# _framework density 27.892790000000002
#
# number of rings (size 3 to 8) (size 9 to 14) (size 15 to 20)
#    0.000    2.667    0.000    4.500    0.000    3.333 
#    0.000    1.667    0.000    4.000    0.000   40.833 
#    0.000    0.000    0.000    0.000    0.000    0.000 
#
# Total GULP energy -267771.649887 kJ/mol
# GULP energy per Si atom -5578.576039 kJ/mol
# Density = 2.782930 g / cm^3
# Si number density = 27.892790 Si / 1000 Ang^3
#
#
#
# Elastic Constant Matrix: (Units=GPa)
#
#
# Indices 1 2 3 4 5 6 
#
# 1 128.3552 39.3825 39.2193 0.0000 0.0000 0.0000
# 2 39.3825 66.9223 16.7391 0.0000 0.0000 0.0000
# 3 39.2193 16.7391 123.3763 0.0000 0.0000 0.0000
# 4 0.0000 0.0000 0.0000 18.6388 0.0000 0.0000
# 5 0.0000 0.0000 0.0000 0.0000 33.6727 0.0000
# 6 0.0000 0.0000 0.0000 0.0000 0.0000 31.0198
#
#
#
# Elastic Compliance Matrix: (Units=1/GPa)
#
#
# Indices 1 2 3 4 5 6 
#
# 1 0.010210 -0.005379 -0.002516 0.000000 0.000000 0.000000
# 2 -0.005379 0.018302 -0.000773 0.000000 0.000000 0.000000
# 3 -0.002516 -0.000773 0.009010 0.000000 0.000000 0.000000
# 4 0.000000 0.000000 0.000000 0.053651 0.000000 0.000000
# 5 0.000000 0.000000 0.000000 0.000000 0.029698 0.000000
# 6 0.000000 0.000000 0.000000 0.000000 0.000000 0.032237
#
#
# Mechanical properties :
#
#
# Convention : Reuss Voigt Hill
#
# Bulk Modulus (GPa) = 49.54071 56.59286 53.06678
# Shear Modulus (GPa) = 28.22104 31.55379 29.88741
#
# Velocity S-wave (km/s) = 3.18428 3.36706 3.27694
# Velocity P-wave (km/s) = 5.59636 5.95395 5.77792
#
# Compressibility (1/GPa) = 0.02018542
#
# Stress axis : x y z
#
# Youngs Moduli (GPa) = 97.94282 54.63998 110.98891
#
# Poissons Ratio (x) = 0.29392 0.27922
# Poissons Ratio (y) = 0.52685 0.08581
# Poissons Ratio (z) = 0.24640 0.04224
#
# Static dielectric constant tensor:
#      x y z
#    x 2.230630 0.000000 0.000000 
#    y 0.000000 2.175250 0.000000 
#    z 0.000000 0.000000 2.309240 
# 
# From -- ./inp_files/19707.got.cif
#   From: 2010.05.17/outbox.cif.g08.bks.cpg/sg52_10_cif.got.tgz:19707.got - 2010.06.03 12:15:38.
