data_PCOD9408436
_publ_section_title
;
Structure prediction by ZEFSAII (Michael W. Deem and Ramdas Pophale) SiO2 
 PCOD9408436
Probable space group: P N N A
;
_chemical_formula_sum "Si O2"
_cell_formula_units_Z 44
_cell_length_a 17.199971
_cell_length_b 5.147194
_cell_length_c 21.608382
_cell_angle_alpha 90.000000
_cell_angle_beta 90.000000
_cell_angle_gamma 90.000000
_cell_volume 1913.024362
_symmetry_space_group_name_H-M "P N N A"
_symmetry_group_IT_number 52
_symmetry_cell_setting 'orthorhombic'
loop_
_space_group_symop_operation_xyz
x,y,z
1/2-x,-y,z
x,1/2-y,1/2-z
1/2-x,1/2+y,1/2-z
-x,-y,-z
1/2+x,y,-z
-x,1/2+y,1/2+z
1/2+x,1/2-y,1/2+z
loop_
_atom_site_type_symbol
_atom_site_label
_atom_site_fract_x
_atom_site_fract_y
_atom_site_fract_z
Si Si1 0.406319 0.724638 0.015342
Si Si2 0.293693 0.252406 0.621502
Si Si3 0.919966 0.497462 0.793843
Si Si4 0.956408 0.449256 0.101785
Si Si5 0.750000 0.000000 0.706130
Si Si6 0.810111 0.211257 0.975911
O O1 0.484622 0.683858 0.053677
O O2 0.341884 0.504766 0.037257
O O3 0.383958 0.022114 0.024849
O O4 0.417181 0.667129 0.942191
O O5 0.250000 0.500000 0.647989
O O6 0.386186 0.223992 0.628068
O O7 0.282491 0.262211 0.546815
O O8 0.250000 0.000000 0.645534
O O9 0.919630 0.250000 0.750000
O O10 0.834069 0.506799 0.825936
O O11 0.988226 0.467220 0.842801
O O12 0.928572 0.750000 0.750000
O O13 0.749944 0.750000 0.750000
O O14 0.750000 0.000000 0.943978
#
# Coordination Sequence:
#
# PCOD9408436 Si02
#       6
#     8   8   8   8   4   8
#     4  10  22  34  57  86 121 159 186 254 304 352
#     4  10  20  34  57  83 111 157 195 235 296 363
#     4  10  22  39  64  88 117 159 203 247 292 355
#     4  10  22  39  60  89 120 153 204 246 307 359
#     4   8  16  36  58  82 112 152 194 236 292 338
#     4  10  18  34  52  80 120 158 198 228 288 367
#
# _framework density 23.000229999999998
#
# number of rings (size 3 to 8) (size 9 to 14) (size 15 to 20)
#    0.000    2.182    0.000    4.909    0.000   13.818 
#    3.273    0.000    6.000    2.182    0.000    0.000 
#    0.000    0.000    0.000    0.000    0.000    0.000 
#
# Total GULP energy -245355.009046 kJ/mol
# GULP energy per Si atom -5576.250206 kJ/mol
# Density = 2.294788 g / cm^3
# Si number density = 23.000230 Si / 1000 Ang^3
#
#
#
# Elastic Constant Matrix: (Units=GPa)
#
#
# Indices 1 2 3 4 5 6 
#
# 1 141.5176 21.0397 37.3451 0.0000 0.0000 0.0000
# 2 21.0397 136.4055 16.5883 0.0000 0.0000 0.0000
# 3 37.3451 16.5883 71.8077 0.0000 0.0000 0.0000
# 4 0.0000 0.0000 0.0000 -3.1386 0.0000 0.0000
# 5 0.0000 0.0000 0.0000 0.0000 1.3060 0.0000
# 6 0.0000 0.0000 0.0000 0.0000 0.0000 36.5915
#
#
#
# Elastic Compliance Matrix: (Units=1/GPa)
#
#
# Indices 1 2 3 4 5 6 
#
# 1 0.008269 -0.000774 -0.004122 0.000000 0.000000 0.000000
# 2 -0.000774 0.007615 -0.001357 0.000000 0.000000 0.000000
# 3 -0.004122 -0.001357 0.016383 0.000000 0.000000 0.000000
# 4 0.000000 0.000000 0.000000 -0.318608 0.000000 0.000000
# 5 0.000000 0.000000 0.000000 0.000000 0.765723 0.000000
# 6 0.000000 0.000000 0.000000 0.000000 0.000000 0.027329
#
#
# Mechanical properties :
#
#
# Convention : Reuss Voigt Hill
#
# Bulk Modulus (GPa) = 50.60061 55.51969 53.06015
# Shear Modulus (GPa) = 9.50926 25.26895 17.38910
#
# Velocity S-wave (km/s) = 2.03553 3.31817 2.75260
# Velocity P-wave (km/s) = 5.25094 6.23470 5.76384
#
# Compressibility (1/GPa) = 0.01976261
#
# Stress axis : x y z
#
# Youngs Moduli (GPa) = 120.93333 131.31157 61.03887
#
# Poissons Ratio (x) = 0.10166 0.25158
# Poissons Ratio (y) = 0.09363 0.08281
# Poissons Ratio (z) = 0.49844 0.17814
#
# Static dielectric constant tensor:
#      x y z
#    x 1.984420 0.000000 0.000000 
#    y 0.000000 1.875400 0.000000 
#    z 0.000000 0.000000 1.838680 
# 
# From -- ./inp_files/40771.got.cif
#   From: 2010.05.17/outbox.cif.g08.bks.cpg/sg52_21_cif.got.tgz:40771.got - 2010.06.03 12:15:38.
