data_PCOD9408838
_publ_section_title
;
Structure prediction by ZEFSAII (Michael W. Deem and Ramdas Pophale) SiO2 
 PCOD9408838
Probable space group: P N N A
;
_chemical_formula_sum "Si O2"
_cell_formula_units_Z 60
_cell_length_a 16.492138
_cell_length_b 5.320378
_cell_length_c 33.190315
_cell_angle_alpha 90.000000
_cell_angle_beta 90.000000
_cell_angle_gamma 90.000000
_cell_volume 2912.264547
_symmetry_space_group_name_H-M "P N N A"
_symmetry_group_IT_number 52
_symmetry_cell_setting 'orthorhombic'
loop_
_space_group_symop_operation_xyz
x,y,z
1/2-x,-y,z
x,1/2-y,1/2-z
1/2-x,1/2+y,1/2-z
-x,-y,-z
1/2+x,y,-z
-x,1/2+y,1/2+z
1/2+x,1/2-y,1/2+z
loop_
_atom_site_type_symbol
_atom_site_label
_atom_site_fract_x
_atom_site_fract_y
_atom_site_fract_z
Si Si1 0.874977 0.676288 0.113450
Si Si2 0.906403 0.256629 0.525234
Si Si3 0.895103 0.746169 0.021864
Si Si4 0.432028 0.654309 0.341512
Si Si5 0.072445 0.652920 0.114520
Si Si6 0.625877 0.676583 0.338501
Si Si7 0.787010 0.749832 0.796837
Si Si8 0.302079 0.250000 0.750000
O O1 0.856607 0.727347 0.066439
O O2 0.847875 0.413215 0.133574
O O3 0.973780 0.661384 0.112572
O O4 0.848985 0.912031 0.141123
O O5 0.873809 0.504069 0.503041
O O6 0.888850 0.232781 0.572362
O O7 0.005736 0.259676 0.524357
O O8 0.877721 0.008867 0.502025
O O9 0.409260 0.371992 0.353701
O O10 0.528079 0.671785 0.337971
O O11 0.382996 0.734621 0.302161
O O12 0.406707 0.867865 0.373784
O O13 0.651809 0.707778 0.292262
O O14 0.750000 0.500000 0.815451
O O15 0.764436 0.750000 0.750000
O O16 0.750000 0.000000 0.815470
O O17 0.250000 0.500000 0.756136
#
# Coordination Sequence:
#
# PCOD9408838 Si02
#       8
#     8   8   8   8   8   8   8   4
#     4   9  17  31  48  75 106 136 177 214 264 313
#     4   9  15  23  37  64 102 142 173 201 260 309
#     4   9  15  23  40  64 100 142 169 205 254 320
#     4  10  19  33  54  76 106 144 182 218 260 319
#     4   9  17  28  44  72 107 142 178 221 256 304
#     4  10  21  36  57  79 106 141 173 220 266 322
#     4  10  21  36  53  76 106 137 174 225 264 298
#     4  12  26  44  62  84 112 138 174 224 276 338
#
# _framework density 20.602522
#
# number of rings (size 3 to 8) (size 9 to 14) (size 15 to 20)
#    0.000    2.400    0.000    3.200    0.933    6.400 
#    0.000    0.000    0.000    0.000    0.000    0.000 
#    0.000   74.667    0.000    0.000    0.000    0.000 
#
# Total GULP energy -334527.953374 kJ/mol
# GULP energy per Si atom -5575.465890 kJ/mol
# Density = 2.055563 g / cm^3
# Si number density = 20.602522 Si / 1000 Ang^3
#
#
#
# Elastic Constant Matrix: (Units=GPa)
#
#
# Indices 1 2 3 4 5 6 
#
# 1 13.4705 1.7357 -2.4034 0.0000 0.0000 0.0000
# 2 1.7357 136.0549 23.3228 0.0000 0.0000 0.0000
# 3 -2.4034 23.3228 79.1148 0.0000 0.0000 0.0000
# 4 0.0000 0.0000 0.0000 24.7376 0.0000 0.0000
# 5 0.0000 0.0000 0.0000 0.0000 -19.6585 0.0000
# 6 0.0000 0.0000 0.0000 0.0000 0.0000 10.7953
#
#
#
# Elastic Compliance Matrix: (Units=1/GPa)
#
#
# Indices 1 2 3 4 5 6 
#
# 1 0.074899 -0.001417 0.002693 0.000000 0.000000 0.000000
# 2 -0.001417 0.007768 -0.002333 0.000000 0.000000 0.000000
# 3 0.002693 -0.002333 0.013409 0.000000 0.000000 0.000000
# 4 0.000000 0.000000 0.000000 0.040424 0.000000 0.000000
# 5 0.000000 0.000000 0.000000 0.000000 -0.050869 0.000000
# 6 0.000000 0.000000 0.000000 0.000000 0.000000 0.092633
#
#
# Mechanical properties :
#
#
# Convention : Reuss Voigt Hill
#
# Bulk Modulus (GPa) = 10.64253 30.43892 20.54073
# Shear Modulus (GPa) = 23.61826 16.90721 20.26274
#
# Velocity S-wave (km/s) = 3.38949 2.86779 3.13949
# Velocity P-wave (km/s) = 4.52715 5.07662 4.80974
#
# Compressibility (1/GPa) = 0.09396259
#
# Stress axis : x y z
#
# Youngs Moduli (GPa) = 13.35126 128.73346 74.57431
#
# Poissons Ratio (x) = 0.18244 -0.20084
# Poissons Ratio (y) = 0.01892 0.17398
# Poissons Ratio (z) = -0.03596 0.30034
#
# Static dielectric constant tensor:
#      x y z
#    x 1.752790 0.000000 0.000000 
#    y 0.000000 1.722960 0.000000 
#    z 0.000000 0.000000 1.936290 
# 
# From -- ./inp_files/45139.got.cif
#   From: 2010.05.17/outbox.cif.g08.bks.cpg/sg52_23_cif.got.tgz:45139.got - 2010.06.03 12:15:38.
