data_PCOD9408215
_publ_section_title
;
Structure prediction by ZEFSAII (Michael W. Deem and Ramdas Pophale) SiO2 
 PCOD9408215
Probable space group: P N N A
;
_chemical_formula_sum "Si O2"
_cell_formula_units_Z 52
_cell_length_a 8.617247
_cell_length_b 22.195190
_cell_length_c 16.772766
_cell_angle_alpha 90.000000
_cell_angle_beta 90.000000
_cell_angle_gamma 90.000000
_cell_volume 3207.983285
_symmetry_space_group_name_H-M "P N N A"
_symmetry_group_IT_number 52
_symmetry_cell_setting 'orthorhombic'
loop_
_space_group_symop_operation_xyz
x,y,z
1/2-x,-y,z
x,1/2-y,1/2-z
1/2-x,1/2+y,1/2-z
-x,-y,-z
1/2+x,y,-z
-x,1/2+y,1/2+z
1/2+x,1/2-y,1/2+z
loop_
_atom_site_type_symbol
_atom_site_label
_atom_site_fract_x
_atom_site_fract_y
_atom_site_fract_z
Si Si1 0.184011 0.933286 0.079324
Si Si2 0.810717 0.566227 0.401465
Si Si3 0.941919 0.252390 0.494151
Si Si4 0.188584 0.188730 0.106215
Si Si5 0.246282 0.669542 0.721869
Si Si6 0.683454 0.286516 0.118836
Si Si7 0.046976 0.250000 0.250000
O O1 0.265522 0.879161 0.128335
O O2 0.997958 0.932414 0.089185
O O3 0.250000 0.000000 0.097803
O O4 0.234144 0.920103 0.987623
O O5 0.750000 0.500000 0.380854
O O6 0.756627 0.611670 0.332945
O O7 0.824491 0.285482 0.552041
O O8 0.846782 0.214600 0.428606
O O9 0.036253 0.304306 0.448144
O O10 0.055165 0.213760 0.550162
O O11 0.157330 0.235981 0.176356
O O12 0.327790 0.666603 0.808498
O O13 0.319069 0.722531 0.666378
O O14 0.073777 0.693817 0.744523
#
# Coordination Sequence:
#
# PCOD9408215 Si02
#       7
#     8   8   8   8   8   8   4
#     4  11  23  34  52  80 109 147 193 221 252 313
#     4  11  23  36  55  76 109 152 186 221 259 318
#     4  10  18  30  50  73  98 135 172 214 264 324
#     4  11  20  33  49  74 104 141 174 215 268 307
#     4  10  19  34  48  74 105 138 176 216 269 319
#     4   9  18  31  50  71 104 130 172 213 268 318
#     4  10  22  32  52  74 104 146 170 226 268 324
#
# _framework density 16.209561000000001
#
# number of rings (size 3 to 8) (size 9 to 14) (size 15 to 20)
#    0.000    1.846    3.077    5.538    4.308    2.462 
#    0.000    0.000    0.000    0.000    0.000    1.077 
#    0.000    0.000    0.000    0.000    0.000    0.000 
#
# Total GULP energy -289707.748663 kJ/mol
# GULP energy per Si atom -5571.302859 kJ/mol
# Density = 1.617267 g / cm^3
# Si number density = 16.209561 Si / 1000 Ang^3
#
#
#
# Elastic Constant Matrix: (Units=GPa)
#
#
# Indices 1 2 3 4 5 6 
#
# 1 94.7467 34.5297 44.2529 0.0000 0.0000 0.0000
# 2 34.5297 66.0094 36.0249 0.0000 0.0000 0.0000
# 3 44.2529 36.0249 88.8880 0.0000 0.0000 0.0000
# 4 0.0000 0.0000 0.0000 25.8646 0.0000 0.0000
# 5 0.0000 0.0000 0.0000 0.0000 5.8424 0.0000
# 6 0.0000 0.0000 0.0000 0.0000 0.0000 15.5004
#
#
#
# Elastic Compliance Matrix: (Units=1/GPa)
#
#
# Indices 1 2 3 4 5 6 
#
# 1 0.014846 -0.004792 -0.005449 0.000000 0.000000 0.000000
# 2 -0.004792 0.020999 -0.006125 0.000000 0.000000 0.000000
# 3 -0.005449 -0.006125 0.016445 0.000000 0.000000 0.000000
# 4 0.000000 0.000000 0.000000 0.038663 0.000000 0.000000
# 5 0.000000 0.000000 0.000000 0.000000 0.171163 0.000000
# 6 0.000000 0.000000 0.000000 0.000000 0.000000 0.064515
#
#
# Mechanical properties :
#
#
# Convention : Reuss Voigt Hill
#
# Bulk Modulus (GPa) = 51.12923 53.25102 52.19012
# Shear Modulus (GPa) = 13.66565 18.43058 16.04811
#
# Velocity S-wave (km/s) = 2.90670 3.37563 3.14990
# Velocity P-wave (km/s) = 6.54800 6.93658 6.74509
#
# Compressibility (1/GPa) = 0.01955828
#
# Stress axis : x y z
#
# Youngs Moduli (GPa) = 67.35866 47.62191 60.80863
#
# Poissons Ratio (x) = 0.22821 0.33133
# Poissons Ratio (y) = 0.32280 0.37243
# Poissons Ratio (z) = 0.36702 0.29167
#
# Static dielectric constant tensor:
#      x y z
#    x 1.610690 0.000000 0.000000 
#    y 0.000000 1.560500 0.000000 
#    z 0.000000 0.000000 1.590370 
# 
# From -- ./inp_files/25060.got.cif
#   From: 2010.05.17/outbox.cif.g08.bks.cpg/sg52_13_cif.got.tgz:25060.got - 2010.06.03 12:15:38.
