data_PCOD9408689
_publ_section_title
;
Structure prediction by ZEFSAII (Michael W. Deem and Ramdas Pophale) SiO2 
 PCOD9408689
Probable space group: P N N A
;
_chemical_formula_sum "Si O2"
_cell_formula_units_Z 48
_cell_length_a 21.182299
_cell_length_b 5.112760
_cell_length_c 31.914182
_cell_angle_alpha 90.000000
_cell_angle_beta 90.000000
_cell_angle_gamma 90.000000
_cell_volume 3456.306263
_symmetry_space_group_name_H-M "P N N A"
_symmetry_group_IT_number 52
_symmetry_cell_setting 'orthorhombic'
loop_
_space_group_symop_operation_xyz
x,y,z
1/2-x,-y,z
x,1/2-y,1/2-z
1/2-x,1/2+y,1/2-z
-x,-y,-z
1/2+x,y,-z
-x,1/2+y,1/2+z
1/2+x,1/2-y,1/2+z
loop_
_atom_site_type_symbol
_atom_site_label
_atom_site_fract_x
_atom_site_fract_y
_atom_site_fract_z
Si Si1 0.823627 0.470833 0.515634
Si Si2 0.326803 0.000329 0.723769
Si Si3 0.482563 0.792578 0.962515
Si Si4 0.325480 0.962015 0.627040
Si Si5 0.371009 0.037012 0.920525
Si Si6 0.400520 0.967155 0.471053
O O1 0.750000 0.500000 0.524114
O O2 0.837314 0.495881 0.465776
O O3 0.867569 0.689316 0.538557
O O4 0.846445 0.181653 0.526583
O O5 0.347681 0.250000 0.750000
O O6 0.250000 0.000000 0.723247
O O7 0.347536 0.750000 0.750000
O O8 0.345632 0.998108 0.675289
O O9 0.541942 0.618647 0.947826
O O10 0.443833 0.958344 0.928793
O O11 0.433877 0.589277 0.984066
O O12 0.500000 0.000000 0.000000
O O13 0.341816 0.674145 0.610976
O O14 0.250000 0.000000 0.624157
O O15 0.358791 0.177466 0.597912
#
# Coordination Sequence:
#
# PCOD9408689 Si02
#       6
#     8   8   8   8   8   8
#     4  11  20  30  42  59  81 103 128 165 221 264
#     4   9  17  30  46  58  74 103 132 157 193 254
#     4  10  19  32  45  56  75 105 145 168 197 255
#     4  11  21  31  42  63  85 101 128 168 220 268
#     4  11  21  29  42  59  81 104 127 170 216 254
#     4  10  19  30  44  57  71 101 138 168 194 253
#
# _framework density 13.887658999999999
#
# number of rings (size 3 to 8) (size 9 to 14) (size 15 to 20)
#    0.000    1.667    3.333    5.000    2.333    2.667 
#    0.000    0.000    0.000    0.000    0.000    0.000 
#    0.000    0.000    0.000    0.000    0.000    0.000 
#
# Total GULP energy -267417.296190 kJ/mol
# GULP energy per Si atom -5571.193671 kJ/mol
# Density = 1.385605 g / cm^3
# Si number density = 13.887659 Si / 1000 Ang^3
#
#
#
# Elastic Constant Matrix: (Units=GPa)
#
#
# Indices 1 2 3 4 5 6 
#
# 1 48.6341 4.3653 2.1720 0.0000 0.0000 0.0000
# 2 4.3653 70.7022 1.0524 0.0000 0.0000 0.0000
# 3 2.1720 1.0524 30.0438 0.0000 0.0000 0.0000
# 4 0.0000 0.0000 0.0000 5.5332 0.0000 0.0000
# 5 0.0000 0.0000 0.0000 0.0000 5.9058 0.0000
# 6 0.0000 0.0000 0.0000 0.0000 0.0000 23.5626
#
#
#
# Elastic Compliance Matrix: (Units=1/GPa)
#
#
# Indices 1 2 3 4 5 6 
#
# 1 0.020740 -0.001259 -0.001455 0.000000 0.000000 0.000000
# 2 -0.001259 0.014228 -0.000407 0.000000 0.000000 0.000000
# 3 -0.001455 -0.000407 0.033404 0.000000 0.000000 0.000000
# 4 0.000000 0.000000 0.000000 0.180729 0.000000 0.000000
# 5 0.000000 0.000000 0.000000 0.000000 0.169325 0.000000
# 6 0.000000 0.000000 0.000000 0.000000 0.000000 0.042440
#
#
# Mechanical properties :
#
#
# Convention : Reuss Voigt Hill
#
# Bulk Modulus (GPa) = 16.09567 18.28440 17.19003
# Shear Modulus (GPa) = 10.24974 16.45302 13.35138
#
# Velocity S-wave (km/s) = 2.71965 3.44571 3.10398
# Velocity P-wave (km/s) = 4.63433 5.38749 5.02504
#
# Compressibility (1/GPa) = 0.06212852
#
# Stress axis : x y z
#
# Youngs Moduli (GPa) = 48.21674 70.28583 29.93632
#
# Poissons Ratio (x) = 0.08848 0.04357
# Poissons Ratio (y) = 0.06070 0.01219
# Poissons Ratio (z) = 0.07017 0.02863
#
# Static dielectric constant tensor:
#      x y z
#    x 1.486830 0.000000 0.000000 
#    y 0.000000 1.490130 0.000000 
#    z 0.000000 0.000000 1.430140 
# 
# From -- ./inp_files/43255.got.cif
#   From: 2010.05.17/outbox.cif.g08.bks.cpg/sg52_22_cif.got.tgz:43255.got - 2010.06.03 12:15:38.
