data_PCOD9408857
_publ_section_title
;
Structure prediction by ZEFSAII (Michael W. Deem and Ramdas Pophale) SiO2 
 PCOD9408857
Probable space group: P N N A
;
_chemical_formula_sum "Si O2"
_cell_formula_units_Z 64
_cell_length_a 18.914843
_cell_length_b 21.733948
_cell_length_c 8.491023
_cell_angle_alpha 90.000000
_cell_angle_beta 90.000000
_cell_angle_gamma 90.000000
_cell_volume 3490.610428
_symmetry_space_group_name_H-M "P N N A"
_symmetry_group_IT_number 52
_symmetry_cell_setting 'orthorhombic'
loop_
_space_group_symop_operation_xyz
x,y,z
1/2-x,-y,z
x,1/2-y,1/2-z
1/2-x,1/2+y,1/2-z
-x,-y,-z
1/2+x,y,-z
-x,1/2+y,1/2+z
1/2+x,1/2-y,1/2+z
loop_
_atom_site_type_symbol
_atom_site_label
_atom_site_fract_x
_atom_site_fract_y
_atom_site_fract_z
Si Si1 0.579354 0.999138 0.937888
Si Si2 0.820486 0.250000 0.438939
Si Si3 0.168410 0.614504 0.562248
Si Si4 0.337224 0.750000 0.064479
Si Si5 0.329327 0.883945 0.058301
Si Si6 0.668410 0.614504 0.062248
Si Si7 0.579354 0.999138 0.562112
Si Si8 0.670673 0.116055 0.558301
O O1 0.623218 0.058925 0.993996
O O2 0.577769 0.001970 0.750000
O O3 0.500000 0.000000 0.000000
O O4 0.620042 0.937704 0.988728
O O5 0.804435 0.250000 0.250000
O O6 0.856316 0.315362 0.473951
O O7 0.747137 0.250000 0.534050
O O8 0.856316 0.184638 0.473951
O O9 0.249151 0.608883 0.502244
O O10 0.168143 0.607219 0.750000
O O11 0.352869 0.750000 0.250000
O O12 0.359301 0.817308 0.003204
O O13 0.359301 0.682692 0.003204
O O14 0.326751 0.883224 0.250000
O O15 0.620042 0.562296 0.988728
O O16 0.749151 0.608883 0.002244
O O17 0.500000 0.000000 0.500000
O O18 0.623218 0.058925 0.506004
#
# Coordination Sequence:
#
# PCOD9408857 Si02
#       8
#     8   8   8   8   8   8   8   8
#     4  11  23  37  51  71 103 139 175 214 256 302
#     4   8  16  30  49  76 105 129 159 203 251 298
#     4  10  19  33  55  80 104 132 167 207 252 303
#     4   8  14  28  51  76  99 125 161 203 249 300
#     4   9  18  33  54  78 102 130 165 207 253 302
#     4  10  19  33  55  80 104 132 167 207 252 303
#     4  11  23  37  51  71 103 139 175 214 256 302
#     4   9  18  33  54  78 102 130 165 207 253 302
#
# _framework density 18.334900999999999
#
# number of rings (size 3 to 8) (size 9 to 14) (size 15 to 20)
#    0.000    2.500    0.000    2.250    0.000    6.000 
#    0.000    1.250    0.000    4.500    0.000    0.000 
#    0.000    0.000    0.000    0.000    0.000    0.000 
#
# Total GULP energy -356645.262449 kJ/mol
# GULP energy per Si atom -5572.582226 kJ/mol
# Density = 1.829317 g / cm^3
# Si number density = 18.334901 Si / 1000 Ang^3
#
#
#
# Elastic Constant Matrix: (Units=GPa)
#
#
# Indices 1 2 3 4 5 6 
#
# 1 86.5586 91.0465 18.1884 0.0000 0.0000 0.0000
# 2 91.0465 210.9780 34.8288 0.0000 0.0000 0.0000
# 3 18.1884 34.8288 23.0132 0.0000 0.0000 0.0000
# 4 0.0000 0.0000 0.0000 25.4039 0.0000 0.0000
# 5 0.0000 0.0000 0.0000 0.0000 25.6964 0.0000
# 6 0.0000 0.0000 0.0000 0.0000 0.0000 -5.1735
#
#
#
# Elastic Compliance Matrix: (Units=1/GPa)
#
#
# Indices 1 2 3 4 5 6 
#
# 1 0.021418 -0.008596 -0.003918 0.000000 0.000000 0.000000
# 2 -0.008596 0.009768 -0.007990 0.000000 0.000000 0.000000
# 3 -0.003918 -0.007990 0.058642 0.000000 0.000000 0.000000
# 4 0.000000 0.000000 0.000000 0.039364 0.000000 0.000000
# 5 0.000000 0.000000 0.000000 0.000000 0.038916 0.000000
# 6 0.000000 0.000000 0.000000 0.000000 0.000000 -0.193291
#
#
# Mechanical properties :
#
#
# Convention : Reuss Voigt Hill
#
# Bulk Modulus (GPa) = 20.48332 67.63080 44.05706
# Shear Modulus (GPa) = 155.77080 20.95111 88.36095
#
# Velocity S-wave (km/s) = 9.22730 3.38404 6.94963
# Velocity P-wave (km/s) = 11.16782 7.22741 9.40626
#
# Compressibility (1/GPa) = 0.04882022
#
# Stress axis : x y z
#
# Youngs Moduli (GPa) = 46.69015 102.37140 17.05258
#
# Poissons Ratio (x) = 0.87998 0.06682
# Poissons Ratio (y) = 0.40134 0.13625
# Poissons Ratio (z) = 0.18294 0.81794
#
# Static dielectric constant tensor:
#      x y z
#    x 1.569340 0.000000 0.000000 
#    y 0.000000 1.695560 0.000000 
#    z 0.000000 0.000000 1.630780 
# 
# From -- ./inp_files/12590.got.cif
#   From: 2010.05.17/outbox.cif.g08.bks.cpg/sg52_7_cif.got.tgz:12590.got - 2010.06.03 12:15:38.
