data_PCOD9408094
_publ_section_title
;
Structure prediction by ZEFSAII (Michael W. Deem and Ramdas Pophale) SiO2 
 PCOD9408094
Probable space group: P N N A
;
_chemical_formula_sum "Si O2"
_cell_formula_units_Z 52
_cell_length_a 14.904091
_cell_length_b 18.718899
_cell_length_c 9.905153
_cell_angle_alpha 90.000000
_cell_angle_beta 90.000000
_cell_angle_gamma 90.000000
_cell_volume 2763.420550
_symmetry_space_group_name_H-M "P N N A"
_symmetry_group_IT_number 52
_symmetry_cell_setting 'orthorhombic'
loop_
_space_group_symop_operation_xyz
x,y,z
1/2-x,-y,z
x,1/2-y,1/2-z
1/2-x,1/2+y,1/2-z
-x,-y,-z
1/2+x,y,-z
-x,1/2+y,1/2+z
1/2+x,1/2-y,1/2+z
loop_
_atom_site_type_symbol
_atom_site_label
_atom_site_fract_x
_atom_site_fract_y
_atom_site_fract_z
Si Si1 0.892530 0.833059 0.787604
Si Si2 0.998491 0.607154 0.941418
Si Si3 0.021281 0.830019 0.266655
Si Si4 0.065515 0.066648 0.952261
Si Si5 0.750000 0.000000 0.012698
Si Si6 0.348918 0.488868 0.008641
Si Si7 0.699552 0.601586 0.726839
O O1 0.876473 0.750000 0.750000
O O2 0.975003 0.850921 0.691129
O O3 0.799002 0.870480 0.745949
O O4 0.917722 0.872666 0.930066
O O5 0.912769 0.556405 0.968984
O O6 0.011756 0.652139 0.076199
O O7 0.088733 0.562516 0.921352
O O8 0.986370 0.750000 0.250000
O O9 0.974571 0.890768 0.175192
O O10 0.125649 0.836592 0.224105
O O11 0.163986 0.034967 0.916400
O O12 0.000000 0.000000 0.000000
O O13 0.705901 0.941399 0.912288
O O14 0.250000 0.500000 0.951507
O O15 0.332696 0.451480 0.154483
#
# Coordination Sequence:
#
# PCOD9408094 Si02
#       7
#     8   8   8   8   4   8   8
#     4  11  22  39  62  90 123 159 203 254 305 363
#     4  10  22  34  61  88 114 155 198 246 307 348
#     4  11  23  40  59  88 126 163 199 248 315 374
#     4  11  23  39  65  89 124 161 207 256 303 367
#     4  10  18  36  60  92 118 154 208 254 304 348
#     4  10  17  33  57  87 114 141 196 256 284 343
#     4  10  18  34  63  89 115 152 207 254 297 354
#
# _framework density 18.817259
#
# number of rings (size 3 to 8) (size 9 to 14) (size 15 to 20)
#    0.000    1.538    3.846    2.308    4.308    0.000 
#    1.385    0.000    0.000    1.846    0.000    0.000 
#    0.000    0.000    0.000    0.000    0.000    0.000 
#
# Total GULP energy -289667.474114 kJ/mol
# GULP energy per Si atom -5570.528348 kJ/mol
# Density = 1.877443 g / cm^3
# Si number density = 18.817259 Si / 1000 Ang^3
#
#
#
# Elastic Constant Matrix: (Units=GPa)
#
#
# Indices 1 2 3 4 5 6 
#
# 1 106.8342 7.6868 6.9561 0.0000 0.0000 0.0000
# 2 7.6868 66.5143 -5.5944 0.0000 0.0000 0.0000
# 3 6.9561 -5.5944 30.8713 0.0000 0.0000 0.0000
# 4 0.0000 0.0000 0.0000 9.1090 0.0000 0.0000
# 5 0.0000 0.0000 0.0000 0.0000 -15.1768 0.0000
# 6 0.0000 0.0000 0.0000 0.0000 0.0000 21.8293
#
#
#
# Elastic Compliance Matrix: (Units=1/GPa)
#
#
# Indices 1 2 3 4 5 6 
#
# 1 0.009611 -0.001313 -0.002404 0.000000 0.000000 0.000000
# 2 -0.001313 0.015446 0.003095 0.000000 0.000000 0.000000
# 3 -0.002404 0.003095 0.033495 0.000000 0.000000 0.000000
# 4 0.000000 0.000000 0.000000 0.109782 0.000000 0.000000
# 5 0.000000 0.000000 0.000000 0.000000 -0.065890 0.000000
# 6 0.000000 0.000000 0.000000 0.000000 0.000000 0.045810
#
#
# Mechanical properties :
#
#
# Convention : Reuss Voigt Hill
#
# Bulk Modulus (GPa) = 17.44905 24.70187 21.07546
# Shear Modulus (GPa) = 29.65578 16.16370 22.90974
#
# Velocity S-wave (km/s) = 3.97418 2.93402 3.49303
# Velocity P-wave (km/s) = 5.50925 4.96324 5.24335
#
# Compressibility (1/GPa) = 0.05730970
#
# Stress axis : x y z
#
# Youngs Moduli (GPa) = 104.04462 64.74001 29.85516
#
# Poissons Ratio (x) = 0.08500 0.07176
# Poissons Ratio (y) = 0.13660 -0.09240
# Poissons Ratio (z) = 0.25008 -0.20037
#
# Static dielectric constant tensor:
#      x y z
#    x 1.677860 0.000000 0.000000 
#    y 0.000000 1.810280 0.000000 
#    z 0.000000 0.000000 1.648810 
# 
# From -- ./inp_files/10709.got.cif
#   From: 2010.05.17/outbox.cif.g08.bks.cpg/sg52_6_cif.got.tgz:10709.got - 2010.06.03 12:15:38.
