data_PCOD9408161
_publ_section_title
;
Structure prediction by ZEFSAII (Michael W. Deem and Ramdas Pophale) SiO2 
 PCOD9408161
Probable space group: P N N A
;
_chemical_formula_sum "Si O2"
_cell_formula_units_Z 48
_cell_length_a 10.575108
_cell_length_b 10.010652
_cell_length_c 23.952585
_cell_angle_alpha 90.000000
_cell_angle_beta 90.000000
_cell_angle_gamma 90.000000
_cell_volume 2535.709897
_symmetry_space_group_name_H-M "P N N A"
_symmetry_group_IT_number 52
_symmetry_cell_setting 'orthorhombic'
loop_
_space_group_symop_operation_xyz
x,y,z
1/2-x,-y,z
x,1/2-y,1/2-z
1/2-x,1/2+y,1/2-z
-x,-y,-z
1/2+x,y,-z
-x,1/2+y,1/2+z
1/2+x,1/2-y,1/2+z
loop_
_atom_site_type_symbol
_atom_site_label
_atom_site_fract_x
_atom_site_fract_y
_atom_site_fract_z
Si Si1 0.890756 0.515131 0.376112
Si Si2 0.493324 0.848055 0.976422
Si Si3 0.608829 0.456265 0.777502
Si Si4 0.360866 0.904182 0.747815
Si Si5 0.762856 0.837478 0.950844
Si Si6 0.092735 0.311883 0.341658
O O1 0.750000 0.500000 0.400571
O O2 0.957790 0.628375 0.412046
O O3 0.876523 0.555413 0.312304
O O4 0.976049 0.381783 0.374353
O O5 0.631493 0.785038 0.975902
O O6 0.380169 0.787158 0.012088
O O7 0.500000 0.000000 0.000000
O O8 0.750000 0.500000 0.793536
O O9 0.497900 0.566566 0.779132
O O10 0.618522 0.401628 0.713442
O O11 0.566678 0.333392 0.816546
O O12 0.323250 0.750000 0.750000
O O13 0.250000 0.000000 0.724426
O O14 0.793677 0.807612 0.886228
O O15 0.750000 0.000000 0.953622
#
# Coordination Sequence:
#
# PCOD9408161 Si02
#       6
#     8   8   8   8   8   8
#     4  10  19  31  53  78 113 148 186 233 293 342
#     4  10  18  28  47  78 116 145 188 236 295 343
#     4  10  23  36  57  81 112 150 202 238 290 351
#     4  10  24  39  58  83 117 155 196 240 289 351
#     4  10  18  30  48  76 116 146 184 238 297 344
#     4  10  20  34  55  77 116 150 189 241 300 341
#
# _framework density 18.92961
#
# number of rings (size 3 to 8) (size 9 to 14) (size 15 to 20)
#    0.000    2.000    3.333    2.000   11.667    0.000 
#    0.000    0.000    0.000    0.000    0.000    5.833 
#    0.000    0.000    0.000    0.000    0.000    0.000 
#
# Total GULP energy -267413.054866 kJ/mol
# GULP energy per Si atom -5571.105310 kJ/mol
# Density = 1.888653 g / cm^3
# Si number density = 18.929610 Si / 1000 Ang^3
#
#
#
# Elastic Constant Matrix: (Units=GPa)
#
#
# Indices 1 2 3 4 5 6 
#
# 1 133.1562 30.4590 30.1535 0.0000 0.0000 0.0000
# 2 30.4590 59.7239 -4.9528 0.0000 0.0000 0.0000
# 3 30.1535 -4.9528 53.3746 0.0000 0.0000 0.0000
# 4 0.0000 0.0000 0.0000 12.3333 0.0000 0.0000
# 5 0.0000 0.0000 0.0000 0.0000 14.1206 0.0000
# 6 0.0000 0.0000 0.0000 0.0000 0.0000 14.2178
#
#
#
# Elastic Compliance Matrix: (Units=1/GPa)
#
#
# Indices 1 2 3 4 5 6 
#
# 1 0.010261 -0.005758 -0.006331 0.000000 0.000000 0.000000
# 2 -0.005758 0.020105 0.005119 0.000000 0.000000 0.000000
# 3 -0.006331 0.005119 0.022787 0.000000 0.000000 0.000000
# 4 0.000000 0.000000 0.000000 0.081081 0.000000 0.000000
# 5 0.000000 0.000000 0.000000 0.000000 0.070819 0.000000
# 6 0.000000 0.000000 0.000000 0.000000 0.000000 0.070335
#
#
# Mechanical properties :
#
#
# Convention : Reuss Voigt Hill
#
# Bulk Modulus (GPa) = 25.50265 39.73046 32.61656
# Shear Modulus (GPa) = 16.53445 20.84065 18.68755
#
# Velocity S-wave (km/s) = 2.95866 3.32166 3.14540
# Velocity P-wave (km/s) = 5.01729 5.97874 5.51899
#
# Compressibility (1/GPa) = 0.03921161
#
# Stress axis : x y z
#
# Youngs Moduli (GPa) = 97.45851 49.73950 43.88442
#
# Poissons Ratio (x) = 0.28640 0.27783
# Poissons Ratio (y) = 0.56116 -0.22462
# Poissons Ratio (z) = 0.61701 -0.25459
#
# Static dielectric constant tensor:
#      x y z
#    x 1.753090 0.000000 0.000000 
#    y 0.000000 1.666310 0.000000 
#    z 0.000000 0.000000 1.679880 
# 
# From -- ./inp_files/42682.got.cif
#   From: 2010.05.17/outbox.cif.g08.bks.cpg/sg52_22_cif.got.tgz:42682.got - 2010.06.03 12:15:38.
