data_PCOD9408696
_publ_section_title
;
Structure prediction by ZEFSAII (Michael W. Deem and Ramdas Pophale) SiO2 
 PCOD9408696
Probable space group: P N N A
;
_chemical_formula_sum "Si O2"
_cell_formula_units_Z 48
_cell_length_a 5.084298
_cell_length_b 24.664337
_cell_length_c 25.327603
_cell_angle_alpha 90.000000
_cell_angle_beta 90.000000
_cell_angle_gamma 90.000000
_cell_volume 3176.102673
_symmetry_space_group_name_H-M "P N N A"
_symmetry_group_IT_number 52
_symmetry_cell_setting 'orthorhombic'
loop_
_space_group_symop_operation_xyz
x,y,z
1/2-x,-y,z
x,1/2-y,1/2-z
1/2-x,1/2+y,1/2-z
-x,-y,-z
1/2+x,y,-z
-x,1/2+y,1/2+z
1/2+x,1/2-y,1/2+z
loop_
_atom_site_type_symbol
_atom_site_label
_atom_site_fract_x
_atom_site_fract_y
_atom_site_fract_z
Si Si1 0.508482 0.661577 0.233713
Si Si2 0.953864 0.238700 0.162688
Si Si3 0.750000 0.000000 0.109664
Si Si4 0.039917 0.683086 0.376585
Si Si5 0.250000 0.000000 0.178925
Si Si6 0.988292 0.393424 0.726993
Si Si7 0.373657 0.599576 0.535991
O O1 0.528865 0.699739 0.182659
O O2 0.530651 0.702052 0.284102
O O3 0.225250 0.634776 0.235940
O O4 0.730960 0.616730 0.245887
O O5 0.675957 0.227954 0.136416
O O6 0.180405 0.212979 0.126030
O O7 0.499891 0.978585 0.144029
O O8 0.624359 0.046942 0.073679
O O9 0.022591 0.639338 0.328662
O O10 0.956480 0.650641 0.428458
O O11 0.387614 0.046910 0.212999
O O12 0.583558 0.598618 0.488787
#
# Coordination Sequence:
#
# PCOD9408696 Si02
#       7
#     8   8   4   8   4   8   8
#     4   9  17  29  45  68  87 108 133 178 224 277
#     4   9  17  29  48  66  86 105 135 174 234 285
#     4  12  24  37  50  60  82 120 166 206 252 279
#     4  10  19  32  47  64  83 111 142 190 239 282
#     4  12  22  33  50  66  88 124 158 196 232 289
#     4  10  19  30  46  64  89 113 146 182 227 267
#     4  12  24  37  49  64  85 114 159 210 252 288
#
# _framework density 15.112861000000001
#
# number of rings (size 3 to 8) (size 9 to 14) (size 15 to 20)
#    0.000    1.667    1.667    4.500    4.667    4.000 
#    0.000    0.000    0.000    0.000    0.000    0.000 
#    0.000    0.000    0.000    0.000    0.000    0.000 
#
# Total GULP energy -267585.752942 kJ/mol
# GULP energy per Si atom -5574.703186 kJ/mol
# Density = 1.507846 g / cm^3
# Si number density = 15.112861 Si / 1000 Ang^3
#
#
#
# Elastic Constant Matrix: (Units=GPa)
#
#
# Indices 1 2 3 4 5 6 
#
# 1 43.4647 -4.1757 -3.1115 0.0000 0.0000 0.0000
# 2 -4.1757 43.7813 26.9893 0.0000 0.0000 0.0000
# 3 -3.1115 26.9893 23.1107 0.0000 0.0000 0.0000
# 4 0.0000 0.0000 0.0000 8.3530 0.0000 0.0000
# 5 0.0000 0.0000 0.0000 0.0000 13.6321 0.0000
# 6 0.0000 0.0000 0.0000 0.0000 0.0000 19.4062
#
#
#
# Elastic Compliance Matrix: (Units=1/GPa)
#
#
# Indices 1 2 3 4 5 6 
#
# 1 0.023244 0.001027 0.001930 0.000000 0.000000 0.000000
# 2 0.001027 0.081595 -0.095151 0.000000 0.000000 0.000000
# 3 0.001930 -0.095151 0.154649 0.000000 0.000000 0.000000
# 4 0.000000 0.000000 0.000000 0.119717 0.000000 0.000000
# 5 0.000000 0.000000 0.000000 0.000000 0.073356 0.000000
# 6 0.000000 0.000000 0.000000 0.000000 0.000000 0.051530
#
#
# Mechanical properties :
#
#
# Convention : Reuss Voigt Hill
#
# Bulk Modulus (GPa) = 13.31539 16.64010 14.97774
# Shear Modulus (GPa) = 7.00759 14.32190 10.66474
#
# Velocity S-wave (km/s) = 2.15567 3.08175 2.65933
# Velocity P-wave (km/s) = 3.87629 4.86800 4.40017
#
# Compressibility (1/GPa) = 0.07510108
#
# Stress axis : x y z
#
# Youngs Moduli (GPa) = 43.02181 12.25564 6.46625
#
# Poissons Ratio (x) = -0.01259 -0.01248
# Poissons Ratio (y) = -0.04420 0.61527
# Poissons Ratio (z) = -0.08301 1.16613
#
# Static dielectric constant tensor:
#      x y z
#    x 1.521390 0.000000 0.000000 
#    y 0.000000 1.512860 0.000000 
#    z 0.000000 0.000000 1.501780 
# 
# From -- ./inp_files/35158.got.cif
#   From: 2010.05.17/outbox.cif.g08.bks.cpg/sg52_18_cif.got.tgz:35158.got - 2010.06.03 12:15:38.
