data_PCOD9408427
_publ_section_title
;
Structure prediction by ZEFSAII (Michael W. Deem and Ramdas Pophale) SiO2 
 PCOD9408427
Probable space group: P N N A
;
_chemical_formula_sum "Si O2"
_cell_formula_units_Z 48
_cell_length_a 5.580544
_cell_length_b 18.191334
_cell_length_c 21.033340
_cell_angle_alpha 90.000000
_cell_angle_beta 90.000000
_cell_angle_gamma 90.000000
_cell_volume 2135.252931
_symmetry_space_group_name_H-M "P N N A"
_symmetry_group_IT_number 52
_symmetry_cell_setting 'orthorhombic'
loop_
_space_group_symop_operation_xyz
x,y,z
1/2-x,-y,z
x,1/2-y,1/2-z
1/2-x,1/2+y,1/2-z
-x,-y,-z
1/2+x,y,-z
-x,1/2+y,1/2+z
1/2+x,1/2-y,1/2+z
loop_
_atom_site_type_symbol
_atom_site_label
_atom_site_fract_x
_atom_site_fract_y
_atom_site_fract_z
Si Si1 0.500458 0.968844 0.071284
Si Si2 0.872972 0.923851 0.336152
Si Si3 0.483182 0.298639 0.593977
Si Si4 0.496648 0.227040 0.389880
Si Si5 0.250000 0.500000 0.255174
Si Si6 0.624124 0.750000 0.750000
Si Si7 0.007869 0.637345 0.732491
O O1 0.499086 0.880614 0.066281
O O2 0.750000 0.000000 0.100859
O O3 0.250000 0.000000 0.097901
O O4 0.500000 0.000000 0.000000
O O5 0.701049 0.879941 0.286392
O O6 0.966418 0.861260 0.384223
O O7 0.079149 0.955063 0.291470
O O8 0.750000 0.000000 0.361533
O O9 0.734139 0.253943 0.585698
O O10 0.453885 0.315666 0.669469
O O11 0.233381 0.259199 0.575330
O O12 0.504533 0.259431 0.317105
O O13 0.415111 0.558341 0.290270
O O14 0.792936 0.681296 0.764450
#
# Coordination Sequence:
#
# PCOD9408427 Si02
#       7
#     8   8   8   8   4   4   8
#     4  10  22  42  64  84 111 147 180 225 292 367
#     4  10  20  33  49  69 106 153 198 231 282 333
#     4  11  24  34  57  80 107 140 187 244 293 330
#     4  11  21  36  51  78 106 145 190 240 282 335
#     4  10  20  30  44  66  96 142 192 236 274 326
#     4  10  18  34  50  64 102 144 190 236 304 314
#     4  10  20  31  46  71  99 144 190 247 277 330
#
# _framework density 22.479771
#
# number of rings (size 3 to 8) (size 9 to 14) (size 15 to 20)
#    0.000    1.667    1.667    4.000    5.833    2.667 
#    0.000    0.000    0.000    0.000    0.000    0.000 
#    0.000    0.000    0.000   60.000    0.000    0.000 
#
# Total GULP energy -267626.416011 kJ/mol
# GULP energy per Si atom -5575.550334 kJ/mol
# Density = 2.242861 g / cm^3
# Si number density = 22.479771 Si / 1000 Ang^3
#
#
#
# Elastic Constant Matrix: (Units=GPa)
#
#
# Indices 1 2 3 4 5 6 
#
# 1 194.0698 92.9998 19.9187 0.0000 0.0000 0.0000
# 2 92.9998 158.8965 13.9773 0.0000 0.0000 0.0000
# 3 19.9187 13.9773 31.0788 0.0000 0.0000 0.0000
# 4 0.0000 0.0000 0.0000 25.2521 0.0000 0.0000
# 5 0.0000 0.0000 0.0000 0.0000 -6.1412 0.0000
# 6 0.0000 0.0000 0.0000 0.0000 0.0000 55.4903
#
#
#
# Elastic Compliance Matrix: (Units=1/GPa)
#
#
# Indices 1 2 3 4 5 6 
#
# 1 0.007406 -0.004079 -0.002912 0.000000 0.000000 0.000000
# 2 -0.004079 0.008799 -0.001343 0.000000 0.000000 0.000000
# 3 -0.002912 -0.001343 0.034647 0.000000 0.000000 0.000000
# 4 0.000000 0.000000 0.000000 0.039601 0.000000 0.000000
# 5 0.000000 0.000000 0.000000 0.000000 -0.162834 0.000000
# 6 0.000000 0.000000 0.000000 0.000000 0.000000 0.018021
#
#
# Mechanical properties :
#
#
# Convention : Reuss Voigt Hill
#
# Bulk Modulus (GPa) = 29.25373 70.87072 50.06223
# Shear Modulus (GPa) = -190.12841 32.06352 -79.03244
#
# Velocity S-wave (km/s) = -9.20658 3.78077 -5.93578
# Velocity P-wave (km/s) = 9.99866 7.11715 4.96585
#
# Compressibility (1/GPa) = 0.03418367
#
# Stress axis : x y z
#
# Youngs Moduli (GPa) = 135.02245 113.65371 28.86255
#
# Poissons Ratio (x) = 0.46354 0.08406
# Poissons Ratio (y) = 0.55069 0.03877
# Poissons Ratio (z) = 0.39324 0.15265
#
# Static dielectric constant tensor:
#      x y z
#    x 1.895570 0.000000 0.000000 
#    y 0.000000 1.867690 0.000000 
#    z 0.000000 0.000000 1.914380 
# 
# From -- ./inp_files/41772.got.cif
#   From: 2010.05.17/outbox.cif.g08.bks.cpg/sg52_21_cif.got.tgz:41772.got - 2010.06.03 12:15:38.
