data_PCOD9408974
_publ_section_title
;
Structure prediction by ZEFSAII (Michael W. Deem and Ramdas Pophale) SiO2 
 PCOD9408974
Probable space group: P N N A
;
_chemical_formula_sum "Si O2"
_cell_formula_units_Z 60
_cell_length_a 18.193318
_cell_length_b 18.061404
_cell_length_c 8.269733
_cell_angle_alpha 90.000000
_cell_angle_beta 90.000000
_cell_angle_gamma 90.000000
_cell_volume 2717.408351
_symmetry_space_group_name_H-M "P N N A"
_symmetry_group_IT_number 52
_symmetry_cell_setting 'orthorhombic'
loop_
_space_group_symop_operation_xyz
x,y,z
1/2-x,-y,z
x,1/2-y,1/2-z
1/2-x,1/2+y,1/2-z
-x,-y,-z
1/2+x,y,-z
-x,1/2+y,1/2+z
1/2+x,1/2-y,1/2+z
loop_
_atom_site_type_symbol
_atom_site_label
_atom_site_fract_x
_atom_site_fract_y
_atom_site_fract_z
Si Si1 0.490529 0.147842 0.251772
Si Si2 0.347303 0.874399 0.784270
Si Si3 0.727048 0.750000 0.250000
Si Si4 0.167965 0.002226 0.517896
Si Si5 0.947881 0.121735 0.114520
Si Si6 0.163711 0.503010 0.507096
Si Si7 0.390016 0.332796 0.944964
Si Si8 0.938427 0.987996 0.734984
O O1 0.576876 0.165574 0.265019
O O2 0.437536 0.180864 0.391797
O O3 0.487712 0.059843 0.289026
O O4 0.463367 0.155427 0.063871
O O5 0.280315 0.817817 0.795116
O O6 0.324179 0.943711 0.671011
O O7 0.362747 0.920665 0.946142
O O8 0.675936 0.723534 0.099773
O O9 0.141624 0.917150 0.540109
O O10 0.250000 0.000000 0.444741
O O11 0.100162 0.041179 0.424003
O O12 0.937441 0.168048 0.278747
O O13 0.013893 0.067002 0.160474
O O14 0.875560 0.069474 0.102339
O O15 0.250000 0.500000 0.518114
O O16 0.132937 0.517045 0.329525
#
# Coordination Sequence:
#
# PCOD9408974 Si02
#       8
#     8   8   4   8   8   8   8   8
#     4  10  21  39  69 100 132 166 221 278 346 407
#     4  12  21  41  65  92 129 174 224 276 335 408
#     4  12  28  44  64  90 138 180 234 278 334 414
#     4  11  20  36  66  96 132 175 223 273 347 399
#     4  11  19  39  66  99 132 164 215 281 331 403
#     4  11  19  32  59  96 131 165 203 257 337 391
#     4  11  23  43  67  96 130 178 222 286 340 402
#     4  10  19  34  62 105 135 155 209 288 331 403
#
# _framework density 22.079861999999999
#
# number of rings (size 3 to 8) (size 9 to 14) (size 15 to 20)
#    0.000    1.067    5.333    3.200    0.000    2.133 
#    2.400    0.000    2.933    0.000    0.000    0.000 
#    0.000    0.000    0.000    0.000    0.000    0.000 
#
# Total GULP energy -334579.883629 kJ/mol
# GULP energy per Si atom -5576.331394 kJ/mol
# Density = 2.202961 g / cm^3
# Si number density = 22.079862 Si / 1000 Ang^3
#
#
#
# Elastic Constant Matrix: (Units=GPa)
#
#
# Indices 1 2 3 4 5 6 
#
# 1 161.8418 43.4354 62.2886 0.0000 0.0000 0.0000
# 2 43.4354 92.5142 26.4293 0.0000 0.0000 0.0000
# 3 62.2886 26.4293 116.6792 0.0000 0.0000 0.0000
# 4 0.0000 0.0000 0.0000 3.4728 0.0000 0.0000
# 5 0.0000 0.0000 0.0000 0.0000 86.8634 0.0000
# 6 0.0000 0.0000 0.0000 0.0000 0.0000 21.8009
#
#
#
# Elastic Compliance Matrix: (Units=1/GPa)
#
#
# Indices 1 2 3 4 5 6 
#
# 1 0.008428 -0.002856 -0.003852 0.000000 0.000000 0.000000
# 2 -0.002856 0.012525 -0.001312 0.000000 0.000000 0.000000
# 3 -0.003852 -0.001312 0.010924 0.000000 0.000000 0.000000
# 4 0.000000 0.000000 0.000000 0.287951 0.000000 0.000000
# 5 0.000000 0.000000 0.000000 0.000000 0.011512 0.000000
# 6 0.000000 0.000000 0.000000 0.000000 0.000000 0.045870
#
#
# Mechanical properties :
#
#
# Convention : Reuss Voigt Hill
#
# Bulk Modulus (GPa) = 63.14878 70.59353 66.87116
# Shear Modulus (GPa) = 12.54608 38.35288 25.44948
#
# Velocity S-wave (km/s) = 2.38631 4.17226 3.39869
# Velocity P-wave (km/s) = 6.02120 7.43315 6.76412
#
# Compressibility (1/GPa) = 0.01583562
#
# Stress axis : x y z
#
# Youngs Moduli (GPa) = 118.65001 79.83943 91.53937
#
# Poissons Ratio (x) = 0.22806 0.35264
# Poissons Ratio (y) = 0.33892 0.12012
# Poissons Ratio (z) = 0.45707 0.10476
#
# Static dielectric constant tensor:
#      x y z
#    x 1.819820 0.000000 0.000000 
#    y 0.000000 1.842210 0.000000 
#    z 0.000000 0.000000 1.927350 
# 
# From -- ./inp_files/12459.got.cif
#   From: 2010.05.17/outbox.cif.g08.bks.cpg/sg52_7_cif.got.tgz:12459.got - 2010.06.03 12:15:38.
