data_PCOD9408358
_publ_section_title
;
Structure prediction by ZEFSAII (Michael W. Deem and Ramdas Pophale) SiO2 
 PCOD9408358
Probable space group: P N N A
;
_chemical_formula_sum "Si O2"
_cell_formula_units_Z 44
_cell_length_a 12.071239
_cell_length_b 18.072763
_cell_length_c 7.486025
_cell_angle_alpha 90.000000
_cell_angle_beta 90.000000
_cell_angle_gamma 90.000000
_cell_volume 1633.156017
_symmetry_space_group_name_H-M "P N N A"
_symmetry_group_IT_number 52
_symmetry_cell_setting 'orthorhombic'
loop_
_space_group_symop_operation_xyz
x,y,z
1/2-x,-y,z
x,1/2-y,1/2-z
1/2-x,1/2+y,1/2-z
-x,-y,-z
1/2+x,y,-z
-x,1/2+y,1/2+z
1/2+x,1/2-y,1/2+z
loop_
_atom_site_type_symbol
_atom_site_label
_atom_site_fract_x
_atom_site_fract_y
_atom_site_fract_z
Si Si1 0.138668 0.141956 0.413427
Si Si2 0.876128 0.250000 0.250000
Si Si3 0.395797 0.090899 0.694258
Si Si4 0.415376 0.566809 0.705453
Si Si5 0.332626 0.065025 0.290532
Si Si6 0.053425 0.216495 0.945827
O O1 0.247408 0.131841 0.295850
O O2 0.138231 0.226549 0.469361
O O3 0.025179 0.116471 0.312974
O O4 0.126219 0.094521 0.598501
O O5 0.828297 0.167405 0.279968
O O6 0.947932 0.269140 0.427788
O O7 0.368050 0.060409 0.498411
O O8 0.379038 0.018630 0.817433
O O9 0.549915 0.566765 0.698593
O O10 0.395630 0.635145 0.573569
O O11 0.250000 0.000000 0.238003
O O12 0.026935 0.250000 0.750000
#
# Coordination Sequence:
#
# PCOD9408358 Si02
#       6
#     8   4   8   8   8   8
#     4   9  17  34  58  89 125 163 204 262 322 384
#     4  10  22  40  60  84 126 166 212 260 322 390
#     4  10  19  33  56  84 124 167 212 259 327 383
#     4  10  18  32  59  91 123 167 215 264 320 385
#     4  11  17  31  62  98 122 163 219 269 322 391
#     4   9  20  38  64  86 122 164 212 254 323 384
#
# _framework density 26.941700000000001
#
# number of rings (size 3 to 8) (size 9 to 14) (size 15 to 20)
#    0.000    2.182    3.636    2.182    0.000    0.727 
#    4.909    0.000   56.000    1.091    0.000    0.000 
#    0.000    0.000    0.000    0.000    0.000    0.000 
#
# Total GULP energy -245706.341077 kJ/mol
# GULP energy per Si atom -5584.235024 kJ/mol
# Density = 2.688038 g / cm^3
# Si number density = 26.941700 Si / 1000 Ang^3
#
#
#
# Elastic Constant Matrix: (Units=GPa)
#
#
# Indices 1 2 3 4 5 6 
#
# 1 116.9250 22.1967 2.8474 0.0000 0.0000 0.0000
# 2 22.1967 276.5790 27.1311 0.0000 0.0000 0.0000
# 3 2.8474 27.1311 97.7341 0.0000 0.0000 0.0000
# 4 0.0000 0.0000 0.0000 19.7735 0.0000 0.0000
# 5 0.0000 0.0000 0.0000 0.0000 11.9299 0.0000
# 6 0.0000 0.0000 0.0000 0.0000 0.0000 17.5962
#
#
#
# Elastic Compliance Matrix: (Units=1/GPa)
#
#
# Indices 1 2 3 4 5 6 
#
# 1 0.008685 -0.000691 -0.000061 0.000000 0.000000 0.000000
# 2 -0.000691 0.003772 -0.001027 0.000000 0.000000 0.000000
# 3 -0.000061 -0.001027 0.010519 0.000000 0.000000 0.000000
# 4 0.000000 0.000000 0.000000 0.050573 0.000000 0.000000
# 5 0.000000 0.000000 0.000000 0.000000 0.083823 0.000000
# 6 0.000000 0.000000 0.000000 0.000000 0.000000 0.056831
#
#
# Mechanical properties :
#
#
# Convention : Reuss Voigt Hill
#
# Bulk Modulus (GPa) = 51.50031 66.17650 58.83841
# Shear Modulus (GPa) = 22.29824 39.13077 30.71451
#
# Velocity S-wave (km/s) = 2.88001 3.81520 3.38010
# Velocity P-wave (km/s) = 5.49693 6.63505 6.09262
#
# Compressibility (1/GPa) = 0.01941736
#
# Stress axis : x y z
#
# Youngs Moduli (GPa) = 115.13895 265.12562 95.06878
#
# Poissons Ratio (x) = 0.18321 0.00582
# Poissons Ratio (y) = 0.07956 0.09763
# Poissons Ratio (z) = 0.00705 0.27226
#
# Static dielectric constant tensor:
#      x y z
#    x 2.124410 0.000000 0.000000 
#    y 0.000000 2.166240 0.000000 
#    z 0.000000 0.000000 2.175370 
# 
# From -- ./inp_files/10322.got.cif
#   From: 2010.05.17/outbox.cif.g08.bks.cpg/sg52_6_cif.got.tgz:10322.got - 2010.06.03 12:15:38.
