data_PCOD9408122
_publ_section_title
;
Structure prediction by ZEFSAII (Michael W. Deem and Ramdas Pophale) SiO2 
 PCOD9408122
Probable space group: P N N A
;
_chemical_formula_sum "Si O2"
_cell_formula_units_Z 48
_cell_length_a 8.616747
_cell_length_b 12.341094
_cell_length_c 22.061096
_cell_angle_alpha 90.000000
_cell_angle_beta 90.000000
_cell_angle_gamma 90.000000
_cell_volume 2345.978817
_symmetry_space_group_name_H-M "P N N A"
_symmetry_group_IT_number 52
_symmetry_cell_setting 'orthorhombic'
loop_
_space_group_symop_operation_xyz
x,y,z
1/2-x,-y,z
x,1/2-y,1/2-z
1/2-x,1/2+y,1/2-z
-x,-y,-z
1/2+x,y,-z
-x,1/2+y,1/2+z
1/2+x,1/2-y,1/2+z
loop_
_atom_site_type_symbol
_atom_site_label
_atom_site_fract_x
_atom_site_fract_y
_atom_site_fract_z
Si Si1 0.019640 0.856301 0.934118
Si Si2 0.750000 0.000000 0.734357
Si Si3 0.750000 0.000000 0.991719
Si Si4 0.905028 0.667153 0.695913
Si Si5 0.896406 0.940938 0.407889
Si Si6 0.851506 0.187953 0.643798
Si Si7 0.388373 0.868731 0.457816
O O1 0.016125 0.836752 0.861964
O O2 0.995007 0.737258 0.961518
O O3 0.874493 0.934523 0.951483
O O4 0.164631 0.914023 0.964912
O O5 0.615739 0.049897 0.775366
O O6 0.807646 0.096315 0.692225
O O7 0.949106 0.750000 0.750000
O O8 0.733693 0.706063 0.670936
O O9 0.846285 0.902605 0.474686
O O10 0.971080 0.839159 0.372656
O O11 0.750000 0.000000 0.377673
O O12 0.025525 0.033802 0.422101
O O13 0.758966 0.165008 0.581757
#
# Coordination Sequence:
#
# PCOD9408122 Si02
#       7
#     8   4   4   8   8   8   8
#     4  10  22  39  61  90 119 157 200 251 304 368
#     4  10  17  36  60  82 104 149 204 246 276 340
#     4  10  23  40  60  92 124 157 198 254 318 358
#     4   9  20  35  61  87 109 157 206 253 293 346
#     4  11  21  31  52  87 119 151 179 230 305 355
#     4  10  19  36  56  84 114 146 198 244 282 358
#     4  10  20  34  54  81 119 154 185 229 293 357
#
# _framework density 20.460542
#
# number of rings (size 3 to 8) (size 9 to 14) (size 15 to 20)
#    0.000    2.000    1.667    2.500    7.000    0.000 
#    0.000    0.000    1.833    0.000    8.667    0.000 
#    0.000    0.000    0.000    0.000    0.000    0.000 
#
# Total GULP energy -267815.654331 kJ/mol
# GULP energy per Si atom -5579.492799 kJ/mol
# Density = 2.041397 g / cm^3
# Si number density = 20.460542 Si / 1000 Ang^3
#
#
#
# Elastic Constant Matrix: (Units=GPa)
#
#
# Indices 1 2 3 4 5 6 
#
# 1 42.7151 -5.6194 11.4677 0.0000 0.0000 0.0000
# 2 -5.6194 68.9232 9.0273 0.0000 0.0000 0.0000
# 3 11.4677 9.0273 81.0391 0.0000 0.0000 0.0000
# 4 0.0000 0.0000 0.0000 13.1944 0.0000 0.0000
# 5 0.0000 0.0000 0.0000 0.0000 2.6753 0.0000
# 6 0.0000 0.0000 0.0000 0.0000 0.0000 29.8781
#
#
#
# Elastic Compliance Matrix: (Units=1/GPa)
#
#
# Indices 1 2 3 4 5 6 
#
# 1 0.024757 0.002514 -0.003783 0.000000 0.000000 0.000000
# 2 0.002514 0.014979 -0.002024 0.000000 0.000000 0.000000
# 3 -0.003783 -0.002024 0.013101 0.000000 0.000000 0.000000
# 4 0.000000 0.000000 0.000000 0.075790 0.000000 0.000000
# 5 0.000000 0.000000 0.000000 0.000000 0.373792 0.000000
# 6 0.000000 0.000000 0.000000 0.000000 0.000000 0.033469
#
#
# Mechanical properties :
#
#
# Convention : Reuss Voigt Hill
#
# Bulk Modulus (GPa) = 21.62182 24.71429 23.16806
# Shear Modulus (GPa) = 8.96230 21.00302 14.98266
#
# Velocity S-wave (km/s) = 2.09518 3.20740 2.70899
# Velocity P-wave (km/s) = 4.05507 5.08151 4.59703
#
# Compressibility (1/GPa) = 0.04624957
#
# Stress axis : x y z
#
# Youngs Moduli (GPa) = 40.39200 66.76007 76.33238
#
# Poissons Ratio (x) = -0.16784 0.28880
# Poissons Ratio (y) = -0.10155 0.15452
# Poissons Ratio (z) = 0.15282 0.13514
#
# Static dielectric constant tensor:
#      x y z
#    x 1.813430 0.000000 0.000000 
#    y 0.000000 1.728080 0.000000 
#    z 0.000000 0.000000 1.729700 
# 
# From -- ./inp_files/39500.got.cif
#   From: 2010.05.17/outbox.cif.g08.bks.cpg/sg52_20_cif.got.tgz:39500.got - 2010.06.03 12:15:38.
