data_PCOD9408837
_publ_section_title
;
Structure prediction by ZEFSAII (Michael W. Deem and Ramdas Pophale) SiO2 
 PCOD9408837
Probable space group: P N N A
;
_chemical_formula_sum "Si O2"
_cell_formula_units_Z 60
_cell_length_a 18.574950
_cell_length_b 24.400005
_cell_length_c 5.344545
_cell_angle_alpha 90.000000
_cell_angle_beta 90.000000
_cell_angle_gamma 90.000000
_cell_volume 2422.302106
_symmetry_space_group_name_H-M "P N N A"
_symmetry_group_IT_number 52
_symmetry_cell_setting 'orthorhombic'
loop_
_space_group_symop_operation_xyz
x,y,z
1/2-x,-y,z
x,1/2-y,1/2-z
1/2-x,1/2+y,1/2-z
-x,-y,-z
1/2+x,y,-z
-x,1/2+y,1/2+z
1/2+x,1/2-y,1/2+z
loop_
_atom_site_type_symbol
_atom_site_label
_atom_site_fract_x
_atom_site_fract_y
_atom_site_fract_z
Si Si1 0.168742 0.481749 0.012603
Si Si2 0.325163 0.847014 0.087302
Si Si3 0.576683 0.750000 0.250000
Si Si4 0.451514 0.793243 0.924988
Si Si5 0.394197 0.533799 0.513853
Si Si6 0.729927 0.133797 0.418758
Si Si7 0.887778 0.375216 0.210313
Si Si8 0.526631 0.901080 0.785248
O O1 0.250000 0.500000 0.076195
O O2 0.115261 0.494708 0.242826
O O3 0.141854 0.499889 0.739187
O O4 0.174254 0.416067 0.966989
O O5 0.269763 0.838537 0.310533
O O6 0.398275 0.814222 0.140068
O O7 0.348024 0.910543 0.040447
O O8 0.294181 0.831113 0.817572
O O9 0.522614 0.735250 0.473833
O O10 0.614209 0.691957 0.193487
O O11 0.413679 0.750000 0.750000
O O12 0.474961 0.847617 0.781263
O O13 0.472031 0.551800 0.617887
O O14 0.806275 0.108650 0.347271
O O15 0.917981 0.390347 0.484670
O O16 0.937606 0.399889 0.988751
#
# Coordination Sequence:
#
# PCOD9408837 Si02
#       8
#     8   8   4   8   8   8   8   8
#     4  10  19  34  59  84 110 143 179 229 282 335
#     4   9  20  34  54  74 105 136 173 220 275 309
#     4  10  22  34  52  80 102 140 186 232 258 316
#     4  10  19  33  54  76 104 129 182 233 264 306
#     4   9  18  33  55  84 110 132 181 229 268 321
#     4  10  21  38  53  79 109 145 178 216 274 351
#     4  11  21  36  56  74 109 147 185 216 270 333
#     4  10  20  34  57  81 103 149 181 226 270 313
#
# _framework density 24.769825999999998
#
# number of rings (size 3 to 8) (size 9 to 14) (size 15 to 20)
#    0.000    2.133    1.333    2.000    1.867    3.200 
#    1.200    0.000    0.000    4.800    0.000    0.000 
#    0.000    0.000    0.000    0.000    0.000    0.000 
#
# Total GULP energy -335128.433504 kJ/mol
# GULP energy per Si atom -5585.473892 kJ/mol
# Density = 2.471345 g / cm^3
# Si number density = 24.769826 Si / 1000 Ang^3
#
#
#
# Elastic Constant Matrix: (Units=GPa)
#
#
# Indices 1 2 3 4 5 6 
#
# 1 76.7789 10.0431 35.9222 0.0000 0.0000 0.0000
# 2 10.0431 71.7689 26.1793 0.0000 0.0000 0.0000
# 3 35.9222 26.1793 173.9205 0.0000 0.0000 0.0000
# 4 0.0000 0.0000 0.0000 21.1097 0.0000 0.0000
# 5 0.0000 0.0000 0.0000 0.0000 38.2518 0.0000
# 6 0.0000 0.0000 0.0000 0.0000 0.0000 -44.5894
#
#
#
# Elastic Compliance Matrix: (Units=1/GPa)
#
#
# Indices 1 2 3 4 5 6 
#
# 1 0.014484 -0.000990 -0.002843 0.000000 0.000000 0.000000
# 2 -0.000990 0.014811 -0.002025 0.000000 0.000000 0.000000
# 3 -0.002843 -0.002025 0.006642 0.000000 0.000000 0.000000
# 4 0.000000 0.000000 0.000000 0.047372 0.000000 0.000000
# 5 0.000000 0.000000 0.000000 0.000000 0.026143 0.000000
# 6 0.000000 0.000000 0.000000 0.000000 0.000000 -0.022427
#
#
# Mechanical properties :
#
#
# Convention : Reuss Voigt Hill
#
# Bulk Modulus (GPa) = 41.28567 51.86193 46.57380
# Shear Modulus (GPa) = 46.81114 19.64267 33.22690
#
# Velocity S-wave (km/s) = 4.35195 2.81909 3.66652
# Velocity P-wave (km/s) = 6.47739 5.61955 6.06366
#
# Compressibility (1/GPa) = 0.02422148
#
# Stress axis : x y z
#
# Youngs Moduli (GPa) = 69.04250 67.51843 150.56472
#
# Poissons Ratio (x) = 0.06684 0.42799
# Poissons Ratio (y) = 0.06835 0.30488
# Poissons Ratio (z) = 0.19626 0.13672
#
# Static dielectric constant tensor:
#      x y z
#    x 1.938930 0.000000 0.000000 
#    y 0.000000 2.008200 0.000000 
#    z 0.000000 0.000000 1.999050 
# 
# From -- ./inp_files/3647.got.cif
#   From: 2010.05.17/outbox.cif.g08.bks.cpg/sg52_2_cif.got.tgz:3647.got - 2010.06.03 12:15:38.
