data_PCOD9408453
_publ_section_title
;
Structure prediction by ZEFSAII (Michael W. Deem and Ramdas Pophale) SiO2 
 PCOD9408453
Probable space group: P N N A
;
_chemical_formula_sum "Si O2"
_cell_formula_units_Z 36
_cell_length_a 8.606913
_cell_length_b 9.123760
_cell_length_c 22.662245
_cell_angle_alpha 90.000000
_cell_angle_beta 90.000000
_cell_angle_gamma 90.000000
_cell_volume 1779.607372
_symmetry_space_group_name_H-M "P N N A"
_symmetry_group_IT_number 52
_symmetry_cell_setting 'orthorhombic'
loop_
_space_group_symop_operation_xyz
x,y,z
1/2-x,-y,z
x,1/2-y,1/2-z
1/2-x,1/2+y,1/2-z
-x,-y,-z
1/2+x,y,-z
-x,1/2+y,1/2+z
1/2+x,1/2-y,1/2+z
loop_
_atom_site_type_symbol
_atom_site_label
_atom_site_fract_x
_atom_site_fract_y
_atom_site_fract_z
Si Si1 0.074309 0.058969 0.809564
Si Si2 0.485346 0.869395 0.081577
Si Si3 0.750000 0.500000 0.502134
Si Si4 0.068085 0.537245 0.936332
Si Si5 0.084951 0.090925 0.679873
O O1 0.012111 0.043907 0.742548
O O2 0.094696 0.232879 0.820254
O O3 0.250000 0.000000 0.811221
O O4 0.983193 0.964627 0.858489
O O5 0.324788 0.880166 0.045545
O O6 0.538488 0.702651 0.084892
O O7 0.616102 0.942555 0.040215
O O8 0.250000 0.500000 0.941379
O O9 0.001865 0.445117 0.881456
O O10 0.000000 0.500000 0.000000
O O11 0.250000 0.000000 0.678806
#
# Coordination Sequence:
#
# PCOD9408453 Si02
#       5
#     8   8   4   8   8
#     4  10  18  34  58  82 114 152 194 241 281 342
#     4  11  22  38  60  84 118 154 195 237 293 350
#     4  10  24  36  58  86 114 154 196 234 282 356
#     4  11  23  37  58  88 120 150 190 244 298 350
#     4   9  20  33  53  86 116 148 193 239 288 339
#
# _framework density 20.229178999999998
#
# number of rings (size 3 to 8) (size 9 to 14) (size 15 to 20)
#    0.000    1.778    1.111    4.000    6.222    2.667 
#    0.000    0.000    2.444    0.000    0.000    0.000 
#    0.000    0.000    0.000    0.000    0.000    0.000 
#
# Total GULP energy -200621.907152 kJ/mol
# GULP energy per Si atom -5572.830754 kJ/mol
# Density = 2.018314 g / cm^3
# Si number density = 20.229179 Si / 1000 Ang^3
#
#
#
# Elastic Constant Matrix: (Units=GPa)
#
#
# Indices 1 2 3 4 5 6 
#
# 1 14.2956 1.9582 22.6824 0.0000 0.0000 0.0000
# 2 1.9582 116.3702 74.5171 0.0000 0.0000 0.0000
# 3 22.6824 74.5171 214.4026 0.0000 0.0000 0.0000
# 4 0.0000 0.0000 0.0000 27.3549 0.0000 0.0000
# 5 0.0000 0.0000 0.0000 0.0000 13.1542 0.0000
# 6 0.0000 0.0000 0.0000 0.0000 0.0000 20.6410
#
#
#
# Elastic Compliance Matrix: (Units=1/GPa)
#
#
# Indices 1 2 3 4 5 6 
#
# 1 0.086897 0.005691 -0.011171 0.000000 0.000000 0.000000
# 2 0.005691 0.011426 -0.004573 0.000000 0.000000 0.000000
# 3 -0.011171 -0.004573 0.007435 0.000000 0.000000 0.000000
# 4 0.000000 0.000000 0.000000 0.036556 0.000000 0.000000
# 5 0.000000 0.000000 0.000000 0.000000 0.076021 0.000000
# 6 0.000000 0.000000 0.000000 0.000000 0.000000 0.048447
#
#
# Mechanical properties :
#
#
# Convention : Reuss Voigt Hill
#
# Bulk Modulus (GPa) = 11.67515 60.37598 36.02557
# Shear Modulus (GPa) = 15.85084 28.62407 22.23745
#
# Velocity S-wave (km/s) = 2.80226 3.76572 3.31913
# Velocity P-wave (km/s) = 4.03164 6.98701 5.70405
#
# Compressibility (1/GPa) = 0.08565200
#
# Stress axis : x y z
#
# Youngs Moduli (GPa) = 11.50786 87.51999 134.49138
#
# Poissons Ratio (x) = -0.49809 1.50242
# Poissons Ratio (y) = -0.06549 0.61506
# Poissons Ratio (z) = 0.12856 0.40025
#
# Static dielectric constant tensor:
#      x y z
#    x 1.738450 0.000000 0.000000 
#    y 0.000000 1.804540 0.000000 
#    z 0.000000 0.000000 1.786390 
# 
# From -- ./inp_files/35575.got.cif
#   From: 2010.05.17/outbox.cif.g08.bks.cpg/sg52_18_cif.got.tgz:35575.got - 2010.06.03 12:15:38.
