data_PCOD9408345
_publ_section_title
;
Structure prediction by ZEFSAII (Michael W. Deem and Ramdas Pophale) SiO2 
 PCOD9408345
Probable space group: P N N A
;
_chemical_formula_sum "Si O2"
_cell_formula_units_Z 40
_cell_length_a 7.980190
_cell_length_b 8.076078
_cell_length_c 23.762143
_cell_angle_alpha 90.000000
_cell_angle_beta 90.000000
_cell_angle_gamma 90.000000
_cell_volume 1531.437726
_symmetry_space_group_name_H-M "P N N A"
_symmetry_group_IT_number 52
_symmetry_cell_setting 'orthorhombic'
loop_
_space_group_symop_operation_xyz
x,y,z
1/2-x,-y,z
x,1/2-y,1/2-z
1/2-x,1/2+y,1/2-z
-x,-y,-z
1/2+x,y,-z
-x,1/2+y,1/2+z
1/2+x,1/2-y,1/2+z
loop_
_atom_site_type_symbol
_atom_site_label
_atom_site_fract_x
_atom_site_fract_y
_atom_site_fract_z
Si Si1 0.368674 0.291152 0.186711
Si Si2 0.982479 0.192321 0.987164
Si Si3 0.185380 0.314432 0.621952
Si Si4 0.178042 0.315757 0.079334
Si Si5 0.405878 0.391603 0.794637
O O1 0.324434 0.250000 0.250000
O O2 0.525558 0.184088 0.164241
O O3 0.218441 0.259415 0.142726
O O4 0.450173 0.476544 0.188893
O O5 0.107602 0.247607 0.936915
O O6 0.801666 0.211734 0.960004
O O7 0.008022 0.293449 0.044843
O O8 0.000000 0.000000 0.000000
O O9 0.250000 0.500000 0.614067
O O10 0.322623 0.197958 0.651401
O O11 0.250000 0.500000 0.076709
O O12 0.250000 0.500000 0.770155
O O13 0.450096 0.250000 0.750000
#
# Coordination Sequence:
#
# PCOD9408345 Si02
#       5
#     8   8   8   8   8
#     4  10  22  40  61  92 131 172 217 266 329 396
#     4  11  24  44  69  98 133 173 221 273 331 393
#     4  10  19  33  60  95 130 170 218 271 323 382
#     4  11  25  45  69  97 133 175 219 270 327 391
#     4  10  18  32  56  90 128 170 218 270 323 384
#
# _framework density 26.119249
#
# number of rings (size 3 to 8) (size 9 to 14) (size 15 to 20)
#    0.000    1.600    0.000    6.600    0.000    7.200 
#    0.000    7.000    0.000    0.000    0.000    1.400 
#    0.000    0.000    0.000    0.000    0.000    0.000 
#
# Total GULP energy -224170.458956 kJ/mol
# GULP energy per Si atom -5604.261474 kJ/mol
# Density = 2.605980 g / cm^3
# Si number density = 26.119249 Si / 1000 Ang^3
#
#
#
# Elastic Constant Matrix: (Units=GPa)
#
#
# Indices 1 2 3 4 5 6 
#
# 1 87.1852 -1.8547 51.8308 0.0000 0.0000 0.0000
# 2 -1.8547 57.2868 0.3759 0.0000 0.0000 0.0000
# 3 51.8308 0.3759 197.7449 0.0000 0.0000 0.0000
# 4 0.0000 0.0000 0.0000 41.3290 0.0000 0.0000
# 5 0.0000 0.0000 0.0000 0.0000 31.9566 0.0000
# 6 0.0000 0.0000 0.0000 0.0000 0.0000 39.7332
#
#
#
# Elastic Compliance Matrix: (Units=1/GPa)
#
#
# Indices 1 2 3 4 5 6 
#
# 1 0.013599 0.000464 -0.003565 0.000000 0.000000 0.000000
# 2 0.000464 0.017472 -0.000155 0.000000 0.000000 0.000000
# 3 -0.003565 -0.000155 0.005992 0.000000 0.000000 0.000000
# 4 0.000000 0.000000 0.000000 0.024196 0.000000 0.000000
# 5 0.000000 0.000000 0.000000 0.000000 0.031292 0.000000
# 6 0.000000 0.000000 0.000000 0.000000 0.000000 0.025168
#
#
# Mechanical properties :
#
#
# Convention : Reuss Voigt Hill
#
# Bulk Modulus (GPa) = 32.73291 49.21345 40.97318
# Shear Modulus (GPa) = 37.19797 42.06141 39.62969
#
# Velocity S-wave (km/s) = 3.77790 4.01728 3.89943
# Velocity P-wave (km/s) = 5.62044 6.35616 5.99959
#
# Compressibility (1/GPa) = 0.03055029
#
# Stress axis : x y z
#
# Youngs Moduli (GPa) = 73.53326 57.23420 166.89376
#
# Poissons Ratio (x) = -0.02654 0.59504
# Poissons Ratio (y) = -0.03410 0.02583
# Poissons Ratio (z) = 0.26217 0.00886
#
# Static dielectric constant tensor:
#      x y z
#    x 2.176020 0.000000 0.000000 
#    y 0.000000 2.009540 0.000000 
#    z 0.000000 0.000000 2.052350 
# 
# From -- ./inp_files/39222.got.cif
#   From: 2010.05.17/outbox.cif.g08.bks.cpg/sg52_20_cif.got.tgz:39222.got - 2010.06.03 12:15:38.
