data_PCOD9408956
_publ_section_title
;
Structure prediction by ZEFSAII (Michael W. Deem and Ramdas Pophale) SiO2 
 PCOD9408956
Probable space group: P N N A
;
_chemical_formula_sum "Si O2"
_cell_formula_units_Z 40
_cell_length_a 7.803793
_cell_length_b 14.514590
_cell_length_c 18.219628
_cell_angle_alpha 90.000000
_cell_angle_beta 90.000000
_cell_angle_gamma 90.000000
_cell_volume 2063.716417
_symmetry_space_group_name_H-M "P N N A"
_symmetry_group_IT_number 52
_symmetry_cell_setting 'orthorhombic'
loop_
_space_group_symop_operation_xyz
x,y,z
1/2-x,-y,z
x,1/2-y,1/2-z
1/2-x,1/2+y,1/2-z
-x,-y,-z
1/2+x,y,-z
-x,1/2+y,1/2+z
1/2+x,1/2-y,1/2+z
loop_
_atom_site_type_symbol
_atom_site_label
_atom_site_fract_x
_atom_site_fract_y
_atom_site_fract_z
Si Si1 0.875416 0.587047 0.948348
Si Si2 0.750000 0.000000 0.042085
Si Si3 0.043402 0.678546 0.091436
Si Si4 0.750000 0.500000 0.707340
Si Si5 0.055749 0.011765 0.682514
Si Si6 0.572675 0.891911 0.913374
O O1 0.750000 0.500000 0.965753
O O2 0.746738 0.659738 0.911992
O O3 0.012903 0.548723 0.890276
O O4 0.959275 0.633046 0.018910
O O5 0.594613 0.042810 0.087719
O O6 0.828236 0.078664 0.988037
O O7 0.015208 0.786808 0.090650
O O8 0.974356 0.618016 0.158861
O O9 0.586849 0.483377 0.758849
O O10 0.697850 0.582803 0.653364
O O11 0.250000 0.000000 0.706303
#
# Coordination Sequence:
#
# PCOD9408956 Si02
#       6
#     8   4   8   4   8   8
#     4  10  19  34  58  96 128 164 197 265 321 364
#     4   9  20  42  60  94 119 162 214 258 329 350
#     4  11  19  35  62  94 128 156 217 262 305 366
#     4  11  24  44  60  84 127 172 202 256 323 384
#     4  11  22  40  62  89 128 171 204 248 325 384
#     4  10  22  38  67  89 125 165 210 270 309 374
#
# _framework density 19.382508999999999
#
# number of rings (size 3 to 8) (size 9 to 14) (size 15 to 20)
#    0.000    1.600    3.000    5.400    1.400    0.800 
#    0.000    0.000    4.400    0.000    0.000    0.000 
#    0.000    0.000    0.000    0.000    0.000    0.000 
#
# Total GULP energy -223320.393225 kJ/mol
# GULP energy per Si atom -5583.009831 kJ/mol
# Density = 1.933839 g / cm^3
# Si number density = 19.382509 Si / 1000 Ang^3
#
#
#
# Elastic Constant Matrix: (Units=GPa)
#
#
# Indices 1 2 3 4 5 6 
#
# 1 132.6854 29.9825 42.5204 0.0000 0.0000 0.0000
# 2 29.9825 94.7296 47.2905 0.0000 0.0000 0.0000
# 3 42.5204 47.2905 75.4289 0.0000 0.0000 0.0000
# 4 0.0000 0.0000 0.0000 4.8711 0.0000 0.0000
# 5 0.0000 0.0000 0.0000 0.0000 40.7869 0.0000
# 6 0.0000 0.0000 0.0000 0.0000 0.0000 17.2024
#
#
#
# Elastic Compliance Matrix: (Units=1/GPa)
#
#
# Indices 1 2 3 4 5 6 
#
# 1 0.009213 -0.000471 -0.004898 0.000000 0.000000 0.000000
# 2 -0.000471 0.015390 -0.009383 0.000000 0.000000 0.000000
# 3 -0.004898 -0.009383 0.021902 0.000000 0.000000 0.000000
# 4 0.000000 0.000000 0.000000 0.205291 0.000000 0.000000
# 5 0.000000 0.000000 0.000000 0.000000 0.024518 0.000000
# 6 0.000000 0.000000 0.000000 0.000000 0.000000 0.058131
#
#
# Mechanical properties :
#
#
# Convention : Reuss Voigt Hill
#
# Bulk Modulus (GPa) = 58.82494 60.27007 59.54751
# Shear Modulus (GPa) = 13.52760 24.77547 19.15153
#
# Velocity S-wave (km/s) = 2.64470 3.57912 3.14679
# Velocity P-wave (km/s) = 6.30407 6.94570 6.63265
#
# Compressibility (1/GPa) = 0.01699959
#
# Stress axis : x y z
#
# Youngs Moduli (GPa) = 108.54631 64.97907 45.65870
#
# Poissons Ratio (x) = 0.03058 0.22365
# Poissons Ratio (y) = 0.05108 0.42843
# Poissons Ratio (z) = 0.53169 0.60972
#
# Static dielectric constant tensor:
#      x y z
#    x 1.701360 0.000000 0.000000 
#    y 0.000000 1.674740 0.000000 
#    z 0.000000 0.000000 1.703940 
# 
# From -- ./inp_files/31112.got.cif
#   From: 2010.05.17/outbox.cif.g08.bks.cpg/sg52_16_cif.got.tgz:31112.got - 2010.06.03 12:15:38.
