data_PCOD9408007
_publ_section_title
;
Structure prediction by ZEFSAII (Michael W. Deem and Ramdas Pophale) SiO2 
 PCOD9408007
Probable space group: P N N A
;
_chemical_formula_sum "Si O2"
_cell_formula_units_Z 48
_cell_length_a 21.614691
_cell_length_b 7.936270
_cell_length_c 13.926451
_cell_angle_alpha 90.000000
_cell_angle_beta 90.000000
_cell_angle_gamma 90.000000
_cell_volume 2388.943735
_symmetry_space_group_name_H-M "P N N A"
_symmetry_group_IT_number 52
_symmetry_cell_setting 'orthorhombic'
loop_
_space_group_symop_operation_xyz
x,y,z
1/2-x,-y,z
x,1/2-y,1/2-z
1/2-x,1/2+y,1/2-z
-x,-y,-z
1/2+x,y,-z
-x,1/2+y,1/2+z
1/2+x,1/2-y,1/2+z
loop_
_atom_site_type_symbol
_atom_site_label
_atom_site_fract_x
_atom_site_fract_y
_atom_site_fract_z
Si Si1 0.418441 0.341468 0.043063
Si Si2 0.750000 0.000000 0.427098
Si Si3 0.632164 0.987697 0.059318
Si Si4 0.846187 0.937497 0.267802
Si Si5 0.750000 0.000000 0.919465
Si Si6 0.442616 0.836836 0.592095
Si Si7 0.284592 0.158337 0.384342
O O1 0.404481 0.177691 0.976545
O O2 0.425978 0.516403 0.984564
O O3 0.358258 0.358310 0.110626
O O4 0.484053 0.312951 0.093873
O O5 0.692171 0.995285 0.357015
O O6 0.760290 0.150393 0.502851
O O7 0.655637 0.963259 0.168795
O O8 0.689056 0.014988 0.986544
O O9 0.591760 0.160764 0.065996
O O10 0.819453 0.750000 0.250000
O O11 0.914981 0.906727 0.308076
O O12 0.762395 0.161235 0.853764
O O13 0.250000 0.000000 0.341645
#
# Coordination Sequence:
#
# PCOD9408007 Si02
#       7
#     8   4   8   8   4   8   8
#     4  10  19  31  49  62  85 131 160 188 231 271
#     4  10  17  30  44  64  96 126 151 188 220 267
#     4  10  20  31  46  68  90 127 158 193 224 278
#     4  10  19  30  45  65  96 127 153 194 232 267
#     4  10  17  28  44  66  92 120 157 180 230 259
#     4  10  19  34  43  62  91 124 160 196 226 267
#     4   9  17  29  44  64  91 117 152 189 221 266
#
# _framework density 20.092562000000001
#
# number of rings (size 3 to 8) (size 9 to 14) (size 15 to 20)
#    0.500    1.667    1.667    4.000    0.000    2.000 
#    0.000    0.000    0.000    0.000    0.000    0.000 
#    0.000    0.000  189.833    0.000    2.333    0.000 
#
# Total GULP energy -267569.689313 kJ/mol
# GULP energy per Si atom -5574.368527 kJ/mol
# Density = 2.004683 g / cm^3
# Si number density = 20.092562 Si / 1000 Ang^3
#
#
#
# Elastic Constant Matrix: (Units=GPa)
#
#
# Indices 1 2 3 4 5 6 
#
# 1 129.8885 48.6434 27.3358 0.0000 0.0000 0.0000
# 2 48.6434 104.0198 14.5523 0.0000 0.0000 0.0000
# 3 27.3358 14.5523 58.8105 0.0000 0.0000 0.0000
# 4 0.0000 0.0000 0.0000 25.0083 0.0000 0.0000
# 5 0.0000 0.0000 0.0000 0.0000 6.3746 0.0000
# 6 0.0000 0.0000 0.0000 0.0000 0.0000 33.0152
#
#
#
# Elastic Compliance Matrix: (Units=1/GPa)
#
#
# Indices 1 2 3 4 5 6 
#
# 1 0.010028 -0.004182 -0.003626 0.000000 0.000000 0.000000
# 2 -0.004182 0.011702 -0.000952 0.000000 0.000000 0.000000
# 3 -0.003626 -0.000952 0.018925 0.000000 0.000000 0.000000
# 4 0.000000 0.000000 0.000000 0.039987 0.000000 0.000000
# 5 0.000000 0.000000 0.000000 0.000000 0.156872 0.000000
# 6 0.000000 0.000000 0.000000 0.000000 0.000000 0.030289
#
#
# Mechanical properties :
#
#
# Convention : Reuss Voigt Hill
#
# Bulk Modulus (GPa) = 43.22484 52.64241 47.93363
# Shear Modulus (GPa) = 17.06273 26.35878 21.71076
#
# Velocity S-wave (km/s) = 2.91728 3.62590 3.29072
# Velocity P-wave (km/s) = 5.73645 6.61713 6.19247
#
# Compressibility (1/GPa) = 0.02313485
#
# Stress axis : x y z
#
# Youngs Moduli (GPa) = 99.71697 85.45194 52.84054
#
# Poissons Ratio (x) = 0.35739 0.19162
# Poissons Ratio (y) = 0.41705 0.05029
# Poissons Ratio (z) = 0.36162 0.08133
#
# Static dielectric constant tensor:
#      x y z
#    x 1.727170 0.000000 0.000000 
#    y 0.000000 1.776820 0.000000 
#    z 0.000000 0.000000 1.756590 
# 
# From -- ./inp_files/34032.got.cif
#   From: 2010.05.17/outbox.cif.g08.bks.cpg/sg52_18_cif.got.tgz:34032.got - 2010.06.03 12:15:38.
