data_PCOD9408278
_publ_section_title
;
Structure prediction by ZEFSAII (Michael W. Deem and Ramdas Pophale) SiO2 
 PCOD9408278
Probable space group: P N N A
;
_chemical_formula_sum "Si O2"
_cell_formula_units_Z 32
_cell_length_a 7.855779
_cell_length_b 5.006333
_cell_length_c 34.589466
_cell_angle_alpha 90.000000
_cell_angle_beta 90.000000
_cell_angle_gamma 90.000000
_cell_volume 1360.356851
_symmetry_space_group_name_H-M "P N N A"
_symmetry_group_IT_number 52
_symmetry_cell_setting 'orthorhombic'
loop_
_space_group_symop_operation_xyz
x,y,z
1/2-x,-y,z
x,1/2-y,1/2-z
1/2-x,1/2+y,1/2-z
-x,-y,-z
1/2+x,y,-z
-x,1/2+y,1/2+z
1/2+x,1/2-y,1/2+z
loop_
_atom_site_type_symbol
_atom_site_label
_atom_site_fract_x
_atom_site_fract_y
_atom_site_fract_z
Si Si1 0.044266 0.953908 0.715117
Si Si2 0.549107 0.030498 0.173165
Si Si3 0.554927 0.913689 0.456993
Si Si4 0.059428 0.900675 0.087151
O O1 0.000639 0.750000 0.750000
O O2 0.985156 0.769219 0.679453
O O3 0.250000 0.000000 0.718097
O O4 0.980278 0.250080 0.703891
O O5 0.750000 0.000000 0.181192
O O6 0.527301 0.106914 0.128971
O O7 0.526989 0.609250 0.443226
O O8 0.750000 0.000000 0.451917
O O9 0.500000 0.000000 0.500000
O O10 0.447145 0.105528 0.429561
O O11 0.250000 0.000000 0.092291
#
# Coordination Sequence:
#
# PCOD9408278 Si02
#       4
#     8   8   8   8
#     4  10  18  31  54  86 120 153 200 259 314 368
#     4  10  20  34  56  86 119 158 204 257 313 371
#     4  12  25  44  68  96 130 169 215 265 321 382
#     4  12  25  43  65  94 131 172 217 265 321 383
#
# _framework density 23.523237999999999
#
# number of rings (size 3 to 8) (size 9 to 14) (size 15 to 20)
#    0.000    1.000    0.000    9.750    0.000    2.000 
#    0.000    0.000    0.000    3.000    0.000    7.000 
#    0.000    0.000    0.000    0.000    0.000    0.000 
#
# Total GULP energy -178657.093680 kJ/mol
# GULP energy per Si atom -5583.034177 kJ/mol
# Density = 2.346970 g / cm^3
# Si number density = 23.523238 Si / 1000 Ang^3
#
#
#
# Elastic Constant Matrix: (Units=GPa)
#
#
# Indices 1 2 3 4 5 6 
#
# 1 30.3687 29.4852 -8.5122 0.0000 0.0000 0.0000
# 2 29.4852 117.5891 29.8247 0.0000 0.0000 0.0000
# 3 -8.5122 29.8247 121.7790 0.0000 0.0000 0.0000
# 4 0.0000 0.0000 0.0000 41.9022 0.0000 0.0000
# 5 0.0000 0.0000 0.0000 0.0000 -3.9710 0.0000
# 6 0.0000 0.0000 0.0000 0.0000 0.0000 20.9012
#
#
#
# Elastic Compliance Matrix: (Units=1/GPa)
#
#
# Indices 1 2 3 4 5 6 
#
# 1 0.048224 -0.013804 0.006752 0.000000 0.000000 0.000000
# 2 -0.013804 0.013019 -0.004153 0.000000 0.000000 0.000000
# 3 0.006752 -0.004153 0.009701 0.000000 0.000000 0.000000
# 4 0.000000 0.000000 0.000000 0.023865 0.000000 0.000000
# 5 0.000000 0.000000 0.000000 0.000000 -0.251828 0.000000
# 6 0.000000 0.000000 0.000000 0.000000 0.000000 0.047844
#
#
# Mechanical properties :
#
#
# Convention : Reuss Voigt Hill
#
# Bulk Modulus (GPa) = 20.60526 41.25912 30.93219
# Shear Modulus (GPa) = -70.83600 26.36243 -22.23678
#
# Velocity S-wave (km/s) = -5.49350 3.35131 -3.07793
# Velocity P-wave (km/s) = 5.60888 5.70551 0.73937
#
# Compressibility (1/GPa) = 0.04853129
#
# Stress axis : x y z
#
# Youngs Moduli (GPa) = 20.73657 76.81033 103.08497
#
# Poissons Ratio (x) = 1.06033 -0.69599
# Poissons Ratio (y) = 0.28626 0.42815
# Poissons Ratio (z) = -0.14001 0.31902
#
# Static dielectric constant tensor:
#      x y z
#    x 1.872800 0.000000 0.000000 
#    y 0.000000 1.890020 0.000000 
#    z 0.000000 0.000000 1.878420 
# 
# From -- ./inp_files/44014.got.cif
#   From: 2010.05.17/outbox.cif.g08.bks.cpg/sg52_23_cif.got.tgz:44014.got - 2010.06.03 12:15:38.
