data_PCOD9408364
_publ_section_title
;
Structure prediction by ZEFSAII (Michael W. Deem and Ramdas Pophale) SiO2 
 PCOD9408364
Probable space group: P N N A
;
_chemical_formula_sum "Si O2"
_cell_formula_units_Z 56
_cell_length_a 27.852859
_cell_length_b 15.649237
_cell_length_c 6.965883
_cell_angle_alpha 90.000000
_cell_angle_beta 90.000000
_cell_angle_gamma 90.000000
_cell_volume 3036.261160
_symmetry_space_group_name_H-M "P N N A"
_symmetry_group_IT_number 52
_symmetry_cell_setting 'orthorhombic'
loop_
_space_group_symop_operation_xyz
x,y,z
1/2-x,-y,z
x,1/2-y,1/2-z
1/2-x,1/2+y,1/2-z
-x,-y,-z
1/2+x,y,-z
-x,1/2+y,1/2+z
1/2+x,1/2-y,1/2+z
loop_
_atom_site_type_symbol
_atom_site_label
_atom_site_fract_x
_atom_site_fract_y
_atom_site_fract_z
Si Si1 0.735675 0.661833 0.633632
Si Si2 0.128605 0.651015 0.309586
Si Si3 0.044086 0.410236 0.317367
Si Si4 0.434547 0.437194 0.613337
Si Si5 0.732089 0.250000 0.250000
Si Si6 0.182952 0.130923 0.433321
Si Si7 0.396487 0.750000 0.250000
Si Si8 0.605580 0.507023 0.985383
O O1 0.731877 0.750000 0.750000
O O2 0.683397 0.620619 0.652277
O O3 0.743211 0.690629 0.413407
O O4 0.780131 0.619996 0.752251
O O5 0.127557 0.750000 0.250000
O O6 0.096203 0.631425 0.494863
O O7 0.108895 0.592840 0.138450
O O8 0.058445 0.480935 0.474650
O O9 0.070074 0.319916 0.352851
O O10 0.065113 0.447734 0.117339
O O11 0.986890 0.403227 0.325821
O O12 0.407776 0.469706 0.800524
O O13 0.706251 0.178923 0.384718
O O14 0.140126 0.195450 0.376965
O O15 0.156102 0.042941 0.477669
#
# Coordination Sequence:
#
# PCOD9408364 Si02
#       8
#     8   8   8   8   4   8   4   8
#     4   9  19  37  55  82 117 151 191 243 300 348
#     4  10  23  40  59  79 112 156 202 250 295 352
#     4   9  21  38  58  86 124 151 191 247 303 346
#     4  10  21  40  60  85 116 158 200 244 296 363
#     4  10  18  32  61  84 110 153 190 232 296 354
#     4  10  20  34  56  87 118 148 190 242 295 359
#     4  10  18  36  57  86 118 153 186 240 298 356
#     4  10  22  37  59  84 118 156 191 244 304 354
#
# _framework density 18.443736000000001
#
# number of rings (size 3 to 8) (size 9 to 14) (size 15 to 20)
#    0.000    2.286    2.143    0.429    2.000    6.857 
#    0.000    2.857    0.000    0.000    0.000    0.000 
#    0.000    0.000    0.000    0.000    0.000    0.000 
#
# Total GULP energy -311828.642715 kJ/mol
# GULP energy per Si atom -5568.368620 kJ/mol
# Density = 1.840176 g / cm^3
# Si number density = 18.443736 Si / 1000 Ang^3
#
#
#
# Elastic Constant Matrix: (Units=GPa)
#
#
# Indices 1 2 3 4 5 6 
#
# 1 118.2706 40.9856 45.3470 0.0000 0.0000 0.0000
# 2 40.9856 64.2912 25.8011 0.0000 0.0000 0.0000
# 3 45.3470 25.8011 106.8628 0.0000 0.0000 0.0000
# 4 0.0000 0.0000 0.0000 10.9433 0.0000 0.0000
# 5 0.0000 0.0000 0.0000 0.0000 5.9055 0.0000
# 6 0.0000 0.0000 0.0000 0.0000 0.0000 52.9020
#
#
#
# Elastic Compliance Matrix: (Units=1/GPa)
#
#
# Indices 1 2 3 4 5 6 
#
# 1 0.011978 -0.006196 -0.003587 0.000000 0.000000 0.000000
# 2 -0.006196 0.020429 -0.002303 0.000000 0.000000 0.000000
# 3 -0.003587 -0.002303 0.011436 0.000000 0.000000 0.000000
# 4 0.000000 0.000000 0.000000 0.091380 0.000000 0.000000
# 5 0.000000 0.000000 0.000000 0.000000 0.169333 0.000000
# 6 0.000000 0.000000 0.000000 0.000000 0.000000 0.018903
#
#
# Mechanical properties :
#
#
# Convention : Reuss Voigt Hill
#
# Bulk Modulus (GPa) = 50.83821 57.07690 53.95755
# Shear Modulus (GPa) = 14.11683 25.76956 19.94320
#
# Velocity S-wave (km/s) = 2.76959 3.74197 3.29188
# Velocity P-wave (km/s) = 6.15234 7.04865 6.61569
#
# Compressibility (1/GPa) = 0.01967025
#
# Stress axis : x y z
#
# Youngs Moduli (GPa) = 83.48875 48.95103 87.44484
#
# Poissons Ratio (x) = 0.30332 0.31363
# Poissons Ratio (y) = 0.51733 0.20137
# Poissons Ratio (z) = 0.29944 0.11273
#
# Static dielectric constant tensor:
#      x y z
#    x 1.679200 0.000000 0.000000 
#    y 0.000000 1.629440 0.000000 
#    z 0.000000 0.000000 1.662740 
# 
# From -- ./inp_files/6453.got.cif
#   From: 2010.05.17/outbox.cif.g08.bks.cpg/sg52_4_cif.got.tgz:6453.got - 2010.06.03 12:15:38.
