data_PCOD9408584
_publ_section_title
;
Structure prediction by ZEFSAII (Michael W. Deem and Ramdas Pophale) SiO2 
 PCOD9408584
Probable space group: P N N A
;
_chemical_formula_sum "Si O2"
_cell_formula_units_Z 48
_cell_length_a 23.738991
_cell_length_b 8.976412
_cell_length_c 11.624925
_cell_angle_alpha 90.000000
_cell_angle_beta 90.000000
_cell_angle_gamma 90.000000
_cell_volume 2477.166471
_symmetry_space_group_name_H-M "P N N A"
_symmetry_group_IT_number 52
_symmetry_cell_setting 'orthorhombic'
loop_
_space_group_symop_operation_xyz
x,y,z
1/2-x,-y,z
x,1/2-y,1/2-z
1/2-x,1/2+y,1/2-z
-x,-y,-z
1/2+x,y,-z
-x,1/2+y,1/2+z
1/2+x,1/2-y,1/2+z
loop_
_atom_site_type_symbol
_atom_site_label
_atom_site_fract_x
_atom_site_fract_y
_atom_site_fract_z
Si Si1 0.597004 0.095128 0.286695
Si Si2 0.388091 0.356842 0.977928
Si Si3 0.302344 0.106936 0.323126
Si Si4 0.065382 0.521076 0.537014
Si Si5 0.971945 0.105903 0.675693
Si Si6 0.104100 0.090273 0.196217
O O1 0.627605 0.250000 0.250000
O O2 0.537202 0.134252 0.347211
O O3 0.621607 0.965591 0.368806
O O4 0.577931 0.033202 0.164134
O O5 0.412492 0.191209 0.959978
O O6 0.332876 0.349996 0.057944
O O7 0.436941 0.421090 0.060921
O O8 0.284404 0.250000 0.250000
O O9 0.250000 0.000000 0.344015
O O10 0.349278 0.021377 0.247007
O O11 0.099984 0.428248 0.440481
O O12 0.000000 0.500000 0.500000
O O13 0.951546 0.250000 0.750000
O O14 0.956171 0.965527 0.754376
O O15 0.115897 0.250000 0.250000
#
# Coordination Sequence:
#
# PCOD9408584 Si02
#       6
#     8   8   8   8   8   8
#     4  11  24  35  54  87 128 176 217 249 315 394
#     4  11  22  40  61  87 128 169 211 276 327 389
#     4  11  23  46  71  95 122 154 213 283 353 389
#     4  12  22  37  59  90 135 180 219 253 319 410
#     4  10  18  37  53  82 125 167 212 261 312 375
#     4  11  22  35  60  95 125 160 213 268 318 386
#
# _framework density 19.376977
#
# number of rings (size 3 to 8) (size 9 to 14) (size 15 to 20)
#    0.000    1.000    5.000    3.500    7.000    0.000 
#    0.000    0.000    0.000    3.000    0.000    0.000 
#    0.000    0.000    0.000    0.000    0.000    0.000 
#
# Total GULP energy -267634.391470 kJ/mol
# GULP energy per Si atom -5575.716489 kJ/mol
# Density = 1.933287 g / cm^3
# Si number density = 19.376977 Si / 1000 Ang^3
#
#
#
# Elastic Constant Matrix: (Units=GPa)
#
#
# Indices 1 2 3 4 5 6 
#
# 1 52.4008 30.9796 11.2553 0.0000 0.0000 0.0000
# 2 30.9796 126.3327 58.1583 0.0000 0.0000 0.0000
# 3 11.2553 58.1583 128.0516 0.0000 0.0000 0.0000
# 4 0.0000 0.0000 0.0000 37.1392 0.0000 0.0000
# 5 0.0000 0.0000 0.0000 0.0000 9.6795 0.0000
# 6 0.0000 0.0000 0.0000 0.0000 0.0000 17.3638
#
#
#
# Elastic Compliance Matrix: (Units=1/GPa)
#
#
# Indices 1 2 3 4 5 6 
#
# 1 0.022364 -0.005790 0.000664 0.000000 0.000000 0.000000
# 2 -0.005790 0.011507 -0.004717 0.000000 0.000000 0.000000
# 3 0.000664 -0.004717 0.009894 0.000000 0.000000 0.000000
# 4 0.000000 0.000000 0.000000 0.026926 0.000000 0.000000
# 5 0.000000 0.000000 0.000000 0.000000 0.103311 0.000000
# 6 0.000000 0.000000 0.000000 0.000000 0.000000 0.057591
#
#
# Mechanical properties :
#
#
# Convention : Reuss Voigt Hill
#
# Bulk Modulus (GPa) = 41.53153 56.39684 48.96418
# Shear Modulus (GPa) = 19.28228 26.59594 22.93911
#
# Velocity S-wave (km/s) = 3.15796 3.70882 3.44442
# Velocity P-wave (km/s) = 5.89720 6.89266 6.41427
#
# Compressibility (1/GPa) = 0.02407809
#
# Stress axis : x y z
#
# Youngs Moduli (GPa) = 44.71464 86.90318 101.07618
#
# Poissons Ratio (x) = 0.50315 -0.06710
# Poissons Ratio (y) = 0.25889 0.47681
# Poissons Ratio (z) = -0.02968 0.40995
#
# Static dielectric constant tensor:
#      x y z
#    x 1.673270 0.000000 0.000000 
#    y 0.000000 1.580520 0.000000 
#    z 0.000000 0.000000 1.754010 
# 
# From -- ./inp_files/22274.got.cif
#   From: 2010.05.17/outbox.cif.g08.bks.cpg/sg52_12_cif.got.tgz:22274.got - 2010.06.03 12:15:38.
