data_PCOD9408039
_publ_section_title
;
Structure prediction by ZEFSAII (Michael W. Deem and Ramdas Pophale) SiO2 
 PCOD9408039
Probable space group: P N N A
;
_chemical_formula_sum "Si O2"
_cell_formula_units_Z 40
_cell_length_a 13.282578
_cell_length_b 12.582882
_cell_length_c 9.949956
_cell_angle_alpha 90.000000
_cell_angle_beta 90.000000
_cell_angle_gamma 90.000000
_cell_volume 1662.967107
_symmetry_space_group_name_H-M "P N N A"
_symmetry_group_IT_number 52
_symmetry_cell_setting 'orthorhombic'
loop_
_space_group_symop_operation_xyz
x,y,z
1/2-x,-y,z
x,1/2-y,1/2-z
1/2-x,1/2+y,1/2-z
-x,-y,-z
1/2+x,y,-z
-x,1/2+y,1/2+z
1/2+x,1/2-y,1/2+z
loop_
_atom_site_type_symbol
_atom_site_label
_atom_site_fract_x
_atom_site_fract_y
_atom_site_fract_z
Si Si1 0.637303 0.204483 0.596346
Si Si2 0.430611 0.028662 0.154766
Si Si3 0.250000 0.000000 0.681012
Si Si4 0.250000 0.500000 0.155132
Si Si5 0.566313 0.859308 0.321342
Si Si6 0.873596 0.889952 0.092578
O O1 0.647330 0.250000 0.750000
O O2 0.698714 0.097190 0.579792
O O3 0.519793 0.176699 0.575364
O O4 0.668486 0.292823 0.491595
O O5 0.509833 0.122745 0.135890
O O6 0.338396 0.047939 0.252659
O O7 0.499830 0.933009 0.218175
O O8 0.384012 0.986854 0.014995
O O9 0.343688 0.068677 0.623959
O O10 0.193234 0.081879 0.781116
O O11 0.600637 0.750000 0.250000
#
# Coordination Sequence:
#
# PCOD9408039 Si02
#       6
#     8   8   4   4   8   8
#     4  10  18  31  49  76 113 144 171 217 278 318
#     4   9  17  28  49  80 113 130 172 227 263 312
#     4  10  21  28  56  89 102 132 186 225 254 318
#     4  10  17  30  50  81 108 142 188 211 260 334
#     4   9  16  33  49  78 109 138 164 215 278 314
#     4  10  17  30  49  82 112 134 171 225 272 305
#
# _framework density 24.053391999999999
#
# number of rings (size 3 to 8) (size 9 to 14) (size 15 to 20)
#    0.000    2.400    6.000    0.600    0.000    0.000 
#    0.000    0.000    0.000   12.000    0.000   21.000 
#    0.000    0.000    0.000    0.000    0.000    0.000 
#
# Total GULP energy -223510.736441 kJ/mol
# GULP energy per Si atom -5587.768411 kJ/mol
# Density = 2.399865 g / cm^3
# Si number density = 24.053392 Si / 1000 Ang^3
#
#
#
# Elastic Constant Matrix: (Units=GPa)
#
#
# Indices 1 2 3 4 5 6 
#
# 1 108.9463 43.7667 17.4293 0.0000 0.0000 0.0000
# 2 43.7667 101.4057 7.0168 0.0000 0.0000 0.0000
# 3 17.4293 7.0168 31.4666 0.0000 0.0000 0.0000
# 4 0.0000 0.0000 0.0000 18.8594 0.0000 0.0000
# 5 0.0000 0.0000 0.0000 0.0000 29.4573 0.0000
# 6 0.0000 0.0000 0.0000 0.0000 0.0000 30.5432
#
#
#
# Elastic Compliance Matrix: (Units=1/GPa)
#
#
# Indices 1 2 3 4 5 6 
#
# 1 0.011996 -0.004792 -0.005576 0.000000 0.000000 0.000000
# 2 -0.004792 0.011930 -0.000006 0.000000 0.000000 0.000000
# 3 -0.005576 -0.000006 0.034870 0.000000 0.000000 0.000000
# 4 0.000000 0.000000 0.000000 0.053024 0.000000 0.000000
# 5 0.000000 0.000000 0.000000 0.000000 0.033947 0.000000
# 6 0.000000 0.000000 0.000000 0.000000 0.000000 0.032740
#
#
# Mechanical properties :
#
#
# Convention : Reuss Voigt Hill
#
# Bulk Modulus (GPa) = 26.28279 42.02716 34.15498
# Shear Modulus (GPa) = 23.59190 27.34571 25.46880
#
# Velocity S-wave (km/s) = 3.13519 3.37542 3.25752
# Velocity P-wave (km/s) = 4.90474 5.71853 5.32720
#
# Compressibility (1/GPa) = 0.03804771
#
# Stress axis : x y z
#
# Youngs Moduli (GPa) = 83.36268 83.82338 28.67828
#
# Poissons Ratio (x) = 0.40164 0.15991
# Poissons Ratio (y) = 0.39944 0.00018
# Poissons Ratio (z) = 0.46483 0.00052
#
# Static dielectric constant tensor:
#      x y z
#    x 1.914210 0.000000 0.000000 
#    y 0.000000 1.965740 0.000000 
#    z 0.000000 0.000000 2.084480 
# 
# From -- ./inp_files/27064.got.cif
#   From: 2010.05.17/outbox.cif.g08.bks.cpg/sg52_14_cif.got.tgz:27064.got - 2010.06.03 12:15:38.
