data_PCOD9408399
_publ_section_title
;
Structure prediction by ZEFSAII (Michael W. Deem and Ramdas Pophale) SiO2 
 PCOD9408399
Probable space group: P N N A
;
_chemical_formula_sum "Si O2"
_cell_formula_units_Z 40
_cell_length_a 11.157860
_cell_length_b 16.493363
_cell_length_c 8.957329
_cell_angle_alpha 90.000000
_cell_angle_beta 90.000000
_cell_angle_gamma 90.000000
_cell_volume 1648.422946
_symmetry_space_group_name_H-M "P N N A"
_symmetry_group_IT_number 52
_symmetry_cell_setting 'orthorhombic'
loop_
_space_group_symop_operation_xyz
x,y,z
1/2-x,-y,z
x,1/2-y,1/2-z
1/2-x,1/2+y,1/2-z
-x,-y,-z
1/2+x,y,-z
-x,1/2+y,1/2+z
1/2+x,1/2-y,1/2+z
loop_
_atom_site_type_symbol
_atom_site_label
_atom_site_fract_x
_atom_site_fract_y
_atom_site_fract_z
Si Si1 0.320572 0.873966 0.351915
Si Si2 0.021608 0.749237 0.585927
Si Si3 0.396776 0.526943 0.881944
Si Si4 0.522481 0.567325 0.374784
Si Si5 0.934900 0.163561 0.692655
O O1 0.388137 0.789614 0.397454
O O2 0.306941 0.927344 0.503135
O O3 0.409140 0.917882 0.235169
O O4 0.197184 0.862649 0.264002
O O5 0.075245 0.750000 0.750000
O O6 0.085085 0.813567 0.481535
O O7 0.034783 0.655026 0.544297
O O8 0.378076 0.460895 0.749799
O O9 0.463449 0.598330 0.791720
O O10 0.500000 0.500000 0.000000
O O11 0.500000 0.500000 0.500000
O O12 0.976187 0.250000 0.750000
#
# Coordination Sequence:
#
# PCOD9408399 Si02
#       5
#     8   8   8   8   8
#     4   9  20  38  58  78 109 151 187 221 274 340
#     4   9  19  37  56  76 108 147 182 225 277 327
#     4   9  20  36  56  80 113 152 182 219 280 342
#     4  10  18  33  56  82 111 141 178 231 278 314
#     4  11  20  35  60  85 106 143 193 231 270 330
#
# _framework density 24.265616999999999
#
# number of rings (size 3 to 8) (size 9 to 14) (size 15 to 20)
#    0.000    2.400    0.000    4.200    0.000    3.200 
#    0.000   10.000    0.000   21.600    0.000    0.000 
#    0.000    0.000    0.000    0.000    0.000    0.000 
#
# Total GULP energy -222881.957952 kJ/mol
# GULP energy per Si atom -5572.048949 kJ/mol
# Density = 2.421039 g / cm^3
# Si number density = 24.265617 Si / 1000 Ang^3
#
#
#
# Elastic Constant Matrix: (Units=GPa)
#
#
# Indices 1 2 3 4 5 6 
#
# 1 38.1241 22.7935 -10.6619 0.0000 0.0000 0.0000
# 2 22.7935 153.4529 16.5430 0.0000 0.0000 0.0000
# 3 -10.6619 16.5430 57.7022 0.0000 0.0000 0.0000
# 4 0.0000 0.0000 0.0000 60.5637 0.0000 0.0000
# 5 0.0000 0.0000 0.0000 0.0000 21.3277 0.0000
# 6 0.0000 0.0000 0.0000 0.0000 0.0000 30.8255
#
#
#
# Elastic Compliance Matrix: (Units=1/GPa)
#
#
# Indices 1 2 3 4 5 6 
#
# 1 0.031585 -0.005490 0.007410 0.000000 0.000000 0.000000
# 2 -0.005490 0.007679 -0.003216 0.000000 0.000000 0.000000
# 3 0.007410 -0.003216 0.019622 0.000000 0.000000 0.000000
# 4 0.000000 0.000000 0.000000 0.016512 0.000000 0.000000
# 5 0.000000 0.000000 0.000000 0.000000 0.046887 0.000000
# 6 0.000000 0.000000 0.000000 0.000000 0.000000 0.032441
#
#
# Mechanical properties :
#
#
# Convention : Reuss Voigt Hill
#
# Bulk Modulus (GPa) = 17.76416 34.06982 25.91699
# Shear Modulus (GPa) = 28.39588 37.25037 32.82312
#
# Velocity S-wave (km/s) = 3.42455 3.92230 3.68184
# Velocity P-wave (km/s) = 4.79305 5.88077 5.36455
#
# Compressibility (1/GPa) = 0.05629313
#
# Stress axis : x y z
#
# Youngs Moduli (GPa) = 31.66054 130.22712 50.96426
#
# Poissons Ratio (x) = 0.71500 -0.37766
# Poissons Ratio (y) = 0.17383 0.16390
# Poissons Ratio (z) = -0.23461 0.41881
#
# Static dielectric constant tensor:
#      x y z
#    x 1.994890 0.000000 0.000000 
#    y 0.000000 2.044160 0.000000 
#    z 0.000000 0.000000 -1.984930 
# 
# From -- ./inp_files/10229.got.cif
#   From: 2010.05.17/outbox.cif.g08.bks.cpg/sg52_6_cif.got.tgz:10229.got - 2010.06.03 12:15:38.
