data_PCOD9408273
_publ_section_title
;
Structure prediction by ZEFSAII (Michael W. Deem and Ramdas Pophale) SiO2 
 PCOD9408273
Probable space group: P N N A
;
_chemical_formula_sum "Si O2"
_cell_formula_units_Z 40
_cell_length_a 7.908938
_cell_length_b 12.495747
_cell_length_c 14.918935
_cell_angle_alpha 90.000000
_cell_angle_beta 90.000000
_cell_angle_gamma 90.000000
_cell_volume 1474.409825
_symmetry_space_group_name_H-M "P N N A"
_symmetry_group_IT_number 52
_symmetry_cell_setting 'orthorhombic'
loop_
_space_group_symop_operation_xyz
x,y,z
1/2-x,-y,z
x,1/2-y,1/2-z
1/2-x,1/2+y,1/2-z
-x,-y,-z
1/2+x,y,-z
-x,1/2+y,1/2+z
1/2+x,1/2-y,1/2+z
loop_
_atom_site_type_symbol
_atom_site_label
_atom_site_fract_x
_atom_site_fract_y
_atom_site_fract_z
Si Si1 0.485986 0.122682 0.221878
Si Si2 0.885312 0.368736 0.905030
Si Si3 0.205450 0.150388 0.084522
Si Si4 0.675826 0.845889 0.120523
Si Si5 0.264305 0.384954 0.903329
O O1 0.474241 0.250000 0.250000
O O2 0.411950 0.067981 0.312326
O O3 0.356372 0.101195 0.142618
O O4 0.678694 0.111881 0.187463
O O5 0.744860 0.276943 0.897488
O O6 0.079378 0.333067 0.918130
O O7 0.849554 0.414693 0.002576
O O8 0.018383 0.116410 0.114572
O O9 0.246916 0.135380 0.979397
O O10 0.647993 0.718000 0.138658
O O11 0.250000 0.500000 0.856822
#
# Coordination Sequence:
#
# PCOD9408273 Si02
#       5
#     8   8   8   8   8
#     4  10  19  34  49  74 107 141 179 237 265 322
#     4  10  20  35  48  77 110 144 192 228 262 320
#     4  10  18  31  53  74 104 141 173 222 281 324
#     4  11  18  33  53  78 108 143 180 220 277 325
#     4  11  20  34  54  74 112 157 187 216 267 332
#
# _framework density 27.129501000000001
#
# number of rings (size 3 to 8) (size 9 to 14) (size 15 to 20)
#    0.000    1.600    6.000    4.200    0.000    2.400 
#    3.600    0.000    0.000    0.000    0.000    0.000 
#    0.000    4.800    1.200    0.200    0.000    0.800 
#
# Total GULP energy -223095.372155 kJ/mol
# GULP energy per Si atom -5577.384304 kJ/mol
# Density = 2.706775 g / cm^3
# Si number density = 27.129501 Si / 1000 Ang^3
#
#
#
# Elastic Constant Matrix: (Units=GPa)
#
#
# Indices 1 2 3 4 5 6 
#
# 1 221.5990 53.8777 56.6043 0.0000 0.0000 0.0000
# 2 53.8777 103.2622 21.7657 0.0000 0.0000 0.0000
# 3 56.6043 21.7657 190.1708 0.0000 0.0000 0.0000
# 4 0.0000 0.0000 0.0000 -20.3325 0.0000 0.0000
# 5 0.0000 0.0000 0.0000 0.0000 55.0630 0.0000
# 6 0.0000 0.0000 0.0000 0.0000 0.0000 30.4380
#
#
#
# Elastic Compliance Matrix: (Units=1/GPa)
#
#
# Indices 1 2 3 4 5 6 
#
# 1 0.005481 -0.002578 -0.001336 0.000000 0.000000 0.000000
# 2 -0.002578 0.011136 -0.000507 0.000000 0.000000 0.000000
# 3 -0.001336 -0.000507 0.005714 0.000000 0.000000 0.000000
# 4 0.000000 0.000000 0.000000 -0.049182 0.000000 0.000000
# 5 0.000000 0.000000 0.000000 0.000000 0.018161 0.000000
# 6 0.000000 0.000000 0.000000 0.000000 0.000000 0.032854
#
#
# Mechanical properties :
#
#
# Convention : Reuss Voigt Hill
#
# Bulk Modulus (GPa) = 74.13944 86.61416 80.37680
# Shear Modulus (GPa) = 133.32484 38.55265 85.93874
#
# Velocity S-wave (km/s) = 7.01787 3.77378 5.63436
# Velocity P-wave (km/s) = 9.64649 7.14032 8.48642
#
# Compressibility (1/GPa) = 0.01348810
#
# Stress axis : x y z
#
# Youngs Moduli (GPa) = 182.45578 89.79830 175.00160
#
# Poissons Ratio (x) = 0.23150 0.23385
# Poissons Ratio (y) = 0.47037 0.08877
# Poissons Ratio (z) = 0.24381 0.04555
#
# Static dielectric constant tensor:
#      x y z
#    x 2.081430 0.000000 0.000000 
#    y 0.000000 2.286550 0.000000 
#    z 0.000000 0.000000 2.205410 
# 
# From -- ./inp_files/24567.got.cif
#   From: 2010.05.17/outbox.cif.g08.bks.cpg/sg52_13_cif.got.tgz:24567.got - 2010.06.03 12:15:38.
