data_PCOD9408050
_publ_section_title
;
Structure prediction by ZEFSAII (Michael W. Deem and Ramdas Pophale) SiO2 
 PCOD9408050
Probable space group: P N N A
;
_chemical_formula_sum "Si O2"
_cell_formula_units_Z 60
_cell_length_a 15.757627
_cell_length_b 16.997991
_cell_length_c 11.674927
_cell_angle_alpha 90.000000
_cell_angle_beta 90.000000
_cell_angle_gamma 90.000000
_cell_volume 3127.105870
_symmetry_space_group_name_H-M "P N N A"
_symmetry_group_IT_number 52
_symmetry_cell_setting 'orthorhombic'
loop_
_space_group_symop_operation_xyz
x,y,z
1/2-x,-y,z
x,1/2-y,1/2-z
1/2-x,1/2+y,1/2-z
-x,-y,-z
1/2+x,y,-z
-x,1/2+y,1/2+z
1/2+x,1/2-y,1/2+z
loop_
_atom_site_type_symbol
_atom_site_label
_atom_site_fract_x
_atom_site_fract_y
_atom_site_fract_z
Si Si1 0.796196 0.778650 0.579228
Si Si2 0.594460 0.028583 0.967676
Si Si3 0.649432 0.325673 0.390511
Si Si4 0.628120 0.134629 0.771592
Si Si5 0.339330 0.387370 0.601588
Si Si6 0.563675 0.832977 0.294842
Si Si7 0.099439 0.734928 0.030428
Si Si8 0.479010 0.750000 0.750000
O O1 0.839075 0.757307 0.457716
O O2 0.830031 0.854267 0.647056
O O3 0.821099 0.699800 0.652628
O O4 0.695532 0.784081 0.566812
O O5 0.620235 0.051521 0.837460
O O6 0.604128 0.112309 0.027920
O O7 0.500000 0.000000 0.000000
O O8 0.656009 0.964874 0.024909
O O9 0.744813 0.356656 0.375028
O O10 0.587739 0.317970 0.283334
O O11 0.531604 0.161772 0.751342
O O12 0.384417 0.397889 0.724519
O O13 0.391352 0.321215 0.529001
O O14 0.601844 0.750000 0.250000
O O15 0.569096 0.824936 0.430999
O O16 0.037834 0.736525 0.139282
#
# Coordination Sequence:
#
# PCOD9408050 Si02
#       8
#     8   8   8   8   8   8   8   4
#     4   9  18  34  53  82 116 152 197 236 296 348
#     4  11  20  35  57  87 116 150 190 242 304 355
#     4  10  23  34  55  84 121 154 192 245 291 352
#     4  10  17  30  56  83 116 150 191 245 291 353
#     4  10  21  38  57  86 120 152 195 239 301 359
#     4  10  18  32  55  84 116 153 193 241 299 348
#     4  10  22  35  57  85 122 156 192 250 296 345
#     4  12  22  34  52  86 122 150 196 248 294 334
#
# _framework density 19.187069999999999
#
# number of rings (size 3 to 8) (size 9 to 14) (size 15 to 20)
#    0.000    1.867    2.667    2.800    8.400    0.000 
#    0.000    1.333    0.000    0.800    3.467    0.000 
#    0.000    0.000    0.000    0.000    0.000    0.000 
#
# Total GULP energy -334102.980283 kJ/mol
# GULP energy per Si atom -5568.383005 kJ/mol
# Density = 1.914340 g / cm^3
# Si number density = 19.187070 Si / 1000 Ang^3
#
#
#
# Elastic Constant Matrix: (Units=GPa)
#
#
# Indices 1 2 3 4 5 6 
#
# 1 105.4266 20.0331 61.3280 0.0000 0.0000 0.0000
# 2 20.0331 52.6546 40.0994 0.0000 0.0000 0.0000
# 3 61.3280 40.0994 116.0308 0.0000 0.0000 0.0000
# 4 0.0000 0.0000 0.0000 37.2356 0.0000 0.0000
# 5 0.0000 0.0000 0.0000 0.0000 22.8430 0.0000
# 6 0.0000 0.0000 0.0000 0.0000 0.0000 23.6661
#
#
#
# Elastic Compliance Matrix: (Units=1/GPa)
#
#
# Indices 1 2 3 4 5 6 
#
# 1 0.013703 0.000410 -0.007384 0.000000 0.000000 0.000000
# 2 0.000410 0.025788 -0.009129 0.000000 0.000000 0.000000
# 3 -0.007384 -0.009129 0.015676 0.000000 0.000000 0.000000
# 4 0.000000 0.000000 0.000000 0.026856 0.000000 0.000000
# 5 0.000000 0.000000 0.000000 0.000000 0.043777 0.000000
# 6 0.000000 0.000000 0.000000 0.000000 0.000000 0.042255
#
#
# Mechanical properties :
#
#
# Convention : Reuss Voigt Hill
#
# Bulk Modulus (GPa) = 43.55251 57.44811 50.50031
# Shear Modulus (GPa) = 24.04834 26.92570 25.48702
#
# Velocity S-wave (km/s) = 3.54413 3.75016 3.64860
# Velocity P-wave (km/s) = 6.28458 6.98267 6.64280
#
# Compressibility (1/GPa) = 0.02296079
#
# Stress axis : x y z
#
# Youngs Moduli (GPa) = 72.97698 38.77808 63.79050
#
# Poissons Ratio (x) = -0.01591 0.47106
# Poissons Ratio (y) = -0.02993 0.58234
# Poissons Ratio (z) = 0.53889 0.35400
#
# Static dielectric constant tensor:
#      x y z
#    x 1.701410 0.000000 0.000000 
#    y 0.000000 1.698090 0.000000 
#    z 0.000000 0.000000 1.874530 
# 
# From -- ./inp_files/19828.got.cif
#   From: 2010.05.17/outbox.cif.g08.bks.cpg/sg52_10_cif.got.tgz:19828.got - 2010.06.03 12:15:38.
