data_PCOD9408207
_publ_section_title
;
Structure prediction by ZEFSAII (Michael W. Deem and Ramdas Pophale) SiO2 
 PCOD9408207
Probable space group: P N N A
;
_chemical_formula_sum "Si O2"
_cell_formula_units_Z 40
_cell_length_a 8.773776
_cell_length_b 11.262888
_cell_length_c 19.797559
_cell_angle_alpha 90.000000
_cell_angle_beta 90.000000
_cell_angle_gamma 90.000000
_cell_volume 1956.356302
_symmetry_space_group_name_H-M "P N N A"
_symmetry_group_IT_number 52
_symmetry_cell_setting 'orthorhombic'
loop_
_space_group_symop_operation_xyz
x,y,z
1/2-x,-y,z
x,1/2-y,1/2-z
1/2-x,1/2+y,1/2-z
-x,-y,-z
1/2+x,y,-z
-x,1/2+y,1/2+z
1/2+x,1/2-y,1/2+z
loop_
_atom_site_type_symbol
_atom_site_label
_atom_site_fract_x
_atom_site_fract_y
_atom_site_fract_z
Si Si1 0.866435 0.392756 0.563166
Si Si2 0.309954 0.302146 0.178185
Si Si3 0.888246 0.583476 0.932832
Si Si4 0.886570 0.578206 0.140453
Si Si5 0.660468 0.217389 0.040706
O O1 0.750000 0.500000 0.575245
O O2 0.845611 0.302049 0.625074
O O3 0.809329 0.332550 0.494066
O O4 0.048593 0.393757 0.555222
O O5 0.266646 0.250000 0.250000
O O6 0.175986 0.371743 0.139721
O O7 0.466367 0.379257 0.183485
O O8 0.750000 0.500000 0.958330
O O9 0.035493 0.504722 0.917364
O O10 0.907216 0.693157 0.983210
O O11 0.750000 0.500000 0.171319
O O12 0.822067 0.697406 0.105149
#
# Coordination Sequence:
#
# PCOD9408207 Si02
#       5
#     8   8   8   8   8
#     4  10  20  32  50  72 101 139 171 206 251 302
#     4   9  20  36  52  72 101 136 178 214 243 296
#     4   9  17  30  51  77 100 131 168 208 257 303
#     4  10  18  30  52  78 102 127 156 210 269 307
#     4  10  18  30  48  75 105 129 163 208 254 308
#
# _framework density 20.446173999999999
#
# number of rings (size 3 to 8) (size 9 to 14) (size 15 to 20)
#    0.000    2.400    0.000    4.200    0.000    2.400 
#    0.000    1.000    0.000    9.600    0.000    0.000 
#    0.000    0.000    0.000    0.000    0.000    0.000 
#
# Total GULP energy -222884.579289 kJ/mol
# GULP energy per Si atom -5572.114482 kJ/mol
# Density = 2.039964 g / cm^3
# Si number density = 20.446174 Si / 1000 Ang^3
#
#
#
# Elastic Constant Matrix: (Units=GPa)
#
#
# Indices 1 2 3 4 5 6 
#
# 1 71.1169 32.8376 11.7377 0.0000 0.0000 0.0000
# 2 32.8376 72.6372 5.1841 0.0000 0.0000 0.0000
# 3 11.7377 5.1841 52.1009 0.0000 0.0000 0.0000
# 4 0.0000 0.0000 0.0000 20.0082 0.0000 0.0000
# 5 0.0000 0.0000 0.0000 0.0000 3.9937 0.0000
# 6 0.0000 0.0000 0.0000 0.0000 0.0000 37.7044
#
#
#
# Elastic Compliance Matrix: (Units=1/GPa)
#
#
# Indices 1 2 3 4 5 6 
#
# 1 0.018326 -0.008047 -0.003328 0.000000 0.000000 0.000000
# 2 -0.008047 0.017399 0.000082 0.000000 0.000000 0.000000
# 3 -0.003328 0.000082 0.019935 0.000000 0.000000 0.000000
# 4 0.000000 0.000000 0.000000 0.049980 0.000000 0.000000
# 5 0.000000 0.000000 0.000000 0.000000 0.250393 0.000000
# 6 0.000000 0.000000 0.000000 0.000000 0.000000 0.026522
#
#
# Mechanical properties :
#
#
# Convention : Reuss Voigt Hill
#
# Bulk Modulus (GPa) = 30.23571 32.81932 31.52751
# Shear Modulus (GPa) = 12.01441 22.08097 17.04769
#
# Velocity S-wave (km/s) = 2.42670 3.28983 2.89066
# Velocity P-wave (km/s) = 4.76150 5.52423 5.15698
#
# Compressibility (1/GPa) = 0.03307347
#
# Stress axis : x y z
#
# Youngs Moduli (GPa) = 54.56580 57.47361 50.16268
#
# Poissons Ratio (x) = 0.46252 0.16694
# Poissons Ratio (y) = 0.43912 -0.00410
# Poissons Ratio (z) = 0.18160 -0.00470
#
# Static dielectric constant tensor:
#      x y z
#    x 1.750560 0.000000 0.000000 
#    y 0.000000 1.791960 0.000000 
#    z 0.000000 0.000000 1.700990 
# 
# From -- ./inp_files/35743.got.cif
#   From: 2010.05.17/outbox.cif.g08.bks.cpg/sg52_18_cif.got.tgz:35743.got - 2010.06.03 12:15:38.
