data_PCOD9408212
_publ_section_title
;
Structure prediction by ZEFSAII (Michael W. Deem and Ramdas Pophale) SiO2 
 PCOD9408212
Probable space group: P N N A
;
_chemical_formula_sum "Si O2"
_cell_formula_units_Z 40
_cell_length_a 14.338374
_cell_length_b 8.176227
_cell_length_c 20.426831
_cell_angle_alpha 90.000000
_cell_angle_beta 90.000000
_cell_angle_gamma 90.000000
_cell_volume 2394.715033
_symmetry_space_group_name_H-M "P N N A"
_symmetry_group_IT_number 52
_symmetry_cell_setting 'orthorhombic'
loop_
_space_group_symop_operation_xyz
x,y,z
1/2-x,-y,z
x,1/2-y,1/2-z
1/2-x,1/2+y,1/2-z
-x,-y,-z
1/2+x,y,-z
-x,1/2+y,1/2+z
1/2+x,1/2-y,1/2+z
loop_
_atom_site_type_symbol
_atom_site_label
_atom_site_fract_x
_atom_site_fract_y
_atom_site_fract_z
Si Si1 0.605229 0.392315 0.332445
Si Si2 0.344874 0.072190 0.509771
Si Si3 0.537201 0.914311 0.286911
Si Si4 0.196731 0.737863 0.640077
Si Si5 0.998637 0.624447 0.091207
O O1 0.556659 0.442790 0.264840
O O2 0.699901 0.285694 0.331990
O O3 0.642216 0.565753 0.359765
O O4 0.533685 0.293207 0.376732
O O5 0.308645 0.191823 0.567092
O O6 0.411519 0.144521 0.454274
O O7 0.250000 0.000000 0.480665
O O8 0.412630 0.942824 0.546992
O O9 0.498960 0.750000 0.250000
O O10 0.637982 0.857939 0.313982
O O11 0.486638 0.990559 0.350447
#
# Coordination Sequence:
#
# PCOD9408212 Si02
#       5
#     8   8   8   8   8
#     4  10  18  30  49  77 107 132 170 214 260 325
#     4  10  19  36  51  69 103 135 179 212 250 314
#     4   9  19  31  47  74 107 131 162 211 266 316
#     4   9  19  31  47  76 106 141 164 210 270 311
#     4  10  20  31  53  75  95 141 171 210 261 305
#
# _framework density 16.703448999999999
#
# number of rings (size 3 to 8) (size 9 to 14) (size 15 to 20)
#    0.000    2.400    2.000    0.600    0.000   10.400 
#    0.000    0.000    0.000    2.400    0.000    0.000 
#    0.000    0.000    0.000    0.000    0.000    0.000 
#
# Total GULP energy -222881.985474 kJ/mol
# GULP energy per Si atom -5572.049637 kJ/mol
# Density = 1.666543 g / cm^3
# Si number density = 16.703449 Si / 1000 Ang^3
#
#
#
# Elastic Constant Matrix: (Units=GPa)
#
#
# Indices 1 2 3 4 5 6 
#
# 1 52.6636 15.2243 34.7315 0.0000 0.0000 0.0000
# 2 15.2243 48.8206 25.7315 0.0000 0.0000 0.0000
# 3 34.7315 25.7315 83.5257 0.0000 0.0000 0.0000
# 4 0.0000 0.0000 0.0000 27.7535 0.0000 0.0000
# 5 0.0000 0.0000 0.0000 0.0000 8.3758 0.0000
# 6 0.0000 0.0000 0.0000 0.0000 0.0000 14.1837
#
#
#
# Elastic Compliance Matrix: (Units=1/GPa)
#
#
# Indices 1 2 3 4 5 6 
#
# 1 0.026510 -0.002933 -0.010120 0.000000 0.000000 0.000000
# 2 -0.002933 0.024778 -0.006414 0.000000 0.000000 0.000000
# 3 -0.010120 -0.006414 0.018156 0.000000 0.000000 0.000000
# 4 0.000000 0.000000 0.000000 0.036031 0.000000 0.000000
# 5 0.000000 0.000000 0.000000 0.000000 0.119392 0.000000
# 6 0.000000 0.000000 0.000000 0.000000 0.000000 0.070503
#
#
# Mechanical properties :
#
#
# Convention : Reuss Voigt Hill
#
# Bulk Modulus (GPa) = 32.77470 37.37606 35.07538
# Shear Modulus (GPa) = 14.51482 17.35077 15.93279
#
# Velocity S-wave (km/s) = 2.95103 3.22647 3.09182
# Velocity P-wave (km/s) = 5.59245 6.02536 5.81294
#
# Compressibility (1/GPa) = 0.03051134
#
# Stress axis : x y z
#
# Youngs Moduli (GPa) = 37.72095 40.35794 55.07750
#
# Poissons Ratio (x) = 0.11838 0.55738
# Poissons Ratio (y) = 0.11065 0.35325
# Poissons Ratio (z) = 0.38173 0.25884
#
# Static dielectric constant tensor:
#      x y z
#    x 1.524720 0.000000 0.000000 
#    y 0.000000 1.604610 0.000000 
#    z 0.000000 0.000000 1.596270 
# 
# From -- ./inp_files/32848.got.cif
#   From: 2010.05.17/outbox.cif.g08.bks.cpg/sg52_17_cif.got.tgz:32848.got - 2010.06.03 12:15:38.
