data_PCOD9408634
_publ_section_title
;
Structure prediction by ZEFSAII (Michael W. Deem and Ramdas Pophale) SiO2 
 PCOD9408634
Probable space group: P N N A
;
_chemical_formula_sum "Si O2"
_cell_formula_units_Z 40
_cell_length_a 14.071906
_cell_length_b 15.491211
_cell_length_c 9.208792
_cell_angle_alpha 90.000000
_cell_angle_beta 90.000000
_cell_angle_gamma 90.000000
_cell_volume 2007.432534
_symmetry_space_group_name_H-M "P N N A"
_symmetry_group_IT_number 52
_symmetry_cell_setting 'orthorhombic'
loop_
_space_group_symop_operation_xyz
x,y,z
1/2-x,-y,z
x,1/2-y,1/2-z
1/2-x,1/2+y,1/2-z
-x,-y,-z
1/2+x,y,-z
-x,1/2+y,1/2+z
1/2+x,1/2-y,1/2+z
loop_
_atom_site_type_symbol
_atom_site_label
_atom_site_fract_x
_atom_site_fract_y
_atom_site_fract_z
Si Si1 0.969834 0.793220 0.892877
Si Si2 0.978552 0.868021 0.399197
Si Si3 0.639962 0.104044 0.117887
Si Si4 0.147979 0.907178 0.799858
Si Si5 0.855586 0.021692 0.527856
O O1 0.926612 0.750000 0.750000
O O2 0.064310 0.842638 0.840465
O O3 0.991992 0.718598 0.009774
O O4 0.898621 0.859134 0.968759
O O5 0.923450 0.858124 0.248790
O O6 0.078053 0.917587 0.375114
O O7 0.913786 0.934035 0.494680
O O8 0.749511 0.125739 0.149185
O O9 0.630813 0.000506 0.127010
O O10 0.152876 0.929287 0.628117
O O11 0.750000 0.000000 0.580032
#
# Coordination Sequence:
#
# PCOD9408634 Si02
#       5
#     8   8   8   8   8
#     4  12  24  37  61  96 133 163 207 268 317 369
#     4  10  21  37  63  96 124 160 215 264 315 376
#     4  10  22  43  69  89 122 173 219 256 313 390
#     4  10  20  42  68  88 121 177 217 249 324 394
#     4  10  18  38  67  91 119 166 219 256 317 393
#
# _framework density 19.92595
#
# number of rings (size 3 to 8) (size 9 to 14) (size 15 to 20)
#    0.000    1.600    6.000    1.200    0.000    3.200 
#    0.000    4.000    0.000    0.000    0.000    0.000 
#    0.000    0.000    0.000    0.000    0.000    0.000 
#
# Total GULP energy -223530.680148 kJ/mol
# GULP energy per Si atom -5588.267004 kJ/mol
# Density = 1.988060 g / cm^3
# Si number density = 19.925950 Si / 1000 Ang^3
#
#
#
# Elastic Constant Matrix: (Units=GPa)
#
#
# Indices 1 2 3 4 5 6 
#
# 1 99.1907 27.8235 24.4683 0.0000 0.0000 0.0000
# 2 27.8235 42.1035 27.0944 0.0000 0.0000 0.0000
# 3 24.4683 27.0944 71.7126 0.0000 0.0000 0.0000
# 4 0.0000 0.0000 0.0000 19.3164 0.0000 0.0000
# 5 0.0000 0.0000 0.0000 0.0000 25.2513 0.0000
# 6 0.0000 0.0000 0.0000 0.0000 0.0000 0.8191
#
#
#
# Elastic Compliance Matrix: (Units=1/GPa)
#
#
# Indices 1 2 3 4 5 6 
#
# 1 0.012498 -0.007287 -0.001511 0.000000 0.000000 0.000000
# 2 -0.007287 0.035629 -0.010975 0.000000 0.000000 0.000000
# 3 -0.001511 -0.010975 0.018607 0.000000 0.000000 0.000000
# 4 0.000000 0.000000 0.000000 0.051769 0.000000 0.000000
# 5 0.000000 0.000000 0.000000 0.000000 0.039602 0.000000
# 6 0.000000 0.000000 0.000000 0.000000 0.000000 1.220829
#
#
# Mechanical properties :
#
#
# Convention : Reuss Voigt Hill
#
# Bulk Modulus (GPa) = 36.78121 41.30879 39.04500
# Shear Modulus (GPa) = 3.50252 17.98541 10.74396
#
# Velocity S-wave (km/s) = 1.32725 3.00761 2.32458
# Velocity P-wave (km/s) = 4.56594 5.73037 5.18097
#
# Compressibility (1/GPa) = 0.02718779
#
# Stress axis : x y z
#
# Youngs Moduli (GPa) = 80.01033 28.06697 53.74369
#
# Poissons Ratio (x) = 0.20452 0.08123
# Poissons Ratio (y) = 0.58302 0.58984
# Poissons Ratio (z) = 0.12092 0.30804
#
# Static dielectric constant tensor:
#      x y z
#    x 1.688630 0.000000 0.000000 
#    y 0.000000 1.742930 0.000000 
#    z 0.000000 0.000000 1.706390 
# 
# From -- ./inp_files/10052.got.cif
#   From: 2010.05.17/outbox.cif.g08.bks.cpg/sg52_6_cif.got.tgz:10052.got - 2010.06.03 12:15:38.
