data_PCOD9408713
_publ_section_title
;
Structure prediction by ZEFSAII (Michael W. Deem and Ramdas Pophale) SiO2 
 PCOD9408713
Probable space group: P N N A
;
_chemical_formula_sum "Si O2"
_cell_formula_units_Z 40
_cell_length_a 14.264827
_cell_length_b 17.649360
_cell_length_c 5.684587
_cell_angle_alpha 90.000000
_cell_angle_beta 90.000000
_cell_angle_gamma 90.000000
_cell_volume 1431.180427
_symmetry_space_group_name_H-M "P N N A"
_symmetry_group_IT_number 52
_symmetry_cell_setting 'orthorhombic'
loop_
_space_group_symop_operation_xyz
x,y,z
1/2-x,-y,z
x,1/2-y,1/2-z
1/2-x,1/2+y,1/2-z
-x,-y,-z
1/2+x,y,-z
-x,1/2+y,1/2+z
1/2+x,1/2-y,1/2+z
loop_
_atom_site_type_symbol
_atom_site_label
_atom_site_fract_x
_atom_site_fract_y
_atom_site_fract_z
Si Si1 0.377037 0.855611 0.500000
Si Si2 0.893190 0.027747 0.500000
Si Si3 0.290419 0.235987 1.000000
Si Si4 0.391384 0.864568 1.000000
Si Si5 0.353202 0.466128 0.500000
O O1 0.343272 0.944001 0.500000
O O2 0.288807 0.801185 0.500000
O O3 0.427860 0.839752 0.253884
O O4 0.427860 0.839752 0.746116
O O5 0.872431 0.069222 0.745222
O O6 0.872431 0.069222 0.254779
O O7 0.000000 0.000000 0.500000
O O8 0.340349 0.250000 0.250000
O O9 0.220035 0.161434 1.000000
O O10 0.340349 0.250000 0.750000
O O11 0.409995 0.954257 1.000000
O O12 0.250000 0.500000 0.500000
#
# Coordination Sequence:
#
# PCOD9408713 Si02
#       5
#     8   8   8   8   8
#     4   8  14  23  37  57  83 107 136 177 221 255
#     4  10  19  31  46  66  94 123 153 187 226 273
#     4   8  12  20  34  54  80 102 130 176 224 248
#     4   8  14  23  37  57  83 107 136 177 221 255
#     4  10  19  31  46  66  94 123 153 187 226 273
#
# _framework density 27.948955000000002
#
# number of rings (size 3 to 8) (size 9 to 14) (size 15 to 20)
#    0.000    3.200    0.000    1.200    0.000    0.000 
#    0.000    0.000    0.000    0.000    0.000    0.000 
#    0.000  240.000    0.000    0.000    0.000    0.000 
#
# Total GULP energy -223178.197161 kJ/mol
# GULP energy per Si atom -5579.454929 kJ/mol
# Density = 2.788534 g / cm^3
# Si number density = 27.948955 Si / 1000 Ang^3
#
#
#
# Elastic Constant Matrix: (Units=GPa)
#
#
# Indices 1 2 3 4 5 6 
#
# 1 71.0641 -2.5952 46.6027 0.0000 0.0000 0.0000
# 2 -2.5952 121.9974 -5.7043 0.0000 0.0000 0.0000
# 3 46.6027 -5.7043 425.0801 0.0000 0.0000 0.0000
# 4 0.0000 0.0000 0.0000 5.2067 0.0000 0.0000
# 5 0.0000 0.0000 0.0000 0.0000 9.1322 0.0000
# 6 0.0000 0.0000 0.0000 0.0000 0.0000 24.1613
#
#
#
# Elastic Compliance Matrix: (Units=1/GPa)
#
#
# Indices 1 2 3 4 5 6 
#
# 1 0.015169 0.000245 -0.001660 0.000000 0.000000 0.000000
# 2 0.000245 0.008206 0.000083 0.000000 0.000000 0.000000
# 3 -0.001660 0.000083 0.002536 0.000000 0.000000 0.000000
# 4 0.000000 0.000000 0.000000 0.192059 0.000000 0.000000
# 5 0.000000 0.000000 0.000000 0.000000 0.109502 0.000000
# 6 0.000000 0.000000 0.000000 0.000000 0.000000 0.041389
#
#
# Mechanical properties :
#
#
# Convention : Reuss Voigt Hill
#
# Bulk Modulus (GPa) = 43.01458 77.19421 60.10440
# Shear Modulus (GPa) = 13.18312 46.35594 29.76953
#
# Velocity S-wave (km/s) = 2.17419 4.07700 3.26719
# Velocity P-wave (km/s) = 4.66118 7.05990 5.98201
#
# Compressibility (1/GPa) = 0.02324793
#
# Stress axis : x y z
#
# Youngs Moduli (GPa) = 65.92309 121.86199 394.38741
#
# Poissons Ratio (x) = -0.02987 0.65458
# Poissons Ratio (y) = -0.01616 -0.03283
# Poissons Ratio (z) = 0.10942 -0.01015
#
# Static dielectric constant tensor:
#      x y z
#    x 2.166470 0.000000 0.000000 
#    y 0.000000 2.227360 0.000000 
#    z 0.000000 0.000000 2.271250 
# 
# From -- ./inp_files/1336.got.cif
#   From: 2010.05.17/outbox.cif.g08.bks.cpg/sg52_1_cif.got.tgz:1336.got - 2010.06.03 12:15:38.
