data_PCOD9408354
_publ_section_title
;
Structure prediction by ZEFSAII (Michael W. Deem and Ramdas Pophale) SiO2 
 PCOD9408354
Probable space group: P N N A
;
_chemical_formula_sum "Si O2"
_cell_formula_units_Z 52
_cell_length_a 27.627430
_cell_length_b 5.084603
_cell_length_c 18.676483
_cell_angle_alpha 90.000000
_cell_angle_beta 90.000000
_cell_angle_gamma 90.000000
_cell_volume 2623.569863
_symmetry_space_group_name_H-M "P N N A"
_symmetry_group_IT_number 52
_symmetry_cell_setting 'orthorhombic'
loop_
_space_group_symop_operation_xyz
x,y,z
1/2-x,-y,z
x,1/2-y,1/2-z
1/2-x,1/2+y,1/2-z
-x,-y,-z
1/2+x,y,-z
-x,1/2+y,1/2+z
1/2+x,1/2-y,1/2+z
loop_
_atom_site_type_symbol
_atom_site_label
_atom_site_fract_x
_atom_site_fract_y
_atom_site_fract_z
Si Si1 0.366518 0.885308 0.539894
Si Si2 0.821825 0.137605 0.973960
Si Si3 0.967466 0.749224 0.983159
Si Si4 0.651002 0.788111 0.671700
Si Si5 0.250000 0.000000 0.926971
Si Si6 0.915940 0.789259 0.830556
Si Si7 0.802645 0.653923 0.171562
O O1 0.335629 0.660307 0.496577
O O2 0.420292 0.772885 0.534217
O O3 0.344323 0.953623 0.618655
O O4 0.363398 0.159859 0.497485
O O5 0.814161 0.196324 0.891475
O O6 0.774650 0.207402 0.020598
O O7 0.948999 0.751238 0.900478
O O8 0.000000 0.500000 0.000000
O O9 0.000000 0.000000 0.000000
O O10 0.672727 0.750000 0.750000
O O11 0.606395 0.581157 0.666604
O O12 0.628080 0.077660 0.664359
O O13 0.290771 0.914086 0.872803
O O14 0.937166 0.750000 0.750000
O O15 0.750000 0.500000 0.174921
O O16 0.817011 0.750000 0.250000
#
# Coordination Sequence:
#
# PCOD9408354 Si02
#       7
#     8   8   8   8   4   8   8
#     4  11  23  38  60  86 124 158 201 263 306 365
#     4  11  19  36  57  86 121 152 204 242 302 359
#     4  12  23  39  62  89 120 163 208 253 315 388
#     4  10  18  32  58  84 114 148 196 245 300 351
#     4  10  22  32  58  86 122 164 198 254 298 368
#     4  10  20  36  57  86 110 146 194 255 296 352
#     4  11  21  38  60  91 123 164 213 259 314 382
#
# _framework density 19.820322999999998
#
# number of rings (size 3 to 8) (size 9 to 14) (size 15 to 20)
#    0.000    1.231    5.385    1.846    0.000    0.000 
#    0.000    1.538    0.000    6.462    0.000    0.000 
#    0.000    0.000    0.000    0.000    0.000    0.000 
#
# Total GULP energy -289581.174978 kJ/mol
# GULP energy per Si atom -5568.868750 kJ/mol
# Density = 1.977521 g / cm^3
# Si number density = 19.820323 Si / 1000 Ang^3
#
#
#
# Elastic Constant Matrix: (Units=GPa)
#
#
# Indices 1 2 3 4 5 6 
#
# 1 58.7579 8.4746 31.7373 0.0000 0.0000 0.0000
# 2 8.4746 82.5393 12.0816 0.0000 0.0000 0.0000
# 3 31.7373 12.0816 189.3061 0.0000 0.0000 0.0000
# 4 0.0000 0.0000 0.0000 23.7832 0.0000 0.0000
# 5 0.0000 0.0000 0.0000 0.0000 29.6647 0.0000
# 6 0.0000 0.0000 0.0000 0.0000 0.0000 27.1838
#
#
#
# Elastic Compliance Matrix: (Units=1/GPa)
#
#
# Indices 1 2 3 4 5 6 
#
# 1 0.018893 -0.001490 -0.003072 0.000000 0.000000 0.000000
# 2 -0.001490 0.012347 -0.000538 0.000000 0.000000 0.000000
# 3 -0.003072 -0.000538 0.005832 0.000000 0.000000 0.000000
# 4 0.000000 0.000000 0.000000 0.042047 0.000000 0.000000
# 5 0.000000 0.000000 0.000000 0.000000 0.033710 0.000000
# 6 0.000000 0.000000 0.000000 0.000000 0.000000 0.036787
#
#
# Mechanical properties :
#
#
# Convention : Reuss Voigt Hill
#
# Bulk Modulus (GPa) = 37.21471 48.35447 42.78459
# Shear Modulus (GPa) = 29.62539 34.68034 32.15286
#
# Velocity S-wave (km/s) = 3.87033 4.18752 4.03204
# Velocity P-wave (km/s) = 6.22811 6.91591 6.58100
#
# Compressibility (1/GPa) = 0.02687110
#
# Stress axis : x y z
#
# Youngs Moduli (GPa) = 52.92847 80.98993 171.47116
#
# Poissons Ratio (x) = 0.12069 0.52683
# Poissons Ratio (y) = 0.07887 0.09228
# Poissons Ratio (z) = 0.16262 0.04359
#
# Static dielectric constant tensor:
#      x y z
#    x 1.762090 0.000000 0.000000 
#    y 0.000000 1.787870 0.000000 
#    z 0.000000 0.000000 1.742140 
# 
# From -- ./inp_files/34557.got.cif
#   From: 2010.05.17/outbox.cif.g08.bks.cpg/sg52_18_cif.got.tgz:34557.got - 2010.06.03 12:15:38.
