data_PCOD9408223
_publ_section_title
;
Structure prediction by ZEFSAII (Michael W. Deem and Ramdas Pophale) SiO2 
 PCOD9408223
Probable space group: P N N A
;
_chemical_formula_sum "Si O2"
_cell_formula_units_Z 56
_cell_length_a 19.821961
_cell_length_b 11.852675
_cell_length_c 9.418432
_cell_angle_alpha 90.000000
_cell_angle_beta 90.000000
_cell_angle_gamma 90.000000
_cell_volume 2212.797133
_symmetry_space_group_name_H-M "P N N A"
_symmetry_group_IT_number 52
_symmetry_cell_setting 'orthorhombic'
loop_
_space_group_symop_operation_xyz
x,y,z
1/2-x,-y,z
x,1/2-y,1/2-z
1/2-x,1/2+y,1/2-z
-x,-y,-z
1/2+x,y,-z
-x,1/2+y,1/2+z
1/2+x,1/2-y,1/2+z
loop_
_atom_site_type_symbol
_atom_site_label
_atom_site_fract_x
_atom_site_fract_y
_atom_site_fract_z
Si Si1 0.681278 0.558704 0.968339
Si Si2 0.601042 0.138294 0.004832
Si Si3 0.495522 0.825426 0.578048
Si Si4 0.438833 0.541620 0.198324
Si Si5 0.813660 0.063348 0.077104
Si Si6 0.240182 0.217654 0.101257
Si Si7 0.606638 0.779718 0.385817
O O1 0.750000 0.500000 0.009530
O O2 0.636540 0.493677 0.854384
O O3 0.708064 0.680094 0.918855
O O4 0.633133 0.592522 0.099238
O O5 0.555502 0.222051 0.096475
O O6 0.674008 0.200993 0.993661
O O7 0.569010 0.103860 0.850358
O O8 0.622872 0.018204 0.069482
O O9 0.516726 0.925261 0.686637
O O10 0.565099 0.765620 0.529719
O O11 0.467949 0.884939 0.432942
O O12 0.783643 0.104723 0.923687
O O13 0.750000 0.000000 0.146419
O O14 0.836482 0.184069 0.133874
O O15 0.208800 0.250000 0.250000
O O16 0.561638 0.750000 0.250000
#
# Coordination Sequence:
#
# PCOD9408223 Si02
#       7
#     8   8   8   8   8   8   8
#     4  10  19  31  50  78 106 135 180 235 284 341
#     4  11  19  33  57  80 112 154 186 230 295 343
#     4  10  21  35  53  81 110 148 198 229 267 347
#     4  10  20  34  54  81 116 150 187 236 282 334
#     4   9  21  36  54  83 111 138 183 239 288 348
#     4  10  18  30  51  82 115 143 178 223 288 355
#     4  10  21  37  54  72 102 143 185 231 282 340
#
# _framework density 25.307334999999998
#
# number of rings (size 3 to 8) (size 9 to 14) (size 15 to 20)
#    0.000    2.000    0.000    4.714    0.000    2.286 
#    0.000    0.000    0.000    5.143    0.000    0.000 
#    0.000    0.000    0.000    0.000    0.000    0.000 
#
# Total GULP energy -312138.522544 kJ/mol
# GULP energy per Si atom -5573.902188 kJ/mol
# Density = 2.524973 g / cm^3
# Si number density = 25.307335 Si / 1000 Ang^3
#
#
#
# Elastic Constant Matrix: (Units=GPa)
#
#
# Indices 1 2 3 4 5 6 
#
# 1 116.6281 54.4456 22.4551 0.0000 0.0000 0.0000
# 2 54.4456 128.1186 34.7345 0.0000 0.0000 0.0000
# 3 22.4551 34.7345 57.1441 0.0000 0.0000 0.0000
# 4 0.0000 0.0000 0.0000 37.0685 0.0000 0.0000
# 5 0.0000 0.0000 0.0000 0.0000 17.1055 0.0000
# 6 0.0000 0.0000 0.0000 0.0000 0.0000 66.5194
#
#
#
# Elastic Compliance Matrix: (Units=1/GPa)
#
#
# Indices 1 2 3 4 5 6 
#
# 1 0.010840 -0.004133 -0.001748 0.000000 0.000000 0.000000
# 2 -0.004133 0.010921 -0.005014 0.000000 0.000000 0.000000
# 3 -0.001748 -0.005014 0.021234 0.000000 0.000000 0.000000
# 4 0.000000 0.000000 0.000000 0.026977 0.000000 0.000000
# 5 0.000000 0.000000 0.000000 0.000000 0.058461 0.000000
# 6 0.000000 0.000000 0.000000 0.000000 0.000000 0.015033
#
#
# Mechanical properties :
#
#
# Convention : Reuss Voigt Hill
#
# Bulk Modulus (GPa) = 47.15642 58.35126 52.75384
# Shear Modulus (GPa) = 29.01509 36.82238 32.91874
#
# Velocity S-wave (km/s) = 3.38969 3.81859 3.61052
# Velocity P-wave (km/s) = 5.83043 6.52298 6.18641
#
# Compressibility (1/GPa) = 0.02120602
#
# Stress axis : x y z
#
# Youngs Moduli (GPa) = 92.25029 91.56690 47.09396
#
# Poissons Ratio (x) = 0.37843 0.08230
# Poissons Ratio (y) = 0.38126 0.23614
# Poissons Ratio (z) = 0.16121 0.45913
#
# Static dielectric constant tensor:
#      x y z
#    x 2.113490 0.000000 0.000000 
#    y 0.000000 2.029250 0.000000 
#    z 0.000000 0.000000 2.339150 
# 
# From -- ./inp_files/21676.got.cif
#   From: 2010.05.17/outbox.cif.g08.bks.cpg/sg52_11_cif.got.tgz:21676.got - 2010.06.03 12:15:38.
