data_PCOD9408494
_publ_section_title
;
Structure prediction by ZEFSAII (Michael W. Deem and Ramdas Pophale) SiO2 
 PCOD9408494
Probable space group: P N N A
;
_chemical_formula_sum "Si O2"
_cell_formula_units_Z 40
_cell_length_a 15.212835
_cell_length_b 8.433631
_cell_length_c 13.526624
_cell_angle_alpha 90.000000
_cell_angle_beta 90.000000
_cell_angle_gamma 90.000000
_cell_volume 1735.458242
_symmetry_space_group_name_H-M "P N N A"
_symmetry_group_IT_number 52
_symmetry_cell_setting 'orthorhombic'
loop_
_space_group_symop_operation_xyz
x,y,z
1/2-x,-y,z
x,1/2-y,1/2-z
1/2-x,1/2+y,1/2-z
-x,-y,-z
1/2+x,y,-z
-x,1/2+y,1/2+z
1/2+x,1/2-y,1/2+z
loop_
_atom_site_type_symbol
_atom_site_label
_atom_site_fract_x
_atom_site_fract_y
_atom_site_fract_z
Si Si1 0.258857 0.821265 0.513391
Si Si2 0.916010 0.168784 0.594991
Si Si3 0.448162 0.823535 0.414324
Si Si4 0.677084 0.893253 0.182482
Si Si5 0.503457 0.507908 0.619892
O O1 0.187870 0.818542 0.424224
O O2 0.359174 0.803730 0.479131
O O3 0.224930 0.688142 0.588668
O O4 0.250000 0.000000 0.553569
O O5 0.966691 0.167469 0.487415
O O6 0.949055 0.328896 0.645927
O O7 0.940389 0.995593 0.637099
O O8 0.455268 0.662043 0.352909
O O9 0.645570 0.750000 0.250000
O O10 0.750000 0.000000 0.233327
O O11 0.595886 0.002746 0.155783
O O12 0.500000 0.500000 0.500000
#
# Coordination Sequence:
#
# PCOD9408494 Si02
#       5
#     8   8   8   8   8
#     4  10  19  32  54  81 120 149 188 248 309 359
#     4   9  17  30  48  81 108 143 187 238 297 336
#     4   9  17  29  51  79 108 143 186 247 293 331
#     4  12  24  38  52  79 121 163 197 236 309 395
#     4  10  18  35  55  75 105 149 202 242 278 343
#
# _framework density 23.048669
#
# number of rings (size 3 to 8) (size 9 to 14) (size 15 to 20)
#    0.000    2.000    4.000    3.000    0.000    0.000 
#    3.600    0.000    0.000    0.000    0.000    0.000 
#   18.000    0.000    0.000    0.000    0.000    0.000 
#
# Total GULP energy -223411.720524 kJ/mol
# GULP energy per Si atom -5585.293013 kJ/mol
# Density = 2.299621 g / cm^3
# Si number density = 23.048669 Si / 1000 Ang^3
#
#
#
# Elastic Constant Matrix: (Units=GPa)
#
#
# Indices 1 2 3 4 5 6 
#
# 1 118.7208 17.6125 13.6141 0.0000 0.0000 0.0000
# 2 17.6125 195.9940 28.5628 0.0000 0.0000 0.0000
# 3 13.6141 28.5628 37.3822 0.0000 0.0000 0.0000
# 4 0.0000 0.0000 0.0000 27.9134 0.0000 0.0000
# 5 0.0000 0.0000 0.0000 0.0000 -5.1293 0.0000
# 6 0.0000 0.0000 0.0000 0.0000 0.0000 46.1471
#
#
#
# Elastic Compliance Matrix: (Units=1/GPa)
#
#
# Indices 1 2 3 4 5 6 
#
# 1 0.008813 -0.000365 -0.002931 0.000000 0.000000 0.000000
# 2 -0.000365 0.005757 -0.004266 0.000000 0.000000 0.000000
# 3 -0.002931 -0.004266 0.031077 0.000000 0.000000 0.000000
# 4 0.000000 0.000000 0.000000 0.035825 0.000000 0.000000
# 5 0.000000 0.000000 0.000000 0.000000 -0.194959 0.000000
# 6 0.000000 0.000000 0.000000 0.000000 0.000000 0.021670
#
#
# Mechanical properties :
#
#
# Convention : Reuss Voigt Hill
#
# Bulk Modulus (GPa) = 32.76055 52.40841 42.58448
# Shear Modulus (GPa) = -75.16605 33.27343 -20.94631
#
# Velocity S-wave (km/s) = -5.71688 3.80362 -3.01788
# Velocity P-wave (km/s) = 5.41594 6.48672 2.52439
#
# Compressibility (1/GPa) = 0.03052452
#
# Stress axis : x y z
#
# Youngs Moduli (GPa) = 113.46423 173.71300 32.17782
#
# Poissons Ratio (x) = 0.06338 0.09431
# Poissons Ratio (y) = 0.04140 0.13726
# Poissons Ratio (z) = 0.33255 0.74099
#
# Static dielectric constant tensor:
#      x y z
#    x 1.804310 0.000000 0.000000 
#    y 0.000000 1.898610 0.000000 
#    z 0.000000 0.000000 1.863170 
# 
# From -- ./inp_files/26908.got.cif
#   From: 2010.05.17/outbox.cif.g08.bks.cpg/sg52_14_cif.got.tgz:26908.got - 2010.06.03 12:15:38.
