data_PCOD9408719
_publ_section_title
;
Structure prediction by ZEFSAII (Michael W. Deem and Ramdas Pophale) SiO2 
 PCOD9408719
Probable space group: P N N A
;
_chemical_formula_sum "Si O2"
_cell_formula_units_Z 60
_cell_length_a 9.388816
_cell_length_b 25.206494
_cell_length_c 14.138000
_cell_angle_alpha 90.000000
_cell_angle_beta 90.000000
_cell_angle_gamma 90.000000
_cell_volume 3345.886839
_symmetry_space_group_name_H-M "P N N A"
_symmetry_group_IT_number 52
_symmetry_cell_setting 'orthorhombic'
loop_
_space_group_symop_operation_xyz
x,y,z
1/2-x,-y,z
x,1/2-y,1/2-z
1/2-x,1/2+y,1/2-z
-x,-y,-z
1/2+x,y,-z
-x,1/2+y,1/2+z
1/2+x,1/2-y,1/2+z
loop_
_atom_site_type_symbol
_atom_site_label
_atom_site_fract_x
_atom_site_fract_y
_atom_site_fract_z
Si Si1 0.531506 0.622330 0.690715
Si Si2 0.101488 0.202671 0.497131
Si Si3 0.704081 0.294379 0.372954
Si Si4 0.488321 0.798101 0.142312
Si Si5 0.256211 0.250000 0.250000
Si Si6 0.707305 0.369711 0.549281
Si Si7 0.886635 0.967736 0.066347
Si Si8 0.860365 0.334468 0.880921
O O1 0.420017 0.671446 0.676738
O O2 0.665448 0.632122 0.622735
O O3 0.460081 0.568520 0.648632
O O4 0.594480 0.625587 0.797128
O O5 0.166882 0.236394 0.585676
O O6 0.035238 0.248280 0.428666
O O7 0.211508 0.167432 0.437096
O O8 0.980410 0.166574 0.540491
O O9 0.739507 0.327115 0.468277
O O10 0.853600 0.296199 0.317971
O O11 0.357423 0.793243 0.214863
O O12 0.446673 0.851815 0.088853
O O13 0.351241 0.276404 0.170207
O O14 0.688019 0.426495 0.504625
O O15 0.750000 0.000000 0.105074
O O16 0.000000 0.000000 0.000000
#
# Coordination Sequence:
#
# PCOD9408719 Si02
#       8
#     8   8   8   8   4   8   8   8
#     4  11  22  35  55  82 112 151 186 232 274 351
#     4  10  20  33  53  70 108 150 197 240 268 307
#     4  10  19  31  49  76 112 151 196 222 273 316
#     4  10  19  31  47  75 107 149 189 226 267 313
#     4  10  20  30  54  72 110 146 194 236 266 316
#     4  10  19  34  53  78 113 152 176 216 280 335
#     4  11  22  37  61  86 115 141 172 220 293 361
#     4  11  21  37  51  77 106 151 198 235 280 314
#
# _framework density 17.932466000000002
#
# number of rings (size 3 to 8) (size 9 to 14) (size 15 to 20)
#    0.000    1.600    4.000    3.200    3.733    1.067 
#    0.000    0.000    0.000    0.000    0.000    0.933 
#    0.000    0.000    0.000    0.000    0.000    0.000 
#
# Total GULP energy -334142.736156 kJ/mol
# GULP energy per Si atom -5569.045603 kJ/mol
# Density = 1.789165 g / cm^3
# Si number density = 17.932466 Si / 1000 Ang^3
#
#
#
# Elastic Constant Matrix: (Units=GPa)
#
#
# Indices 1 2 3 4 5 6 
#
# 1 100.5582 25.5061 37.0655 0.0000 0.0000 0.0000
# 2 25.5061 41.0799 16.5634 0.0000 0.0000 0.0000
# 3 37.0655 16.5634 67.2269 0.0000 0.0000 0.0000
# 4 0.0000 0.0000 0.0000 19.5713 0.0000 0.0000
# 5 0.0000 0.0000 0.0000 0.0000 19.8456 0.0000
# 6 0.0000 0.0000 0.0000 0.0000 0.0000 13.1971
#
#
#
# Elastic Compliance Matrix: (Units=1/GPa)
#
#
# Indices 1 2 3 4 5 6 
#
# 1 0.013722 -0.006073 -0.006069 0.000000 0.000000 0.000000
# 2 -0.006073 0.029715 -0.003973 0.000000 0.000000 0.000000
# 3 -0.006069 -0.003973 0.019200 0.000000 0.000000 0.000000
# 4 0.000000 0.000000 0.000000 0.051095 0.000000 0.000000
# 5 0.000000 0.000000 0.000000 0.000000 0.050389 0.000000
# 6 0.000000 0.000000 0.000000 0.000000 0.000000 0.075774
#
#
# Mechanical properties :
#
#
# Convention : Reuss Voigt Hill
#
# Bulk Modulus (GPa) = 32.88705 40.79278 36.83992
# Shear Modulus (GPa) = 17.71407 19.17148 18.44277
#
# Velocity S-wave (km/s) = 3.14637 3.27325 3.21044
# Velocity P-wave (km/s) = 5.61950 6.08957 5.85925
#
# Compressibility (1/GPa) = 0.03040710
#
# Stress axis : x y z
#
# Youngs Moduli (GPa) = 72.87599 33.65279 52.08268
#
# Poissons Ratio (x) = 0.20436 0.31611
# Poissons Ratio (y) = 0.44255 0.20693
# Poissons Ratio (z) = 0.44231 0.13371
#
# Static dielectric constant tensor:
#      x y z
#    x 1.671700 0.000000 0.000000 
#    y 0.000000 1.670730 0.000000 
#    z 0.000000 0.000000 1.701210 
# 
# From -- ./inp_files/25188.got.cif
#   From: 2010.05.17/outbox.cif.g08.bks.cpg/sg52_13_cif.got.tgz:25188.got - 2010.06.03 12:15:38.
