data_PCOD9408078
_publ_section_title
;
Structure prediction by ZEFSAII (Michael W. Deem and Ramdas Pophale) SiO2 
 PCOD9408078
Probable space group: P N N A
;
_chemical_formula_sum "Si O2"
_cell_formula_units_Z 40
_cell_length_a 17.618445
_cell_length_b 11.410533
_cell_length_c 7.641173
_cell_angle_alpha 90.000000
_cell_angle_beta 90.000000
_cell_angle_gamma 90.000000
_cell_volume 1536.149694
_symmetry_space_group_name_H-M "P N N A"
_symmetry_group_IT_number 52
_symmetry_cell_setting 'orthorhombic'
loop_
_space_group_symop_operation_xyz
x,y,z
1/2-x,-y,z
x,1/2-y,1/2-z
1/2-x,1/2+y,1/2-z
-x,-y,-z
1/2+x,y,-z
-x,1/2+y,1/2+z
1/2+x,1/2-y,1/2+z
loop_
_atom_site_type_symbol
_atom_site_label
_atom_site_fract_x
_atom_site_fract_y
_atom_site_fract_z
Si Si1 0.151201 0.436747 0.335776
Si Si2 0.449697 0.632258 0.831893
Si Si3 0.716992 0.113712 0.440507
Si Si4 0.990060 0.123542 0.275645
Si Si5 0.800800 0.315194 0.567560
O O1 0.069794 0.376285 0.329948
O O2 0.148964 0.567762 0.415540
O O3 0.214642 0.365073 0.437290
O O4 0.186047 0.428291 0.136127
O O5 0.483568 0.750000 0.750000
O O6 0.360759 0.652209 0.856889
O O7 0.456883 0.505514 0.739020
O O8 0.489482 0.621149 0.019609
O O9 0.787018 0.204244 0.443244
O O10 0.750000 0.000000 0.348103
O O11 0.950688 0.250000 0.250000
O O12 0.815775 0.250000 0.750000
#
# Coordination Sequence:
#
# PCOD9408078 Si02
#       5
#     8   8   8   8   8
#     4   9  15  27  52  87 116 141 187 261 313 346
#     4  10  23  41  61  89 126 170 209 252 317 383
#     4  10  17  32  56  78 118 158 194 246 307 371
#     4  10  21  40  65  88 123 168 211 265 308 365
#     4   9  14  25  48  87 115 137 185 254 311 348
#
# _framework density 26.039126
#
# number of rings (size 3 to 8) (size 9 to 14) (size 15 to 20)
#    0.000    2.400    4.000    3.000    0.000    1.600 
#    3.600    1.000   13.200    0.000    0.000    0.000 
#    0.000    0.000    0.000    0.000    0.000    0.000 
#
# Total GULP energy -223210.711523 kJ/mol
# GULP energy per Si atom -5580.267788 kJ/mol
# Density = 2.597986 g / cm^3
# Si number density = 26.039126 Si / 1000 Ang^3
#
#
#
# Elastic Constant Matrix: (Units=GPa)
#
#
# Indices 1 2 3 4 5 6 
#
# 1 36.4543 33.3693 21.1090 0.0000 0.0000 0.0000
# 2 33.3693 239.0958 42.2732 0.0000 0.0000 0.0000
# 3 21.1090 42.2732 44.0533 0.0000 0.0000 0.0000
# 4 0.0000 0.0000 0.0000 19.7017 0.0000 0.0000
# 5 0.0000 0.0000 0.0000 0.0000 6.7352 0.0000
# 6 0.0000 0.0000 0.0000 0.0000 0.0000 226.0789
#
#
#
# Elastic Compliance Matrix: (Units=1/GPa)
#
#
# Indices 1 2 3 4 5 6 
#
# 1 0.039257 -0.002593 -0.016323 0.000000 0.000000 0.000000
# 2 -0.002593 0.005208 -0.003755 0.000000 0.000000 0.000000
# 3 -0.016323 -0.003755 0.034125 0.000000 0.000000 0.000000
# 4 0.000000 0.000000 0.000000 0.050757 0.000000 0.000000
# 5 0.000000 0.000000 0.000000 0.000000 0.148474 0.000000
# 6 0.000000 0.000000 0.000000 0.000000 0.000000 0.004423
#
#
# Mechanical properties :
#
#
# Convention : Reuss Voigt Hill
#
# Bulk Modulus (GPa) = 30.07693 57.01184 43.54438
# Shear Modulus (GPa) = 14.76371 65.35994 40.06182
#
# Velocity S-wave (km/s) = 2.38372 5.01549 3.92666
# Velocity P-wave (km/s) = 4.37629 7.44865 6.10878
#
# Compressibility (1/GPa) = 0.03324808
#
# Stress axis : x y z
#
# Youngs Moduli (GPa) = 25.47327 192.00216 29.30430
#
# Poissons Ratio (x) = 0.49786 0.47832
# Poissons Ratio (y) = 0.06605 0.11005
# Poissons Ratio (z) = 0.41579 0.72104
#
# Static dielectric constant tensor:
#      x y z
#    x 2.011560 0.000000 0.000000 
#    y 0.000000 2.214360 0.000000 
#    z 0.000000 0.000000 2.118660 
# 
# From -- ./inp_files/13131.got.cif
#   From: 2010.05.17/outbox.cif.g08.bks.cpg/sg52_7_cif.got.tgz:13131.got - 2010.06.03 12:15:38.
