data_PCOD9408128
_publ_section_title
;
Structure prediction by ZEFSAII (Michael W. Deem and Ramdas Pophale) SiO2 
 PCOD9408128
Probable space group: P N N A
;
_chemical_formula_sum "Si O2"
_cell_formula_units_Z 60
_cell_length_a 8.444939
_cell_length_b 23.524476
_cell_length_c 17.154148
_cell_angle_alpha 90.000000
_cell_angle_beta 90.000000
_cell_angle_gamma 90.000000
_cell_volume 3407.890470
_symmetry_space_group_name_H-M "P N N A"
_symmetry_group_IT_number 52
_symmetry_cell_setting 'orthorhombic'
loop_
_space_group_symop_operation_xyz
x,y,z
1/2-x,-y,z
x,1/2-y,1/2-z
1/2-x,1/2+y,1/2-z
-x,-y,-z
1/2+x,y,-z
-x,1/2+y,1/2+z
1/2+x,1/2-y,1/2+z
loop_
_atom_site_type_symbol
_atom_site_label
_atom_site_fract_x
_atom_site_fract_y
_atom_site_fract_z
Si Si1 0.936728 0.488605 0.586383
Si Si2 0.595167 0.126534 0.130137
Si Si3 0.799835 0.250000 0.250000
Si Si4 0.812778 0.196502 0.806637
Si Si5 0.105419 0.234081 0.425869
Si Si6 0.962229 0.649642 0.789243
Si Si7 0.356529 0.447781 0.718674
Si Si8 0.744319 0.266472 0.421660
O O1 0.750000 0.500000 0.591660
O O2 0.000000 0.500000 0.500000
O O3 0.984431 0.423229 0.598744
O O4 0.030571 0.525796 0.651254
O O5 0.475970 0.165208 0.179287
O O6 0.734159 0.095914 0.178081
O O7 0.676617 0.169869 0.069524
O O8 0.710830 0.248605 0.332168
O O9 0.915312 0.304453 0.247411
O O10 0.831266 0.250000 0.750000
O O11 0.729110 0.223804 0.882780
O O12 0.691089 0.153491 0.765379
O O13 0.082955 0.177457 0.372855
O O14 0.166639 0.226620 0.513448
O O15 0.933129 0.262993 0.429002
O O16 0.043007 0.588317 0.781237
O O17 0.250000 0.500000 0.749940
#
# Coordination Sequence:
#
# PCOD9408128 Si02
#       8
#     8   8   4   8   8   8   8   8
#     4  11  24  40  53  75 106 149 198 240 282 331
#     4  11  22  33  55  78 108 149 188 235 279 336
#     4  10  18  36  60  76 114 150 180 226 304 346
#     4  10  19  32  53  83 112 149 189 228 287 351
#     4  10  21  34  53  82 115 151 189 229 290 347
#     4  10  17  38  56  77 115 151 190 237 287 342
#     4  10  21  36  56  79 108 152 203 238 282 347
#     4  11  21  35  52  82 113 144 183 226 289 348
#
# _framework density 17.606200000000001
#
# number of rings (size 3 to 8) (size 9 to 14) (size 15 to 20)
#    0.000    1.600    4.667    2.800    0.933    5.333 
#    0.000    0.000    0.000    0.000    0.000    3.733 
#    0.000    0.000    0.000    3.733    0.000    0.000 
#
# Total GULP energy -334574.235720 kJ/mol
# GULP energy per Si atom -5576.237262 kJ/mol
# Density = 1.756613 g / cm^3
# Si number density = 17.606200 Si / 1000 Ang^3
#
#
#
# Elastic Constant Matrix: (Units=GPa)
#
#
# Indices 1 2 3 4 5 6 
#
# 1 92.8930 35.5549 30.8697 0.0000 0.0000 0.0000
# 2 35.5549 58.6924 17.1537 0.0000 0.0000 0.0000
# 3 30.8697 17.1537 101.7199 0.0000 0.0000 0.0000
# 4 0.0000 0.0000 0.0000 16.0279 0.0000 0.0000
# 5 0.0000 0.0000 0.0000 0.0000 17.9986 0.0000
# 6 0.0000 0.0000 0.0000 0.0000 0.0000 34.7318
#
#
#
# Elastic Compliance Matrix: (Units=1/GPa)
#
#
# Indices 1 2 3 4 5 6 
#
# 1 0.014921 -0.008116 -0.003160 0.000000 0.000000 0.000000
# 2 -0.008116 0.022335 -0.001304 0.000000 0.000000 0.000000
# 3 -0.003160 -0.001304 0.011010 0.000000 0.000000 0.000000
# 4 0.000000 0.000000 0.000000 0.062391 0.000000 0.000000
# 5 0.000000 0.000000 0.000000 0.000000 0.055560 0.000000
# 6 0.000000 0.000000 0.000000 0.000000 0.000000 0.028792
#
#
# Mechanical properties :
#
#
# Convention : Reuss Voigt Hill
#
# Bulk Modulus (GPa) = 43.27437 46.71798 44.99618
# Shear Modulus (GPa) = 21.94231 25.06679 23.50455
#
# Velocity S-wave (km/s) = 3.53410 3.77735 3.65775
# Velocity P-wave (km/s) = 6.42539 6.75404 6.59176
#
# Compressibility (1/GPa) = 0.02310837
#
# Stress axis : x y z
#
# Youngs Moduli (GPa) = 67.01803 44.77214 90.82938
#
# Poissons Ratio (x) = 0.36335 0.28699
# Poissons Ratio (y) = 0.54389 0.11841
# Poissons Ratio (z) = 0.21176 0.05837
#
# Static dielectric constant tensor:
#      x y z
#    x 1.637950 0.000000 0.000000 
#    y 0.000000 1.653940 0.000000 
#    z 0.000000 0.000000 1.968310 
# 
# From -- ./inp_files/25081.got.cif
#   From: 2010.05.17/outbox.cif.g08.bks.cpg/sg52_13_cif.got.tgz:25081.got - 2010.06.03 12:15:38.
