data_PCOD9408609
_publ_section_title
;
Structure prediction by ZEFSAII (Michael W. Deem and Ramdas Pophale) SiO2 
 PCOD9408609
Probable space group: P N N A
;
_chemical_formula_sum "Si O2"
_cell_formula_units_Z 36
_cell_length_a 8.693604
_cell_length_b 8.267453
_cell_length_c 21.438809
_cell_angle_alpha 90.000000
_cell_angle_beta 90.000000
_cell_angle_gamma 90.000000
_cell_volume 1540.892153
_symmetry_space_group_name_H-M "P N N A"
_symmetry_group_IT_number 52
_symmetry_cell_setting 'orthorhombic'
loop_
_space_group_symop_operation_xyz
x,y,z
1/2-x,-y,z
x,1/2-y,1/2-z
1/2-x,1/2+y,1/2-z
-x,-y,-z
1/2+x,y,-z
-x,1/2+y,1/2+z
1/2+x,1/2-y,1/2+z
loop_
_atom_site_type_symbol
_atom_site_label
_atom_site_fract_x
_atom_site_fract_y
_atom_site_fract_z
Si Si1 0.476940 0.814381 0.521984
Si Si2 0.476691 0.264602 0.616147
Si Si3 0.250000 0.000000 0.813731
Si Si4 0.695045 0.684373 0.864926
Si Si5 0.473179 0.750000 0.750000
Si Si6 0.250000 0.000000 0.596420
O O1 0.487099 0.718415 0.457816
O O2 0.602761 0.764229 0.572812
O O3 0.500000 0.000000 0.500000
O O4 0.315995 0.846037 0.557385
O O5 0.361310 0.393764 0.643453
O O6 0.644919 0.276055 0.646615
O O7 0.394381 0.088448 0.628733
O O8 0.360301 0.891331 0.771761
O O9 0.750000 0.500000 0.875973
O O10 0.581449 0.701892 0.807378
#
# Coordination Sequence:
#
# PCOD9408609 Si02
#       6
#     8   8   4   8   4   4
#     4  10  19  38  71 116 144 187 240 300 370 439
#     4  11  24  43  75 112 149 184 249 303 381 433
#     4  12  32  53  74 106 144 211 246 322 360 446
#     4  12  25  45  78 112 148 198 244 311 362 449
#     4  12  34  52  74 102 150 198 262 296 376 438
#     4  10  18  37  70 110 150 187 232 286 366 456
#
# _framework density 23.363088999999999
#
# number of rings (size 3 to 8) (size 9 to 14) (size 15 to 20)
#    0.000    0.889    4.444    4.000    7.778    0.889 
#    0.000   10.000    0.000    0.000    0.000    0.000 
#    0.000    0.000    0.000    0.000    0.000    0.000 
#
# Total GULP energy -201332.089918 kJ/mol
# GULP energy per Si atom -5592.558053 kJ/mol
# Density = 2.330991 g / cm^3
# Si number density = 23.363089 Si / 1000 Ang^3
#
#
#
# Elastic Constant Matrix: (Units=GPa)
#
#
# Indices 1 2 3 4 5 6 
#
# 1 216.4092 59.3868 87.3641 0.0000 0.0000 0.0000
# 2 59.3868 58.9895 60.3523 0.0000 0.0000 0.0000
# 3 87.3641 60.3523 133.0961 0.0000 0.0000 0.0000
# 4 0.0000 0.0000 0.0000 36.4284 0.0000 0.0000
# 5 0.0000 0.0000 0.0000 0.0000 25.2131 0.0000
# 6 0.0000 0.0000 0.0000 0.0000 0.0000 36.9984
#
#
#
# Elastic Compliance Matrix: (Units=1/GPa)
#
#
# Indices 1 2 3 4 5 6 
#
# 1 0.006817 -0.004262 -0.002542 0.000000 0.000000 0.000000
# 2 -0.004262 0.034287 -0.012750 0.000000 0.000000 0.000000
# 3 -0.002542 -0.012750 0.014963 0.000000 0.000000 0.000000
# 4 0.000000 0.000000 0.000000 0.027451 0.000000 0.000000
# 5 0.000000 0.000000 0.000000 0.000000 0.039662 0.000000
# 6 0.000000 0.000000 0.000000 0.000000 0.000000 0.027028
#
#
# Mechanical properties :
#
#
# Convention : Reuss Voigt Hill
#
# Bulk Modulus (GPa) = 58.96340 91.41124 75.18732
# Shear Modulus (GPa) = 25.64504 33.15408 29.39956
#
# Velocity S-wave (km/s) = 3.31671 3.77115 3.55121
# Velocity P-wave (km/s) = 6.32140 7.62715 7.00477
#
# Compressibility (1/GPa) = 0.01695967
#
# Stress axis : x y z
#
# Youngs Moduli (GPa) = 146.70168 29.16519 66.83007
#
# Poissons Ratio (x) = 0.12430 0.16987
# Poissons Ratio (y) = 0.62523 0.85209
# Poissons Ratio (z) = 0.37289 0.37186
#
# Static dielectric constant tensor:
#      x y z
#    x 1.965240 0.000000 0.000000 
#    y 0.000000 1.997120 0.000000 
#    z 0.000000 0.000000 1.945590 
# 
# From -- ./inp_files/35617.got.cif
#   From: 2010.05.17/outbox.cif.g08.bks.cpg/sg52_18_cif.got.tgz:35617.got - 2010.06.03 12:15:38.
