data_PCOD9408127
_publ_section_title
;
Structure prediction by ZEFSAII (Michael W. Deem and Ramdas Pophale) SiO2 
 PCOD9408127
Probable space group: P N N A
;
_chemical_formula_sum "Si O2"
_cell_formula_units_Z 52
_cell_length_a 10.381783
_cell_length_b 17.672250
_cell_length_c 17.430658
_cell_angle_alpha 90.000000
_cell_angle_beta 90.000000
_cell_angle_gamma 90.000000
_cell_volume 3197.993491
_symmetry_space_group_name_H-M "P N N A"
_symmetry_group_IT_number 52
_symmetry_cell_setting 'orthorhombic'
loop_
_space_group_symop_operation_xyz
x,y,z
1/2-x,-y,z
x,1/2-y,1/2-z
1/2-x,1/2+y,1/2-z
-x,-y,-z
1/2+x,y,-z
-x,1/2+y,1/2+z
1/2+x,1/2-y,1/2+z
loop_
_atom_site_type_symbol
_atom_site_label
_atom_site_fract_x
_atom_site_fract_y
_atom_site_fract_z
Si Si1 0.347835 0.064383 0.657853
Si Si2 0.124504 0.202473 0.513011
Si Si3 0.875757 0.403680 0.984322
Si Si4 0.750000 0.000000 0.641962
Si Si5 0.960148 0.724453 0.639331
Si Si6 0.247799 0.234322 0.664875
Si Si7 0.402272 0.879471 0.269357
O O1 0.382282 0.056605 0.567684
O O2 0.280615 0.145616 0.663035
O O3 0.471470 0.071181 0.711532
O O4 0.250000 0.000000 0.680749
O O5 0.250819 0.153063 0.487868
O O6 0.082147 0.261195 0.447335
O O7 0.157171 0.245132 0.591984
O O8 0.005172 0.145117 0.524404
O O9 0.853762 0.464077 0.917006
O O10 0.790925 0.930960 0.696368
O O11 0.916658 0.802540 0.680950
O O12 0.900609 0.652698 0.683287
O O13 0.115053 0.723535 0.651651
O O14 0.197463 0.250000 0.750000
#
# Coordination Sequence:
#
# PCOD9408127 Si02
#       7
#     8   8   8   4   8   8   8
#     4  10  18  30  52  79 106 149 176 214 265 342
#     4  11  20  35  55  83 108 151 183 228 277 334
#     4  11  21  30  49  82 121 145 177 214 282 346
#     4  12  22  30  46  84 122 150 174 232 288 342
#     4  10  17  38  55  74 105 159 192 219 267 347
#     4  10  19  35  56  81 109 140 191 229 271 335
#     4  10  20  32  53  73 112 149 192 215 269 331
#
# _framework density 16.260195
#
# number of rings (size 3 to 8) (size 9 to 14) (size 15 to 20)
#    0.000    1.538   10.000    0.000    4.308    1.231 
#    0.000    1.538    0.000    0.000    2.000    2.154 
#    0.000    0.000    0.000    0.000    0.000    0.000 
#
# Total GULP energy -289791.724565 kJ/mol
# GULP energy per Si atom -5572.917780 kJ/mol
# Density = 1.622319 g / cm^3
# Si number density = 16.260195 Si / 1000 Ang^3
#
#
#
# Elastic Constant Matrix: (Units=GPa)
#
#
# Indices 1 2 3 4 5 6 
#
# 1 63.2123 24.9063 32.0019 0.0000 0.0000 0.0000
# 2 24.9063 42.1186 26.0407 0.0000 0.0000 0.0000
# 3 32.0019 26.0407 105.7791 0.0000 0.0000 0.0000
# 4 0.0000 0.0000 0.0000 26.2241 0.0000 0.0000
# 5 0.0000 0.0000 0.0000 0.0000 -7.9487 0.0000
# 6 0.0000 0.0000 0.0000 0.0000 0.0000 10.9221
#
#
#
# Elastic Compliance Matrix: (Units=1/GPa)
#
#
# Indices 1 2 3 4 5 6 
#
# 1 0.022021 -0.010501 -0.004077 0.000000 0.000000 0.000000
# 2 -0.010501 0.033013 -0.004950 0.000000 0.000000 0.000000
# 3 -0.004077 -0.004950 0.011906 0.000000 0.000000 0.000000
# 4 0.000000 0.000000 0.000000 0.038133 0.000000 0.000000
# 5 0.000000 0.000000 0.000000 0.000000 -0.125807 0.000000
# 6 0.000000 0.000000 0.000000 0.000000 0.000000 0.091558
#
#
# Mechanical properties :
#
#
# Convention : Reuss Voigt Hill
#
# Bulk Modulus (GPa) = 35.86412 41.88975 38.87693
# Shear Modulus (GPa) = 41.95522 14.38358 28.16940
#
# Velocity S-wave (km/s) = 5.08512 2.97743 4.16674
# Velocity P-wave (km/s) = 7.52211 6.13500 6.86369
#
# Compressibility (1/GPa) = 0.02788302
#
# Stress axis : x y z
#
# Youngs Moduli (GPa) = 45.41041 30.29128 83.99333
#
# Poissons Ratio (x) = 0.31810 0.34244
# Poissons Ratio (y) = 0.47687 0.41577
# Poissons Ratio (z) = 0.18514 0.14994
#
# Static dielectric constant tensor:
#      x y z
#    x 1.602120 0.000000 0.000000 
#    y 0.000000 1.532730 0.000000 
#    z 0.000000 0.000000 1.588910 
# 
# From -- ./inp_files/31424.got.cif
#   From: 2010.05.17/outbox.cif.g08.bks.cpg/sg52_16_cif.got.tgz:31424.got - 2010.06.03 12:15:38.
