data_PCOD9408970
_publ_section_title
;
Structure prediction by ZEFSAII (Michael W. Deem and Ramdas Pophale) SiO2 
 PCOD9408970
Probable space group: P N N A
;
_chemical_formula_sum "Si O2"
_cell_formula_units_Z 44
_cell_length_a 10.592832
_cell_length_b 10.287380
_cell_length_c 15.591022
_cell_angle_alpha 90.000000
_cell_angle_beta 90.000000
_cell_angle_gamma 90.000000
_cell_volume 1698.992459
_symmetry_space_group_name_H-M "P N N A"
_symmetry_group_IT_number 52
_symmetry_cell_setting 'orthorhombic'
loop_
_space_group_symop_operation_xyz
x,y,z
1/2-x,-y,z
x,1/2-y,1/2-z
1/2-x,1/2+y,1/2-z
-x,-y,-z
1/2+x,y,-z
-x,1/2+y,1/2+z
1/2+x,1/2-y,1/2+z
loop_
_atom_site_type_symbol
_atom_site_label
_atom_site_fract_x
_atom_site_fract_y
_atom_site_fract_z
Si Si1 0.956260 0.165587 0.542567
Si Si2 0.250000 0.000000 0.376791
Si Si3 0.990677 0.577061 0.351522
Si Si4 0.480584 0.478407 0.824911
Si Si5 0.306598 0.250000 0.750000
Si Si6 0.750000 0.000000 0.924806
Si Si7 0.671852 0.840281 0.076428
O O1 0.818858 0.110219 0.568388
O O2 0.995609 0.289173 0.598435
O O3 0.043341 0.047663 0.581904
O O4 0.932498 0.230564 0.449685
O O5 0.128958 0.059244 0.328306
O O6 0.970553 0.586837 0.249887
O O7 0.126927 0.509205 0.367746
O O8 0.898388 0.472202 0.395615
O O9 0.391780 0.368535 0.785654
O O10 0.249379 0.201601 0.839829
O O11 0.754298 0.122872 0.990159
#
# Coordination Sequence:
#
# PCOD9408970 Si02
#       7
#     8   4   8   8   4   4   8
#     4   9  18  34  54  85 119 141 185 242 295 372
#     4   8  19  30  49  90 118 150 178 227 322 361
#     4  10  19  35  61  91 112 150 193 246 301 355
#     4   9  19  33  55  88 118 151 180 241 303 365
#     4  10  22  38  56  76 116 164 202 234 292 346
#     4  10  19  34  61  84 112 148 188 251 288 353
#     4  10  22  39  61  83 115 156 206 248 298 355
#
# _framework density 25.897704000000001
#
# number of rings (size 3 to 8) (size 9 to 14) (size 15 to 20)
#    1.091    1.455    0.000    3.273    0.000    8.000 
#    0.000    0.909   16.000    0.000    0.000    0.000 
#    0.000    0.000    0.000    0.000    0.000    0.000 
#
# Total GULP energy -245333.410969 kJ/mol
# GULP energy per Si atom -5575.759340 kJ/mol
# Density = 2.583876 g / cm^3
# Si number density = 25.897704 Si / 1000 Ang^3
#
#
#
# Elastic Constant Matrix: (Units=GPa)
#
#
# Indices 1 2 3 4 5 6 
#
# 1 67.6212 18.5050 -5.5093 0.0000 0.0000 0.0000
# 2 18.5050 129.6014 29.2142 0.0000 0.0000 0.0000
# 3 -5.5093 29.2142 157.1763 0.0000 0.0000 0.0000
# 4 0.0000 0.0000 0.0000 47.9217 0.0000 0.0000
# 5 0.0000 0.0000 0.0000 0.0000 32.2972 0.0000
# 6 0.0000 0.0000 0.0000 0.0000 0.0000 31.3382
#
#
#
# Elastic Compliance Matrix: (Units=1/GPa)
#
#
# Indices 1 2 3 4 5 6 
#
# 1 0.015538 -0.002444 0.000999 0.000000 0.000000 0.000000
# 2 -0.002444 0.008438 -0.001654 0.000000 0.000000 0.000000
# 3 0.000999 -0.001654 0.006705 0.000000 0.000000 0.000000
# 4 0.000000 0.000000 0.000000 0.020867 0.000000 0.000000
# 5 0.000000 0.000000 0.000000 0.000000 0.030962 0.000000
# 6 0.000000 0.000000 0.000000 0.000000 0.000000 0.031910
#
#
# Mechanical properties :
#
#
# Convention : Reuss Voigt Hill
#
# Bulk Modulus (GPa) = 40.84456 48.75764 44.80110
# Shear Modulus (GPa) = 38.82609 43.12402 40.97506
#
# Velocity S-wave (km/s) = 3.87616 4.08507 3.98199
# Velocity P-wave (km/s) = 5.98653 6.41236 6.20310
#
# Compressibility (1/GPa) = 0.02448307
#
# Stress axis : x y z
#
# Youngs Moduli (GPa) = 64.35663 118.51524 149.14869
#
# Poissons Ratio (x) = 0.28963 -0.14898
# Poissons Ratio (y) = 0.15727 0.24669
# Poissons Ratio (z) = -0.06428 0.19602
#
# Static dielectric constant tensor:
#      x y z
#    x 2.095070 0.000000 0.000000 
#    y 0.000000 2.206120 0.000000 
#    z 0.000000 0.000000 2.057310 
# 
# From -- ./inp_files/32190.got.cif
#   From: 2010.05.17/outbox.cif.g08.bks.cpg/sg52_17_cif.got.tgz:32190.got - 2010.06.03 12:15:38.
