data_PCOD9408661
_publ_section_title
;
Structure prediction by ZEFSAII (Michael W. Deem and Ramdas Pophale) SiO2 
 PCOD9408661
Probable space group: P N N A
;
_chemical_formula_sum "Si O2"
_cell_formula_units_Z 48
_cell_length_a 8.045995
_cell_length_b 9.771180
_cell_length_c 31.137103
_cell_angle_alpha 90.000000
_cell_angle_beta 90.000000
_cell_angle_gamma 90.000000
_cell_volume 2447.963710
_symmetry_space_group_name_H-M "P N N A"
_symmetry_group_IT_number 52
_symmetry_cell_setting 'orthorhombic'
loop_
_space_group_symop_operation_xyz
x,y,z
1/2-x,-y,z
x,1/2-y,1/2-z
1/2-x,1/2+y,1/2-z
-x,-y,-z
1/2+x,y,-z
-x,1/2+y,1/2+z
1/2+x,1/2-y,1/2+z
loop_
_atom_site_type_symbol
_atom_site_label
_atom_site_fract_x
_atom_site_fract_y
_atom_site_fract_z
Si Si1 0.250000 0.000000 0.301053
Si Si2 0.975412 0.384230 0.333934
Si Si3 0.945562 0.967320 0.952060
Si Si4 0.891784 0.867698 0.125652
Si Si5 0.398346 0.699608 0.093179
Si Si6 0.907281 0.750000 0.750000
Si Si7 0.451481 0.083894 0.382899
O O1 0.301679 0.869830 0.272782
O O2 0.106188 0.956177 0.334649
O O3 0.005322 0.546959 0.340005
O O4 0.794930 0.370441 0.356098
O O5 0.092761 0.290859 0.363464
O O6 0.985653 0.326788 0.286423
O O7 0.958136 0.805474 0.942416
O O8 0.750000 0.000000 0.945040
O O9 0.058022 0.053742 0.918501
O O10 0.000000 0.000000 0.000000
O O11 0.927011 0.709460 0.119419
O O12 0.503452 0.560416 0.096678
O O13 0.209603 0.645012 0.091921
#
# Coordination Sequence:
#
# PCOD9408661 Si02
#       7
#     4   8   8   8   8   4   8
#     4  10  24  36  62  92 120 160 218 270 310 368
#     4  10  22  39  58  87 128 163 212 259 309 379
#     4  11  23  39  68  97 124 161 209 260 310 392
#     4  10  23  41  63  88 123 172 202 255 332 375
#     4   9  19  38  62  87 121 159 205 256 302 379
#     4  12  22  42  58  92 126 166 218 276 314 362
#     4  10  18  41  63  88 113 173 210 246 317 377
#
# _framework density 19.608132999999999
#
# number of rings (size 3 to 8) (size 9 to 14) (size 15 to 20)
#    0.000    2.000    5.000    0.000    7.000    0.667 
#    6.000    0.833    0.000    0.000    0.000    0.000 
#    0.000    0.000    0.000    0.000    0.000    0.000 
#
# Total GULP energy -267392.763179 kJ/mol
# GULP energy per Si atom -5570.682566 kJ/mol
# Density = 1.956350 g / cm^3
# Si number density = 19.608133 Si / 1000 Ang^3
#
#
#
# Elastic Constant Matrix: (Units=GPa)
#
#
# Indices 1 2 3 4 5 6 
#
# 1 41.4502 38.2817 26.7303 0.0000 0.0000 0.0000
# 2 38.2817 180.0115 59.8708 0.0000 0.0000 0.0000
# 3 26.7303 59.8708 134.5065 0.0000 0.0000 0.0000
# 4 0.0000 0.0000 0.0000 34.1897 0.0000 0.0000
# 5 0.0000 0.0000 0.0000 0.0000 16.7886 0.0000
# 6 0.0000 0.0000 0.0000 0.0000 0.0000 20.6347
#
#
#
# Elastic Compliance Matrix: (Units=1/GPa)
#
#
# Indices 1 2 3 4 5 6 
#
# 1 0.031646 -0.005444 -0.003866 0.000000 0.000000 0.000000
# 2 -0.005444 0.007457 -0.002237 0.000000 0.000000 0.000000
# 3 -0.003866 -0.002237 0.009199 0.000000 0.000000 0.000000
# 4 0.000000 0.000000 0.000000 0.029249 0.000000 0.000000
# 5 0.000000 0.000000 0.000000 0.000000 0.059564 0.000000
# 6 0.000000 0.000000 0.000000 0.000000 0.000000 0.048462
#
#
# Mechanical properties :
#
#
# Convention : Reuss Voigt Hill
#
# Bulk Modulus (GPa) = 39.67069 67.30373 53.48721
# Shear Modulus (GPa) = 23.03358 29.72828 26.38093
#
# Velocity S-wave (km/s) = 3.43110 3.89796 3.67196
# Velocity P-wave (km/s) = 5.99769 7.39309 6.73164
#
# Compressibility (1/GPa) = 0.02520752
#
# Stress axis : x y z
#
# Youngs Moduli (GPa) = 31.59920 134.10006 108.71126
#
# Poissons Ratio (x) = 0.73008 0.42025
# Poissons Ratio (y) = 0.17203 0.24322
# Poissons Ratio (z) = 0.12215 0.30003
#
# Static dielectric constant tensor:
#      x y z
#    x 1.750380 0.000000 0.000000 
#    y 0.000000 1.781960 0.000000 
#    z 0.000000 0.000000 1.682290 
# 
# From -- ./inp_files/44462.got.cif
#   From: 2010.05.17/outbox.cif.g08.bks.cpg/sg52_23_cif.got.tgz:44462.got - 2010.06.03 12:15:38.
