data_PCOD9408155
_publ_section_title
;
Structure prediction by ZEFSAII (Michael W. Deem and Ramdas Pophale) SiO2 
 PCOD9408155
Probable space group: P N N A
;
_chemical_formula_sum "Si O2"
_cell_formula_units_Z 52
_cell_length_a 11.628819
_cell_length_b 15.308556
_cell_length_c 18.071522
_cell_angle_alpha 90.000000
_cell_angle_beta 90.000000
_cell_angle_gamma 90.000000
_cell_volume 3217.100061
_symmetry_space_group_name_H-M "P N N A"
_symmetry_group_IT_number 52
_symmetry_cell_setting 'orthorhombic'
loop_
_space_group_symop_operation_xyz
x,y,z
1/2-x,-y,z
x,1/2-y,1/2-z
1/2-x,1/2+y,1/2-z
-x,-y,-z
1/2+x,y,-z
-x,1/2+y,1/2+z
1/2+x,1/2-y,1/2+z
loop_
_atom_site_type_symbol
_atom_site_label
_atom_site_fract_x
_atom_site_fract_y
_atom_site_fract_z
Si Si1 0.699588 0.908234 0.407351
Si Si2 0.381765 0.693034 0.820923
Si Si3 0.925958 0.742490 0.483277
Si Si4 0.316228 0.253046 0.027501
Si Si5 0.250000 0.500000 0.159238
Si Si6 0.041989 0.068875 0.438812
Si Si7 0.142782 0.673067 0.192066
O O1 0.783880 0.874787 0.343687
O O2 0.694849 0.835439 0.471586
O O3 0.567464 0.919178 0.385183
O O4 0.750000 0.000000 0.435108
O O5 0.349439 0.750000 0.750000
O O6 0.402449 0.749634 0.895496
O O7 0.506746 0.652250 0.805644
O O8 0.806913 0.703950 0.517511
O O9 0.932572 0.839855 0.519870
O O10 0.058774 0.709088 0.491011
O O11 0.327785 0.291261 0.110077
O O12 0.146906 0.469319 0.106368
O O13 0.211526 0.584406 0.204931
O O14 0.000000 0.000000 0.500000
O O15 0.165797 0.750000 0.250000
#
# Coordination Sequence:
#
# PCOD9408155 Si02
#       7
#     8   8   8   8   4   8   8
#     4  10  18  28  45  71  93 118 155 199 243 297
#     4   9  18  31  45  64  96 129 162 199 237 288
#     4   9  16  26  42  63  89 118 156 190 231 290
#     4   9  16  27  43  64  93 120 148 197 237 286
#     4  12  20  32  48  68 102 144 154 200 260 290
#     4  11  20  25  44  72  96 125 158 195 238 312
#     4  10  20  31  45  68  98 132 170 199 243 311
#
# _framework density 16.163625
#
# number of rings (size 3 to 8) (size 9 to 14) (size 15 to 20)
#    0.000    2.154    1.538    5.538    4.308    0.000 
#    0.000    0.769    0.000    0.000    0.000    0.000 
#    9.231   12.923    0.000    0.000    0.000    0.000 
#
# Total GULP energy -289470.381817 kJ/mol
# GULP energy per Si atom -5566.738112 kJ/mol
# Density = 1.612684 g / cm^3
# Si number density = 16.163625 Si / 1000 Ang^3
#
#
#
# Elastic Constant Matrix: (Units=GPa)
#
#
# Indices 1 2 3 4 5 6 
#
# 1 148.0499 34.6077 36.2498 0.0000 0.0000 0.0000
# 2 34.6077 37.0551 34.8299 0.0000 0.0000 0.0000
# 3 36.2498 34.8299 55.5826 0.0000 0.0000 0.0000
# 4 0.0000 0.0000 0.0000 14.2279 0.0000 0.0000
# 5 0.0000 0.0000 0.0000 0.0000 17.9765 0.0000
# 6 0.0000 0.0000 0.0000 0.0000 0.0000 13.0955
#
#
#
# Elastic Compliance Matrix: (Units=1/GPa)
#
#
# Indices 1 2 3 4 5 6 
#
# 1 0.008686 -0.006783 -0.001415 0.000000 0.000000 0.000000
# 2 -0.006783 0.070959 -0.040041 0.000000 0.000000 0.000000
# 3 -0.001415 -0.040041 0.044005 0.000000 0.000000 0.000000
# 4 0.000000 0.000000 0.000000 0.070285 0.000000 0.000000
# 5 0.000000 0.000000 0.000000 0.000000 0.055628 0.000000
# 6 0.000000 0.000000 0.000000 0.000000 0.000000 0.076362
#
#
# Mechanical properties :
#
#
# Convention : Reuss Voigt Hill
#
# Bulk Modulus (GPa) = 36.80228 50.22915 43.51571
# Shear Modulus (GPa) = 11.58856 18.05997 14.82427
#
# Velocity S-wave (km/s) = 2.68050 3.34626 3.03171
# Velocity P-wave (km/s) = 5.69194 6.78770 6.26382
#
# Compressibility (1/GPa) = 0.02717223
#
# Stress axis : x y z
#
# Youngs Moduli (GPa) = 115.12194 14.09273 22.72474
#
# Poissons Ratio (x) = 0.09559 0.03215
# Poissons Ratio (y) = 0.78088 0.90992
# Poissons Ratio (z) = 0.16286 0.56429
#
# Static dielectric constant tensor:
#      x y z
#    x 1.652480 0.000000 0.000000 
#    y 0.000000 1.524700 0.000000 
#    z 0.000000 0.000000 1.522270 
# 
# From -- ./inp_files/32331.got.cif
#   From: 2010.05.17/outbox.cif.g08.bks.cpg/sg52_17_cif.got.tgz:32331.got - 2010.06.03 12:15:38.
