data_PCOD9408104
_publ_section_title
;
Structure prediction by ZEFSAII (Michael W. Deem and Ramdas Pophale) SiO2 
 PCOD9408104
Probable space group: P N N A
;
_chemical_formula_sum "Si O2"
_cell_formula_units_Z 44
_cell_length_a 9.142345
_cell_length_b 16.579698
_cell_length_c 15.865333
_cell_angle_alpha 90.000000
_cell_angle_beta 90.000000
_cell_angle_gamma 90.000000
_cell_volume 2404.824643
_symmetry_space_group_name_H-M "P N N A"
_symmetry_group_IT_number 52
_symmetry_cell_setting 'orthorhombic'
loop_
_space_group_symop_operation_xyz
x,y,z
1/2-x,-y,z
x,1/2-y,1/2-z
1/2-x,1/2+y,1/2-z
-x,-y,-z
1/2+x,y,-z
-x,1/2+y,1/2+z
1/2+x,1/2-y,1/2+z
loop_
_atom_site_type_symbol
_atom_site_label
_atom_site_fract_x
_atom_site_fract_y
_atom_site_fract_z
Si Si1 0.750000 0.500000 0.152800
Si Si2 0.063216 0.782646 0.562561
Si Si3 0.570641 0.630581 0.238529
Si Si4 0.169534 0.250000 0.750000
Si Si5 0.382081 0.836496 0.586425
Si Si6 0.250000 0.000000 0.981558
Si Si7 0.019758 0.397153 0.414253
O O1 0.628000 0.544766 0.207468
O O2 0.673140 0.427130 0.103399
O O3 0.023278 0.819363 0.655159
O O4 0.237481 0.788219 0.558122
O O5 0.998820 0.834400 0.486679
O O6 0.008704 0.692083 0.550546
O O7 0.714309 0.678844 0.273841
O O8 0.460295 0.617536 0.314417
O O9 0.079473 0.210305 0.673621
O O10 0.127347 0.950760 0.928947
O O11 0.345597 0.940036 0.039860
#
# Coordination Sequence:
#
# PCOD9408104 Si02
#       7
#     4   8   8   4   8   4   8
#     4   8  19  32  55  82 108 142 186 219 266 325
#     4  10  20  34  62  77 108 147 182 225 267 335
#     4  10  17  34  57  79 105 148 181 225 265 335
#     4   8  16  32  54  78 100 144 182 214 252 334
#     4  10  19  35  55  85 107 145 184 226 271 322
#     4  10  25  32  55  80 112 144 180 239 280 317
#     4  11  19  39  52  81 107 145 184 225 277 330
#
# _framework density 18.296551999999998
#
# number of rings (size 3 to 8) (size 9 to 14) (size 15 to 20)
#    0.000    2.545    3.636    1.636    0.000    2.909 
#    3.273    2.727    4.000    0.000    0.000    0.000 
#    0.000    0.000    0.000    0.000    0.000    0.000 
#
# Total GULP energy -244991.709573 kJ/mol
# GULP energy per Si atom -5567.993399 kJ/mol
# Density = 1.825491 g / cm^3
# Si number density = 18.296552 Si / 1000 Ang^3
#
#
#
# Elastic Constant Matrix: (Units=GPa)
#
#
# Indices 1 2 3 4 5 6 
#
# 1 35.1742 9.2381 13.9670 0.0000 0.0000 0.0000
# 2 9.2381 93.8289 7.6587 0.0000 0.0000 0.0000
# 3 13.9670 7.6587 75.8532 0.0000 0.0000 0.0000
# 4 0.0000 0.0000 0.0000 -0.7324 0.0000 0.0000
# 5 0.0000 0.0000 0.0000 0.0000 -22.8224 0.0000
# 6 0.0000 0.0000 0.0000 0.0000 0.0000 22.0315
#
#
#
# Elastic Compliance Matrix: (Units=1/GPa)
#
#
# Indices 1 2 3 4 5 6 
#
# 1 0.031305 -0.002633 -0.005498 0.000000 0.000000 0.000000
# 2 -0.002633 0.010968 -0.000622 0.000000 0.000000 0.000000
# 3 -0.005498 -0.000622 0.014259 0.000000 0.000000 0.000000
# 4 0.000000 0.000000 0.000000 -1.365435 0.000000 0.000000
# 5 0.000000 0.000000 0.000000 0.000000 -0.043817 0.000000
# 6 0.000000 0.000000 0.000000 0.000000 0.000000 0.045390
#
#
# Mechanical properties :
#
#
# Convention : Reuss Voigt Hill
#
# Bulk Modulus (GPa) = 25.62602 29.62042 27.62322
# Shear Modulus (GPa) = -3.91600 11.29485 3.68943
#
# Velocity S-wave (km/s) = -1.46456 2.48729 1.42156
# Velocity P-wave (km/s) = 3.34311 4.94702 4.22193
#
# Compressibility (1/GPa) = 0.03902284
#
# Stress axis : x y z
#
# Youngs Moduli (GPa) = 31.94392 91.17607 70.13302
#
# Poissons Ratio (x) = 0.24010 0.38561
# Poissons Ratio (y) = 0.08412 0.04366
# Poissons Ratio (z) = 0.17564 0.05676
#
# Static dielectric constant tensor:
#      x y z
#    x 1.612720 0.000000 0.000000 
#    y 0.000000 1.656470 0.000000 
#    z 0.000000 0.000000 1.676070 
# 
# From -- ./inp_files/31196.got.cif
#   From: 2010.05.17/outbox.cif.g08.bks.cpg/sg52_16_cif.got.tgz:31196.got - 2010.06.03 12:15:38.
