data_PCOD9408344
_publ_section_title
;
Structure prediction by ZEFSAII (Michael W. Deem and Ramdas Pophale) SiO2 
 PCOD9408344
Probable space group: P N N A
;
_chemical_formula_sum "Si O2"
_cell_formula_units_Z 40
_cell_length_a 14.185916
_cell_length_b 22.186763
_cell_length_c 4.975311
_cell_angle_alpha 90.000000
_cell_angle_beta 90.000000
_cell_angle_gamma 90.000000
_cell_volume 1565.927176
_symmetry_space_group_name_H-M "P N N A"
_symmetry_group_IT_number 52
_symmetry_cell_setting 'orthorhombic'
loop_
_space_group_symop_operation_xyz
x,y,z
1/2-x,-y,z
x,1/2-y,1/2-z
1/2-x,1/2+y,1/2-z
-x,-y,-z
1/2+x,y,-z
-x,1/2+y,1/2+z
1/2+x,1/2-y,1/2+z
loop_
_atom_site_type_symbol
_atom_site_label
_atom_site_fract_x
_atom_site_fract_y
_atom_site_fract_z
Si Si1 0.378255 0.407862 0.239573
Si Si2 0.627692 0.709677 0.012412
Si Si3 0.904904 0.811318 0.609820
Si Si4 0.584173 0.382754 0.394414
Si Si5 0.851076 0.485222 0.243078
O O1 0.471215 0.378551 0.370036
O O2 0.335582 0.444229 0.490560
O O3 0.326401 0.353246 0.084128
O O4 0.406356 0.451573 0.993303
O O5 0.670837 0.750000 0.250000
O O6 0.519403 0.695456 0.097897
O O7 0.623672 0.750000 0.750000
O O8 0.868980 0.750000 0.750000
O O9 0.876795 0.833074 0.314201
O O10 0.883941 0.865678 0.810839
O O11 0.605696 0.451468 0.327087
O O12 0.750000 0.500000 0.117915
#
# Coordination Sequence:
#
# PCOD9408344 Si02
#       5
#     8   8   8   8   8
#     4  11  21  38  61  86 113 148 191 235 279 338
#     4  10  18  32  56  89 117 141 178 234 290 335
#     4  10  18  32  56  89 117 142 179 235 289 335
#     4  11  21  36  60  87 113 147 191 236 278 336
#     4  12  25  40  57  81 117 156 192 236 286 334
#
# _framework density 25.543973000000001
#
# number of rings (size 3 to 8) (size 9 to 14) (size 15 to 20)
#    0.000    1.200    0.000   12.000    0.000    0.000 
#    0.000    0.000    0.000   12.000    0.000    0.000 
#    0.000    0.000    0.000    0.000    0.000    0.000 
#
# Total GULP energy -223820.641547 kJ/mol
# GULP energy per Si atom -5595.516039 kJ/mol
# Density = 2.548583 g / cm^3
# Si number density = 25.543973 Si / 1000 Ang^3
#
#
#
# Elastic Constant Matrix: (Units=GPa)
#
#
# Indices 1 2 3 4 5 6 
#
# 1 47.7003 2.7627 5.0507 0.0000 0.0000 0.0000
# 2 2.7627 116.0220 38.6922 0.0000 0.0000 0.0000
# 3 5.0507 38.6922 146.9857 0.0000 0.0000 0.0000
# 4 0.0000 0.0000 0.0000 33.2243 0.0000 0.0000
# 5 0.0000 0.0000 0.0000 0.0000 10.1409 0.0000
# 6 0.0000 0.0000 0.0000 0.0000 0.0000 -25.2895
#
#
#
# Elastic Compliance Matrix: (Units=1/GPa)
#
#
# Indices 1 2 3 4 5 6 
#
# 1 0.021049 -0.000285 -0.000648 0.000000 0.000000 0.000000
# 2 -0.000285 0.009452 -0.002478 0.000000 0.000000 0.000000
# 3 -0.000648 -0.002478 0.007478 0.000000 0.000000 0.000000
# 4 0.000000 0.000000 0.000000 0.030098 0.000000 0.000000
# 5 0.000000 0.000000 0.000000 0.000000 0.098610 0.000000
# 6 0.000000 0.000000 0.000000 0.000000 0.000000 -0.039542
#
#
# Mechanical properties :
#
#
# Convention : Reuss Voigt Hill
#
# Bulk Modulus (GPa) = 32.09614 44.85767 38.47691
# Shear Modulus (GPa) = 34.63673 21.22864 27.93269
#
# Velocity S-wave (km/s) = 3.68634 2.88594 3.31042
# Velocity P-wave (km/s) = 5.54176 5.35761 5.45046
#
# Compressibility (1/GPa) = 0.03115639
#
# Stress axis : x y z
#
# Youngs Moduli (GPa) = 47.50730 105.79350 133.72427
#
# Poissons Ratio (x) = 0.03016 0.08669
# Poissons Ratio (y) = 0.01354 0.33143
# Poissons Ratio (z) = 0.03080 0.26220
#
# Static dielectric constant tensor:
#      x y z
#    x 2.076510 0.000000 0.000000 
#    y 0.000000 2.107820 0.000000 
#    z 0.000000 0.000000 1.913310 
# 
# From -- ./inp_files/4285.got.cif
#   From: 2010.05.17/outbox.cif.g08.bks.cpg/sg52_3_cif.got.tgz:4285.got - 2010.06.03 12:15:38.
