data_PCOD9408582
_publ_section_title
;
Structure prediction by ZEFSAII (Michael W. Deem and Ramdas Pophale) SiO2 
 PCOD9408582
Probable space group: P N N A
;
_chemical_formula_sum "Si O2"
_cell_formula_units_Z 40
_cell_length_a 8.618403
_cell_length_b 18.669096
_cell_length_c 11.340126
_cell_angle_alpha 90.000000
_cell_angle_beta 90.000000
_cell_angle_gamma 90.000000
_cell_volume 1824.601245
_symmetry_space_group_name_H-M "P N N A"
_symmetry_group_IT_number 52
_symmetry_cell_setting 'orthorhombic'
loop_
_space_group_symop_operation_xyz
x,y,z
1/2-x,-y,z
x,1/2-y,1/2-z
1/2-x,1/2+y,1/2-z
-x,-y,-z
1/2+x,y,-z
-x,1/2+y,1/2+z
1/2+x,1/2-y,1/2+z
loop_
_atom_site_type_symbol
_atom_site_label
_atom_site_fract_x
_atom_site_fract_y
_atom_site_fract_z
Si Si1 0.928137 0.250000 0.250000
Si Si2 0.427712 0.153785 0.559310
Si Si3 0.788830 0.847517 0.083606
Si Si4 0.146379 0.441368 0.917348
Si Si5 0.623432 0.718360 0.621636
Si Si6 0.250000 0.500000 0.692259
O O1 0.820380 0.204992 0.160564
O O2 0.013568 0.192674 0.332506
O O3 0.261926 0.125700 0.605651
O O4 0.516489 0.088408 0.500848
O O5 0.407702 0.211723 0.457780
O O6 0.965927 0.829254 0.117448
O O7 0.739147 0.928721 0.114596
O O8 0.755641 0.826323 0.947490
O O9 0.250000 0.500000 0.983710
O O10 0.116766 0.479030 0.790371
O O11 0.654282 0.750000 0.750000
#
# Coordination Sequence:
#
# PCOD9408582 Si02
#       6
#     4   8   8   8   8   4
#     4  10  18  36  68  92 124 172 216 262 330 380
#     4  11  20  39  62  96 122 167 222 268 319 394
#     4  11  22  43  67  96 129 176 216 273 329 402
#     4  10  21  36  63  93 129 169 213 265 329 398
#     4  11  24  42  68  93 133 169 224 279 325 385
#     4  10  22  40  72  88 136 184 208 260 358 394
#
# _framework density 21.922598000000001
#
# number of rings (size 3 to 8) (size 9 to 14) (size 15 to 20)
#    0.600    0.800    3.000    4.200    0.000    0.800 
#   16.200    0.000    2.200    0.000    0.000    0.000 
#    0.000    0.000    0.000    0.000    0.000    0.000 
#
# Total GULP energy -223045.950595 kJ/mol
# GULP energy per Si atom -5576.148765 kJ/mol
# Density = 2.187270 g / cm^3
# Si number density = 21.922598 Si / 1000 Ang^3
#
#
#
# Elastic Constant Matrix: (Units=GPa)
#
#
# Indices 1 2 3 4 5 6 
#
# 1 53.7823 29.1882 29.0018 0.0000 0.0000 0.0000
# 2 29.1882 129.0593 48.3235 0.0000 0.0000 0.0000
# 3 29.0018 48.3235 153.8804 0.0000 0.0000 0.0000
# 4 0.0000 0.0000 0.0000 53.0189 0.0000 0.0000
# 5 0.0000 0.0000 0.0000 0.0000 12.3258 0.0000
# 6 0.0000 0.0000 0.0000 0.0000 0.0000 22.6295
#
#
#
# Elastic Compliance Matrix: (Units=1/GPa)
#
#
# Indices 1 2 3 4 5 6 
#
# 1 0.022334 -0.003938 -0.002973 0.000000 0.000000 0.000000
# 2 -0.003938 0.009475 -0.002233 0.000000 0.000000 0.000000
# 3 -0.002973 -0.002233 0.007760 0.000000 0.000000 0.000000
# 4 0.000000 0.000000 0.000000 0.018861 0.000000 0.000000
# 5 0.000000 0.000000 0.000000 0.000000 0.081130 0.000000
# 6 0.000000 0.000000 0.000000 0.000000 0.000000 0.044190
#
#
# Mechanical properties :
#
#
# Convention : Reuss Voigt Hill
#
# Bulk Modulus (GPa) = 46.98983 61.08323 54.03653
# Shear Modulus (GPa) = 23.90833 32.94208 28.42520
#
# Velocity S-wave (km/s) = 3.30597 3.88061 3.60476
# Velocity P-wave (km/s) = 6.00446 6.92838 6.48290
#
# Compressibility (1/GPa) = 0.02128120
#
# Stress axis : x y z
#
# Youngs Moduli (GPa) = 44.77562 105.53844 128.86378
#
# Poissons Ratio (x) = 0.41561 0.38305
# Poissons Ratio (y) = 0.17633 0.28780
# Poissons Ratio (z) = 0.13310 0.23570
#
# Static dielectric constant tensor:
#      x y z
#    x 1.894370 0.000000 0.000000 
#    y 0.000000 1.872060 0.000000 
#    z 0.000000 0.000000 1.847620 
# 
# From -- ./inp_files/16851.got.cif
#   From: 2010.05.17/outbox.cif.g08.bks.cpg/sg52_9_cif.got.tgz:16851.got - 2010.06.03 12:15:38.
