data_PCOD9408892
_publ_section_title
;
Structure prediction by ZEFSAII (Michael W. Deem and Ramdas Pophale) SiO2 
 PCOD9408892
Probable space group: P N N A
;
_chemical_formula_sum "Si O2"
_cell_formula_units_Z 52
_cell_length_a 17.623169
_cell_length_b 11.761258
_cell_length_c 15.044237
_cell_angle_alpha 90.000000
_cell_angle_beta 90.000000
_cell_angle_gamma 90.000000
_cell_volume 3118.228592
_symmetry_space_group_name_H-M "P N N A"
_symmetry_group_IT_number 52
_symmetry_cell_setting 'orthorhombic'
loop_
_space_group_symop_operation_xyz
x,y,z
1/2-x,-y,z
x,1/2-y,1/2-z
1/2-x,1/2+y,1/2-z
-x,-y,-z
1/2+x,y,-z
-x,1/2+y,1/2+z
1/2+x,1/2-y,1/2+z
loop_
_atom_site_type_symbol
_atom_site_label
_atom_site_fract_x
_atom_site_fract_y
_atom_site_fract_z
Si Si1 0.182336 0.419718 0.378855
Si Si2 0.125402 0.770180 0.888365
Si Si3 0.435567 0.640669 0.690701
Si Si4 0.094549 0.250000 0.250000
Si Si5 0.218845 0.126813 0.921094
Si Si6 0.451117 0.400291 0.778781
Si Si7 0.055475 0.910908 0.049027
O O1 0.250000 0.500000 0.341845
O O2 0.146961 0.321821 0.317235
O O3 0.208190 0.364607 0.472665
O O4 0.118040 0.510293 0.405422
O O5 0.215712 0.787528 0.888975
O O6 0.097604 0.643978 0.862728
O O7 0.087815 0.844477 0.809076
O O8 0.092325 0.824447 0.978586
O O9 0.428209 0.750000 0.750000
O O10 0.359990 0.631899 0.630762
O O11 0.449151 0.531967 0.754398
O O12 0.505843 0.649574 0.623494
O O13 0.034908 0.344362 0.211663
O O14 0.250000 0.000000 0.905443
O O15 0.000000 0.000000 0.000000
#
# Coordination Sequence:
#
# PCOD9408892 Si02
#       7
#     8   8   8   4   8   8   8
#     4  11  20  35  61  89 115 145 202 248 289 346
#     4  10  19  33  61  85 112 148 197 248 282 351
#     4  12  25  35  56  90 124 151 192 250 295 351
#     4  10  20  36  62  88 114 148 200 246 286 352
#     4  11  19  34  59  91 113 147 194 238 300 346
#     4  10  20  36  59  89 114 156 192 237 306 347
#     4  12  17  37  59  83 111 149 202 240 273 346
#
# _framework density 16.676134999999999
#
# number of rings (size 3 to 8) (size 9 to 14) (size 15 to 20)
#    0.000    1.231    9.231    0.923    2.154    0.000 
#    1.385    0.769    0.000    0.000    0.000    0.000 
#    0.000    0.000    0.000    0.000    0.000    0.000 
#
# Total GULP energy -289819.172760 kJ/mol
# GULP energy per Si atom -5573.445630 kJ/mol
# Density = 1.663818 g / cm^3
# Si number density = 16.676135 Si / 1000 Ang^3
#
#
#
# Elastic Constant Matrix: (Units=GPa)
#
#
# Indices 1 2 3 4 5 6 
#
# 1 112.8063 35.7525 41.4455 0.0000 0.0000 0.0000
# 2 35.7525 85.7315 47.6552 0.0000 0.0000 0.0000
# 3 41.4455 47.6552 74.9038 0.0000 0.0000 0.0000
# 4 0.0000 0.0000 0.0000 32.2530 0.0000 0.0000
# 5 0.0000 0.0000 0.0000 0.0000 24.3039 0.0000
# 6 0.0000 0.0000 0.0000 0.0000 0.0000 19.5807
#
#
#
# Elastic Compliance Matrix: (Units=1/GPa)
#
#
# Indices 1 2 3 4 5 6 
#
# 1 0.011327 -0.001918 -0.005047 0.000000 0.000000 0.000000
# 2 -0.001918 0.018371 -0.010627 0.000000 0.000000 0.000000
# 3 -0.005047 -0.010627 0.022904 0.000000 0.000000 0.000000
# 4 0.000000 0.000000 0.000000 0.031005 0.000000 0.000000
# 5 0.000000 0.000000 0.000000 0.000000 0.041146 0.000000
# 6 0.000000 0.000000 0.000000 0.000000 0.000000 0.051071
#
#
# Mechanical properties :
#
#
# Convention : Reuss Voigt Hill
#
# Bulk Modulus (GPa) = 57.41088 58.12754 57.76921
# Shear Modulus (GPa) = 23.06126 25.13341 24.09734
#
# Velocity S-wave (km/s) = 3.72276 3.88641 3.80547
# Velocity P-wave (km/s) = 7.27876 7.42101 7.35022
#
# Compressibility (1/GPa) = 0.01741830
#
# Stress axis : x y z
#
# Youngs Moduli (GPa) = 88.28457 54.43255 43.66043
#
# Poissons Ratio (x) = 0.10441 0.22035
# Poissons Ratio (y) = 0.16935 0.46397
# Poissons Ratio (z) = 0.44557 0.57844
#
# Static dielectric constant tensor:
#      x y z
#    x 1.629970 0.000000 0.000000 
#    y 0.000000 1.501820 0.000000 
#    z 0.000000 0.000000 1.571670 
# 
# From -- ./inp_files/33232.got.cif
#   From: 2010.05.17/outbox.cif.g08.bks.cpg/sg52_17_cif.got.tgz:33232.got - 2010.06.03 12:15:38.
