data_PCOD9408571
_publ_section_title
;
Structure prediction by ZEFSAII (Michael W. Deem and Ramdas Pophale) SiO2 
 PCOD9408571
Probable space group: P N N A
;
_chemical_formula_sum "Si O2"
_cell_formula_units_Z 52
_cell_length_a 20.927957
_cell_length_b 16.255948
_cell_length_c 8.054995
_cell_angle_alpha 90.000000
_cell_angle_beta 90.000000
_cell_angle_gamma 90.000000
_cell_volume 2740.339753
_symmetry_space_group_name_H-M "P N N A"
_symmetry_group_IT_number 52
_symmetry_cell_setting 'orthorhombic'
loop_
_space_group_symop_operation_xyz
x,y,z
1/2-x,-y,z
x,1/2-y,1/2-z
1/2-x,1/2+y,1/2-z
-x,-y,-z
1/2+x,y,-z
-x,1/2+y,1/2+z
1/2+x,1/2-y,1/2+z
loop_
_atom_site_type_symbol
_atom_site_label
_atom_site_fract_x
_atom_site_fract_y
_atom_site_fract_z
Si Si1 0.298761 0.061755 0.071315
Si Si2 0.864207 0.947021 0.203934
Si Si3 0.755937 0.346159 0.259126
Si Si4 0.897127 0.391658 0.130578
Si Si5 0.464416 0.813690 0.903490
Si Si6 0.489018 0.250000 0.750000
Si Si7 0.592098 0.652528 0.755349
O O1 0.347426 0.104669 0.190158
O O2 0.250000 0.000000 0.158837
O O3 0.266209 0.129165 0.952179
O O4 0.335196 0.004201 0.939644
O O5 0.804311 0.902245 0.294150
O O6 0.907935 0.878470 0.118710
O O7 0.901151 0.012581 0.319063
O O8 0.741747 0.250000 0.250000
O O9 0.822769 0.365705 0.164744
O O10 0.942624 0.329342 0.231602
O O11 0.918195 0.375663 0.942658
O O12 0.458049 0.750000 0.750000
O O13 0.531182 0.859758 0.863030
O O14 0.471003 0.767908 0.081027
O O15 0.604652 0.750000 0.750000
#
# Coordination Sequence:
#
# PCOD9408571 Si02
#       7
#     8   8   8   8   8   4   8
#     4   9  20  37  57  85 122 158 201 259 309 361
#     4  10  23  38  60  90 126 161 203 255 320 365
#     4  10  18  36  64  87 117 163 203 250 313 373
#     4  11  21  37  64  93 116 160 214 254 311 366
#     4  11  23  43  63  91 125 163 208 255 301 376
#     4  12  22  42  68  88 120 170 212 252 306 370
#     4  11  21  37  60  91 120 159 212 257 296 371
#
# _framework density 18.975749
#
# number of rings (size 3 to 8) (size 9 to 14) (size 15 to 20)
#    0.000    1.538    3.846    4.615    0.000    4.308 
#    2.769    0.000   13.538    0.000    0.000    0.000 
#    0.000    0.000    0.000    0.000    0.000    0.000 
#
# Total GULP energy -289998.956482 kJ/mol
# GULP energy per Si atom -5576.903009 kJ/mol
# Density = 1.893256 g / cm^3
# Si number density = 18.975749 Si / 1000 Ang^3
#
#
#
# Elastic Constant Matrix: (Units=GPa)
#
#
# Indices 1 2 3 4 5 6 
#
# 1 51.9150 45.5362 16.6840 0.0000 0.0000 0.0000
# 2 45.5362 108.4753 33.2259 0.0000 0.0000 0.0000
# 3 16.6840 33.2259 82.2514 0.0000 0.0000 0.0000
# 4 0.0000 0.0000 0.0000 25.1480 0.0000 0.0000
# 5 0.0000 0.0000 0.0000 0.0000 10.3232 0.0000
# 6 0.0000 0.0000 0.0000 0.0000 0.0000 124.7537
#
#
#
# Elastic Compliance Matrix: (Units=1/GPa)
#
#
# Indices 1 2 3 4 5 6 
#
# 1 0.030585 -0.012483 -0.001161 0.000000 0.000000 0.000000
# 2 -0.012483 0.015616 -0.003776 0.000000 0.000000 0.000000
# 3 -0.001161 -0.003776 0.013919 0.000000 0.000000 0.000000
# 4 0.000000 0.000000 0.000000 0.039765 0.000000 0.000000
# 5 0.000000 0.000000 0.000000 0.000000 0.096869 0.000000
# 6 0.000000 0.000000 0.000000 0.000000 0.000000 0.008016
#
#
# Mechanical properties :
#
#
# Convention : Reuss Voigt Hill
#
# Bulk Modulus (GPa) = 39.55951 48.17042 43.86497
# Shear Modulus (GPa) = 20.15840 41.85803 31.00822
#
# Velocity S-wave (km/s) = 3.26287 4.70176 4.04678
# Velocity P-wave (km/s) = 5.92349 7.41052 6.70834
#
# Compressibility (1/GPa) = 0.02527837
#
# Stress axis : x y z
#
# Youngs Moduli (GPa) = 32.69579 64.03869 71.84606
#
# Poissons Ratio (x) = 0.79942 0.08342
# Poissons Ratio (y) = 0.40816 0.27128
# Poissons Ratio (z) = 0.03796 0.24180
#
# Static dielectric constant tensor:
#      x y z
#    x 1.700400 0.000000 0.000000 
#    y 0.000000 1.662290 0.000000 
#    z 0.000000 0.000000 1.671700 
# 
# From -- ./inp_files/13382.got.cif
#   From: 2010.05.17/outbox.cif.g08.bks.cpg/sg52_7_cif.got.tgz:13382.got - 2010.06.03 12:15:38.
