data_PCOD9408327
_publ_section_title
;
Structure prediction by ZEFSAII (Michael W. Deem and Ramdas Pophale) SiO2 
 PCOD9408327
Probable space group: P N N A
;
_chemical_formula_sum "Si O2"
_cell_formula_units_Z 56
_cell_length_a 24.567954
_cell_length_b 12.011250
_cell_length_c 7.705189
_cell_angle_alpha 90.000000
_cell_angle_beta 90.000000
_cell_angle_gamma 90.000000
_cell_volume 2273.738380
_symmetry_space_group_name_H-M "P N N A"
_symmetry_group_IT_number 52
_symmetry_cell_setting 'orthorhombic'
loop_
_space_group_symop_operation_xyz
x,y,z
1/2-x,-y,z
x,1/2-y,1/2-z
1/2-x,1/2+y,1/2-z
-x,-y,-z
1/2+x,y,-z
-x,1/2+y,1/2+z
1/2+x,1/2-y,1/2+z
loop_
_atom_site_type_symbol
_atom_site_label
_atom_site_fract_x
_atom_site_fract_y
_atom_site_fract_z
Si Si1 0.024070 0.290000 0.492473
Si Si2 0.899657 0.299464 0.433919
Si Si3 0.412465 0.435612 0.081183
Si Si4 0.861097 0.731353 0.457118
Si Si5 0.314233 0.494341 0.581685
Si Si6 0.520422 0.060025 0.293138
Si Si7 0.192810 0.043875 0.506806
O O1 0.084082 0.255147 0.431318
O O2 0.965431 0.324084 0.412748
O O3 0.011775 0.174661 0.596261
O O4 0.039245 0.396157 0.610661
O O5 0.881558 0.250000 0.250000
O O6 0.899827 0.195123 0.565868
O O7 0.856101 0.396069 0.474362
O O8 0.439846 0.480549 0.899264
O O9 0.356177 0.495905 0.103951
O O10 0.457922 0.477619 0.216251
O O11 0.875366 0.750000 0.250000
O O12 0.838044 0.610362 0.480998
O O13 0.815801 0.824328 0.491713
O O14 0.250000 0.500000 0.534237
O O15 0.314801 0.499512 0.794481
O O16 0.250000 0.000000 0.443904
#
# Coordination Sequence:
#
# PCOD9408327 Si02
#       7
#     8   8   8   8   8   8   8
#     4  10  18  33  55  78 107 143 180 217 276 341
#     4  11  23  34  50  81 114 139 174 227 279 328
#     4  10  18  32  54  79 111 133 175 233 268 321
#     4  10  18  33  53  73 103 142 184 220 264 333
#     4  10  22  35  49  71 109 148 180 216 269 334
#     4   9  17  32  55  80 103 142 179 221 275 323
#     4  10  19  31  53  78 104 140 178 223 273 315
#
# _framework density 24.629042999999999
#
# number of rings (size 3 to 8) (size 9 to 14) (size 15 to 20)
#    0.000    2.000    4.286    0.857    2.000    1.143 
#    0.000    0.000    0.000    0.857    0.000    0.000 
#    0.000    0.000    0.000    0.000    0.000    0.000 
#
# Total GULP energy -312506.755669 kJ/mol
# GULP energy per Si atom -5580.477780 kJ/mol
# Density = 2.457299 g / cm^3
# Si number density = 24.629043 Si / 1000 Ang^3
#
#
#
# Elastic Constant Matrix: (Units=GPa)
#
#
# Indices 1 2 3 4 5 6 
#
# 1 218.6592 88.7208 4.1094 0.0000 0.0000 0.0000
# 2 88.7208 157.3053 21.6978 0.0000 0.0000 0.0000
# 3 4.1094 21.6978 50.8764 0.0000 0.0000 0.0000
# 4 0.0000 0.0000 0.0000 7.5195 0.0000 0.0000
# 5 0.0000 0.0000 0.0000 0.0000 13.5648 0.0000
# 6 0.0000 0.0000 0.0000 0.0000 0.0000 43.9348
#
#
#
# Elastic Compliance Matrix: (Units=1/GPa)
#
#
# Indices 1 2 3 4 5 6 
#
# 1 0.005979 -0.003512 0.001015 0.000000 0.000000 0.000000
# 2 -0.003512 0.008818 -0.003477 0.000000 0.000000 0.000000
# 3 0.001015 -0.003477 0.021056 0.000000 0.000000 0.000000
# 4 0.000000 0.000000 0.000000 0.132988 0.000000 0.000000
# 5 0.000000 0.000000 0.000000 0.000000 0.073720 0.000000
# 6 0.000000 0.000000 0.000000 0.000000 0.000000 0.022761
#
#
# Mechanical properties :
#
#
# Convention : Reuss Voigt Hill
#
# Bulk Modulus (GPa) = 41.83255 72.87745 57.35500
# Shear Modulus (GPa) = 17.52913 33.82468 25.67691
#
# Velocity S-wave (km/s) = 2.67071 3.70992 3.23235
# Velocity P-wave (km/s) = 5.15094 6.92861 6.10483
#
# Compressibility (1/GPa) = 0.02390483
#
# Stress axis : x y z
#
# Youngs Moduli (GPa) = 167.24052 113.40878 47.49174
#
# Poissons Ratio (x) = 0.39834 -0.04820
# Poissons Ratio (y) = 0.58742 0.16512
# Poissons Ratio (z) = -0.16975 0.39431
#
# Static dielectric constant tensor:
#      x y z
#    x 2.002650 0.000000 0.000000 
#    y 0.000000 1.973000 0.000000 
#    z 0.000000 0.000000 2.109300 
# 
# From -- ./inp_files/22454.got.cif
#   From: 2010.05.17/outbox.cif.g08.bks.cpg/sg52_12_cif.got.tgz:22454.got - 2010.06.03 12:15:38.
