data_PCOD9408968
_publ_section_title
;
Structure prediction by ZEFSAII (Michael W. Deem and Ramdas Pophale) SiO2 
 PCOD9408968
Probable space group: P N N A
;
_chemical_formula_sum "Si O2"
_cell_formula_units_Z 24
_cell_length_a 5.230796
_cell_length_b 8.125015
_cell_length_c 25.914458
_cell_angle_alpha 90.000000
_cell_angle_beta 90.000000
_cell_angle_gamma 90.000000
_cell_volume 1101.372135
_symmetry_space_group_name_H-M "P N N A"
_symmetry_group_IT_number 52
_symmetry_cell_setting 'orthorhombic'
loop_
_space_group_symop_operation_xyz
x,y,z
1/2-x,-y,z
x,1/2-y,1/2-z
1/2-x,1/2+y,1/2-z
-x,-y,-z
1/2+x,y,-z
-x,1/2+y,1/2+z
1/2+x,1/2-y,1/2+z
loop_
_atom_site_type_symbol
_atom_site_label
_atom_site_fract_x
_atom_site_fract_y
_atom_site_fract_z
Si Si1 0.031552 0.811874 0.021479
Si Si2 0.142598 0.683938 0.807229
Si Si3 0.651004 0.681429 0.642154
O O1 0.110745 0.811689 0.080722
O O2 0.256566 0.733460 0.987974
O O3 0.000000 0.000000 0.000000
O O4 0.250000 0.500000 0.804962
O O5 0.089799 0.750000 0.750000
O O6 0.377223 0.785526 0.832107
O O7 0.879894 0.700151 0.839239
O O8 0.750000 0.500000 0.656135
#
# Coordination Sequence:
#
# PCOD9408968 Si02
#       3
#     8   8   8
#     4  10  19  34  61 102 136 163 225 281 312 391
#     4  12  27  47  67  96 140 177 230 287 347 411
#     4  12  23  40  73 104 130 179 229 280 343 395
#
# _framework density 21.790998999999999
#
# number of rings (size 3 to 8) (size 9 to 14) (size 15 to 20)
#    0.000    0.667    3.333    7.000    4.667    0.000 
#    0.000    0.000    0.000   20.000    0.000    0.000 
#    0.000    0.000    0.000    0.000    0.000    0.000 
#
# Total GULP energy -134223.920911 kJ/mol
# GULP energy per Si atom -5592.663371 kJ/mol
# Density = 2.174140 g / cm^3
# Si number density = 21.790999 Si / 1000 Ang^3
#
#
#
# Elastic Constant Matrix: (Units=GPa)
#
#
# Indices 1 2 3 4 5 6 
#
# 1 183.1933 3.8659 68.5193 0.0000 0.0000 0.0000
# 2 3.8659 47.5687 26.5991 0.0000 0.0000 0.0000
# 3 68.5193 26.5991 166.3398 0.0000 0.0000 0.0000
# 4 0.0000 0.0000 0.0000 20.7801 0.0000 0.0000
# 5 0.0000 0.0000 0.0000 0.0000 74.3917 0.0000
# 6 0.0000 0.0000 0.0000 0.0000 0.0000 22.9416
#
#
#
# Elastic Compliance Matrix: (Units=1/GPa)
#
#
# Indices 1 2 3 4 5 6 
#
# 1 0.006502 0.001064 -0.002848 0.000000 0.000000 0.000000
# 2 0.001064 0.023261 -0.004158 0.000000 0.000000 0.000000
# 3 -0.002848 -0.004158 0.007850 0.000000 0.000000 0.000000
# 4 0.000000 0.000000 0.000000 0.048123 0.000000 0.000000
# 5 0.000000 0.000000 0.000000 0.000000 0.013442 0.000000
# 6 0.000000 0.000000 0.000000 0.000000 0.000000 0.043589
#
#
# Mechanical properties :
#
#
# Convention : Reuss Voigt Hill
#
# Bulk Modulus (GPa) = 38.86768 66.11893 52.49331
# Shear Modulus (GPa) = 30.63221 43.49717 37.06469
#
# Velocity S-wave (km/s) = 3.75337 4.47263 4.12869
# Velocity P-wave (km/s) = 6.05467 7.55518 6.84616
#
# Compressibility (1/GPa) = 0.02572832
#
# Stress axis : x y z
#
# Youngs Moduli (GPa) = 153.80780 42.99084 127.38852
#
# Poissons Ratio (x) = -0.04576 0.36285
# Poissons Ratio (y) = -0.16370 0.52968
# Poissons Ratio (z) = 0.43810 0.17876
#
# Static dielectric constant tensor:
#      x y z
#    x 1.835490 0.000000 0.000000 
#    y 0.000000 1.732300 0.000000 
#    z 0.000000 0.000000 1.773760 
# 
# From -- ./inp_files/38449.got.cif
#   From: 2010.05.17/outbox.cif.g08.bks.cpg/sg52_20_cif.got.tgz:38449.got - 2010.06.03 12:15:38.
