data_PCOD9408213
_publ_section_title
;
Structure prediction by ZEFSAII (Michael W. Deem and Ramdas Pophale) SiO2 
 PCOD9408213
Probable space group: P N N A
;
_chemical_formula_sum "Si O2"
_cell_formula_units_Z 48
_cell_length_a 8.882782
_cell_length_b 17.545170
_cell_length_c 15.989186
_cell_angle_alpha 90.000000
_cell_angle_beta 90.000000
_cell_angle_gamma 90.000000
_cell_volume 2491.913363
_symmetry_space_group_name_H-M "P N N A"
_symmetry_group_IT_number 52
_symmetry_cell_setting 'orthorhombic'
loop_
_space_group_symop_operation_xyz
x,y,z
1/2-x,-y,z
x,1/2-y,1/2-z
1/2-x,1/2+y,1/2-z
-x,-y,-z
1/2+x,y,-z
-x,1/2+y,1/2+z
1/2+x,1/2-y,1/2+z
loop_
_atom_site_type_symbol
_atom_site_label
_atom_site_fract_x
_atom_site_fract_y
_atom_site_fract_z
Si Si1 0.773948 0.317383 0.639126
Si Si2 0.524147 0.879515 0.184737
Si Si3 0.008153 0.449593 0.654901
Si Si4 0.726774 0.081607 0.310752
Si Si5 0.950773 0.724700 0.155419
Si Si6 0.289209 0.645128 0.552897
O O1 0.613866 0.321763 0.683766
O O2 0.881256 0.386415 0.670203
O O3 0.746739 0.338209 0.542251
O O4 0.870274 0.239854 0.648928
O O5 0.619282 0.884453 0.271029
O O6 0.640665 0.862269 0.109725
O O7 0.459155 0.963490 0.162056
O O8 0.129592 0.438673 0.728347
O O9 0.101550 0.427207 0.571304
O O10 0.626237 0.143444 0.358300
O O11 0.750000 0.000000 0.354567
O O12 0.907490 0.750000 0.250000
O O13 0.880351 0.784128 0.091057
#
# Coordination Sequence:
#
# PCOD9408213 Si02
#       6
#     8   8   8   8   8   8
#     4  11  21  30  49  81 113 142 175 229 276 324
#     4  10  18  30  49  80 109 144 188 213 255 343
#     4   9  18  31  49  73 116 150 173 213 272 327
#     4   9  18  36  58  77 100 145 194 229 273 334
#     4  11  19  39  56  72 109 150 180 227 290 323
#     4  10  20  32  50  77 110 149 186 211 266 333
#
# _framework density 19.262305999999999
#
# number of rings (size 3 to 8) (size 9 to 14) (size 15 to 20)
#    0.000    2.000    5.000    4.000    0.000    4.000 
#    3.000    0.000    0.000    1.000    0.000    0.000 
#    0.000    0.000    0.000    0.000    0.000    0.000 
#
# Total GULP energy -267679.618186 kJ/mol
# GULP energy per Si atom -5576.658712 kJ/mol
# Density = 1.921846 g / cm^3
# Si number density = 19.262306 Si / 1000 Ang^3
#
#
#
# Elastic Constant Matrix: (Units=GPa)
#
#
# Indices 1 2 3 4 5 6 
#
# 1 109.5188 39.7903 -2.7518 0.0000 0.0000 0.0000
# 2 39.7903 94.4555 9.4788 0.0000 0.0000 0.0000
# 3 -2.7518 9.4788 14.2185 0.0000 0.0000 0.0000
# 4 0.0000 0.0000 0.0000 14.3036 0.0000 0.0000
# 5 0.0000 0.0000 0.0000 0.0000 6.2215 0.0000
# 6 0.0000 0.0000 0.0000 0.0000 0.0000 34.1517
#
#
#
# Elastic Compliance Matrix: (Units=1/GPa)
#
#
# Indices 1 2 3 4 5 6 
#
# 1 0.011195 -0.005287 0.005691 0.000000 0.000000 0.000000
# 2 -0.005287 0.013843 -0.010252 0.000000 0.000000 0.000000
# 3 0.005691 -0.010252 0.078267 0.000000 0.000000 0.000000
# 4 0.000000 0.000000 0.000000 0.069913 0.000000 0.000000
# 5 0.000000 0.000000 0.000000 0.000000 0.160733 0.000000
# 6 0.000000 0.000000 0.000000 0.000000 0.000000 0.029281
#
#
# Mechanical properties :
#
#
# Convention : Reuss Voigt Hill
#
# Bulk Modulus (GPa) = 11.96038 34.58083 23.27060
# Shear Modulus (GPa) = 12.17148 22.38039 17.27593
#
# Velocity S-wave (km/s) = 2.51645 3.41233 2.99804
# Velocity P-wave (km/s) = 3.82963 5.78937 4.90831
#
# Compressibility (1/GPa) = 0.08360940
#
# Stress axis : x y z
#
# Youngs Moduli (GPa) = 89.32784 72.23881 12.77681
#
# Poissons Ratio (x) = 0.38193 -0.07272
# Poissons Ratio (y) = 0.47228 0.13098
# Poissons Ratio (z) = -0.50838 0.74057
#
# Static dielectric constant tensor:
#      x y z
#    x 1.736840 0.000000 0.000000 
#    y 0.000000 1.752550 0.000000 
#    z 0.000000 0.000000 1.650620 
# 
# From -- ./inp_files/36097.got.cif
#   From: 2010.05.17/outbox.cif.g08.bks.cpg/sg52_19_cif.got.tgz:36097.got - 2010.06.03 12:15:38.
