data_PCOD9408227
_publ_section_title
;
Structure prediction by ZEFSAII (Michael W. Deem and Ramdas Pophale) SiO2 
 PCOD9408227
Probable space group: P N N A
;
_chemical_formula_sum "Si O2"
_cell_formula_units_Z 52
_cell_length_a 15.340873
_cell_length_b 21.283598
_cell_length_c 8.360571
_cell_angle_alpha 90.000000
_cell_angle_beta 90.000000
_cell_angle_gamma 90.000000
_cell_volume 2729.801458
_symmetry_space_group_name_H-M "P N N A"
_symmetry_group_IT_number 52
_symmetry_cell_setting 'orthorhombic'
loop_
_space_group_symop_operation_xyz
x,y,z
1/2-x,-y,z
x,1/2-y,1/2-z
1/2-x,1/2+y,1/2-z
-x,-y,-z
1/2+x,y,-z
-x,1/2+y,1/2+z
1/2+x,1/2-y,1/2+z
loop_
_atom_site_type_symbol
_atom_site_label
_atom_site_fract_x
_atom_site_fract_y
_atom_site_fract_z
Si Si1 0.543894 0.321648 0.708307
Si Si2 0.824067 0.848557 0.044892
Si Si3 0.855404 0.941785 0.326399
Si Si4 0.145654 0.813422 0.854163
Si Si5 0.824032 0.415455 0.082728
Si Si6 0.060439 0.250000 0.750000
Si Si7 0.014104 0.863915 0.442400
O O1 0.568666 0.250000 0.750000
O O2 0.621709 0.355321 0.616947
O O3 0.455820 0.318502 0.598678
O O4 0.516094 0.353328 0.874339
O O5 0.830181 0.911554 0.154080
O O6 0.725066 0.823731 0.024049
O O7 0.876123 0.793870 0.142655
O O8 0.779474 0.916837 0.446356
O O9 0.948903 0.914423 0.367805
O O10 0.851451 0.016211 0.350761
O O11 0.154240 0.750000 0.750000
O O12 0.162571 0.867644 0.726646
O O13 0.888018 0.390464 0.945776
O O14 0.002260 0.201663 0.647848
#
# Coordination Sequence:
#
# PCOD9408227 Si02
#       7
#     8   8   8   8   8   4   8
#     4  10  19  32  52  77 111 139 174 226 283 321
#     4  10  18  33  54  76 105 141 181 222 265 329
#     4   9  19  34  57  79 104 142 193 220 269 331
#     4   9  18  32  54  77 102 140 179 215 270 324
#     4   9  18  34  56  79 104 145 185 227 267 334
#     4  10  18  30  52  80 104 144 184 224 262 334
#     4  10  19  33  53  78 113 143 180 231 282 315
#
# _framework density 19.049002999999999
#
# number of rings (size 3 to 8) (size 9 to 14) (size 15 to 20)
#    0.000    2.462    2.308    0.462    0.000    0.000 
#    0.000    6.154    3.385    7.385    0.000    0.000 
#    0.000    0.000    0.000    0.000    0.000    0.000 
#
# Total GULP energy -289595.442531 kJ/mol
# GULP energy per Si atom -5569.143126 kJ/mol
# Density = 1.900565 g / cm^3
# Si number density = 19.049003 Si / 1000 Ang^3
#
#
#
# Elastic Constant Matrix: (Units=GPa)
#
#
# Indices 1 2 3 4 5 6 
#
# 1 105.8480 13.6686 20.7172 0.0000 0.0000 0.0000
# 2 13.6686 68.3179 -1.9775 0.0000 0.0000 0.0000
# 3 20.7172 -1.9775 31.6301 0.0000 0.0000 0.0000
# 4 0.0000 0.0000 0.0000 15.7911 0.0000 0.0000
# 5 0.0000 0.0000 0.0000 0.0000 26.0596 0.0000
# 6 0.0000 0.0000 0.0000 0.0000 0.0000 12.1567
#
#
#
# Elastic Compliance Matrix: (Units=1/GPa)
#
#
# Indices 1 2 3 4 5 6 
#
# 1 0.011237 -0.002466 -0.007514 0.000000 0.000000 0.000000
# 2 -0.002466 0.015205 0.002566 0.000000 0.000000 0.000000
# 3 -0.007514 0.002566 0.036697 0.000000 0.000000 0.000000
# 4 0.000000 0.000000 0.000000 0.063327 0.000000 0.000000
# 5 0.000000 0.000000 0.000000 0.000000 0.038374 0.000000
# 6 0.000000 0.000000 0.000000 0.000000 0.000000 0.082259
#
#
# Mechanical properties :
#
#
# Convention : Reuss Voigt Hill
#
# Bulk Modulus (GPa) = 20.69923 30.06806 25.38365
# Shear Modulus (GPa) = 17.98367 22.36066 20.17217
#
# Velocity S-wave (km/s) = 3.07591 3.42987 3.25770
# Velocity P-wave (km/s) = 4.84818 5.61286 5.24447
#
# Compressibility (1/GPa) = 0.04831097
#
# Stress axis : x y z
#
# Youngs Moduli (GPa) = 88.99515 65.76771 27.24993
#
# Poissons Ratio (x) = 0.16216 0.20475
# Poissons Ratio (y) = 0.21943 -0.06991
# Poissons Ratio (z) = 0.66870 -0.16873
#
# Static dielectric constant tensor:
#      x y z
#    x 1.730700 0.000000 0.000000 
#    y 0.000000 1.651920 0.000000 
#    z 0.000000 0.000000 1.681890 
# 
# From -- ./inp_files/10916.got.cif
#   From: 2010.05.17/outbox.cif.g08.bks.cpg/sg52_6_cif.got.tgz:10916.got - 2010.06.03 12:15:38.
