data_PCOD9408361
_publ_section_title
;
Structure prediction by ZEFSAII (Michael W. Deem and Ramdas Pophale) SiO2 
 PCOD9408361
Probable space group: P N N A
;
_chemical_formula_sum "Si O2"
_cell_formula_units_Z 28
_cell_length_a 11.547024
_cell_length_b 11.754736
_cell_length_c 7.639746
_cell_angle_alpha 90.000000
_cell_angle_beta 90.000000
_cell_angle_gamma 90.000000
_cell_volume 1036.959675
_symmetry_space_group_name_H-M "P N N A"
_symmetry_group_IT_number 52
_symmetry_cell_setting 'orthorhombic'
loop_
_space_group_symop_operation_xyz
x,y,z
1/2-x,-y,z
x,1/2-y,1/2-z
1/2-x,1/2+y,1/2-z
-x,-y,-z
1/2+x,y,-z
-x,1/2+y,1/2+z
1/2+x,1/2-y,1/2+z
loop_
_atom_site_type_symbol
_atom_site_label
_atom_site_fract_x
_atom_site_fract_y
_atom_site_fract_z
Si Si1 0.651839 0.585975 0.615723
Si Si2 0.078062 0.791915 0.549524
Si Si3 0.590597 0.483978 0.240533
Si Si4 0.893207 0.750000 0.250000
O O1 0.750000 0.500000 0.681032
O O2 0.672733 0.718917 0.562752
O O3 0.616015 0.538743 0.426438
O O4 0.539446 0.567411 0.736919
O O5 0.063603 0.750000 0.750000
O O6 0.965002 0.756690 0.434617
O O7 0.097124 0.925283 0.586815
O O8 0.670056 0.370790 0.236485
#
# Coordination Sequence:
#
# PCOD9408361 Si02
#       4
#     8   8   8   4
#     4   9  18  35  61  88 122 162 207 256 308 363
#     4   9  18  34  60  84 118 156 202 250 304 367
#     4   9  18  34  58  85 124 164 199 256 315 368
#     4  10  18  32  60  88 116 160 202 246 310 366
#
# _framework density 27.002013999999999
#
# number of rings (size 3 to 8) (size 9 to 14) (size 15 to 20)
#    0.000    2.857    0.000    2.571    0.000    0.000 
#    7.714    0.000   88.000   29.143    0.000    0.000 
#    0.000    0.000    0.000    0.000    0.000    0.000 
#
# Total GULP energy -156082.126524 kJ/mol
# GULP energy per Si atom -5574.361662 kJ/mol
# Density = 2.694056 g / cm^3
# Si number density = 27.002014 Si / 1000 Ang^3
#
#
#
# Elastic Constant Matrix: (Units=GPa)
#
#
# Indices 1 2 3 4 5 6 
#
# 1 99.2596 21.6127 28.1303 0.0000 0.0000 0.0000
# 2 21.6127 232.8774 49.1847 0.0000 0.0000 0.0000
# 3 28.1303 49.1847 176.7865 0.0000 0.0000 0.0000
# 4 0.0000 0.0000 0.0000 21.6286 0.0000 0.0000
# 5 0.0000 0.0000 0.0000 0.0000 13.9356 0.0000
# 6 0.0000 0.0000 0.0000 0.0000 0.0000 23.8790
#
#
#
# Elastic Compliance Matrix: (Units=1/GPa)
#
#
# Indices 1 2 3 4 5 6 
#
# 1 0.010648 -0.000670 -0.001508 0.000000 0.000000 0.000000
# 2 -0.000670 0.004604 -0.001174 0.000000 0.000000 0.000000
# 3 -0.001508 -0.001174 0.006223 0.000000 0.000000 0.000000
# 4 0.000000 0.000000 0.000000 0.046235 0.000000 0.000000
# 5 0.000000 0.000000 0.000000 0.000000 0.071759 0.000000
# 6 0.000000 0.000000 0.000000 0.000000 0.000000 0.041878
#
#
# Mechanical properties :
#
#
# Convention : Reuss Voigt Hill
#
# Bulk Modulus (GPa) = 67.69958 78.53099 73.11529
# Shear Modulus (GPa) = 25.91015 39.22170 32.56592
#
# Velocity S-wave (km/s) = 3.10104 3.81536 3.47660
# Velocity P-wave (km/s) = 6.16023 6.96820 6.57664
#
# Compressibility (1/GPa) = 0.01477114
#
# Stress axis : x y z
#
# Youngs Moduli (GPa) = 93.91638 217.18823 160.68832
#
# Poissons Ratio (x) = 0.14545 0.24231
# Poissons Ratio (y) = 0.06290 0.18872
# Poissons Ratio (z) = 0.14162 0.25507
#
# Static dielectric constant tensor:
#      x y z
#    x 2.262450 0.000000 0.000000 
#    y 0.000000 2.581630 0.000000 
#    z 0.000000 0.000000 2.037350 
# 
# From -- ./inp_files/9434.got.cif
#   From: 2010.05.17/outbox.cif.g08.bks.cpg/sg52_5_cif.got.tgz:9434.got - 2010.06.03 12:15:38.
