data_PCOD9408117
_publ_section_title
;
Structure prediction by ZEFSAII (Michael W. Deem and Ramdas Pophale) SiO2 
 PCOD9408117
Probable space group: P N N A
;
_chemical_formula_sum "Si O2"
_cell_formula_units_Z 40
_cell_length_a 7.863333
_cell_length_b 14.175756
_cell_length_c 14.447550
_cell_angle_alpha 90.000000
_cell_angle_beta 90.000000
_cell_angle_gamma 90.000000
_cell_volume 1610.449472
_symmetry_space_group_name_H-M "P N N A"
_symmetry_group_IT_number 52
_symmetry_cell_setting 'orthorhombic'
loop_
_space_group_symop_operation_xyz
x,y,z
1/2-x,-y,z
x,1/2-y,1/2-z
1/2-x,1/2+y,1/2-z
-x,-y,-z
1/2+x,y,-z
-x,1/2+y,1/2+z
1/2+x,1/2-y,1/2+z
loop_
_atom_site_type_symbol
_atom_site_label
_atom_site_fract_x
_atom_site_fract_y
_atom_site_fract_z
Si Si1 0.322487 0.154128 0.311185
Si Si2 0.709562 0.696066 0.150678
Si Si3 0.519065 0.533722 0.228212
Si Si4 0.374530 0.739453 0.029161
Si Si5 0.584620 0.053398 0.917163
O O1 0.346133 0.250000 0.250000
O O2 0.147806 0.101172 0.281831
O O3 0.270444 0.181803 0.415698
O O4 0.464667 0.072978 0.296763
O O5 0.720993 0.750000 0.250000
O O6 0.663580 0.587639 0.171494
O O7 0.863798 0.714573 0.079447
O O8 0.547868 0.728035 0.088159
O O9 0.554043 0.549519 0.336154
O O10 0.343296 0.849190 0.044640
O O11 0.750000 0.000000 0.880478
O O12 0.500000 0.000000 0.000000
#
# Coordination Sequence:
#
# PCOD9408117 Si02
#       5
#     8   8   8   8   8
#     4  10  17  35  64  93 130 174 241 279 347 426
#     4  11  23  44  69  97 144 187 238 302 357 428
#     4  10  19  37  64  94 134 184 230 293 345 428
#     4  11  22  41  68  98 136 188 229 292 370 425
#     4  12  22  37  65 102 136 179 240 298 370 432
#
# _framework density 24.837786999999999
#
# number of rings (size 3 to 8) (size 9 to 14) (size 15 to 20)
#    0.000    1.200    6.000    2.400    0.000    0.800 
#    0.000    4.000    0.000    0.000    0.000    0.000 
#    0.000    0.000    0.000    0.000    0.000    0.000 
#
# Total GULP energy -223550.726283 kJ/mol
# GULP energy per Si atom -5588.768157 kJ/mol
# Density = 2.478126 g / cm^3
# Si number density = 24.837787 Si / 1000 Ang^3
#
#
#
# Elastic Constant Matrix: (Units=GPa)
#
#
# Indices 1 2 3 4 5 6 
#
# 1 108.1291 15.9012 23.0981 0.0000 0.0000 0.0000
# 2 15.9012 190.1146 64.7957 0.0000 0.0000 0.0000
# 3 23.0981 64.7957 201.9709 0.0000 0.0000 0.0000
# 4 0.0000 0.0000 0.0000 45.1455 0.0000 0.0000
# 5 0.0000 0.0000 0.0000 0.0000 -18.9054 0.0000
# 6 0.0000 0.0000 0.0000 0.0000 0.0000 14.1071
#
#
#
# Elastic Compliance Matrix: (Units=1/GPa)
#
#
# Indices 1 2 3 4 5 6 
#
# 1 0.009518 -0.000477 -0.000935 0.000000 0.000000 0.000000
# 2 -0.000477 0.005930 -0.001848 0.000000 0.000000 0.000000
# 3 -0.000935 -0.001848 0.005651 0.000000 0.000000 0.000000
# 4 0.000000 0.000000 0.000000 0.022151 0.000000 0.000000
# 5 0.000000 0.000000 0.000000 0.000000 -0.052895 0.000000
# 6 0.000000 0.000000 0.000000 0.000000 0.000000 0.070886
#
#
# Mechanical properties :
#
#
# Convention : Reuss Voigt Hill
#
# Bulk Modulus (GPa) = 68.59677 78.64493 73.62085
# Shear Modulus (GPa) = 68.85033 34.49740 51.67387
#
# Velocity S-wave (km/s) = 5.27069 3.73085 4.56615
# Velocity P-wave (km/s) = 8.04476 7.09162 7.58318
#
# Compressibility (1/GPa) = 0.01457795
#
# Stress axis : x y z
#
# Youngs Moduli (GPa) = 105.06171 168.64358 176.96065
#
# Poissons Ratio (x) = 0.08049 0.16553
# Poissons Ratio (y) = 0.05015 0.32698
# Poissons Ratio (z) = 0.09828 0.31161
#
# Static dielectric constant tensor:
#      x y z
#    x 2.177750 0.000000 0.000000 
#    y 0.000000 2.018130 0.000000 
#    z 0.000000 0.000000 1.982630 
# 
# From -- ./inp_files/18004.got.cif
#   From: 2010.05.17/outbox.cif.g08.bks.cpg/sg52_10_cif.got.tgz:18004.got - 2010.06.03 12:15:38.
