data_PCOD9408087
_publ_section_title
;
Structure prediction by ZEFSAII (Michael W. Deem and Ramdas Pophale) SiO2 
 PCOD9408087
Probable space group: P N N A
;
_chemical_formula_sum "Si O2"
_cell_formula_units_Z 64
_cell_length_a 17.894731
_cell_length_b 9.559009
_cell_length_c 17.485618
_cell_angle_alpha 90.000000
_cell_angle_beta 90.000000
_cell_angle_gamma 90.000000
_cell_volume 2991.018031
_symmetry_space_group_name_H-M "P N N A"
_symmetry_group_IT_number 52
_symmetry_cell_setting 'orthorhombic'
loop_
_space_group_symop_operation_xyz
x,y,z
1/2-x,-y,z
x,1/2-y,1/2-z
1/2-x,1/2+y,1/2-z
-x,-y,-z
1/2+x,y,-z
-x,1/2+y,1/2+z
1/2+x,1/2-y,1/2+z
loop_
_atom_site_type_symbol
_atom_site_label
_atom_site_fract_x
_atom_site_fract_y
_atom_site_fract_z
Si Si1 0.732272 0.777546 0.335744
Si Si2 0.629010 0.273609 0.506611
Si Si3 0.357260 0.443948 0.584484
Si Si4 0.042400 0.704220 0.459003
Si Si5 0.000102 0.502009 0.675523
Si Si6 0.855699 0.548104 0.111010
Si Si7 0.889667 0.742088 0.830726
Si Si8 0.472502 0.451365 0.154215
O O1 0.706883 0.750000 0.250000
O O2 0.712557 0.639938 0.382819
O O3 0.816935 0.835597 0.334152
O O4 0.686152 0.903798 0.374448
O O5 0.652161 0.410343 0.459575
O O6 0.538243 0.271179 0.498980
O O7 0.655179 0.127967 0.469356
O O8 0.653443 0.287450 0.593738
O O9 0.400047 0.342217 0.523926
O O10 0.413260 0.474082 0.655708
O O11 0.031027 0.578690 0.398484
O O12 0.059593 0.835509 0.403908
O O13 0.958282 0.650012 0.680334
O O14 0.983140 0.421941 0.754767
O O15 0.942762 0.525477 0.125573
O O16 0.847456 0.750000 0.750000
O O17 0.922676 0.589834 0.848198
#
# Coordination Sequence:
#
# PCOD9408087 Si02
#       8
#     8   8   8   8   8   8   8   8
#     4  11  25  42  58  81 116 158 205 246 276 332
#     4  10  20  36  56  84 113 149 194 240 289 354
#     4  11  20  35  59  78 116 159 192 239 284 340
#     4  10  19  31  50  81 113 148 189 233 290 352
#     4  10  17  33  50  79 116 149 188 230 293 347
#     4  10  24  39  56  83 113 153 204 241 283 337
#     4  10  19  32  53  85 120 150 184 231 293 361
#     4  10  21  31  55  84 115 154 185 237 294 350
#
# _framework density 21.397397000000002
#
# number of rings (size 3 to 8) (size 9 to 14) (size 15 to 20)
#    0.000    1.750    2.500    2.625    1.750    7.500 
#    0.000    0.000    0.000    0.000    0.000    5.250 
#    0.000    0.000    0.000    0.000    0.000    0.000 
#
# Total GULP energy -357330.997366 kJ/mol
# GULP energy per Si atom -5583.296834 kJ/mol
# Density = 2.134870 g / cm^3
# Si number density = 21.397397 Si / 1000 Ang^3
#
#
#
# Elastic Constant Matrix: (Units=GPa)
#
#
# Indices 1 2 3 4 5 6 
#
# 1 25.9041 11.3600 5.5268 0.0000 0.0000 0.0000
# 2 11.3600 101.1402 36.1467 0.0000 0.0000 0.0000
# 3 5.5268 36.1467 122.5895 0.0000 0.0000 0.0000
# 4 0.0000 0.0000 0.0000 33.4569 0.0000 0.0000
# 5 0.0000 0.0000 0.0000 0.0000 4.6838 0.0000
# 6 0.0000 0.0000 0.0000 0.0000 0.0000 19.2892
#
#
#
# Elastic Compliance Matrix: (Units=1/GPa)
#
#
# Indices 1 2 3 4 5 6 
#
# 1 0.040636 -0.004370 -0.000543 0.000000 0.000000 0.000000
# 2 -0.004370 0.011522 -0.003200 0.000000 0.000000 0.000000
# 3 -0.000543 -0.003200 0.009125 0.000000 0.000000 0.000000
# 4 0.000000 0.000000 0.000000 0.029889 0.000000 0.000000
# 5 0.000000 0.000000 0.000000 0.000000 0.213501 0.000000
# 6 0.000000 0.000000 0.000000 0.000000 0.000000 0.051842
#
#
# Mechanical properties :
#
#
# Convention : Reuss Voigt Hill
#
# Bulk Modulus (GPa) = 22.19460 39.52231 30.85846
# Shear Modulus (GPa) = 12.89448 24.59267 18.74357
#
# Velocity S-wave (km/s) = 2.45749 3.39385 2.96290
# Velocity P-wave (km/s) = 4.29505 5.81965 5.11448
#
# Compressibility (1/GPa) = 0.04505600
#
# Stress axis : x y z
#
# Youngs Moduli (GPa) = 24.60852 86.79146 109.58362
#
# Poissons Ratio (x) = 0.37928 0.05956
# Poissons Ratio (y) = 0.10754 0.35070
# Poissons Ratio (z) = 0.01337 0.27776
#
# Static dielectric constant tensor:
#      x y z
#    x 1.769870 0.000000 0.000000 
#    y 0.000000 1.800400 0.000000 
#    z 0.000000 0.000000 1.824620 
# 
# From -- ./inp_files/34113.got.cif
#   From: 2010.05.17/outbox.cif.g08.bks.cpg/sg52_18_cif.got.tgz:34113.got - 2010.06.03 12:15:38.
