data_PCOD9408191
_publ_section_title
;
Structure prediction by ZEFSAII (Michael W. Deem and Ramdas Pophale) SiO2 
 PCOD9408191
Probable space group: P N N A
;
_chemical_formula_sum "Si O2"
_cell_formula_units_Z 48
_cell_length_a 8.972738
_cell_length_b 22.101281
_cell_length_c 15.765551
_cell_angle_alpha 90.000000
_cell_angle_beta 90.000000
_cell_angle_gamma 90.000000
_cell_volume 3126.450714
_symmetry_space_group_name_H-M "P N N A"
_symmetry_group_IT_number 52
_symmetry_cell_setting 'orthorhombic'
loop_
_space_group_symop_operation_xyz
x,y,z
1/2-x,-y,z
x,1/2-y,1/2-z
1/2-x,1/2+y,1/2-z
-x,-y,-z
1/2+x,y,-z
-x,1/2+y,1/2+z
1/2+x,1/2-y,1/2+z
loop_
_atom_site_type_symbol
_atom_site_label
_atom_site_fract_x
_atom_site_fract_y
_atom_site_fract_z
Si Si1 0.300540 0.296629 0.176624
Si Si2 0.452844 0.256666 0.487496
Si Si3 0.720227 0.288755 0.381304
Si Si4 0.770954 0.428506 0.079588
Si Si5 0.134935 0.162311 0.707000
Si Si6 0.584557 0.366478 0.931864
O O1 0.255498 0.250000 0.250000
O O2 0.341362 0.261242 0.089262
O O3 0.456671 0.327216 0.205509
O O4 0.173304 0.343739 0.150707
O O5 0.583257 0.295517 0.445865
O O6 0.369464 0.289084 0.564365
O O7 0.520681 0.193506 0.521606
O O8 0.700687 0.220514 0.343729
O O9 0.699509 0.332305 0.301483
O O10 0.750000 0.500000 0.078736
O O11 0.683681 0.396809 0.156942
O O12 0.943303 0.408928 0.085061
O O13 0.699689 0.399309 0.994825
#
# Coordination Sequence:
#
# PCOD9408191 Si02
#       6
#     8   8   8   8   8   8
#     4  11  19  30  51  75 107 135 162 208 265 308
#     4  11  16  30  48  73 102 133 160 196 257 315
#     4  10  18  29  52  69 106 132 160 204 265 310
#     4  12  23  36  51  71 103 147 184 212 245 293
#     4  10  18  34  48  72 102 138 165 211 260 302
#     4  12  20  33  50  73 104 136 178 210 241 306
#
# _framework density 15.352872
#
# number of rings (size 3 to 8) (size 9 to 14) (size 15 to 20)
#    0.000    1.000   11.667    0.500    0.000    1.333 
#    0.000    0.000    0.000    0.000    0.000    1.167 
#    0.000    0.000    0.000    0.000    0.000    0.000 
#
# Total GULP energy -267794.807131 kJ/mol
# GULP energy per Si atom -5579.058482 kJ/mol
# Density = 1.531793 g / cm^3
# Si number density = 15.352872 Si / 1000 Ang^3
#
#
#
# Elastic Constant Matrix: (Units=GPa)
#
#
# Indices 1 2 3 4 5 6 
#
# 1 67.7016 39.4914 48.5365 0.0000 0.0000 0.0000
# 2 39.4914 68.2849 45.4016 0.0000 0.0000 0.0000
# 3 48.5365 45.4016 96.8466 0.0000 0.0000 0.0000
# 4 0.0000 0.0000 0.0000 12.8901 0.0000 0.0000
# 5 0.0000 0.0000 0.0000 0.0000 27.3194 0.0000
# 6 0.0000 0.0000 0.0000 0.0000 0.0000 13.5919
#
#
#
# Elastic Compliance Matrix: (Units=1/GPa)
#
#
# Indices 1 2 3 4 5 6 
#
# 1 0.026726 -0.009518 -0.008933 0.000000 0.000000 0.000000
# 2 -0.009518 0.024666 -0.006793 0.000000 0.000000 0.000000
# 3 -0.008933 -0.006793 0.017987 0.000000 0.000000 0.000000
# 4 0.000000 0.000000 0.000000 0.077579 0.000000 0.000000
# 5 0.000000 0.000000 0.000000 0.000000 0.036604 0.000000
# 6 0.000000 0.000000 0.000000 0.000000 0.000000 0.073573
#
#
# Mechanical properties :
#
#
# Convention : Reuss Voigt Hill
#
# Bulk Modulus (GPa) = 52.93226 55.52135 54.22681
# Shear Modulus (GPa) = 15.92763 17.38718 16.65741
#
# Velocity S-wave (km/s) = 3.22442 3.36892 3.29746
# Velocity P-wave (km/s) = 6.95805 7.16762 7.06361
#
# Compressibility (1/GPa) = 0.01889207
#
# Stress axis : x y z
#
# Youngs Moduli (GPa) = 37.41620 40.54225 55.59566
#
# Poissons Ratio (x) = 0.38587 0.49661
# Poissons Ratio (y) = 0.35611 0.37768
# Poissons Ratio (z) = 0.33422 0.27542
#
# Static dielectric constant tensor:
#      x y z
#    x 1.553020 0.000000 0.000000 
#    y 0.000000 1.476170 0.000000 
#    z 0.000000 0.000000 1.524050 
# 
# From -- ./inp_files/24844.got.cif
#   From: 2010.05.17/outbox.cif.g08.bks.cpg/sg52_13_cif.got.tgz:24844.got - 2010.06.03 12:15:38.
