data_PCOD9408632
_publ_section_title
;
Structure prediction by ZEFSAII (Michael W. Deem and Ramdas Pophale) SiO2 
 PCOD9408632
Probable space group: P N N A
;
_chemical_formula_sum "Si O2"
_cell_formula_units_Z 24
_cell_length_a 10.647828
_cell_length_b 9.103519
_cell_length_c 8.939478
_cell_angle_alpha 90.000000
_cell_angle_beta 90.000000
_cell_angle_gamma 90.000000
_cell_volume 866.527779
_symmetry_space_group_name_H-M "P N N A"
_symmetry_group_IT_number 52
_symmetry_cell_setting 'orthorhombic'
loop_
_space_group_symop_operation_xyz
x,y,z
1/2-x,-y,z
x,1/2-y,1/2-z
1/2-x,1/2+y,1/2-z
-x,-y,-z
1/2+x,y,-z
-x,1/2+y,1/2+z
1/2+x,1/2-y,1/2+z
loop_
_atom_site_type_symbol
_atom_site_label
_atom_site_fract_x
_atom_site_fract_y
_atom_site_fract_z
Si Si1 0.373895 0.750000 0.250000
Si Si2 0.350871 0.192025 0.041085
Si Si3 0.250000 0.000000 0.776777
Si Si4 0.989993 0.050454 0.688436
O O1 0.282603 0.814546 0.124296
O O2 0.452317 0.618563 0.182095
O O3 0.447903 0.102370 0.145222
O O4 0.404430 0.355520 0.074257
O O5 0.322779 0.118010 0.882510
O O6 0.360811 0.926458 0.681005
#
# Coordination Sequence:
#
# PCOD9408632 Si02
#       4
#     4   8   4   8
#     4  10  18  38  64  92 138 186 218 298 346 398
#     4  10  20  40  67  95 133 184 235 293 346 416
#     4  12  22  40  74 100 134 202 236 272 374 428
#     4  10  22  38  67  97 138 184 236 291 350 418
#
# _framework density 27.696746000000001
#
# number of rings (size 3 to 8) (size 9 to 14) (size 15 to 20)
#    0.000    2.000    3.333    4.000    0.000    2.667 
#    0.000    1.667   14.667    2.000    0.000    0.000 
#    0.000    0.000    0.000    0.000    0.000    0.000 
#
# Total GULP energy -134579.730896 kJ/mol
# GULP energy per Si atom -5607.488787 kJ/mol
# Density = 2.763371 g / cm^3
# Si number density = 27.696746 Si / 1000 Ang^3
#
#
#
# Elastic Constant Matrix: (Units=GPa)
#
#
# Indices 1 2 3 4 5 6 
#
# 1 171.9749 47.2359 34.9194 0.0000 0.0000 0.0000
# 2 47.2359 147.7370 22.3639 0.0000 0.0000 0.0000
# 3 34.9194 22.3639 96.1519 0.0000 0.0000 0.0000
# 4 0.0000 0.0000 0.0000 34.0946 0.0000 0.0000
# 5 0.0000 0.0000 0.0000 0.0000 52.1170 0.0000
# 6 0.0000 0.0000 0.0000 0.0000 0.0000 6.9828
#
#
#
# Elastic Compliance Matrix: (Units=1/GPa)
#
#
# Indices 1 2 3 4 5 6 
#
# 1 0.006731 -0.001847 -0.002015 0.000000 0.000000 0.000000
# 2 -0.001847 0.007523 -0.001079 0.000000 0.000000 0.000000
# 3 -0.002015 -0.001079 0.011383 0.000000 0.000000 0.000000
# 4 0.000000 0.000000 0.000000 0.029330 0.000000 0.000000
# 5 0.000000 0.000000 0.000000 0.000000 0.019188 0.000000
# 6 0.000000 0.000000 0.000000 0.000000 0.000000 0.143209
#
#
# Mechanical properties :
#
#
# Convention : Reuss Voigt Hill
#
# Bulk Modulus (GPa) = 63.47229 69.43357 66.45293
# Shear Modulus (GPa) = 21.50562 39.39518 30.45040
#
# Velocity S-wave (km/s) = 2.78954 3.77553 3.31935
# Velocity P-wave (km/s) = 5.77425 6.64303 6.22382
#
# Compressibility (1/GPa) = 0.01575491
#
# Stress axis : x y z
#
# Youngs Moduli (GPa) = 148.55970 132.93107 87.85091
#
# Poissons Ratio (x) = 0.24555 0.17702
# Poissons Ratio (y) = 0.27442 0.09478
# Poissons Ratio (z) = 0.29934 0.14341
#
# Static dielectric constant tensor:
#      x y z
#    x 2.027150 0.000000 0.000000 
#    y 0.000000 2.229430 0.000000 
#    z 0.000000 0.000000 2.227740 
# 
# From -- ./inp_files/17437.got.cif
#   From: 2010.05.17/outbox.cif.g08.bks.cpg/sg52_9_cif.got.tgz:17437.got - 2010.06.03 12:15:38.
