data_PCOD9408537
_publ_section_title
;
Structure prediction by ZEFSAII (Michael W. Deem and Ramdas Pophale) SiO2 
 PCOD9408537
Probable space group: P N N A
;
_chemical_formula_sum "Si O2"
_cell_formula_units_Z 60
_cell_length_a 30.944531
_cell_length_b 11.509761
_cell_length_c 9.522886
_cell_angle_alpha 90.000000
_cell_angle_beta 90.000000
_cell_angle_gamma 90.000000
_cell_volume 3391.710656
_symmetry_space_group_name_H-M "P N N A"
_symmetry_group_IT_number 52
_symmetry_cell_setting 'orthorhombic'
loop_
_space_group_symop_operation_xyz
x,y,z
1/2-x,-y,z
x,1/2-y,1/2-z
1/2-x,1/2+y,1/2-z
-x,-y,-z
1/2+x,y,-z
-x,1/2+y,1/2+z
1/2+x,1/2-y,1/2+z
loop_
_atom_site_type_symbol
_atom_site_label
_atom_site_fract_x
_atom_site_fract_y
_atom_site_fract_z
Si Si1 0.776217 0.250000 0.750000
Si Si2 0.432028 0.114681 0.755401
Si Si3 0.218624 0.389597 0.058618
Si Si4 0.159063 0.541214 0.242050
Si Si5 0.966659 0.616003 0.715355
Si Si6 0.639699 0.282195 0.088606
Si Si7 0.085698 0.006619 0.465082
Si Si8 0.603939 0.459090 0.502890
O O1 0.747155 0.284816 0.882361
O O2 0.806992 0.358893 0.729676
O O3 0.418315 0.250000 0.750000
O O4 0.482058 0.109296 0.802224
O O5 0.430166 0.065993 0.597353
O O6 0.404722 0.034044 0.862724
O O7 0.250000 0.500000 0.022467
O O8 0.187665 0.432765 0.186638
O O9 0.186085 0.341748 0.941156
O O10 0.124904 0.558773 0.115247
O O11 0.130796 0.526835 0.379963
O O12 0.955315 0.750000 0.750000
O O13 0.949515 0.539803 0.847156
O O14 0.941177 0.575740 0.577070
O O15 0.633505 0.250000 0.250000
O O16 0.631056 0.159117 0.015875
O O17 0.605267 0.374257 0.028498
#
# Coordination Sequence:
#
# PCOD9408537 Si02
#       8
#     4   8   8   8   8   8   8   8
#     4  10  18  36  58  78 114 140 186 222 288 346
#     4  11  24  37  54  82 125 159 188 240 297 338
#     4   9  19  36  57  86 112 141 181 240 289 337
#     4   9  21  33  60  85 107 145 192 234 277 338
#     4  10  20  37  60  86 113 150 200 250 288 331
#     4  11  20  36  62  85 112 147 191 235 287 347
#     4  10  20  38  59  82 114 151 194 235 287 341
#     4  11  21  37  58  86 114 149 200 240 278 341
#
# _framework density 17.690189
#
# number of rings (size 3 to 8) (size 9 to 14) (size 15 to 20)
#    0.000    1.867    2.667    1.600    1.867    0.000 
#    0.000    1.333    0.000    0.000    0.000    0.000 
#    0.000    0.000    0.000    0.000    0.000    0.000 
#
# Total GULP energy -334386.026525 kJ/mol
# GULP energy per Si atom -5573.100442 kJ/mol
# Density = 1.764992 g / cm^3
# Si number density = 17.690189 Si / 1000 Ang^3
#
#
#
# Elastic Constant Matrix: (Units=GPa)
#
#
# Indices 1 2 3 4 5 6 
#
# 1 40.0730 2.8030 -6.8587 0.0000 0.0000 0.0000
# 2 2.8030 56.5431 7.9306 0.0000 0.0000 0.0000
# 3 -6.8587 7.9306 53.0453 0.0000 0.0000 0.0000
# 4 0.0000 0.0000 0.0000 19.8057 0.0000 0.0000
# 5 0.0000 0.0000 0.0000 0.0000 10.5325 0.0000
# 6 0.0000 0.0000 0.0000 0.0000 0.0000 24.5323
#
#
#
# Elastic Compliance Matrix: (Units=1/GPa)
#
#
# Indices 1 2 3 4 5 6 
#
# 1 0.025693 -0.001777 0.003588 0.000000 0.000000 0.000000
# 2 -0.001777 0.018187 -0.002949 0.000000 0.000000 0.000000
# 3 0.003588 -0.002949 0.019757 0.000000 0.000000 0.000000
# 4 0.000000 0.000000 0.000000 0.050491 0.000000 0.000000
# 5 0.000000 0.000000 0.000000 0.000000 0.094944 0.000000
# 6 0.000000 0.000000 0.000000 0.000000 0.000000 0.040763
#
#
# Mechanical properties :
#
#
# Convention : Reuss Voigt Hill
#
# Bulk Modulus (GPa) = 16.29708 17.49012 16.89360
# Shear Modulus (GPa) = 18.34436 20.69321 19.51879
#
# Velocity S-wave (km/s) = 3.22371 3.42388 3.32530
# Velocity P-wave (km/s) = 4.80509 5.05361 4.93092
#
# Compressibility (1/GPa) = 0.06136068
#
# Stress axis : x y z
#
# Youngs Moduli (GPa) = 38.92138 54.98342 50.61604
#
# Poissons Ratio (x) = 0.09770 -0.18160
# Poissons Ratio (y) = 0.06916 0.14926
# Poissons Ratio (z) = -0.13964 0.16214
#
# Static dielectric constant tensor:
#      x y z
#    x 1.618490 0.000000 0.000000 
#    y 0.000000 1.660690 0.000000 
#    z 0.000000 0.000000 1.585480 
# 
# From -- ./inp_files/15680.got.cif
#   From: 2010.05.17/outbox.cif.g08.bks.cpg/sg52_8_cif.got.tgz:15680.got - 2010.06.03 12:15:38.
