data_PCOD9408951
_publ_section_title
;
Structure prediction by ZEFSAII (Michael W. Deem and Ramdas Pophale) SiO2 
 PCOD9408951
Probable space group: P N N A
;
_chemical_formula_sum "Si O2"
_cell_formula_units_Z 64
_cell_length_a 22.321415
_cell_length_b 16.546662
_cell_length_c 9.321372
_cell_angle_alpha 90.000000
_cell_angle_beta 90.000000
_cell_angle_gamma 90.000000
_cell_volume 3442.801297
_symmetry_space_group_name_H-M "P N N A"
_symmetry_group_IT_number 52
_symmetry_cell_setting 'orthorhombic'
loop_
_space_group_symop_operation_xyz
x,y,z
1/2-x,-y,z
x,1/2-y,1/2-z
1/2-x,1/2+y,1/2-z
-x,-y,-z
1/2+x,y,-z
-x,1/2+y,1/2+z
1/2+x,1/2-y,1/2+z
loop_
_atom_site_type_symbol
_atom_site_label
_atom_site_fract_x
_atom_site_fract_y
_atom_site_fract_z
Si Si1 0.598607 0.669897 0.347479
Si Si2 0.636582 0.775366 0.596799
Si Si3 0.829150 0.914334 0.362184
Si Si4 0.971454 0.394395 0.882245
Si Si5 0.070399 0.338455 0.676517
Si Si6 0.924010 0.573496 0.902335
Si Si7 0.962139 0.668391 0.652898
Si Si8 0.806481 0.395469 0.131410
O O1 0.592597 0.750000 0.250000
O O2 0.622870 0.697169 0.501015
O O3 0.531157 0.637426 0.355023
O O4 0.649303 0.621842 0.263877
O O5 0.662463 0.750000 0.750000
O O6 0.572912 0.819352 0.619800
O O7 0.673456 0.839457 0.501652
O O8 0.871187 0.888188 0.229203
O O9 0.868910 0.894753 0.502824
O O10 0.763437 0.876976 0.344143
O O11 0.816542 0.009260 0.386865
O O12 0.933875 0.476927 0.898626
O O13 0.014307 0.387779 0.744254
O O14 0.016226 0.392612 0.018263
O O15 0.072020 0.250000 0.750000
O O16 0.061781 0.324043 0.508095
O O17 0.923197 0.605131 0.742094
O O18 0.960252 0.750000 0.750000
#
# Coordination Sequence:
#
# PCOD9408951 Si02
#       8
#     8   8   8   8   8   8   8   8
#     4   9  19  33  59  85 115 151 193 241 288 351
#     4  11  20  36  60  91 117 149 194 252 305 347
#     4  10  22  42  62  80 114 164 203 247 291 360
#     4  10  19  34  58  87 123 155 192 234 295 365
#     4  11  23  38  59  89 122 160 197 242 303 366
#     4  10  20  34  59  87 118 157 195 238 292 356
#     4  11  21  36  57  90 126 154 190 244 307 358
#     4  10  21  41  62  82 111 157 211 243 295 355
#
# _framework density 18.589514000000001
#
# number of rings (size 3 to 8) (size 9 to 14) (size 15 to 20)
#    0.000    1.750    1.250    5.625    3.500    2.000 
#    2.250    3.125    0.000    3.000    0.000    0.000 
#    0.000    0.000    0.000    0.000    0.000    0.000 
#
# Total GULP energy -356897.976920 kJ/mol
# GULP energy per Si atom -5576.530889 kJ/mol
# Density = 1.854720 g / cm^3
# Si number density = 18.589514 Si / 1000 Ang^3
#
#
#
# Elastic Constant Matrix: (Units=GPa)
#
#
# Indices 1 2 3 4 5 6 
#
# 1 120.6050 22.5889 50.0975 0.0000 0.0000 0.0000
# 2 22.5889 34.5000 26.0830 0.0000 0.0000 0.0000
# 3 50.0975 26.0830 154.3264 0.0000 0.0000 0.0000
# 4 0.0000 0.0000 0.0000 26.4243 0.0000 0.0000
# 5 0.0000 0.0000 0.0000 0.0000 9.3095 0.0000
# 6 0.0000 0.0000 0.0000 0.0000 0.0000 -8.8760
#
#
#
# Elastic Compliance Matrix: (Units=1/GPa)
#
#
# Indices 1 2 3 4 5 6 
#
# 1 0.010234 -0.004803 -0.002510 0.000000 0.000000 0.000000
# 2 -0.004803 0.035486 -0.004438 0.000000 0.000000 0.000000
# 3 -0.002510 -0.004438 0.008045 0.000000 0.000000 0.000000
# 4 0.000000 0.000000 0.000000 0.037844 0.000000 0.000000
# 5 0.000000 0.000000 0.000000 0.000000 0.107417 0.000000
# 6 0.000000 0.000000 0.000000 0.000000 0.000000 -0.112664
#
#
# Mechanical properties :
#
#
# Convention : Reuss Voigt Hill
#
# Bulk Modulus (GPa) = 33.04549 56.33001 44.68775
# Shear Modulus (GPa) = 41.68358 19.41570 30.54964
#
# Velocity S-wave (km/s) = 4.74045 3.23529 4.05826
# Velocity P-wave (km/s) = 6.91212 6.65762 6.78607
#
# Compressibility (1/GPa) = 0.03026131
#
# Stress axis : x y z
#
# Youngs Moduli (GPa) = 97.71506 28.18036 124.30300
#
# Poissons Ratio (x) = 0.13534 0.31205
# Poissons Ratio (y) = 0.46929 0.55172
# Poissons Ratio (z) = 0.24530 0.12508
#
# Static dielectric constant tensor:
#      x y z
#    x 1.650830 0.000000 0.000000 
#    y 0.000000 1.690750 0.000000 
#    z 0.000000 0.000000 1.658090 
# 
# From -- ./inp_files/14562.got.cif
#   From: 2010.05.17/outbox.cif.g08.bks.cpg/sg52_8_cif.got.tgz:14562.got - 2010.06.03 12:15:38.
