data_PCOD9408303
_publ_section_title
;
Structure prediction by ZEFSAII (Michael W. Deem and Ramdas Pophale) SiO2 
 PCOD9408303
Probable space group: P N N A
;
_chemical_formula_sum "Si O2"
_cell_formula_units_Z 48
_cell_length_a 24.146028
_cell_length_b 7.814762
_cell_length_c 11.867478
_cell_angle_alpha 90.000000
_cell_angle_beta 90.000000
_cell_angle_gamma 90.000000
_cell_volume 2239.339245
_symmetry_space_group_name_H-M "P N N A"
_symmetry_group_IT_number 52
_symmetry_cell_setting 'orthorhombic'
loop_
_space_group_symop_operation_xyz
x,y,z
1/2-x,-y,z
x,1/2-y,1/2-z
1/2-x,1/2+y,1/2-z
-x,-y,-z
1/2+x,y,-z
-x,1/2+y,1/2+z
1/2+x,1/2-y,1/2+z
loop_
_atom_site_type_symbol
_atom_site_label
_atom_site_fract_x
_atom_site_fract_y
_atom_site_fract_z
Si Si1 0.385329 0.886534 0.833368
Si Si2 0.627518 0.837396 0.505131
Si Si3 0.541144 0.573671 0.180945
Si Si4 0.709239 0.846551 0.137796
Si Si5 0.936588 0.978115 0.956538
Si Si6 0.070362 0.554171 0.208095
O O1 0.358906 0.750000 0.750000
O O2 0.442573 0.935333 0.774162
O O3 0.346555 0.052186 0.828779
O O4 0.402503 0.849903 0.961727
O O5 0.590351 0.925247 0.408938
O O6 0.687738 0.786727 0.456602
O O7 0.594155 0.659537 0.524718
O O8 0.622326 0.936637 0.623426
O O9 0.539231 0.750000 0.250000
O O10 0.481392 0.518730 0.137220
O O11 0.729422 0.750000 0.250000
O O12 0.750000 0.000000 0.100593
O O13 0.929663 0.945352 0.823779
O O14 0.000000 0.000000 0.000000
O O15 0.060952 0.750000 0.250000
#
# Coordination Sequence:
#
# PCOD9408303 Si02
#       6
#     8   8   8   8   8   8
#     4  11  21  34  56  82 118 158 198 251 309 365
#     4  10  20  35  53  80 117 153 199 247 304 370
#     4  12  18  34  50  78 124 161 193 244 294 363
#     4  11  21  40  61  86 116 147 196 269 335 379
#     4  10  18  32  50  77 117 158 203 238 280 363
#     4  10  21  33  52  80 114 169 205 231 287 363
#
# _framework density 21.434895000000001
#
# number of rings (size 3 to 8) (size 9 to 14) (size 15 to 20)
#    0.000    1.333    6.667    1.500    2.333    0.000 
#    3.000    0.000    0.000    0.000    0.000   29.167 
#    0.000    0.000    0.000    0.000    0.000    0.000 
#
# Total GULP energy -267558.334413 kJ/mol
# GULP energy per Si atom -5574.131967 kJ/mol
# Density = 2.138611 g / cm^3
# Si number density = 21.434895 Si / 1000 Ang^3
#
#
#
# Elastic Constant Matrix: (Units=GPa)
#
#
# Indices 1 2 3 4 5 6 
#
# 1 66.0564 8.3310 43.9847 0.0000 0.0000 0.0000
# 2 8.3310 45.2654 29.5947 0.0000 0.0000 0.0000
# 3 43.9847 29.5947 155.0595 0.0000 0.0000 0.0000
# 4 0.0000 0.0000 0.0000 24.5080 0.0000 0.0000
# 5 0.0000 0.0000 0.0000 0.0000 12.8823 0.0000
# 6 0.0000 0.0000 0.0000 0.0000 0.0000 35.5449
#
#
#
# Elastic Compliance Matrix: (Units=1/GPa)
#
#
# Indices 1 2 3 4 5 6 
#
# 1 0.018664 0.000030 -0.005300 0.000000 0.000000 0.000000
# 2 0.000030 0.025242 -0.004826 0.000000 0.000000 0.000000
# 3 -0.005300 -0.004826 0.008874 0.000000 0.000000 0.000000
# 4 0.000000 0.000000 0.000000 0.040803 0.000000 0.000000
# 5 0.000000 0.000000 0.000000 0.000000 0.077626 0.000000
# 6 0.000000 0.000000 0.000000 0.000000 0.000000 0.028133
#
#
# Mechanical properties :
#
#
# Convention : Reuss Voigt Hill
#
# Bulk Modulus (GPa) = 30.68691 47.80022 39.24357
# Shear Modulus (GPa) = 21.70174 26.88509 24.29341
#
# Velocity S-wave (km/s) = 3.18535 3.54541 3.37019
# Velocity P-wave (km/s) = 5.27978 6.25368 5.78725
#
# Compressibility (1/GPa) = 0.03258718
#
# Stress axis : x y z
#
# Youngs Moduli (GPa) = 53.57941 39.61686 112.69272
#
# Poissons Ratio (x) = -0.00119 0.59727
# Poissons Ratio (y) = -0.00161 0.54388
# Poissons Ratio (z) = 0.28397 0.19120
#
# Static dielectric constant tensor:
#      x y z
#    x 1.776760 0.000000 0.000000 
#    y 0.000000 1.906850 0.000000 
#    z 0.000000 0.000000 1.892970 
# 
# From -- ./inp_files/22276.got.cif
#   From: 2010.05.17/outbox.cif.g08.bks.cpg/sg52_12_cif.got.tgz:22276.got - 2010.06.03 12:15:38.
