data_PCOD9408853
_publ_section_title
;
Structure prediction by ZEFSAII (Michael W. Deem and Ramdas Pophale) SiO2 
 PCOD9408853
Probable space group: P N N A
;
_chemical_formula_sum "Si O2"
_cell_formula_units_Z 44
_cell_length_a 15.485709
_cell_length_b 7.244632
_cell_length_c 18.091620
_cell_angle_alpha 90.000000
_cell_angle_beta 90.000000
_cell_angle_gamma 90.000000
_cell_volume 2029.667422
_symmetry_space_group_name_H-M "P N N A"
_symmetry_group_IT_number 52
_symmetry_cell_setting 'orthorhombic'
loop_
_space_group_symop_operation_xyz
x,y,z
1/2-x,-y,z
x,1/2-y,1/2-z
1/2-x,1/2+y,1/2-z
-x,-y,-z
1/2+x,y,-z
-x,1/2+y,1/2+z
1/2+x,1/2-y,1/2+z
loop_
_atom_site_type_symbol
_atom_site_label
_atom_site_fract_x
_atom_site_fract_y
_atom_site_fract_z
Si Si1 0.342253 0.250000 0.250000
Si Si2 0.419527 0.681658 0.457264
Si Si3 0.604510 0.710158 0.474645
Si Si4 0.665595 0.880708 0.180678
Si Si5 0.742243 0.775187 0.904921
Si Si6 0.976452 0.559188 0.704960
O O1 0.283054 0.277024 0.177929
O O2 0.407484 0.420131 0.261257
O O3 0.506719 0.779883 0.483048
O O4 0.399854 0.513874 0.513242
O O5 0.333372 0.791297 0.437477
O O6 0.446989 0.591024 0.379119
O O7 0.640347 0.736253 0.392364
O O8 0.667296 0.776634 0.538445
O O9 0.684232 0.750000 0.250000
O O10 0.577888 0.993663 0.201326
O O11 0.750000 0.000000 0.164355
O O12 0.750000 0.000000 0.904785
O O13 0.973115 0.750000 0.750000
#
# Coordination Sequence:
#
# PCOD9408853 Si02
#       6
#     4   8   8   8   8   8
#     4  12  22  36  60  90 128 168 204 254 318 380
#     4   9  17  33  57  83 117 160 201 252 302 367
#     4   9  17  34  57  86 116 158 211 251 308 371
#     4  10  21  37  61  89 117 160 207 263 316 370
#     4  10  19  33  54  92 116 155 215 252 297 384
#     4  10  22  38  57  89 128 160 200 259 312 369
#
# _framework density 21.678428
#
# number of rings (size 3 to 8) (size 9 to 14) (size 15 to 20)
#    0.000    2.182    3.636    1.636    2.545    0.000 
#    0.000    0.000    0.000   15.273    0.000    0.000 
#    0.000    0.000    0.000    0.000    0.000    0.000 
#
# Total GULP energy -245704.299189 kJ/mol
# GULP energy per Si atom -5584.188618 kJ/mol
# Density = 2.162909 g / cm^3
# Si number density = 21.678428 Si / 1000 Ang^3
#
#
#
# Elastic Constant Matrix: (Units=GPa)
#
#
# Indices 1 2 3 4 5 6 
#
# 1 204.0623 21.4834 46.1688 0.0000 0.0000 0.0000
# 2 21.4834 51.3644 11.0301 0.0000 0.0000 0.0000
# 3 46.1688 11.0301 123.6950 0.0000 0.0000 0.0000
# 4 0.0000 0.0000 0.0000 19.1974 0.0000 0.0000
# 5 0.0000 0.0000 0.0000 0.0000 46.8894 0.0000
# 6 0.0000 0.0000 0.0000 0.0000 0.0000 -0.0197
#
#
#
# Elastic Compliance Matrix: (Units=1/GPa)
#
#
# Indices 1 2 3 4 5 6 
#
# 1 0.005530 -0.001906 -0.001894 0.000000 0.000000 0.000000
# 2 -0.001906 0.020506 -0.001117 0.000000 0.000000 0.000000
# 3 -0.001894 -0.001117 0.008891 0.000000 0.000000 0.000000
# 4 0.000000 0.000000 0.000000 0.052090 0.000000 0.000000
# 5 0.000000 0.000000 0.000000 0.000000 0.021327 0.000000
# 6 0.000000 0.000000 0.000000 0.000000 0.000000-50.646650
#
#
# Mechanical properties :
#
#
# Convention : Reuss Voigt Hill
#
# Bulk Modulus (GPa) = 39.85309 59.60956 49.73133
# Shear Modulus (GPa) = -0.09897 33.24269 16.57186
#
# Velocity S-wave (km/s) = -0.21390 3.92017 2.76785
# Velocity P-wave (km/s) = 4.28517 6.93161 5.76237
#
# Compressibility (1/GPa) = 0.02509216
#
# Stress axis : x y z
#
# Youngs Moduli (GPa) = 180.84362 48.76654 112.47422
#
# Poissons Ratio (x) = 0.09295 0.21302
# Poissons Ratio (y) = 0.34470 0.12564
# Poissons Ratio (z) = 0.34251 0.05448
#
# Static dielectric constant tensor:
#      x y z
#    x 1.853980 0.000000 0.000000 
#    y 0.000000 1.824170 0.000000 
#    z 0.000000 0.000000 1.772720 
# 
# From -- ./inp_files/32965.got.cif
#   From: 2010.05.17/outbox.cif.g08.bks.cpg/sg52_17_cif.got.tgz:32965.got - 2010.06.03 12:15:38.
