data_PCOD9408292
_publ_section_title
;
Structure prediction by ZEFSAII (Michael W. Deem and Ramdas Pophale) SiO2 
 PCOD9408292
Probable space group: P N N A
;
_chemical_formula_sum "Si O2"
_cell_formula_units_Z 60
_cell_length_a 15.986736
_cell_length_b 11.505233
_cell_length_c 18.586557
_cell_angle_alpha 90.000000
_cell_angle_beta 90.000000
_cell_angle_gamma 90.000000
_cell_volume 3418.646294
_symmetry_space_group_name_H-M "P N N A"
_symmetry_group_IT_number 52
_symmetry_cell_setting 'orthorhombic'
loop_
_space_group_symop_operation_xyz
x,y,z
1/2-x,-y,z
x,1/2-y,1/2-z
1/2-x,1/2+y,1/2-z
-x,-y,-z
1/2+x,y,-z
-x,1/2+y,1/2+z
1/2+x,1/2-y,1/2+z
loop_
_atom_site_type_symbol
_atom_site_label
_atom_site_fract_x
_atom_site_fract_y
_atom_site_fract_z
Si Si1 0.974786 0.716013 0.944905
Si Si2 0.427011 0.819239 0.900841
Si Si3 0.088804 0.910738 0.881207
Si Si4 0.573937 0.250000 0.250000
Si Si5 0.848877 0.994625 0.263886
Si Si6 0.193590 0.103947 0.453867
Si Si7 0.236703 0.766180 0.938079
Si Si8 0.876158 0.054263 0.417967
O O1 0.016295 0.817050 0.896327
O O2 0.044059 0.616335 0.951004
O O3 0.959961 0.767869 0.024256
O O4 0.888423 0.658294 0.917254
O O5 0.467310 0.758384 0.829784
O O6 0.326411 0.796210 0.904792
O O7 0.438950 0.958459 0.900235
O O8 0.169800 0.868996 0.927544
O O9 0.119164 0.919484 0.798420
O O10 0.629382 0.135979 0.243376
O O11 0.750000 0.000000 0.272044
O O12 0.895232 0.009291 0.339307
O O13 0.247673 0.214188 0.481800
O O14 0.250000 0.000000 0.420245
O O15 0.158345 0.040651 0.526706
O O16 0.192462 0.654571 0.902494
#
# Coordination Sequence:
#
# PCOD9408292 Si02
#       8
#     8   8   8   4   8   8   8   8
#     4  10  20  31  46  68  99 132 167 219 264 305
#     4  10  18  32  47  64  97 135 175 211 250 303
#     4  10  20  30  45  71 101 137 171 202 250 308
#     4  10  20  30  44  64  88 132 176 204 242 298
#     4  11  20  31  48  71 105 142 170 197 235 306
#     4   9  17  31  48  65  92 129 172 215 261 308
#     4   9  17  28  44  67  95 130 169 205 244 303
#     4  10  19  30  47  72  99 132 170 211 258 302
#
# _framework density 17.550806999999999
#
# number of rings (size 3 to 8) (size 9 to 14) (size 15 to 20)
#    0.000    2.133    0.000    6.400    0.000    3.200 
#    0.000    0.000    0.000    0.000    0.000    0.000 
#    0.000  115.200    0.000   15.867    0.000    0.000 
#
# Total GULP energy -334022.342648 kJ/mol
# GULP energy per Si atom -5567.039044 kJ/mol
# Density = 1.751086 g / cm^3
# Si number density = 17.550807 Si / 1000 Ang^3
#
#
#
# Elastic Constant Matrix: (Units=GPa)
#
#
# Indices 1 2 3 4 5 6 
#
# 1 74.5800 35.6059 27.2400 0.0000 0.0000 0.0000
# 2 35.6059 76.1833 19.8889 0.0000 0.0000 0.0000
# 3 27.2400 19.8889 43.5073 0.0000 0.0000 0.0000
# 4 0.0000 0.0000 0.0000 24.9294 0.0000 0.0000
# 5 0.0000 0.0000 0.0000 0.0000 14.5019 0.0000
# 6 0.0000 0.0000 0.0000 0.0000 0.0000 28.2369
#
#
#
# Elastic Compliance Matrix: (Units=1/GPa)
#
#
# Indices 1 2 3 4 5 6 
#
# 1 0.020188 -0.006967 -0.009455 0.000000 0.000000 0.000000
# 2 -0.006967 0.017309 -0.003551 0.000000 0.000000 0.000000
# 3 -0.009455 -0.003551 0.030528 0.000000 0.000000 0.000000
# 4 0.000000 0.000000 0.000000 0.040113 0.000000 0.000000
# 5 0.000000 0.000000 0.000000 0.000000 0.068956 0.000000
# 6 0.000000 0.000000 0.000000 0.000000 0.000000 0.035415
#
#
# Mechanical properties :
#
#
# Convention : Reuss Voigt Hill
#
# Bulk Modulus (GPa) = 35.61288 39.97113 37.79200
# Shear Modulus (GPa) = 19.09752 20.96937 20.03344
#
# Velocity S-wave (km/s) = 3.30226 3.46031 3.38221
# Velocity P-wave (km/s) = 5.90553 6.22808 6.06894
#
# Compressibility (1/GPa) = 0.02807973
#
# Stress axis : x y z
#
# Youngs Moduli (GPa) = 49.53465 57.77223 32.75733
#
# Poissons Ratio (x) = 0.40249 0.30971
# Poissons Ratio (y) = 0.34510 0.11631
# Poissons Ratio (z) = 0.46834 0.20514
#
# Static dielectric constant tensor:
#      x y z
#    x 1.620690 0.000000 0.000000 
#    y 0.000000 1.641860 0.000000 
#    z 0.000000 0.000000 1.654160 
# 
# From -- ./inp_files/37451.got.cif
#   From: 2010.05.17/outbox.cif.g08.bks.cpg/sg52_19_cif.got.tgz:37451.got - 2010.06.03 12:15:38.
