data_PCOD9408896
_publ_section_title
;
Structure prediction by ZEFSAII (Michael W. Deem and Ramdas Pophale) SiO2 
 PCOD9408896
Probable space group: P N N A
;
_chemical_formula_sum "Si O2"
_cell_formula_units_Z 60
_cell_length_a 14.760847
_cell_length_b 34.035806
_cell_length_c 4.974553
_cell_angle_alpha 90.000000
_cell_angle_beta 90.000000
_cell_angle_gamma 90.000000
_cell_volume 2499.202120
_symmetry_space_group_name_H-M "P N N A"
_symmetry_group_IT_number 52
_symmetry_cell_setting 'orthorhombic'
loop_
_space_group_symop_operation_xyz
x,y,z
1/2-x,-y,z
x,1/2-y,1/2-z
1/2-x,1/2+y,1/2-z
-x,-y,-z
1/2+x,y,-z
-x,1/2+y,1/2+z
1/2+x,1/2-y,1/2+z
loop_
_atom_site_type_symbol
_atom_site_label
_atom_site_fract_x
_atom_site_fract_y
_atom_site_fract_z
Si Si1 0.567400 0.710647 0.172206
Si Si2 0.207549 0.828962 0.080655
Si Si3 0.568211 0.549989 0.222477
Si Si4 0.302317 0.903472 0.054983
Si Si5 0.085391 0.079993 0.570086
Si Si6 0.933213 0.132132 0.531496
Si Si7 0.170102 0.969393 0.213380
Si Si8 0.208086 0.750000 0.250000
O O1 0.513136 0.750000 0.250000
O O2 0.625615 0.688027 0.400465
O O3 0.518539 0.673164 0.046740
O O4 0.641485 0.730472 0.972215
O O5 0.157103 0.852047 0.324191
O O6 0.259557 0.788679 0.152452
O O7 0.272144 0.860998 0.949488
O O8 0.530449 0.454017 0.914687
O O9 0.584066 0.598016 0.193769
O O10 0.639627 0.530985 0.019545
O O11 0.585505 0.531319 0.510100
O O12 0.348464 0.927813 0.814101
O O13 0.364259 0.899500 0.319835
O O14 0.216346 0.927869 0.149989
O O15 0.007011 0.107580 0.699561
O O16 0.250000 0.000000 0.164966
#
# Coordination Sequence:
#
# PCOD9408896 Si02
#       8
#     8   8   8   8   8   8   8   4
#     4   9  17  31  57  88 118 155 214 262 301 358
#     4  10  19  33  65  83 120 157 219 256 308 356
#     4  10  22  43  64  89 126 166 203 252 310 376
#     4  12  23  40  61  96 121 162 206 263 306 378
#     4  10  25  38  63  90 130 159 209 244 324 378
#     4   9  20  35  62  83 116 163 210 249 310 367
#     4  12  24  42  68  96 122 160 214 262 307 372
#     4   8  18  32  50  94 116 158 200 274 300 362
#
# _framework density 24.007662
#
# number of rings (size 3 to 8) (size 9 to 14) (size 15 to 20)
#    0.800    1.067    1.333    2.800    5.600    0.000 
#    0.000    4.000    1.467    0.000    0.000    0.000 
#    0.000    0.000    0.000    0.000    0.000    0.000 
#
# Total GULP energy -334279.209887 kJ/mol
# GULP energy per Si atom -5571.320165 kJ/mol
# Density = 2.395302 g / cm^3
# Si number density = 24.007662 Si / 1000 Ang^3
#
#
#
# Elastic Constant Matrix: (Units=GPa)
#
#
# Indices 1 2 3 4 5 6 
#
# 1 39.6803 13.3016 1.5411 0.0000 0.0000 0.0000
# 2 13.3016 131.0870 3.5563 0.0000 0.0000 0.0000
# 3 1.5411 3.5563 70.9645 0.0000 0.0000 0.0000
# 4 0.0000 0.0000 0.0000 25.3129 0.0000 0.0000
# 5 0.0000 0.0000 0.0000 0.0000 6.5893 0.0000
# 6 0.0000 0.0000 0.0000 0.0000 0.0000 21.4405
#
#
#
# Elastic Compliance Matrix: (Units=1/GPa)
#
#
# Indices 1 2 3 4 5 6 
#
# 1 0.026102 -0.002637 -0.000435 0.000000 0.000000 0.000000
# 2 -0.002637 0.007905 -0.000339 0.000000 0.000000 0.000000
# 3 -0.000435 -0.000339 0.014118 0.000000 0.000000 0.000000
# 4 0.000000 0.000000 0.000000 0.039505 0.000000 0.000000
# 5 0.000000 0.000000 0.000000 0.000000 0.151761 0.000000
# 6 0.000000 0.000000 0.000000 0.000000 0.000000 0.046641
#
#
# Mechanical properties :
#
#
# Convention : Reuss Voigt Hill
#
# Bulk Modulus (GPa) = 24.21039 30.94776 27.57907
# Shear Modulus (GPa) = 16.30672 25.55741 20.93206
#
# Velocity S-wave (km/s) = 2.60903 3.26629 2.95598
# Velocity P-wave (km/s) = 4.37977 5.20995 4.81280
#
# Compressibility (1/GPa) = 0.04130458
#
# Stress axis : x y z
#
# Youngs Moduli (GPa) = 38.31094 126.49772 70.83172
#
# Poissons Ratio (x) = 0.33355 0.03079
# Poissons Ratio (y) = 0.10102 0.02400
# Poissons Ratio (z) = 0.01665 0.04287
#
# Static dielectric constant tensor:
#      x y z
#    x 1.983660 0.000000 0.000000 
#    y 0.000000 2.044140 0.000000 
#    z 0.000000 0.000000 2.064380 
# 
# From -- ./inp_files/3659.got.cif
#   From: 2010.05.17/outbox.cif.g08.bks.cpg/sg52_2_cif.got.tgz:3659.got - 2010.06.03 12:15:38.
