data_PCOD9408439
_publ_section_title
;
Structure prediction by ZEFSAII (Michael W. Deem and Ramdas Pophale) SiO2 
 PCOD9408439
Probable space group: P N N A
;
_chemical_formula_sum "Si O2"
_cell_formula_units_Z 60
_cell_length_a 13.885315
_cell_length_b 16.063562
_cell_length_c 15.666709
_cell_angle_alpha 90.000000
_cell_angle_beta 90.000000
_cell_angle_gamma 90.000000
_cell_volume 3494.422130
_symmetry_space_group_name_H-M "P N N A"
_symmetry_group_IT_number 52
_symmetry_cell_setting 'orthorhombic'
loop_
_space_group_symop_operation_xyz
x,y,z
1/2-x,-y,z
x,1/2-y,1/2-z
1/2-x,1/2+y,1/2-z
-x,-y,-z
1/2+x,y,-z
-x,1/2+y,1/2+z
1/2+x,1/2-y,1/2+z
loop_
_atom_site_type_symbol
_atom_site_label
_atom_site_fract_x
_atom_site_fract_y
_atom_site_fract_z
Si Si1 0.010245 0.720973 0.849374
Si Si2 0.405261 0.250000 0.250000
Si Si3 0.629422 0.324051 0.523338
Si Si4 0.041499 0.638979 0.402623
Si Si5 0.172054 0.744516 0.978918
Si Si6 0.354346 0.529054 0.350856
Si Si7 0.179205 0.883830 0.377040
Si Si8 0.603991 0.060947 0.664259
O O1 0.004307 0.750000 0.750000
O O2 0.115665 0.737453 0.889817
O O3 0.933954 0.771195 0.908829
O O4 0.978598 0.624731 0.863856
O O5 0.463113 0.306941 0.316258
O O6 0.342713 0.186098 0.305885
O O7 0.559445 0.358349 0.450366
O O8 0.716815 0.272012 0.483056
O O9 0.665000 0.402923 0.577330
O O10 0.115709 0.686527 0.464934
O O11 0.082894 0.547892 0.383945
O O12 0.162231 0.658863 0.031848
O O13 0.250000 0.500000 0.319394
O O14 0.402616 0.565331 0.266724
O O15 0.291317 0.906529 0.366292
O O16 0.110441 0.963721 0.361960
#
# Coordination Sequence:
#
# PCOD9408439 Si02
#       8
#     8   4   8   8   8   8   8   8
#     4  11  23  38  60  86 113 155 201 242 295 356
#     4  10  18  34  54  78 118 140 188 240 282 356
#     4  11  22  37  58  81 118 155 194 244 293 356
#     4  10  21  35  55  86 112 152 190 234 299 355
#     4  10  22  38  56  85 116 149 195 241 290 345
#     4  12  19  32  56  90 120 146 192 250 304 344
#     4  10  20  32  56  87 113 147 186 240 301 343
#     4  11  20  32  57  89 114 149 190 241 300 351
#
# _framework density 17.170221000000002
#
# number of rings (size 3 to 8) (size 9 to 14) (size 15 to 20)
#    0.000    1.333    6.667    0.400    2.800    0.533 
#    1.200    0.000    0.000    0.000    0.000    0.000 
#    0.000    0.000    0.000    0.000    0.000    0.000 
#
# Total GULP energy -334476.342475 kJ/mol
# GULP energy per Si atom -5574.605708 kJ/mol
# Density = 1.713114 g / cm^3
# Si number density = 17.170221 Si / 1000 Ang^3
#
#
#
# Elastic Constant Matrix: (Units=GPa)
#
#
# Indices 1 2 3 4 5 6 
#
# 1 67.3303 18.8961 33.7082 0.0000 0.0000 0.0000
# 2 18.8961 83.6135 20.5703 0.0000 0.0000 0.0000
# 3 33.7082 20.5703 59.3122 0.0000 0.0000 0.0000
# 4 0.0000 0.0000 0.0000 13.1289 0.0000 0.0000
# 5 0.0000 0.0000 0.0000 0.0000 4.0839 0.0000
# 6 0.0000 0.0000 0.0000 0.0000 0.0000 19.9065
#
#
#
# Elastic Compliance Matrix: (Units=1/GPa)
#
#
# Indices 1 2 3 4 5 6 
#
# 1 0.021055 -0.001984 -0.011278 0.000000 0.000000 0.000000
# 2 -0.001984 0.013262 -0.003472 0.000000 0.000000 0.000000
# 3 -0.011278 -0.003472 0.024474 0.000000 0.000000 0.000000
# 4 0.000000 0.000000 0.000000 0.076168 0.000000 0.000000
# 5 0.000000 0.000000 0.000000 0.000000 0.244865 0.000000
# 6 0.000000 0.000000 0.000000 0.000000 0.000000 0.050235
#
#
# Mechanical properties :
#
#
# Convention : Reuss Voigt Hill
#
# Bulk Modulus (GPa) = 39.48944 39.62280 39.55612
# Shear Modulus (GPa) = 10.59395 16.56263 13.57829
#
# Velocity S-wave (km/s) = 2.48663 3.10919 2.81518
# Velocity P-wave (km/s) = 5.59403 6.00133 5.80126
#
# Compressibility (1/GPa) = 0.02532322
#
# Stress axis : x y z
#
# Youngs Moduli (GPa) = 47.49445 75.40162 40.86034
#
# Poissons Ratio (x) = 0.14958 0.46082
# Poissons Ratio (y) = 0.09422 0.14187
# Poissons Ratio (z) = 0.53564 0.26181
#
# Static dielectric constant tensor:
#      x y z
#    x 1.566490 0.000000 0.000000 
#    y 0.000000 1.601270 0.000000 
#    z 0.000000 0.000000 1.577680 
# 
# From -- ./inp_files/27444.got.cif
#   From: 2010.05.17/outbox.cif.g08.bks.cpg/sg52_14_cif.got.tgz:27444.got - 2010.06.03 12:15:38.
