data_PCOD9408448
_publ_section_title
;
Structure prediction by ZEFSAII (Michael W. Deem and Ramdas Pophale) SiO2 
 PCOD9408448
Probable space group: P N N A
;
_chemical_formula_sum "Si O2"
_cell_formula_units_Z 40
_cell_length_a 28.611989
_cell_length_b 9.028991
_cell_length_c 8.766585
_cell_angle_alpha 90.000000
_cell_angle_beta 90.000000
_cell_angle_gamma 90.000000
_cell_volume 2264.736698
_symmetry_space_group_name_H-M "P N N A"
_symmetry_group_IT_number 52
_symmetry_cell_setting 'orthorhombic'
loop_
_space_group_symop_operation_xyz
x,y,z
1/2-x,-y,z
x,1/2-y,1/2-z
1/2-x,1/2+y,1/2-z
-x,-y,-z
1/2+x,y,-z
-x,1/2+y,1/2+z
1/2+x,1/2-y,1/2+z
loop_
_atom_site_type_symbol
_atom_site_label
_atom_site_fract_x
_atom_site_fract_y
_atom_site_fract_z
Si Si1 0.405623 0.750000 0.250000
Si Si2 0.879893 0.089501 0.279480
Si Si3 0.210073 0.750000 0.750000
Si Si4 0.853248 0.506714 0.557204
Si Si5 0.446117 0.498235 0.043840
Si Si6 0.250000 0.000000 0.960520
Si Si7 0.901275 0.250000 0.750000
O O1 0.374786 0.648283 0.360809
O O2 0.435780 0.638874 0.148928
O O3 0.903779 0.250000 0.250000
O O4 0.827768 0.141824 0.335450
O O5 0.910823 0.002042 0.399451
O O6 0.870904 0.010828 0.117729
O O7 0.240588 0.855178 0.856083
O O8 0.797441 0.517192 0.553864
O O9 0.870328 0.361633 0.648713
O O10 0.432349 0.351967 0.139640
O O11 0.500000 0.500000 0.000000
#
# Coordination Sequence:
#
# PCOD9408448 Si02
#       7
#     4   8   4   8   8   4   4
#     4  10  26  38  52  92 118 146 178 248 296 312
#     4   9  18  38  60  81 105 156 187 223 281 335
#     4   8  18  31  56  85 110 139 194 233 276 324
#     4  10  21  38  60  81 121 148 192 228 289 335
#     4  11  23  38  62  83 114 149 196 231 282 344
#     4  10  18  34  56  86 106 152 192 230 270 346
#     4  10  20  41  56  81 120 159 174 237 294 344
#
# _framework density 17.662098
#
# number of rings (size 3 to 8) (size 9 to 14) (size 15 to 20)
#    0.600    1.600    2.000    0.000    1.400    6.400 
#    0.000    4.000    0.000    1.200    0.000    0.000 
#    0.000    0.000    0.000    0.000    0.000    0.000 
#
# Total GULP energy -222881.872318 kJ/mol
# GULP energy per Si atom -5572.046808 kJ/mol
# Density = 1.762190 g / cm^3
# Si number density = 17.662098 Si / 1000 Ang^3
#
#
#
# Elastic Constant Matrix: (Units=GPa)
#
#
# Indices 1 2 3 4 5 6 
#
# 1 164.0923 74.1789 77.8379 0.0000 0.0000 0.0000
# 2 74.1789 119.7112 59.1696 0.0000 0.0000 0.0000
# 3 77.8379 59.1696 106.1348 0.0000 0.0000 0.0000
# 4 0.0000 0.0000 0.0000 23.8365 0.0000 0.0000
# 5 0.0000 0.0000 0.0000 0.0000 24.8697 0.0000
# 6 0.0000 0.0000 0.0000 0.0000 0.0000 8.1745
#
#
#
# Elastic Compliance Matrix: (Units=1/GPa)
#
#
# Indices 1 2 3 4 5 6 
#
# 1 0.010408 -0.003695 -0.005573 0.000000 0.000000 0.000000
# 2 -0.003695 0.012842 -0.004450 0.000000 0.000000 0.000000
# 3 -0.005573 -0.004450 0.015990 0.000000 0.000000 0.000000
# 4 0.000000 0.000000 0.000000 0.041952 0.000000 0.000000
# 5 0.000000 0.000000 0.000000 0.000000 0.040210 0.000000
# 6 0.000000 0.000000 0.000000 0.000000 0.000000 0.122332
#
#
# Mechanical properties :
#
#
# Convention : Reuss Voigt Hill
#
# Bulk Modulus (GPa) = 84.71194 90.25677 87.48435
# Shear Modulus (GPa) = 18.17483 23.29293 20.73388
#
# Velocity S-wave (km/s) = 3.21133 3.63548 3.42997
# Velocity P-wave (km/s) = 7.86237 8.29670 8.08245
#
# Compressibility (1/GPa) = 0.01180471
#
# Stress axis : x y z
#
# Youngs Moduli (GPa) = 96.07933 77.86808 62.53793
#
# Poissons Ratio (x) = 0.28769 0.34855
# Poissons Ratio (y) = 0.35497 0.27829
# Poissons Ratio (z) = 0.53549 0.34651
#
# Static dielectric constant tensor:
#      x y z
#    x 1.578710 0.000000 0.000000 
#    y 0.000000 1.611840 0.000000 
#    z 0.000000 0.000000 1.614420 
# 
# From -- ./inp_files/14899.got.cif
#   From: 2010.05.17/outbox.cif.g08.bks.cpg/sg52_8_cif.got.tgz:14899.got - 2010.06.03 12:15:38.
