data_PCOD9408737
_publ_section_title
;
Structure prediction by ZEFSAII (Michael W. Deem and Ramdas Pophale) SiO2 
 PCOD9408737
Probable space group: P N N A
;
_chemical_formula_sum "Si O2"
_cell_formula_units_Z 48
_cell_length_a 11.845075
_cell_length_b 11.911519
_cell_length_c 19.894166
_cell_angle_alpha 90.000000
_cell_angle_beta 90.000000
_cell_angle_gamma 90.000000
_cell_volume 2806.924299
_symmetry_space_group_name_H-M "P N N A"
_symmetry_group_IT_number 52
_symmetry_cell_setting 'orthorhombic'
loop_
_space_group_symop_operation_xyz
x,y,z
1/2-x,-y,z
x,1/2-y,1/2-z
1/2-x,1/2+y,1/2-z
-x,-y,-z
1/2+x,y,-z
-x,1/2+y,1/2+z
1/2+x,1/2-y,1/2+z
loop_
_atom_site_type_symbol
_atom_site_label
_atom_site_fract_x
_atom_site_fract_y
_atom_site_fract_z
Si Si1 0.488354 0.150033 0.470131
Si Si2 0.391736 0.753023 0.860808
Si Si3 0.127471 0.439368 0.746359
Si Si4 0.002629 0.640783 0.796860
Si Si5 0.371935 0.941937 0.415414
Si Si6 0.690455 0.875523 0.413885
O O1 0.507721 0.245010 0.414905
O O2 0.595288 0.134185 0.520228
O O3 0.381743 0.149693 0.519538
O O4 0.467276 0.038925 0.424966
O O5 0.393040 0.651877 0.805603
O O6 0.379826 0.868016 0.821505
O O7 0.282334 0.719874 0.903039
O O8 0.250000 0.500000 0.751941
O O9 0.031421 0.533295 0.751492
O O10 0.998677 0.750000 0.750000
O O11 0.106161 0.639169 0.850476
O O12 0.895366 0.620665 0.845411
O O13 0.250000 0.000000 0.417669
O O14 0.750000 0.000000 0.415110
#
# Coordination Sequence:
#
# PCOD9408737 Si02
#       6
#     8   8   8   8   8   8
#     4  10  19  31  51  82 108 134 168 227 279 315
#     4  11  19  32  53  82 112 133 173 220 275 325
#     4  11  20  32  53  80 109 142 171 221 271 316
#     4  11  20  34  52  77 110 144 178 217 269 323
#     4  10  19  32  52  76 105 135 176 223 267 312
#     4  11  18  30  53  82 113 137 169 223 282 315
#
# _framework density 17.100567999999999
#
# number of rings (size 3 to 8) (size 9 to 14) (size 15 to 20)
#    0.000    1.333    5.000    4.500    0.000    0.667 
#    0.000    1.667    0.000    9.000    0.000    0.000 
#    0.000    0.000    0.000    0.000    0.000    0.000 
#
# Total GULP energy -267392.371141 kJ/mol
# GULP energy per Si atom -5570.674399 kJ/mol
# Density = 1.706165 g / cm^3
# Si number density = 17.100568 Si / 1000 Ang^3
#
#
#
# Elastic Constant Matrix: (Units=GPa)
#
#
# Indices 1 2 3 4 5 6 
#
# 1 68.0107 27.7038 52.2778 0.0000 0.0000 0.0000
# 2 27.7038 80.5826 61.4494 0.0000 0.0000 0.0000
# 3 52.2778 61.4494 127.9783 0.0000 0.0000 0.0000
# 4 0.0000 0.0000 0.0000 35.7438 0.0000 0.0000
# 5 0.0000 0.0000 0.0000 0.0000 21.0338 0.0000
# 6 0.0000 0.0000 0.0000 0.0000 0.0000 13.4263
#
#
#
# Elastic Compliance Matrix: (Units=1/GPa)
#
#
# Indices 1 2 3 4 5 6 
#
# 1 0.021495 -0.001095 -0.008255 0.000000 0.000000 0.000000
# 2 -0.001095 0.019634 -0.008980 0.000000 0.000000 0.000000
# 3 -0.008255 -0.008980 0.015497 0.000000 0.000000 0.000000
# 4 0.000000 0.000000 0.000000 0.027977 0.000000 0.000000
# 5 0.000000 0.000000 0.000000 0.000000 0.047543 0.000000
# 6 0.000000 0.000000 0.000000 0.000000 0.000000 0.074481
#
#
# Mechanical properties :
#
#
# Convention : Reuss Voigt Hill
#
# Bulk Modulus (GPa) = 50.08309 62.15930 56.12119
# Shear Modulus (GPa) = 20.00471 23.05015 21.52743
#
# Velocity S-wave (km/s) = 3.42398 3.67538 3.55191
# Velocity P-wave (km/s) = 6.70690 7.37831 7.05060
#
# Compressibility (1/GPa) = 0.01996682
#
# Stress axis : x y z
#
# Youngs Moduli (GPa) = 46.52318 50.93229 64.52669
#
# Poissons Ratio (x) = 0.05578 0.53264
# Poissons Ratio (y) = 0.05095 0.57945
# Poissons Ratio (z) = 0.38403 0.45737
#
# Static dielectric constant tensor:
#      x y z
#    x 1.648930 0.000000 0.000000 
#    y 0.000000 1.571010 0.000000 
#    z 0.000000 0.000000 1.628380 
# 
# From -- ./inp_files/36761.got.cif
#   From: 2010.05.17/outbox.cif.g08.bks.cpg/sg52_19_cif.got.tgz:36761.got - 2010.06.03 12:15:38.
