data_PCOD9408624
_publ_section_title
;
Structure prediction by ZEFSAII (Michael W. Deem and Ramdas Pophale) SiO2 
 PCOD9408624
Probable space group: P N N A
;
_chemical_formula_sum "Si O2"
_cell_formula_units_Z 36
_cell_length_a 13.116211
_cell_length_b 12.142421
_cell_length_c 9.540922
_cell_angle_alpha 90.000000
_cell_angle_beta 90.000000
_cell_angle_gamma 90.000000
_cell_volume 1519.511623
_symmetry_space_group_name_H-M "P N N A"
_symmetry_group_IT_number 52
_symmetry_cell_setting 'orthorhombic'
loop_
_space_group_symop_operation_xyz
x,y,z
1/2-x,-y,z
x,1/2-y,1/2-z
1/2-x,1/2+y,1/2-z
-x,-y,-z
1/2+x,y,-z
-x,1/2+y,1/2+z
1/2+x,1/2-y,1/2+z
loop_
_atom_site_type_symbol
_atom_site_label
_atom_site_fract_x
_atom_site_fract_y
_atom_site_fract_z
Si Si1 0.731747 0.808806 0.958212
Si Si2 0.616897 0.021551 0.999726
Si Si3 0.296702 0.750000 0.750000
Si Si4 0.584194 0.043407 0.318163
Si Si5 0.650257 0.929071 0.602688
O O1 0.667411 0.917413 0.925459
O O2 0.726412 0.792886 0.125598
O O3 0.845372 0.861070 0.938887
O O4 0.689204 0.697419 0.892095
O O5 0.633711 0.017487 0.167622
O O6 0.500000 0.000000 0.000000
O O7 0.370894 0.833553 0.665696
O O8 0.460364 0.047849 0.325458
O O9 0.625310 0.965122 0.441069
O O10 0.750000 0.000000 0.643921
#
# Coordination Sequence:
#
# PCOD9408624 Si02
#       5
#     8   8   4   8   8
#     4  10  21  36  64  87 118 160 204 254 292 372
#     4  10  23  41  61  90 121 165 209 249 306 368
#     4  10  18  38  62  86 118 158 210 240 296 356
#     4  10  23  37  63  91 122 164 200 257 305 374
#     4  11  22  40  61  95 126 157 204 258 322 362
#
# _framework density 23.691821999999998
#
# number of rings (size 3 to 8) (size 9 to 14) (size 15 to 20)
#    0.000    1.778    2.222    1.333    9.333    0.000 
#    4.000    0.000    0.000    0.000    0.000    0.000 
#    0.000    0.000    0.000    0.000    0.000    0.000 
#
# Total GULP energy -200687.795882 kJ/mol
# GULP energy per Si atom -5574.660997 kJ/mol
# Density = 2.363790 g / cm^3
# Si number density = 23.691822 Si / 1000 Ang^3
#
#
#
# Elastic Constant Matrix: (Units=GPa)
#
#
# Indices 1 2 3 4 5 6 
#
# 1 153.7082 70.5394 20.8687 0.0000 0.0000 0.0000
# 2 70.5394 185.4380 25.6935 0.0000 0.0000 0.0000
# 3 20.8687 25.6935 74.4008 0.0000 0.0000 0.0000
# 4 0.0000 0.0000 0.0000 25.3708 0.0000 0.0000
# 5 0.0000 0.0000 0.0000 0.0000 34.4808 0.0000
# 6 0.0000 0.0000 0.0000 0.0000 0.0000 38.1928
#
#
#
# Elastic Compliance Matrix: (Units=1/GPa)
#
#
# Indices 1 2 3 4 5 6 
#
# 1 0.007991 -0.002866 -0.001252 0.000000 0.000000 0.000000
# 2 -0.002866 0.006692 -0.001507 0.000000 0.000000 0.000000
# 3 -0.001252 -0.001507 0.014312 0.000000 0.000000 0.000000
# 4 0.000000 0.000000 0.000000 0.039415 0.000000 0.000000
# 5 0.000000 0.000000 0.000000 0.000000 0.029002 0.000000
# 6 0.000000 0.000000 0.000000 0.000000 0.000000 0.026183
#
#
# Mechanical properties :
#
#
# Convention : Reuss Voigt Hill
#
# Bulk Modulus (GPa) = 56.35278 71.97225 64.16252
# Shear Modulus (GPa) = 35.52142 39.37189 37.44665
#
# Velocity S-wave (km/s) = 3.87629 4.08098 3.97995
# Velocity P-wave (km/s) = 6.62356 7.25606 6.94701
#
# Compressibility (1/GPa) = 0.01774535
#
# Stress axis : x y z
#
# Youngs Moduli (GPa) = 125.13781 149.43693 69.87052
#
# Poissons Ratio (x) = 0.42834 0.08745
# Poissons Ratio (y) = 0.35869 0.10529
# Poissons Ratio (z) = 0.15662 0.22519
#
# Static dielectric constant tensor:
#      x y z
#    x 2.003660 0.000000 0.000000 
#    y 0.000000 2.053770 0.000000 
#    z 0.000000 0.000000 1.812470 
# 
# From -- ./inp_files/17726.got.cif
#   From: 2010.05.17/outbox.cif.g08.bks.cpg/sg52_9_cif.got.tgz:17726.got - 2010.06.03 12:15:38.
