data_PCOD9408244
_publ_section_title
;
Structure prediction by ZEFSAII (Michael W. Deem and Ramdas Pophale) SiO2 
 PCOD9408244
Probable space group: P N N A
;
_chemical_formula_sum "Si O2"
_cell_formula_units_Z 44
_cell_length_a 23.928379
_cell_length_b 5.572191
_cell_length_c 20.270914
_cell_angle_alpha 90.000000
_cell_angle_beta 90.000000
_cell_angle_gamma 90.000000
_cell_volume 2702.791873
_symmetry_space_group_name_H-M "P N N A"
_symmetry_group_IT_number 52
_symmetry_cell_setting 'orthorhombic'
loop_
_space_group_symop_operation_xyz
x,y,z
1/2-x,-y,z
x,1/2-y,1/2-z
1/2-x,1/2+y,1/2-z
-x,-y,-z
1/2+x,y,-z
-x,1/2+y,1/2+z
1/2+x,1/2-y,1/2+z
loop_
_atom_site_type_symbol
_atom_site_label
_atom_site_fract_x
_atom_site_fract_y
_atom_site_fract_z
Si Si1 0.404804 0.250000 0.250000
Si Si2 0.067657 0.983605 0.989473
Si Si3 0.390483 0.944599 0.131153
Si Si4 0.048138 0.486839 0.942563
Si Si5 0.488182 0.868957 0.313469
Si Si6 0.281085 0.751665 0.329542
O O1 0.373360 0.368030 0.311396
O O2 0.443681 0.450978 0.218124
O O3 0.079011 0.741742 0.949253
O O4 0.080768 0.240773 0.956646
O O5 0.099208 0.956567 0.058810
O O6 0.000000 0.000000 0.000000
O O7 0.450469 0.832167 0.150582
O O8 0.341445 0.751368 0.135519
O O9 0.021807 0.492732 0.869702
O O10 0.000000 0.500000 0.000000
O O11 0.518468 0.750000 0.250000
O O12 0.250000 0.500000 0.347153
O O13 0.288874 0.750000 0.250000
O O14 0.250000 0.000000 0.345855
#
# Coordination Sequence:
#
# PCOD9408244 Si02
#       6
#     4   8   8   8   8   8
#     4  10  20  28  46  68  88 120 162 210 246 288
#     4  10  19  31  49  67  91 118 156 199 239 298
#     4  11  21  32  50  68  90 124 165 212 253 289
#     4  10  18  31  45  64  92 122 152 198 230 291
#     4  10  20  29  44  68  94 124 163 204 241 278
#     4  10  23  37  49  65  91 124 164 212 259 289
#
# _framework density 16.279463
#
# number of rings (size 3 to 8) (size 9 to 14) (size 15 to 20)
#    0.000    1.818    3.636    3.818    8.909    0.000 
#    0.000    0.000    0.000    0.000    0.000    0.000 
#    0.000    0.000    0.000    0.000    0.000   18.182 
#
# Total GULP energy -245093.423625 kJ/mol
# GULP energy per Si atom -5570.305082 kJ/mol
# Density = 1.624241 g / cm^3
# Si number density = 16.279463 Si / 1000 Ang^3
#
#
#
# Elastic Constant Matrix: (Units=GPa)
#
#
# Indices 1 2 3 4 5 6 
#
# 1 28.9403 10.1131 24.8660 0.0000 0.0000 0.0000
# 2 10.1131 95.6569 13.8294 0.0000 0.0000 0.0000
# 3 24.8660 13.8294 72.1350 0.0000 0.0000 0.0000
# 4 0.0000 0.0000 0.0000 21.6775 0.0000 0.0000
# 5 0.0000 0.0000 0.0000 0.0000 3.0820 0.0000
# 6 0.0000 0.0000 0.0000 0.0000 0.0000 13.7968
#
#
#
# Elastic Compliance Matrix: (Units=1/GPa)
#
#
# Indices 1 2 3 4 5 6 
#
# 1 0.049847 -0.002865 -0.016634 0.000000 0.000000 0.000000
# 2 -0.002865 0.010917 -0.001105 0.000000 0.000000 0.000000
# 3 -0.016634 -0.001105 0.019809 0.000000 0.000000 0.000000
# 4 0.000000 0.000000 0.000000 0.046131 0.000000 0.000000
# 5 0.000000 0.000000 0.000000 0.000000 0.324463 0.000000
# 6 0.000000 0.000000 0.000000 0.000000 0.000000 0.072481
#
#
# Mechanical properties :
#
#
# Convention : Reuss Voigt Hill
#
# Bulk Modulus (GPa) = 25.40382 32.70549 29.05465
# Shear Modulus (GPa) = 8.65086 17.57283 13.11184
#
# Velocity S-wave (km/s) = 2.30771 3.28906 2.84108
# Velocity P-wave (km/s) = 4.76858 5.87856 5.35242
#
# Compressibility (1/GPa) = 0.03936416
#
# Stress axis : x y z
#
# Youngs Moduli (GPa) = 20.06135 91.60249 50.48285
#
# Poissons Ratio (x) = 0.26246 0.83972
# Poissons Ratio (y) = 0.05748 0.05580
# Poissons Ratio (z) = 0.33370 0.10124
#
# Static dielectric constant tensor:
#      x y z
#    x 1.518190 0.000000 0.000000 
#    y 0.000000 1.656140 0.000000 
#    z 0.000000 0.000000 1.568450 
# 
# From -- ./inp_files/34200.got.cif
#   From: 2010.05.17/outbox.cif.g08.bks.cpg/sg52_18_cif.got.tgz:34200.got - 2010.06.03 12:15:38.
