data_PCOD9408658
_publ_section_title
;
Structure prediction by ZEFSAII (Michael W. Deem and Ramdas Pophale) SiO2 
 PCOD9408658
Probable space group: P N N A
;
_chemical_formula_sum "Si O2"
_cell_formula_units_Z 56
_cell_length_a 14.689431
_cell_length_b 13.419645
_cell_length_c 11.807169
_cell_angle_alpha 90.000000
_cell_angle_beta 90.000000
_cell_angle_gamma 90.000000
_cell_volume 2327.511205
_symmetry_space_group_name_H-M "P N N A"
_symmetry_group_IT_number 52
_symmetry_cell_setting 'orthorhombic'
loop_
_space_group_symop_operation_xyz
x,y,z
1/2-x,-y,z
x,1/2-y,1/2-z
1/2-x,1/2+y,1/2-z
-x,-y,-z
1/2+x,y,-z
-x,1/2+y,1/2+z
1/2+x,1/2-y,1/2+z
loop_
_atom_site_type_symbol
_atom_site_label
_atom_site_fract_x
_atom_site_fract_y
_atom_site_fract_z
Si Si1 0.935199 0.568703 0.775449
Si Si2 0.977201 0.735394 0.371883
Si Si3 0.422504 0.250000 0.750000
Si Si4 0.404891 0.538786 0.679066
Si Si5 0.750000 0.500000 0.141722
Si Si6 0.871051 0.143459 0.029565
Si Si7 0.360376 0.870063 0.493701
Si Si8 0.714979 0.312799 0.644097
O O1 0.896794 0.551569 0.901271
O O2 0.852541 0.605414 0.696689
O O3 0.009267 0.659069 0.781339
O O4 0.991895 0.480606 0.719572
O O5 0.022195 0.750000 0.250000
O O6 0.896599 0.654773 0.349550
O O7 0.936088 0.838368 0.416362
O O8 0.042264 0.688198 0.464799
O O9 0.364102 0.210539 0.856120
O O10 0.336346 0.500146 0.775597
O O11 0.387787 0.468473 0.571883
O O12 0.728646 0.408470 0.058171
O O13 0.788245 0.147573 0.943243
O O14 0.342474 0.770360 0.422850
O O15 0.755274 0.250000 0.750000
#
# Coordination Sequence:
#
# PCOD9408658 Si02
#       8
#     8   8   4   8   4   8   8   8
#     4  10  20  48  73 101 146 194 236 293 369 448
#     4  12  24  48  72 101 144 190 236 308 367 434
#     4  10  18  40  70 102 136 196 234 282 372 434
#     4  11  27  47  70 105 146 187 247 295 376 435
#     4  12  28  46  64 112 140 192 250 310 352 432
#     4  11  24  41  74 106 141 189 248 294 360 441
#     4  11  23  44  74  97 147 194 238 297 368 430
#     4  10  22  43  75 109 146 185 244 301 364 433
#
# _framework density 24.060034999999999
#
# number of rings (size 3 to 8) (size 9 to 14) (size 15 to 20)
#    0.000    1.143    5.000    1.714    6.000    0.571 
#    7.714    0.000    0.000    0.000    0.000    0.000 
#    0.000    0.000    0.000    0.000    0.000    0.000 
#
# Total GULP energy -313473.675082 kJ/mol
# GULP energy per Si atom -5597.744198 kJ/mol
# Density = 2.400527 g / cm^3
# Si number density = 24.060035 Si / 1000 Ang^3
#
#
#
# Elastic Constant Matrix: (Units=GPa)
#
#
# Indices 1 2 3 4 5 6 
#
# 1 103.9180 24.2311 60.1778 0.0000 0.0000 0.0000
# 2 24.2311 55.6305 34.7158 0.0000 0.0000 0.0000
# 3 60.1778 34.7158 160.8017 0.0000 0.0000 0.0000
# 4 0.0000 0.0000 0.0000 26.3455 0.0000 0.0000
# 5 0.0000 0.0000 0.0000 0.0000 40.8469 0.0000
# 6 0.0000 0.0000 0.0000 0.0000 0.0000 63.3407
#
#
#
# Elastic Compliance Matrix: (Units=1/GPa)
#
#
# Indices 1 2 3 4 5 6 
#
# 1 0.012695 -0.002964 -0.004111 0.000000 0.000000 0.000000
# 2 -0.002964 0.021467 -0.003525 0.000000 0.000000 0.000000
# 3 -0.004111 -0.003525 0.008518 0.000000 0.000000 0.000000
# 4 0.000000 0.000000 0.000000 0.037957 0.000000 0.000000
# 5 0.000000 0.000000 0.000000 0.000000 0.024482 0.000000
# 6 0.000000 0.000000 0.000000 0.000000 0.000000 0.015788
#
#
# Mechanical properties :
#
#
# Convention : Reuss Voigt Hill
#
# Bulk Modulus (GPa) = 46.55633 62.06662 54.31147
# Shear Modulus (GPa) = 33.49717 39.52165 36.50941
#
# Velocity S-wave (km/s) = 3.73531 4.05733 3.89965
# Velocity P-wave (km/s) = 6.16405 6.91388 6.54971
#
# Compressibility (1/GPa) = 0.02147936
#
# Stress axis : x y z
#
# Youngs Moduli (GPa) = 78.77301 46.58378 117.39361
#
# Poissons Ratio (x) = 0.13808 0.48259
# Poissons Ratio (y) = 0.23349 0.41384
# Poissons Ratio (z) = 0.32383 0.16422
#
# Static dielectric constant tensor:
#      x y z
#    x 1.890770 0.000000 0.000000 
#    y 0.000000 1.924930 0.000000 
#    z 0.000000 0.000000 1.969730 
# 
# From -- ./inp_files/19694.got.cif
#   From: 2010.05.17/outbox.cif.g08.bks.cpg/sg52_10_cif.got.tgz:19694.got - 2010.06.03 12:15:38.
