data_PCOD9408214
_publ_section_title
;
Structure prediction by ZEFSAII (Michael W. Deem and Ramdas Pophale) SiO2 
 PCOD9408214
Probable space group: P N N A
;
_chemical_formula_sum "Si O2"
_cell_formula_units_Z 48
_cell_length_a 8.537360
_cell_length_b 10.605396
_cell_length_c 29.487338
_cell_angle_alpha 90.000000
_cell_angle_beta 90.000000
_cell_angle_gamma 90.000000
_cell_volume 2669.845022
_symmetry_space_group_name_H-M "P N N A"
_symmetry_group_IT_number 52
_symmetry_cell_setting 'orthorhombic'
loop_
_space_group_symop_operation_xyz
x,y,z
1/2-x,-y,z
x,1/2-y,1/2-z
1/2-x,1/2+y,1/2-z
-x,-y,-z
1/2+x,y,-z
-x,1/2+y,1/2+z
1/2+x,1/2-y,1/2+z
loop_
_atom_site_type_symbol
_atom_site_label
_atom_site_fract_x
_atom_site_fract_y
_atom_site_fract_z
Si Si1 0.250000 0.000000 0.667760
Si Si2 0.508553 0.106448 0.400496
Si Si3 0.472782 0.881069 0.274648
Si Si4 0.227785 0.245898 0.350134
Si Si5 0.048475 0.319068 0.067851
Si Si6 0.774703 0.848267 0.478903
Si Si7 0.250000 0.000000 0.204640
O O1 0.153719 0.090961 0.634124
O O2 0.379080 0.065659 0.698914
O O3 0.371308 0.180492 0.375847
O O4 0.577779 0.170024 0.445562
O O5 0.455701 0.964989 0.414850
O O6 0.513143 0.750000 0.250000
O O7 0.339791 0.846199 0.311460
O O8 0.397834 0.973682 0.237491
O O9 0.092843 0.261319 0.388195
O O10 0.270514 0.376345 0.326023
O O11 0.881202 0.294810 0.044361
O O12 0.178989 0.304858 0.028874
O O13 0.750000 0.000000 0.481359
#
# Coordination Sequence:
#
# PCOD9408214 Si02
#       7
#     4   8   8   8   8   8   4
#     4  12  20  34  56  83 116 137 178 222 288 338
#     4  11  19  31  54  85 113 144 175 223 279 332
#     4  10  22  38  55  77 106 141 184 234 276 327
#     4  11  21  37  60  77 111 146 186 227 276 328
#     4  11  19  32  53  85 116 148 178 227 276 333
#     4  10  18  30  49  86 122 143 178 219 275 332
#     4  10  24  42  56  79 102 147 196 232 272 332
#
# _framework density 17.978570999999999
#
# number of rings (size 3 to 8) (size 9 to 14) (size 15 to 20)
#    0.000    1.333    4.167    5.500    0.000    1.333 
#    0.000    0.000    0.000    4.000    0.000    0.000 
#    0.000    0.000    0.000    0.000    0.000    0.000 
#
# Total GULP energy -268054.838992 kJ/mol
# GULP energy per Si atom -5584.475812 kJ/mol
# Density = 1.793765 g / cm^3
# Si number density = 17.978571 Si / 1000 Ang^3
#
#
#
# Elastic Constant Matrix: (Units=GPa)
#
#
# Indices 1 2 3 4 5 6 
#
# 1 70.7738 36.1635 39.5559 0.0000 0.0000 0.0000
# 2 36.1635 51.5695 48.0500 0.0000 0.0000 0.0000
# 3 39.5559 48.0500 132.2638 0.0000 0.0000 0.0000
# 4 0.0000 0.0000 0.0000 16.8251 0.0000 0.0000
# 5 0.0000 0.0000 0.0000 0.0000 50.0676 0.0000
# 6 0.0000 0.0000 0.0000 0.0000 0.0000 8.6775
#
#
#
# Elastic Compliance Matrix: (Units=1/GPa)
#
#
# Indices 1 2 3 4 5 6 
#
# 1 0.022212 -0.014190 -0.001488 0.000000 0.000000 0.000000
# 2 -0.014190 0.038379 -0.009699 0.000000 0.000000 0.000000
# 3 -0.001488 -0.009699 0.011529 0.000000 0.000000 0.000000
# 4 0.000000 0.000000 0.000000 0.059435 0.000000 0.000000
# 5 0.000000 0.000000 0.000000 0.000000 0.019973 0.000000
# 6 0.000000 0.000000 0.000000 0.000000 0.000000 0.115240
#
#
# Mechanical properties :
#
#
# Convention : Reuss Voigt Hill
#
# Bulk Modulus (GPa) = 46.80189 55.79399 51.29794
# Shear Modulus (GPa) = 15.40151 23.83657 19.61904
#
# Velocity S-wave (km/s) = 2.93005 3.64515 3.30698
# Velocity P-wave (km/s) = 6.12662 6.98692 6.57087
#
# Compressibility (1/GPa) = 0.02136666
#
# Stress axis : x y z
#
# Youngs Moduli (GPa) = 45.02131 26.05584 86.73679
#
# Poissons Ratio (x) = 0.36973 0.12905
# Poissons Ratio (y) = 0.63885 0.84126
# Poissons Ratio (z) = 0.06698 0.25272
#
# Static dielectric constant tensor:
#      x y z
#    x 1.646690 0.000000 0.000000 
#    y 0.000000 1.583130 0.000000 
#    z 0.000000 0.000000 1.646050 
# 
# From -- ./inp_files/44415.got.cif
#   From: 2010.05.17/outbox.cif.g08.bks.cpg/sg52_23_cif.got.tgz:44415.got - 2010.06.03 12:15:38.
