data_PCOD9408470
_publ_section_title
;
Structure prediction by ZEFSAII (Michael W. Deem and Ramdas Pophale) SiO2 
 PCOD9408470
Probable space group: P N N A
;
_chemical_formula_sum "Si O2"
_cell_formula_units_Z 48
_cell_length_a 13.664793
_cell_length_b 12.429529
_cell_length_c 14.485170
_cell_angle_alpha 90.000000
_cell_angle_beta 90.000000
_cell_angle_gamma 90.000000
_cell_volume 2460.261813
_symmetry_space_group_name_H-M "P N N A"
_symmetry_group_IT_number 52
_symmetry_cell_setting 'orthorhombic'
loop_
_space_group_symop_operation_xyz
x,y,z
1/2-x,-y,z
x,1/2-y,1/2-z
1/2-x,1/2+y,1/2-z
-x,-y,-z
1/2+x,y,-z
-x,1/2+y,1/2+z
1/2+x,1/2-y,1/2+z
loop_
_atom_site_type_symbol
_atom_site_label
_atom_site_fract_x
_atom_site_fract_y
_atom_site_fract_z
Si Si1 0.338222 0.422407 0.201090
Si Si2 0.258400 0.241569 0.571539
Si Si3 0.051287 0.513055 0.780738
Si Si4 0.847950 0.190854 0.891114
Si Si5 0.101867 0.750000 0.750000
Si Si6 0.250000 0.000000 0.597135
Si Si7 0.058339 0.319281 0.655707
O O1 0.250000 0.500000 0.174813
O O2 0.446795 0.470363 0.181087
O O3 0.327146 0.307520 0.152814
O O4 0.331541 0.396801 0.311138
O O5 0.289993 0.313963 0.485731
O O6 0.330093 0.256020 0.659074
O O7 0.152434 0.273352 0.607208
O O8 0.257939 0.114362 0.546248
O O9 0.043148 0.639183 0.759217
O O10 0.148949 0.495358 0.842884
O O11 0.071037 0.440725 0.690567
O O12 0.964095 0.189301 0.908190
O O13 0.039644 0.250000 0.750000
#
# Coordination Sequence:
#
# PCOD9408470 Si02
#       7
#     8   8   8   8   4   4   8
#     4  10  21  42  62  81 122 170 207 253 313 377
#     4  11  21  37  61  96 124 157 205 263 311 371
#     4  10  19  38  67  85 117 167 204 251 313 368
#     4  10  22  40  61  90 120 161 218 252 305 384
#     4  10  22  38  58  98 130 144 200 274 316 350
#     4  10  18  34  60  96 118 148 208 264 314 354
#     4  11  17  41  68  83 118 175 206 243 309 379
#
# _framework density 19.510117000000001
#
# number of rings (size 3 to 8) (size 9 to 14) (size 15 to 20)
#    0.000    1.667    5.833    1.000    1.167    1.333 
#   12.000    5.833    0.000    0.000    0.000    0.000 
#    0.000    0.000    0.000    0.000    0.000    0.000 
#
# Total GULP energy -267761.486737 kJ/mol
# GULP energy per Si atom -5578.364307 kJ/mol
# Density = 1.946571 g / cm^3
# Si number density = 19.510117 Si / 1000 Ang^3
#
#
#
# Elastic Constant Matrix: (Units=GPa)
#
#
# Indices 1 2 3 4 5 6 
#
# 1 90.4113 14.5528 3.4040 0.0000 0.0000 0.0000
# 2 14.5528 69.6076 -6.9991 0.0000 0.0000 0.0000
# 3 3.4040 -6.9991 41.7310 0.0000 0.0000 0.0000
# 4 0.0000 0.0000 0.0000 -3.2883 0.0000 0.0000
# 5 0.0000 0.0000 0.0000 0.0000 8.1063 0.0000
# 6 0.0000 0.0000 0.0000 0.0000 0.0000 3.5908
#
#
#
# Elastic Compliance Matrix: (Units=1/GPa)
#
#
# Indices 1 2 3 4 5 6 
#
# 1 0.011522 -0.002546 -0.001367 0.000000 0.000000 0.000000
# 2 -0.002546 0.015175 0.002753 0.000000 0.000000 0.000000
# 3 -0.001367 0.002753 0.024536 0.000000 0.000000 0.000000
# 4 0.000000 0.000000 0.000000 -0.304112 0.000000 0.000000
# 5 0.000000 0.000000 0.000000 0.000000 0.123361 0.000000
# 6 0.000000 0.000000 0.000000 0.000000 0.000000 0.278490
#
#
# Mechanical properties :
#
#
# Convention : Reuss Voigt Hill
#
# Bulk Modulus (GPa) = 20.44450 24.85170 22.64810
# Shear Modulus (GPa) = 29.83363 14.40126 22.11744
#
# Velocity S-wave (km/s) = 3.91466 2.71983 3.37061
# Velocity P-wave (km/s) = 5.56187 4.75697 5.17509
#
# Compressibility (1/GPa) = 0.04891292
#
# Stress axis : x y z
#
# Youngs Moduli (GPa) = 86.79132 65.89610 40.75606
#
# Poissons Ratio (x) = 0.16779 0.05571
# Poissons Ratio (y) = 0.22100 -0.11220
# Poissons Ratio (z) = 0.11864 -0.18141
#
# Static dielectric constant tensor:
#      x y z
#    x 1.667370 0.000000 0.000000 
#    y 0.000000 1.714160 0.000000 
#    z 0.000000 0.000000 1.732280 
# 
# From -- ./inp_files/26104.got.cif
#   From: 2010.05.17/outbox.cif.g08.bks.cpg/sg52_14_cif.got.tgz:26104.got - 2010.06.03 12:15:38.
