data_PCOD9408407
_publ_section_title
;
Structure prediction by ZEFSAII (Michael W. Deem and Ramdas Pophale) SiO2 
 PCOD9408407
Probable space group: P N N A
;
_chemical_formula_sum "Si O2"
_cell_formula_units_Z 60
_cell_length_a 27.547852
_cell_length_b 5.239812
_cell_length_c 18.876692
_cell_angle_alpha 90.000000
_cell_angle_beta 90.000000
_cell_angle_gamma 90.000000
_cell_volume 2724.766781
_symmetry_space_group_name_H-M "P N N A"
_symmetry_group_IT_number 52
_symmetry_cell_setting 'orthorhombic'
loop_
_space_group_symop_operation_xyz
x,y,z
1/2-x,-y,z
x,1/2-y,1/2-z
1/2-x,1/2+y,1/2-z
-x,-y,-z
1/2+x,y,-z
-x,1/2+y,1/2+z
1/2+x,1/2-y,1/2+z
loop_
_atom_site_type_symbol
_atom_site_label
_atom_site_fract_x
_atom_site_fract_y
_atom_site_fract_z
Si Si1 0.475535 0.779867 0.591384
Si Si2 0.768445 0.747147 0.670153
Si Si3 0.750000 0.500000 0.299893
Si Si4 0.935020 0.201245 0.827455
Si Si5 0.622814 0.308635 0.854517
Si Si6 0.878504 0.670354 0.020921
Si Si7 0.656878 0.834224 0.107360
Si Si8 0.558067 0.721204 0.328230
O O1 0.533324 0.771132 0.602113
O O2 0.438094 0.799502 0.526200
O O3 0.462168 0.521967 0.631833
O O4 0.458358 0.026851 0.632896
O O5 0.750000 0.500000 0.630918
O O6 0.746011 0.750000 0.750000
O O7 0.825453 0.734959 0.676010
O O8 0.750000 0.000000 0.633373
O O9 0.736705 0.250000 0.250000
O O10 0.707108 0.606873 0.351771
O O11 0.959861 0.250000 0.750000
O O12 0.893190 0.414668 0.827218
O O13 0.915489 0.914044 0.835507
O O14 0.631299 0.327632 0.938304
O O15 0.854687 0.420627 0.059629
O O16 0.856774 0.919300 0.059885
O O17 0.615812 0.808769 0.167919
O O18 0.539540 0.750000 0.250000
#
# Coordination Sequence:
#
# PCOD9408407 Si02
#       8
#     8   8   4   8   8   8   8   8
#     4  10  22  37  59  88 126 166 208 255 313 378
#     4  10  21  40  64  90 119 152 201 258 321 386
#     4  12  24  40  66 100 132 166 216 274 344 394
#     4  12  24  39  63  97 130 162 209 272 334 378
#     4  12  25  42  66  93 128 169 211 265 325 394
#     4  10  23  44  62  87 129 174 223 256 309 390
#     4  10  22  40  60  88 125 168 211 271 317 376
#     4  10  18  33  57  83 116 162 210 258 307 366
#
# _framework density 22.020233999999999
#
# number of rings (size 3 to 8) (size 9 to 14) (size 15 to 20)
#    0.000    1.333    0.000    6.000    0.000    4.267 
#    3.600    0.000    0.000    0.000    0.000    0.000 
#    0.000    0.000    0.000    0.000    0.000    0.000 
#
# Total GULP energy -334547.416531 kJ/mol
# GULP energy per Si atom -5575.790276 kJ/mol
# Density = 2.197011 g / cm^3
# Si number density = 22.020234 Si / 1000 Ang^3
#
#
#
# Elastic Constant Matrix: (Units=GPa)
#
#
# Indices 1 2 3 4 5 6 
#
# 1 76.8472 8.9431 -6.3316 0.0000 0.0000 0.0000
# 2 8.9431 170.3984 25.6893 0.0000 0.0000 0.0000
# 3 -6.3316 25.6893 89.6618 0.0000 0.0000 0.0000
# 4 0.0000 0.0000 0.0000 2.3401 0.0000 0.0000
# 5 0.0000 0.0000 0.0000 0.0000 26.6616 0.0000
# 6 0.0000 0.0000 0.0000 0.0000 0.0000 31.3764
#
#
#
# Elastic Compliance Matrix: (Units=1/GPa)
#
#
# Indices 1 2 3 4 5 6 
#
# 1 0.013212 -0.000872 0.001183 0.000000 0.000000 0.000000
# 2 -0.000872 0.006191 -0.001835 0.000000 0.000000 0.000000
# 3 0.001183 -0.001835 0.011762 0.000000 0.000000 0.000000
# 4 0.000000 0.000000 0.000000 0.427339 0.000000 0.000000
# 5 0.000000 0.000000 0.000000 0.000000 0.037507 0.000000
# 6 0.000000 0.000000 0.000000 0.000000 0.000000 0.031871
#
#
# Mechanical properties :
#
#
# Convention : Reuss Voigt Hill
#
# Bulk Modulus (GPa) = 35.56636 43.72322 39.64479
# Shear Modulus (GPa) = 9.25405 32.64938 20.95172
#
# Velocity S-wave (km/s) = 2.05223 3.85476 3.08795
# Velocity P-wave (km/s) = 4.66929 6.30169 5.54588
#
# Compressibility (1/GPa) = 0.02811645
#
# Stress axis : x y z
#
# Youngs Moduli (GPa) = 75.69036 161.52345 85.01670
#
# Poissons Ratio (x) = 0.14080 -0.10055
# Poissons Ratio (y) = 0.06598 0.15604
# Poissons Ratio (z) = -0.08952 0.29646
#
# Static dielectric constant tensor:
#      x y z
#    x 1.882850 0.000000 0.000000 
#    y 0.000000 1.805770 0.000000 
#    z 0.000000 0.000000 1.826770 
# 
# From -- ./inp_files/34497.got.cif
#   From: 2010.05.17/outbox.cif.g08.bks.cpg/sg52_18_cif.got.tgz:34497.got - 2010.06.03 12:15:38.
