data_PCOD9408811
_publ_section_title
;
Structure prediction by ZEFSAII (Michael W. Deem and Ramdas Pophale) SiO2 
 PCOD9408811
Probable space group: P N N A
;
_chemical_formula_sum "Si O2"
_cell_formula_units_Z 52
_cell_length_a 9.749429
_cell_length_b 19.671382
_cell_length_c 13.298384
_cell_angle_alpha 90.000000
_cell_angle_beta 90.000000
_cell_angle_gamma 90.000000
_cell_volume 2550.427146
_symmetry_space_group_name_H-M "P N N A"
_symmetry_group_IT_number 52
_symmetry_cell_setting 'orthorhombic'
loop_
_space_group_symop_operation_xyz
x,y,z
1/2-x,-y,z
x,1/2-y,1/2-z
1/2-x,1/2+y,1/2-z
-x,-y,-z
1/2+x,y,-z
-x,1/2+y,1/2+z
1/2+x,1/2-y,1/2+z
loop_
_atom_site_type_symbol
_atom_site_label
_atom_site_fract_x
_atom_site_fract_y
_atom_site_fract_z
Si Si1 0.250000 0.000000 0.852760
Si Si2 0.464916 0.394130 0.703308
Si Si3 0.231008 0.250000 0.250000
Si Si4 0.680356 0.750000 0.250000
Si Si5 0.878130 0.315977 0.579573
Si Si6 0.796743 0.184769 0.452404
Si Si7 0.590237 0.356424 0.888741
Si Si8 0.376253 0.894876 0.994995
O O1 0.337275 0.054778 0.790807
O O2 0.146277 0.040385 0.925457
O O3 0.406190 0.316211 0.710336
O O4 0.576259 0.405063 0.792103
O O5 0.540949 0.404256 0.597981
O O6 0.325993 0.304106 0.307245
O O7 0.138660 0.286015 0.165377
O O8 0.755887 0.781276 0.347936
O O9 0.853372 0.245653 0.521763
O O10 0.773361 0.367767 0.525779
O O11 0.032475 0.340944 0.566722
O O12 0.690297 0.140281 0.516287
O O13 0.934336 0.145047 0.425148
#
# Coordination Sequence:
#
# PCOD9408811 Si02
#       8
#     4   8   4   4   8   8   8   8
#     4  12  26  42  64 102 140 184 232 272 346 416
#     4  11  22  39  63  90 133 179 222 277 341 408
#     4  10  19  34  59  92 141 180 219 278 339 400
#     4  10  19  38  65  94 123 174 225 276 343 386
#     4  11  21  35  60  95 138 179 222 266 339 399
#     4  10  19  32  59  91 128 167 214 275 331 398
#     4  10  20  36  58  87 126 172 221 270 339 392
#     4  12  22  39  62  95 134 182 227 274 332 413
#
# _framework density 20.388742000000001
#
# number of rings (size 3 to 8) (size 9 to 14) (size 15 to 20)
#    0.000    1.231    4.615    4.154    2.154    0.000 
#    0.000   16.923    0.000    3.692    0.000    1.077 
#    0.000    0.000    0.000    0.000    0.000    0.000 
#
# Total GULP energy -289915.826121 kJ/mol
# GULP energy per Si atom -5575.304348 kJ/mol
# Density = 2.034234 g / cm^3
# Si number density = 20.388742 Si / 1000 Ang^3
#
#
#
# Elastic Constant Matrix: (Units=GPa)
#
#
# Indices 1 2 3 4 5 6 
#
# 1 68.9174 13.7713 63.0465 0.0000 0.0000 0.0000
# 2 13.7713 47.0156 18.5518 0.0000 0.0000 0.0000
# 3 63.0465 18.5518 96.0725 0.0000 0.0000 0.0000
# 4 0.0000 0.0000 0.0000 19.0803 0.0000 0.0000
# 5 0.0000 0.0000 0.0000 0.0000 26.9695 0.0000
# 6 0.0000 0.0000 0.0000 0.0000 0.0000 7.6680
#
#
#
# Elastic Compliance Matrix: (Units=1/GPa)
#
#
# Indices 1 2 3 4 5 6 
#
# 1 0.036383 -0.001338 -0.023618 0.000000 0.000000 0.000000
# 2 -0.001338 0.023073 -0.003578 0.000000 0.000000 0.000000
# 3 -0.023618 -0.003578 0.026599 0.000000 0.000000 0.000000
# 4 0.000000 0.000000 0.000000 0.052410 0.000000 0.000000
# 5 0.000000 0.000000 0.000000 0.000000 0.037079 0.000000
# 6 0.000000 0.000000 0.000000 0.000000 0.000000 0.130412
#
#
# Mechanical properties :
#
#
# Convention : Reuss Voigt Hill
#
# Bulk Modulus (GPa) = 34.49625 44.74941 39.62283
# Shear Modulus (GPa) = 13.41615 18.51928 15.96772
#
# Velocity S-wave (km/s) = 2.56797 3.01709 2.80154
# Velocity P-wave (km/s) = 5.07431 5.84233 5.47181
#
# Compressibility (1/GPa) = 0.02898866
#
# Stress axis : x y z
#
# Youngs Moduli (GPa) = 27.48518 43.34064 37.59605
#
# Poissons Ratio (x) = 0.05798 0.88793
# Poissons Ratio (y) = 0.03677 0.13450
# Poissons Ratio (z) = 0.64914 0.15506
#
# Static dielectric constant tensor:
#      x y z
#    x 1.768280 0.000000 0.000000 
#    y 0.000000 1.727640 0.000000 
#    z 0.000000 0.000000 1.813860 
# 
# From -- ./inp_files/24934.got.cif
#   From: 2010.05.17/outbox.cif.g08.bks.cpg/sg52_13_cif.got.tgz:24934.got - 2010.06.03 12:15:38.
