data_PCOD9408428
_publ_section_title
;
Structure prediction by ZEFSAII (Michael W. Deem and Ramdas Pophale) SiO2 
 PCOD9408428
Probable space group: P N N A
;
_chemical_formula_sum "Si O2"
_cell_formula_units_Z 48
_cell_length_a 11.138146
_cell_length_b 9.484962
_cell_length_c 24.541078
_cell_angle_alpha 90.000000
_cell_angle_beta 90.000000
_cell_angle_gamma 90.000000
_cell_volume 2592.639524
_symmetry_space_group_name_H-M "P N N A"
_symmetry_group_IT_number 52
_symmetry_cell_setting 'orthorhombic'
loop_
_space_group_symop_operation_xyz
x,y,z
1/2-x,-y,z
x,1/2-y,1/2-z
1/2-x,1/2+y,1/2-z
-x,-y,-z
1/2+x,y,-z
-x,1/2+y,1/2+z
1/2+x,1/2-y,1/2+z
loop_
_atom_site_type_symbol
_atom_site_label
_atom_site_fract_x
_atom_site_fract_y
_atom_site_fract_z
Si Si1 0.507884 0.008769 0.156471
Si Si2 0.386964 0.992028 0.540540
Si Si3 0.983757 0.047680 0.715220
Si Si4 0.651071 0.224975 0.362174
Si Si5 0.223526 0.750000 0.250000
Si Si6 0.750000 0.000000 0.825583
Si Si7 0.427512 0.305944 0.859816
O O1 0.369406 0.048693 0.143864
O O2 0.525130 0.850914 0.137161
O O3 0.517989 0.019784 0.222242
O O4 0.604649 0.116246 0.132798
O O5 0.415140 0.118988 0.582150
O O6 0.250000 0.000000 0.516727
O O7 0.500000 0.000000 0.500000
O O8 0.377187 0.858008 0.581671
O O9 0.861442 0.139707 0.716979
O O10 0.075122 0.150172 0.684878
O O11 0.993804 0.903463 0.680743
O O12 0.787871 0.206995 0.343251
O O13 0.288022 0.862560 0.210740
#
# Coordination Sequence:
#
# PCOD9408428 Si02
#       7
#     8   8   8   8   4   4   8
#     4  11  21  35  51  83 118 154 192 224 277 337
#     4   9  20  42  64  85 111 143 186 241 300 351
#     4  10  18  34  50  81 115 155 192 217 272 329
#     4  10  19  37  57  82 117 147 179 240 283 331
#     4  10  20  34  50  68 112 166 202 232 272 312
#     4  10  22  34  50  68 116 162 202 234 268 308
#     4  10  22  33  58  86 114 144 188 232 285 340
#
# _framework density 18.513952
#
# number of rings (size 3 to 8) (size 9 to 14) (size 15 to 20)
#    0.000    2.000    3.333    2.500    4.667    4.000 
#    3.000    0.833    1.833    0.000    0.000    0.000 
#    0.000    0.000    0.000    0.000    0.000    0.000 
#
# Total GULP energy -267321.961935 kJ/mol
# GULP energy per Si atom -5569.207540 kJ/mol
# Density = 1.847181 g / cm^3
# Si number density = 18.513952 Si / 1000 Ang^3
#
#
#
# Elastic Constant Matrix: (Units=GPa)
#
#
# Indices 1 2 3 4 5 6 
#
# 1 83.5178 20.8473 34.6603 0.0000 0.0000 0.0000
# 2 20.8473 136.0301 15.5026 0.0000 0.0000 0.0000
# 3 34.6603 15.5026 34.1187 0.0000 0.0000 0.0000
# 4 0.0000 0.0000 0.0000 1.3870 0.0000 0.0000
# 5 0.0000 0.0000 0.0000 0.0000 26.3262 0.0000
# 6 0.0000 0.0000 0.0000 0.0000 0.0000 25.4935
#
#
#
# Elastic Compliance Matrix: (Units=1/GPa)
#
#
# Indices 1 2 3 4 5 6 
#
# 1 0.020787 -0.000822 -0.020744 0.000000 0.000000 0.000000
# 2 -0.000822 0.007785 -0.002703 0.000000 0.000000 0.000000
# 3 -0.020744 -0.002703 0.051611 0.000000 0.000000 0.000000
# 4 0.000000 0.000000 0.000000 0.720974 0.000000 0.000000
# 5 0.000000 0.000000 0.000000 0.000000 0.037985 0.000000
# 6 0.000000 0.000000 0.000000 0.000000 0.000000 0.039226
#
#
# Mechanical properties :
#
#
# Convention : Reuss Voigt Hill
#
# Bulk Modulus (GPa) = 31.59894 43.96520 37.78207
# Shear Modulus (GPa) = 5.33359 22.81844 14.07601
#
# Velocity S-wave (km/s) = 1.69915 3.51451 2.76033
# Velocity P-wave (km/s) = 4.57757 6.34568 5.53271
#
# Compressibility (1/GPa) = 0.03164663
#
# Stress axis : x y z
#
# Youngs Moduli (GPa) = 48.10591 128.44806 19.37583
#
# Poissons Ratio (x) = 0.10555 0.40193
# Poissons Ratio (y) = 0.03953 0.05237
# Poissons Ratio (z) = 0.99791 0.34715
#
# Static dielectric constant tensor:
#      x y z
#    x 1.711750 0.000000 0.000000 
#    y 0.000000 1.679390 0.000000 
#    z 0.000000 0.000000 1.621590 
# 
# From -- ./inp_files/40198.got.cif
#   From: 2010.05.17/outbox.cif.g08.bks.cpg/sg52_21_cif.got.tgz:40198.got - 2010.06.03 12:15:38.
