data_PCOD9408454
_publ_section_title
;
Structure prediction by ZEFSAII (Michael W. Deem and Ramdas Pophale) SiO2 
 PCOD9408454
Probable space group: P N N A
;
_chemical_formula_sum "Si O2"
_cell_formula_units_Z 40
_cell_length_a 14.238647
_cell_length_b 7.524018
_cell_length_c 15.595366
_cell_angle_alpha 90.000000
_cell_angle_beta 90.000000
_cell_angle_gamma 90.000000
_cell_volume 1670.760198
_symmetry_space_group_name_H-M "P N N A"
_symmetry_group_IT_number 52
_symmetry_cell_setting 'orthorhombic'
loop_
_space_group_symop_operation_xyz
x,y,z
1/2-x,-y,z
x,1/2-y,1/2-z
1/2-x,1/2+y,1/2-z
-x,-y,-z
1/2+x,y,-z
-x,1/2+y,1/2+z
1/2+x,1/2-y,1/2+z
loop_
_atom_site_type_symbol
_atom_site_label
_atom_site_fract_x
_atom_site_fract_y
_atom_site_fract_z
Si Si1 0.166876 0.139409 0.164783
Si Si2 0.971680 0.288618 0.517551
Si Si3 0.960272 0.350954 0.337440
Si Si4 0.367365 0.787687 0.851555
Si Si5 0.257256 0.287573 0.498196
O O1 0.174479 0.250000 0.250000
O O2 0.062927 0.056478 0.168765
O O3 0.250000 0.000000 0.166251
O O4 0.184161 0.253557 0.078247
O O5 0.973936 0.221962 0.418734
O O6 0.042216 0.225332 0.591282
O O7 0.000000 0.500000 0.500000
O O8 0.862036 0.254617 0.535378
O O9 0.941664 0.250000 0.250000
O O10 0.881252 0.497722 0.353118
O O11 0.365577 0.750000 0.750000
O O12 0.279659 0.721741 0.909488
O O13 0.250000 0.000000 0.993533
#
# Coordination Sequence:
#
# PCOD9408454 Si02
#       5
#     8   8   8   8   8
#     4  10  20  34  60  86 116 149 195 245 298 352
#     4  10  18  34  58  83 113 153 195 236 293 351
#     4  10  20  36  58  84 115 154 192 240 304 356
#     4  11  22  38  61  91 118 155 208 246 293 363
#     4  11  18  34  61  85 115 153 201 243 286 359
#
# _framework density 23.941198
#
# number of rings (size 3 to 8) (size 9 to 14) (size 15 to 20)
#    0.000    1.600    6.000    3.600    0.000    4.000 
#    0.000    1.000    4.400    0.000    0.000    0.000 
#    0.000    0.000    0.000    0.000    0.000    0.000 
#
# Total GULP energy -222840.607453 kJ/mol
# GULP energy per Si atom -5571.015186 kJ/mol
# Density = 2.388671 g / cm^3
# Si number density = 23.941198 Si / 1000 Ang^3
#
#
#
# Elastic Constant Matrix: (Units=GPa)
#
#
# Indices 1 2 3 4 5 6 
#
# 1 102.0655 14.8265 33.8637 0.0000 0.0000 0.0000
# 2 14.8265 22.9887 15.9216 0.0000 0.0000 0.0000
# 3 33.8637 15.9216 224.9906 0.0000 0.0000 0.0000
# 4 0.0000 0.0000 0.0000 28.1865 0.0000 0.0000
# 5 0.0000 0.0000 0.0000 0.0000 36.6002 0.0000
# 6 0.0000 0.0000 0.0000 0.0000 0.0000 6.1382
#
#
#
# Elastic Compliance Matrix: (Units=1/GPa)
#
#
# Indices 1 2 3 4 5 6 
#
# 1 0.011123 -0.006324 -0.001227 0.000000 0.000000 0.000000
# 2 -0.006324 0.049337 -0.002539 0.000000 0.000000 0.000000
# 3 -0.001227 -0.002539 0.004809 0.000000 0.000000 0.000000
# 4 0.000000 0.000000 0.000000 0.035478 0.000000 0.000000
# 5 0.000000 0.000000 0.000000 0.000000 0.027322 0.000000
# 6 0.000000 0.000000 0.000000 0.000000 0.000000 0.162914
#
#
# Mechanical properties :
#
#
# Convention : Reuss Voigt Hill
#
# Bulk Modulus (GPa) = 22.17861 53.25205 37.71533
# Shear Modulus (GPa) = 15.32828 33.21385 24.27107
#
# Velocity S-wave (km/s) = 2.53306 3.72870 3.18744
# Velocity P-wave (km/s) = 4.22363 6.38974 5.41608
#
# Compressibility (1/GPa) = 0.04508849
#
# Stress axis : x y z
#
# Youngs Moduli (GPa) = 89.90125 20.26867 207.94498
#
# Poissons Ratio (x) = 0.12819 0.25507
# Poissons Ratio (y) = 0.56857 0.52808
# Poissons Ratio (z) = 0.11028 0.05147
#
# Static dielectric constant tensor:
#      x y z
#    x 2.040660 0.000000 0.000000 
#    y 0.000000 1.997730 0.000000 
#    z 0.000000 0.000000 2.070070 
# 
# From -- ./inp_files/25828.got.cif
#   From: 2010.05.17/outbox.cif.g08.bks.cpg/sg52_13_cif.got.tgz:25828.got - 2010.06.03 12:15:38.
