data_PCOD9408365
_publ_section_title
;
Structure prediction by ZEFSAII (Michael W. Deem and Ramdas Pophale) SiO2 
 PCOD9408365
Probable space group: P N N A
;
_chemical_formula_sum "Si O2"
_cell_formula_units_Z 64
_cell_length_a 23.923748
_cell_length_b 14.290010
_cell_length_c 8.401337
_cell_angle_alpha 90.000000
_cell_angle_beta 90.000000
_cell_angle_gamma 90.000000
_cell_volume 2872.170106
_symmetry_space_group_name_H-M "P N N A"
_symmetry_group_IT_number 52
_symmetry_cell_setting 'orthorhombic'
loop_
_space_group_symop_operation_xyz
x,y,z
1/2-x,-y,z
x,1/2-y,1/2-z
1/2-x,1/2+y,1/2-z
-x,-y,-z
1/2+x,y,-z
-x,1/2+y,1/2+z
1/2+x,1/2-y,1/2+z
loop_
_atom_site_type_symbol
_atom_site_label
_atom_site_fract_x
_atom_site_fract_y
_atom_site_fract_z
Si Si1 0.197931 0.302896 0.017940
Si Si2 0.585613 0.347635 0.833088
Si Si3 0.799271 0.878125 0.155823
Si Si4 0.085203 0.950146 0.231547
Si Si5 0.321838 0.140649 0.427173
Si Si6 0.500716 0.816026 0.594565
Si Si7 0.672712 0.922017 0.221561
Si Si8 0.905594 0.197643 0.035731
O O1 0.185657 0.193767 0.982541
O O2 0.194288 0.341908 0.837092
O O3 0.150810 0.346000 0.126131
O O4 0.258558 0.324647 0.090525
O O5 0.571489 0.250000 0.750000
O O6 0.573941 0.440199 0.731713
O O7 0.553259 0.350660 0.001741
O O8 0.731893 0.889952 0.147074
O O9 0.833323 0.974456 0.151823
O O10 0.146751 0.922006 0.297612
O O11 0.039846 0.900667 0.346815
O O12 0.081233 0.893654 0.069062
O O13 0.320995 0.079307 0.588911
O O14 0.360141 0.233257 0.453147
O O15 0.490013 0.750000 0.750000
O O16 0.538160 0.757328 0.468446
O O17 0.624393 0.847535 0.186720
#
# Coordination Sequence:
#
# PCOD9408365 Si02
#       8
#     8   8   8   8   8   8   8   8
#     4  10  21  38  56  85 130 169 204 243 301 370
#     4  12  27  42  60  91 129 163 206 260 318 381
#     4   9  19  34  56  88 127 168 199 248 300 370
#     4  10  23  43  65  89 121 163 203 255 321 379
#     4  10  19  38  63  93 121 165 214 251 297 373
#     4   9  22  46  69  87 112 162 213 259 315 378
#     4  10  18  32  61  94 124 154 208 256 305 351
#     4  10  20  38  67  93 122 150 209 270 315 358
#
# _framework density 22.282802
#
# number of rings (size 3 to 8) (size 9 to 14) (size 15 to 20)
#    0.000    2.000    1.250    2.625    3.500    4.500 
#    0.000    3.750    0.000    0.000    0.000    0.000 
#    0.000    0.000    0.000    0.000    0.000    0.000 
#
# Total GULP energy -357462.549478 kJ/mol
# GULP energy per Si atom -5585.352336 kJ/mol
# Density = 2.223209 g / cm^3
# Si number density = 22.282802 Si / 1000 Ang^3
#
#
#
# Elastic Constant Matrix: (Units=GPa)
#
#
# Indices 1 2 3 4 5 6 
#
# 1 66.8731 11.7441 8.6451 0.0000 0.0000 0.0000
# 2 11.7441 135.5665 6.9368 0.0000 0.0000 0.0000
# 3 8.6451 6.9368 18.4203 0.0000 0.0000 0.0000
# 4 0.0000 0.0000 0.0000 25.9109 0.0000 0.0000
# 5 0.0000 0.0000 0.0000 0.0000 68.8986 0.0000
# 6 0.0000 0.0000 0.0000 0.0000 0.0000 0.4579
#
#
#
# Elastic Compliance Matrix: (Units=1/GPa)
#
#
# Indices 1 2 3 4 5 6 
#
# 1 0.016058 -0.001025 -0.007150 0.000000 0.000000 0.000000
# 2 -0.001025 0.007587 -0.002376 0.000000 0.000000 0.000000
# 3 -0.007150 -0.002376 0.058538 0.000000 0.000000 0.000000
# 4 0.000000 0.000000 0.000000 0.038594 0.000000 0.000000
# 5 0.000000 0.000000 0.000000 0.000000 0.014514 0.000000
# 6 0.000000 0.000000 0.000000 0.000000 0.000000 2.183741
#
#
# Mechanical properties :
#
#
# Convention : Reuss Voigt Hill
#
# Bulk Modulus (GPa) = 16.37187 30.61242 23.49214
# Shear Modulus (GPa) = 2.11820 31.95574 17.03697
#
# Velocity S-wave (km/s) = 0.97604 3.79106 2.76810
# Velocity P-wave (km/s) = 2.93828 5.73854 4.55874
#
# Compressibility (1/GPa) = 0.06108038
#
# Stress axis : x y z
#
# Youngs Moduli (GPa) = 62.27376 131.80710 17.08280
#
# Poissons Ratio (x) = 0.13513 0.12215
# Poissons Ratio (y) = 0.06385 0.04059
# Poissons Ratio (z) = 0.44528 0.31316
#
# Static dielectric constant tensor:
#      x y z
#    x 1.796700 0.000000 0.000000 
#    y 0.000000 1.876280 0.000000 
#    z 0.000000 0.000000 1.838070 
# 
# From -- ./inp_files/14505.got.cif
#   From: 2010.05.17/outbox.cif.g08.bks.cpg/sg52_8_cif.got.tgz:14505.got - 2010.06.03 12:15:38.
