data_PCOD9408621
_publ_section_title
;
Structure prediction by ZEFSAII (Michael W. Deem and Ramdas Pophale) SiO2 
 PCOD9408621
Probable space group: P N N A
;
_chemical_formula_sum "Si O2"
_cell_formula_units_Z 64
_cell_length_a 14.139762
_cell_length_b 9.323777
_cell_length_c 24.712601
_cell_angle_alpha 90.000000
_cell_angle_beta 90.000000
_cell_angle_gamma 90.000000
_cell_volume 3258.010162
_symmetry_space_group_name_H-M "P N N A"
_symmetry_group_IT_number 52
_symmetry_cell_setting 'orthorhombic'
loop_
_space_group_symop_operation_xyz
x,y,z
1/2-x,-y,z
x,1/2-y,1/2-z
1/2-x,1/2+y,1/2-z
-x,-y,-z
1/2+x,y,-z
-x,1/2+y,1/2+z
1/2+x,1/2-y,1/2+z
loop_
_atom_site_type_symbol
_atom_site_label
_atom_site_fract_x
_atom_site_fract_y
_atom_site_fract_z
Si Si1 0.155693 0.852104 0.889090
Si Si2 0.140489 0.957880 0.329695
Si Si3 0.045939 0.255271 0.355636
Si Si4 0.964091 0.486449 0.722939
Si Si5 0.161820 0.583611 0.736140
Si Si6 0.355732 0.941364 0.056811
Si Si7 0.145113 0.334736 0.561968
Si Si8 0.457090 0.198696 0.113426
O O1 0.174334 0.905940 0.828410
O O2 0.250504 0.788895 0.916721
O O3 0.058693 0.763593 0.882460
O O4 0.134832 0.997987 0.921083
O O5 0.111639 0.827899 0.369336
O O6 0.250000 0.000000 0.333401
O O7 0.078197 0.095892 0.344881
O O8 0.111043 0.932773 0.266752
O O9 0.049424 0.353404 0.301511
O O10 0.118722 0.334487 0.395069
O O11 0.969072 0.388617 0.669595
O O12 0.067452 0.496281 0.749541
O O13 0.250000 0.500000 0.760767
O O14 0.154904 0.750000 0.750000
O O15 0.250000 0.000000 0.058058
O O16 0.417846 0.084779 0.068971
O O17 0.366802 0.849180 0.002192
O O18 0.059482 0.253419 0.591347
#
# Coordination Sequence:
#
# PCOD9408621 Si02
#       8
#     8   8   8   8   8   8   8   8
#     4  10  18  38  61  89 126 153 199 258 300 341
#     4  12  26  43  60  85 128 167 192 252 322 368
#     4  10  22  40  61  90 126 161 206 250 307 371
#     4  10  21  40  62  87 117 162 215 253 293 358
#     4  11  20  34  56  89 126 166 198 247 302 363
#     4  11  21  35  65  95 114 158 213 259 296 354
#     4  11  19  37  66  93 118 153 203 264 303 343
#     4  11  23  39  62  93 122 156 212 257 299 369
#
# _framework density 19.643891
#
# number of rings (size 3 to 8) (size 9 to 14) (size 15 to 20)
#    0.000    1.250    6.250    3.375    0.000    6.000 
#    0.000    1.250    0.000    1.500    0.000    0.000 
#    0.000    0.000    0.000    0.000    0.000    0.000 
#
# Total GULP energy -356898.469540 kJ/mol
# GULP energy per Si atom -5576.538587 kJ/mol
# Density = 1.959918 g / cm^3
# Si number density = 19.643891 Si / 1000 Ang^3
#
#
#
# Elastic Constant Matrix: (Units=GPa)
#
#
# Indices 1 2 3 4 5 6 
#
# 1 99.3046 24.6737 20.6083 0.0000 0.0000 0.0000
# 2 24.6737 44.1201 -1.0363 0.0000 0.0000 0.0000
# 3 20.6083 -1.0363 60.8166 0.0000 0.0000 0.0000
# 4 0.0000 0.0000 0.0000 10.1354 0.0000 0.0000
# 5 0.0000 0.0000 0.0000 0.0000 17.5426 0.0000
# 6 0.0000 0.0000 0.0000 0.0000 0.0000 25.9812
#
#
#
# Elastic Compliance Matrix: (Units=1/GPa)
#
#
# Indices 1 2 3 4 5 6 
#
# 1 0.012801 -0.007263 -0.004461 0.000000 0.000000 0.000000
# 2 -0.007263 0.026796 0.002918 0.000000 0.000000 0.000000
# 3 -0.004461 0.002918 0.018004 0.000000 0.000000 0.000000
# 4 0.000000 0.000000 0.000000 0.098664 0.000000 0.000000
# 5 0.000000 0.000000 0.000000 0.000000 0.057004 0.000000
# 6 0.000000 0.000000 0.000000 0.000000 0.000000 0.038489
#
#
# Mechanical properties :
#
#
# Convention : Reuss Voigt Hill
#
# Bulk Modulus (GPa) = 25.00808 32.52587 28.76698
# Shear Modulus (GPa) = 17.68652 21.39821 19.54236
#
# Velocity S-wave (km/s) = 3.00385 3.30404 3.15752
# Velocity P-wave (km/s) = 4.97887 5.58116 5.28860
#
# Compressibility (1/GPa) = 0.03998707
#
# Stress axis : x y z
#
# Youngs Moduli (GPa) = 78.12146 37.31911 55.54207
#
# Poissons Ratio (x) = 0.27106 0.24779
# Poissons Ratio (y) = 0.56743 -0.16206
# Poissons Ratio (z) = 0.34853 -0.10889
#
# Static dielectric constant tensor:
#      x y z
#    x 1.762350 0.000000 0.000000 
#    y 0.000000 1.663600 0.000000 
#    z 0.000000 0.000000 1.562390 
# 
# From -- ./inp_files/40702.got.cif
#   From: 2010.05.17/outbox.cif.g08.bks.cpg/sg52_21_cif.got.tgz:40702.got - 2010.06.03 12:15:38.
