data_PCOD9408687
_publ_section_title
;
Structure prediction by ZEFSAII (Michael W. Deem and Ramdas Pophale) SiO2 
 PCOD9408687
Probable space group: P N N A
;
_chemical_formula_sum "Si O2"
_cell_formula_units_Z 48
_cell_length_a 9.120077
_cell_length_b 9.470614
_cell_length_c 24.394588
_cell_angle_alpha 90.000000
_cell_angle_beta 90.000000
_cell_angle_gamma 90.000000
_cell_volume 2107.027136
_symmetry_space_group_name_H-M "P N N A"
_symmetry_group_IT_number 52
_symmetry_cell_setting 'orthorhombic'
loop_
_space_group_symop_operation_xyz
x,y,z
1/2-x,-y,z
x,1/2-y,1/2-z
1/2-x,1/2+y,1/2-z
-x,-y,-z
1/2+x,y,-z
-x,1/2+y,1/2+z
1/2+x,1/2-y,1/2+z
loop_
_atom_site_type_symbol
_atom_site_label
_atom_site_fract_x
_atom_site_fract_y
_atom_site_fract_z
Si Si1 0.456406 0.729510 0.396551
Si Si2 0.563791 0.102170 0.285320
Si Si3 0.031719 0.042203 0.826276
Si Si4 0.709294 0.229204 0.385726
Si Si5 0.125196 0.114818 0.989683
Si Si6 0.275164 0.277740 0.189804
O O1 0.488045 0.581587 0.366362
O O2 0.620540 0.792290 0.400891
O O3 0.374170 0.700210 0.453462
O O4 0.344546 0.803846 0.355646
O O5 0.586497 0.250000 0.250000
O O6 0.576044 0.993105 0.235323
O O7 0.652719 0.114888 0.341377
O O8 0.394916 0.100751 0.302990
O O9 0.885216 0.143973 0.824024
O O10 0.165853 0.130219 0.851672
O O11 0.622334 0.267675 0.441743
O O12 0.250000 0.000000 0.976392
O O13 0.000000 0.000000 0.000000
O O14 0.209747 0.250000 0.250000
#
# Coordination Sequence:
#
# PCOD9408687 Si02
#       6
#     8   8   8   8   8   8
#     4  12  20  27  47  67  92 119 161 191 221 263
#     4   7  16  31  45  54  84 122 157 184 227 267
#     4   9  16  31  44  60  82 121 157 187 224 266
#     4  10  19  30  39  62  87 121 153 183 220 270
#     4  12  21  30  40  64  95 122 151 188 222 268
#     4   8  17  29  42  61  84 116 150 189 232 268
#
# _framework density 22.780912000000001
#
# number of rings (size 3 to 8) (size 9 to 14) (size 15 to 20)
#    0.000    3.000    3.333    2.000    2.333    2.000 
#    0.000    0.000    0.000    0.000    0.000    0.000 
#    0.000    1.333    0.000   26.833    0.000   73.333 
#
# Total GULP energy -267220.831468 kJ/mol
# GULP energy per Si atom -5567.100656 kJ/mol
# Density = 2.272906 g / cm^3
# Si number density = 22.780912 Si / 1000 Ang^3
#
#
#
# Elastic Constant Matrix: (Units=GPa)
#
#
# Indices 1 2 3 4 5 6 
#
# 1 62.9244 7.1533 32.4199 0.0000 0.0000 0.0000
# 2 7.1533 30.3843 29.4646 0.0000 0.0000 0.0000
# 3 32.4199 29.4646 204.7053 0.0000 0.0000 0.0000
# 4 0.0000 0.0000 0.0000 15.8830 0.0000 0.0000
# 5 0.0000 0.0000 0.0000 0.0000 31.6082 0.0000
# 6 0.0000 0.0000 0.0000 0.0000 0.0000 15.0757
#
#
#
# Elastic Compliance Matrix: (Units=1/GPa)
#
#
# Indices 1 2 3 4 5 6 
#
# 1 0.017375 -0.001653 -0.002514 0.000000 0.000000 0.000000
# 2 -0.001653 0.038408 -0.005267 0.000000 0.000000 0.000000
# 3 -0.002514 -0.005267 0.006041 0.000000 0.000000 0.000000
# 4 0.000000 0.000000 0.000000 0.062961 0.000000 0.000000
# 5 0.000000 0.000000 0.000000 0.000000 0.031637 0.000000
# 6 0.000000 0.000000 0.000000 0.000000 0.000000 0.066332
#
#
# Mechanical properties :
#
#
# Convention : Reuss Voigt Hill
#
# Bulk Modulus (GPa) = 23.27859 48.45441 35.86650
# Shear Modulus (GPa) = 19.53583 27.77846 23.65714
#
# Velocity S-wave (km/s) = 2.93158 3.49574 3.22602
# Velocity P-wave (km/s) = 4.65827 6.13266 5.44560
#
# Compressibility (1/GPa) = 0.04295793
#
# Stress axis : x y z
#
# Youngs Moduli (GPa) = 57.55337 26.03627 165.52863
#
# Poissons Ratio (x) = 0.04303 0.41612
# Poissons Ratio (y) = 0.09512 0.87177
# Poissons Ratio (z) = 0.14468 0.13712
#
# Static dielectric constant tensor:
#      x y z
#    x 1.893910 0.000000 0.000000 
#    y 0.000000 1.960530 0.000000 
#    z 0.000000 0.000000 1.913380 
# 
# From -- ./inp_files/39552.got.cif
#   From: 2010.05.17/outbox.cif.g08.bks.cpg/sg52_20_cif.got.tgz:39552.got - 2010.06.03 12:15:38.
