data_PCOD9408536
_publ_section_title
;
Structure prediction by ZEFSAII (Michael W. Deem and Ramdas Pophale) SiO2 
 PCOD9408536
Probable space group: P N N A
;
_chemical_formula_sum "Si O2"
_cell_formula_units_Z 56
_cell_length_a 20.828929
_cell_length_b 8.214213
_cell_length_c 16.922184
_cell_angle_alpha 90.000000
_cell_angle_beta 90.000000
_cell_angle_gamma 90.000000
_cell_volume 2895.271616
_symmetry_space_group_name_H-M "P N N A"
_symmetry_group_IT_number 52
_symmetry_cell_setting 'orthorhombic'
loop_
_space_group_symop_operation_xyz
x,y,z
1/2-x,-y,z
x,1/2-y,1/2-z
1/2-x,1/2+y,1/2-z
-x,-y,-z
1/2+x,y,-z
-x,1/2+y,1/2+z
1/2+x,1/2-y,1/2+z
loop_
_atom_site_type_symbol
_atom_site_label
_atom_site_fract_x
_atom_site_fract_y
_atom_site_fract_z
Si Si1 0.428663 0.359318 0.499853
Si Si2 0.479685 0.892666 0.424160
Si Si3 0.026047 0.789058 0.333135
Si Si4 0.594805 0.373106 0.388203
Si Si5 0.305454 0.121284 0.814762
Si Si6 0.792531 0.275601 0.020103
Si Si7 0.842525 0.857691 0.505515
O O1 0.467747 0.250410 0.565354
O O2 0.445033 0.293109 0.412617
O O3 0.437434 0.540668 0.534346
O O4 0.351290 0.340375 0.498500
O O5 0.404462 0.847558 0.437127
O O6 0.500000 0.000000 0.500000
O O7 0.482605 0.018903 0.351452
O O8 0.059758 0.750000 0.250000
O O9 0.958106 0.698479 0.331345
O O10 0.637761 0.506273 0.345376
O O11 0.634054 0.224254 0.424634
O O12 0.326580 0.250000 0.750000
O O13 0.279212 0.224420 0.889547
O O14 0.250000 0.000000 0.785143
O O15 0.822584 0.455565 0.009882
O O16 0.725058 0.270400 0.973664
#
# Coordination Sequence:
#
# PCOD9408536 Si02
#       7
#     8   8   8   8   8   8   8
#     4  10  20  38  61  84 115 152 205 254 292 357
#     4  10  18  36  57  85 113 153 198 245 294 364
#     4  11  22  36  57  88 118 156 194 250 314 360
#     4  11  22  37  60  85 116 155 208 245 294 358
#     4  11  25  38  51  82 124 162 195 245 305 358
#     4  10  21  36  58  85 108 153 206 245 288 361
#     4  11  19  34  61  87 107 147 207 247 290 352
#
# _framework density 19.341881000000001
#
# number of rings (size 3 to 8) (size 9 to 14) (size 15 to 20)
#    0.000    1.429    7.143    0.429    2.000    4.000 
#    0.000    0.000    0.000    0.000    7.429    0.000 
#    0.000    0.000    0.000    0.000    0.000    0.000 
#
# Total GULP energy -311741.107424 kJ/mol
# GULP energy per Si atom -5566.805490 kJ/mol
# Density = 1.929786 g / cm^3
# Si number density = 19.341881 Si / 1000 Ang^3
#
#
#
# Elastic Constant Matrix: (Units=GPa)
#
#
# Indices 1 2 3 4 5 6 
#
# 1 86.8146 9.1129 10.0747 0.0000 0.0000 0.0000
# 2 9.1129 41.8635 14.7227 0.0000 0.0000 0.0000
# 3 10.0747 14.7227 69.2631 0.0000 0.0000 0.0000
# 4 0.0000 0.0000 0.0000 28.0400 0.0000 0.0000
# 5 0.0000 0.0000 0.0000 0.0000 7.6994 0.0000
# 6 0.0000 0.0000 0.0000 0.0000 0.0000 25.6608
#
#
#
# Elastic Compliance Matrix: (Units=1/GPa)
#
#
# Indices 1 2 3 4 5 6 
#
# 1 0.011891 -0.002140 -0.001275 0.000000 0.000000 0.000000
# 2 -0.002140 0.026202 -0.005258 0.000000 0.000000 0.000000
# 3 -0.001275 -0.005258 0.015741 0.000000 0.000000 0.000000
# 4 0.000000 0.000000 0.000000 0.035663 0.000000 0.000000
# 5 0.000000 0.000000 0.000000 0.000000 0.129880 0.000000
# 6 0.000000 0.000000 0.000000 0.000000 0.000000 0.038970
#
#
# Mechanical properties :
#
#
# Convention : Reuss Voigt Hill
#
# Bulk Modulus (GPa) = 27.40628 29.52909 28.46768
# Shear Modulus (GPa) = 17.36973 23.21545 20.29259
#
# Velocity S-wave (km/s) = 2.99998 3.46825 3.24258
# Velocity P-wave (km/s) = 5.11859 5.59807 5.36369
#
# Compressibility (1/GPa) = 0.03648798
#
# Stress axis : x y z
#
# Youngs Moduli (GPa) = 84.09447 38.16459 63.52899
#
# Poissons Ratio (x) = 0.08168 0.08098
# Poissons Ratio (y) = 0.17998 0.33406
# Poissons Ratio (z) = 0.10720 0.20068
#
# Static dielectric constant tensor:
#      x y z
#    x 1.768220 0.000000 0.000000 
#    y 0.000000 1.720220 0.000000 
#    z 0.000000 0.000000 1.681930 
# 
# From -- ./inp_files/28769.got.cif
#   From: 2010.05.17/outbox.cif.g08.bks.cpg/sg52_15_cif.got.tgz:28769.got - 2010.06.03 12:15:38.
