data_PCOD9408491
_publ_section_title
;
Structure prediction by ZEFSAII (Michael W. Deem and Ramdas Pophale) SiO2 
 PCOD9408491
Probable space group: P N N A
;
_chemical_formula_sum "Si O2"
_cell_formula_units_Z 44
_cell_length_a 5.839328
_cell_length_b 16.451508
_cell_length_c 23.392932
_cell_angle_alpha 90.000000
_cell_angle_beta 90.000000
_cell_angle_gamma 90.000000
_cell_volume 2247.259588
_symmetry_space_group_name_H-M "P N N A"
_symmetry_group_IT_number 52
_symmetry_cell_setting 'orthorhombic'
loop_
_space_group_symop_operation_xyz
x,y,z
1/2-x,-y,z
x,1/2-y,1/2-z
1/2-x,1/2+y,1/2-z
-x,-y,-z
1/2+x,y,-z
-x,1/2+y,1/2+z
1/2+x,1/2-y,1/2+z
loop_
_atom_site_type_symbol
_atom_site_label
_atom_site_fract_x
_atom_site_fract_y
_atom_site_fract_z
Si Si1 0.651082 0.171001 0.030408
Si Si2 0.777594 0.410521 0.200296
Si Si3 0.421098 0.170734 0.229646
Si Si4 0.540773 0.407330 0.677345
Si Si5 0.205915 0.752497 0.855522
Si Si6 0.250000 0.500000 0.588054
O O1 0.675747 0.232486 0.083890
O O2 0.665451 0.077295 0.052235
O O3 0.396000 0.181975 0.003348
O O4 0.750000 0.500000 0.175492
O O5 0.528215 0.376949 0.217580
O O6 0.869566 0.338344 0.160314
O O7 0.914400 0.416517 0.260933
O O8 0.276466 0.250000 0.250000
O O9 0.303401 0.100802 0.193095
O O10 0.618299 0.212957 0.192290
O O11 0.494318 0.318272 0.650037
O O12 0.447358 0.467950 0.630476
#
# Coordination Sequence:
#
# PCOD9408491 Si02
#       6
#     8   8   8   8   8   4
#     4  11  25  45  63  87 116 161 213 265 302 350
#     4  10  19  35  51  88 121 149 192 237 297 368
#     4   9  18  33  56  81 115 158 196 229 289 375
#     4  10  18  35  53  83 121 160 187 229 294 376
#     4   9  21  36  58  80 110 157 200 247 301 352
#     4  10  22  38  58  90 124 158 192 248 304 370
#
# _framework density 19.579402999999999
#
# number of rings (size 3 to 8) (size 9 to 14) (size 15 to 20)
#    0.000    2.182    0.909    3.273    5.091    0.727 
#    6.545    0.000    0.000    1.091    0.000    0.000 
#    0.000    0.000    0.000    0.000    0.000    0.000 
#
# Total GULP energy -245044.894784 kJ/mol
# GULP energy per Si atom -5569.202154 kJ/mol
# Density = 1.953484 g / cm^3
# Si number density = 19.579403 Si / 1000 Ang^3
#
#
#
# Elastic Constant Matrix: (Units=GPa)
#
#
# Indices 1 2 3 4 5 6 
#
# 1 41.8008 13.5422 10.4459 0.0000 0.0000 0.0000
# 2 13.5422 99.7583 31.2382 0.0000 0.0000 0.0000
# 3 10.4459 31.2382 65.5535 0.0000 0.0000 0.0000
# 4 0.0000 0.0000 0.0000 30.2514 0.0000 0.0000
# 5 0.0000 0.0000 0.0000 0.0000 10.5715 0.0000
# 6 0.0000 0.0000 0.0000 0.0000 0.0000 21.5932
#
#
#
# Elastic Compliance Matrix: (Units=1/GPa)
#
#
# Indices 1 2 3 4 5 6 
#
# 1 0.025463 -0.002570 -0.002833 0.000000 0.000000 0.000000
# 2 -0.002570 0.012042 -0.005329 0.000000 0.000000 0.000000
# 3 -0.002833 -0.005329 0.018245 0.000000 0.000000 0.000000
# 4 0.000000 0.000000 0.000000 0.033056 0.000000 0.000000
# 5 0.000000 0.000000 0.000000 0.000000 0.094594 0.000000
# 6 0.000000 0.000000 0.000000 0.000000 0.000000 0.046311
#
#
# Mechanical properties :
#
#
# Convention : Reuss Voigt Hill
#
# Bulk Modulus (GPa) = 29.16489 35.28501 32.22495
# Shear Modulus (GPa) = 19.04008 22.60899 20.82453
#
# Velocity S-wave (km/s) = 3.12180 3.40182 3.26482
# Velocity P-wave (km/s) = 5.28415 5.78710 5.54133
#
# Compressibility (1/GPa) = 0.03428781
#
# Stress axis : x y z
#
# Youngs Moduli (GPa) = 39.27202 83.04493 54.80812
#
# Poissons Ratio (x) = 0.21338 0.15528
# Poissons Ratio (y) = 0.10091 0.29206
# Poissons Ratio (z) = 0.11126 0.44253
#
# Static dielectric constant tensor:
#      x y z
#    x 1.801650 0.000000 0.000000 
#    y 0.000000 1.855100 0.000000 
#    z 0.000000 0.000000 1.723920 
# 
# From -- ./inp_files/38738.got.cif
#   From: 2010.05.17/outbox.cif.g08.bks.cpg/sg52_20_cif.got.tgz:38738.got - 2010.06.03 12:15:38.
