data_PCOD9408953
_publ_section_title
;
Structure prediction by ZEFSAII (Michael W. Deem and Ramdas Pophale) SiO2 
 PCOD9408953
Probable space group: P N N A
;
_chemical_formula_sum "Si O2"
_cell_formula_units_Z 60
_cell_length_a 18.029266
_cell_length_b 13.314118
_cell_length_c 12.955014
_cell_angle_alpha 90.000000
_cell_angle_beta 90.000000
_cell_angle_gamma 90.000000
_cell_volume 3109.770465
_symmetry_space_group_name_H-M "P N N A"
_symmetry_group_IT_number 52
_symmetry_cell_setting 'orthorhombic'
loop_
_space_group_symop_operation_xyz
x,y,z
1/2-x,-y,z
x,1/2-y,1/2-z
1/2-x,1/2+y,1/2-z
-x,-y,-z
1/2+x,y,-z
-x,1/2+y,1/2+z
1/2+x,1/2-y,1/2+z
loop_
_atom_site_type_symbol
_atom_site_label
_atom_site_fract_x
_atom_site_fract_y
_atom_site_fract_z
Si Si1 0.609981 0.496737 0.263231
Si Si2 0.401773 0.182345 0.352024
Si Si3 0.933814 0.300276 0.355183
Si Si4 0.750000 0.500000 0.110819
Si Si5 0.467675 0.518800 0.115431
Si Si6 0.334286 0.798663 0.862932
Si Si7 0.201504 0.711588 0.969686
Si Si8 0.540121 0.280675 0.994314
O O1 0.607195 0.596974 0.330660
O O2 0.677955 0.493702 0.183364
O O3 0.534273 0.500588 0.196553
O O4 0.624291 0.402138 0.336969
O O5 0.409316 0.250000 0.250000
O O6 0.329535 0.218375 0.414893
O O7 0.475276 0.197757 0.422084
O O8 0.404277 0.059951 0.349434
O O9 0.959246 0.250000 0.250000
O O10 0.873772 0.222838 0.402499
O O11 0.003561 0.310926 0.430790
O O12 0.761392 0.397052 0.048424
O O13 0.445580 0.634090 0.093009
O O14 0.500000 0.500000 0.000000
O O15 0.320795 0.750000 0.750000
O O16 0.257284 0.795253 0.925283
O O17 0.388805 0.736504 0.936350
#
# Coordination Sequence:
#
# PCOD9408953 Si02
#       8
#     8   8   8   4   8   8   8   8
#     4  12  22  34  63  87 129 160 208 251 322 381
#     4  10  21  39  61  84 120 167 201 247 309 382
#     4  11  20  40  57  88 122 174 199 244 318 383
#     4  12  20  34  58  96 118 162 198 272 320 362
#     4  10  19  34  58  92 117 156 202 257 300 361
#     4  12  23  38  58  96 122 154 200 274 314 361
#     4  11  24  37  62  88 126 156 208 258 318 373
#     4  10  21  36  61  88 127 154 203 256 305 368
#
# _framework density 19.294028999999998
#
# number of rings (size 3 to 8) (size 9 to 14) (size 15 to 20)
#    0.000    1.067    4.000    5.600    1.867    0.533 
#    0.000    0.667    0.000    3.200    0.000    0.000 
#    0.000    0.000    0.000    0.000    0.000    0.000 
#
# Total GULP energy -334276.526651 kJ/mol
# GULP energy per Si atom -5571.275444 kJ/mol
# Density = 1.925011 g / cm^3
# Si number density = 19.294029 Si / 1000 Ang^3
#
#
#
# Elastic Constant Matrix: (Units=GPa)
#
#
# Indices 1 2 3 4 5 6 
#
# 1 82.1301 12.9139 49.7747 0.0000 0.0000 0.0000
# 2 12.9139 93.3921 53.5642 0.0000 0.0000 0.0000
# 3 49.7747 53.5642 94.6455 0.0000 0.0000 0.0000
# 4 0.0000 0.0000 0.0000 20.2193 0.0000 0.0000
# 5 0.0000 0.0000 0.0000 0.0000 33.4158 0.0000
# 6 0.0000 0.0000 0.0000 0.0000 0.0000 26.1768
#
#
#
# Elastic Compliance Matrix: (Units=1/GPa)
#
#
# Indices 1 2 3 4 5 6 
#
# 1 0.019134 0.004628 -0.012682 0.000000 0.000000 0.000000
# 2 0.004628 0.016973 -0.012039 0.000000 0.000000 0.000000
# 3 -0.012682 -0.012039 0.024049 0.000000 0.000000 0.000000
# 4 0.000000 0.000000 0.000000 0.049458 0.000000 0.000000
# 5 0.000000 0.000000 0.000000 0.000000 0.029926 0.000000
# 6 0.000000 0.000000 0.000000 0.000000 0.000000 0.038202
#
#
# Mechanical properties :
#
#
# Convention : Reuss Voigt Hill
#
# Bulk Modulus (GPa) = 50.07852 55.85260 52.96556
# Shear Modulus (GPa) = 22.26342 26.22336 24.24339
#
# Velocity S-wave (km/s) = 3.40060 3.69066 3.54859
# Velocity P-wave (km/s) = 6.43666 6.86820 6.65593
#
# Compressibility (1/GPa) = 0.01996864
#
# Stress axis : x y z
#
# Youngs Moduli (GPa) = 52.26343 58.91809 41.58221
#
# Poissons Ratio (x) = -0.27265 0.52733
# Poissons Ratio (y) = -0.24186 0.50062
# Poissons Ratio (z) = 0.66279 0.70934
#
# Static dielectric constant tensor:
#      x y z
#    x 1.684310 0.000000 0.000000 
#    y 0.000000 1.798580 0.000000 
#    z 0.000000 0.000000 1.667800 
# 
# From -- ./inp_files/20858.got.cif
#   From: 2010.05.17/outbox.cif.g08.bks.cpg/sg52_11_cif.got.tgz:20858.got - 2010.06.03 12:15:38.
