data_PCOD9408753
_publ_section_title
;
Structure prediction by ZEFSAII (Michael W. Deem and Ramdas Pophale) SiO2 
 PCOD9408753
Probable space group: P N N A
;
_chemical_formula_sum "Si O2"
_cell_formula_units_Z 40
_cell_length_a 32.843834
_cell_length_b 5.029691
_cell_length_c 14.393975
_cell_angle_alpha 90.000000
_cell_angle_beta 90.000000
_cell_angle_gamma 90.000000
_cell_volume 2377.803146
_symmetry_space_group_name_H-M "P N N A"
_symmetry_group_IT_number 52
_symmetry_cell_setting 'orthorhombic'
loop_
_space_group_symop_operation_xyz
x,y,z
1/2-x,-y,z
x,1/2-y,1/2-z
1/2-x,1/2+y,1/2-z
-x,-y,-z
1/2+x,y,-z
-x,1/2+y,1/2+z
1/2+x,1/2-y,1/2+z
loop_
_atom_site_type_symbol
_atom_site_label
_atom_site_fract_x
_atom_site_fract_y
_atom_site_fract_z
Si Si1 0.000006 0.180449 0.148490
Si Si2 0.293910 0.496298 0.181417
Si Si3 0.877810 0.276997 0.861301
Si Si4 0.917458 0.769203 0.951476
Si Si5 0.442720 0.684994 0.850208
O O1 0.018402 0.250000 0.250000
O O2 0.963529 0.395552 0.137772
O O3 0.035394 0.178149 0.073273
O O4 0.979984 0.892588 0.149528
O O5 0.250000 0.500000 0.130878
O O6 0.288005 0.250000 0.250000
O O7 0.333238 0.409287 0.123061
O O8 0.301905 0.750000 0.250000
O O9 0.882109 0.250000 0.750000
O O10 0.908366 0.490560 0.902815
O O11 0.888499 0.996224 0.908331
O O12 0.914432 0.743962 0.062094
O O13 0.422987 0.750000 0.750000
#
# Coordination Sequence:
#
# PCOD9408753 Si02
#       5
#     8   8   8   8   8
#     4  10  19  32  48  66  90 124 161 199 244 289
#     4   9  17  31  49  68  96 133 160 179 216 279
#     4  11  21  32  47  73 101 125 153 189 234 284
#     4  12  21  32  49  70  96 125 158 201 246 278
#     4  10  21  35  49  65  89 125 169 206 238 282
#
# _framework density 16.82225
#
# number of rings (size 3 to 8) (size 9 to 14) (size 15 to 20)
#    0.000    1.600    0.000    7.800    0.000    1.600 
#    0.000    0.000    0.000    0.000    0.000    0.000 
#    0.000    3.200    0.000    2.800    0.000    0.000 
#
# Total GULP energy -222956.010352 kJ/mol
# GULP energy per Si atom -5573.900259 kJ/mol
# Density = 1.678396 g / cm^3
# Si number density = 16.822250 Si / 1000 Ang^3
#
#
#
# Elastic Constant Matrix: (Units=GPa)
#
#
# Indices 1 2 3 4 5 6 
#
# 1 29.6475 -5.1819 27.0755 0.0000 0.0000 0.0000
# 2 -5.1819 74.0984 15.4041 0.0000 0.0000 0.0000
# 3 27.0755 15.4041 106.5009 0.0000 0.0000 0.0000
# 4 0.0000 0.0000 0.0000 16.4898 0.0000 0.0000
# 5 0.0000 0.0000 0.0000 0.0000 2.1617 0.0000
# 6 0.0000 0.0000 0.0000 0.0000 0.0000 14.3961
#
#
#
# Elastic Compliance Matrix: (Units=1/GPa)
#
#
# Indices 1 2 3 4 5 6 
#
# 1 0.046270 0.005857 -0.012610 0.000000 0.000000 0.000000
# 2 0.005857 0.014655 -0.003609 0.000000 0.000000 0.000000
# 3 -0.012610 -0.003609 0.013117 0.000000 0.000000 0.000000
# 4 0.000000 0.000000 0.000000 0.060644 0.000000 0.000000
# 5 0.000000 0.000000 0.000000 0.000000 0.462591 0.000000
# 6 0.000000 0.000000 0.000000 0.000000 0.000000 0.069463
#
#
# Mechanical properties :
#
#
# Convention : Reuss Voigt Hill
#
# Bulk Modulus (GPa) = 18.75502 31.64913 25.20207
# Shear Modulus (GPa) = 7.08982 18.13947 12.61464
#
# Velocity S-wave (km/s) = 2.05516 3.28731 2.74136
# Velocity P-wave (km/s) = 4.09936 5.76743 5.00340
#
# Compressibility (1/GPa) = 0.05331906
#
# Stress axis : x y z
#
# Youngs Moduli (GPa) = 21.61237 68.23416 76.23430
#
# Poissons Ratio (x) = -0.39967 0.96134
# Poissons Ratio (y) = -0.12659 0.27512
# Poissons Ratio (z) = 0.27254 0.24625
#
# Static dielectric constant tensor:
#      x y z
#    x 1.622900 0.000000 0.000000 
#    y 0.000000 1.585570 0.000000 
#    z 0.000000 0.000000 1.604880 
# 
# From -- ./inp_files/29308.got.cif
#   From: 2010.05.17/outbox.cif.g08.bks.cpg/sg52_15_cif.got.tgz:29308.got - 2010.06.03 12:15:38.
