data_PCOD9408923
_publ_section_title
;
Structure prediction by ZEFSAII (Michael W. Deem and Ramdas Pophale) SiO2 
 PCOD9408923
Probable space group: P N N A
;
_chemical_formula_sum "Si O2"
_cell_formula_units_Z 36
_cell_length_a 11.377460
_cell_length_b 5.907148
_cell_length_c 27.611986
_cell_angle_alpha 90.000000
_cell_angle_beta 90.000000
_cell_angle_gamma 90.000000
_cell_volume 1855.755745
_symmetry_space_group_name_H-M "P N N A"
_symmetry_group_IT_number 52
_symmetry_cell_setting 'orthorhombic'
loop_
_space_group_symop_operation_xyz
x,y,z
1/2-x,-y,z
x,1/2-y,1/2-z
1/2-x,1/2+y,1/2-z
-x,-y,-z
1/2+x,y,-z
-x,1/2+y,1/2+z
1/2+x,1/2-y,1/2+z
loop_
_atom_site_type_symbol
_atom_site_label
_atom_site_fract_x
_atom_site_fract_y
_atom_site_fract_z
Si Si1 0.750000 0.000000 0.636450
Si Si2 0.126345 0.082105 0.559125
Si Si3 0.940175 0.806420 0.967488
Si Si4 0.369236 0.869942 0.203735
Si Si5 0.435807 0.358171 0.386319
O O1 0.826093 0.833664 0.669813
O O2 0.658644 0.842485 0.608426
O O3 0.146893 0.190325 0.505707
O O4 0.058311 0.259358 0.593607
O O5 0.250000 0.000000 0.579309
O O6 0.037246 0.874854 0.549434
O O7 0.895254 0.935607 0.920505
O O8 0.000000 0.000000 0.000000
O O9 0.427913 0.750000 0.250000
O O10 0.250000 0.000000 0.220330
O O11 0.436342 0.046455 0.168595
#
# Coordination Sequence:
#
# PCOD9408923 Si02
#       5
#     4   8   8   8   8
#     4  10  20  36  54  88 124 152 184 232 298 360
#     4  10  21  41  57  80 119 159 207 247 290 345
#     4   9  20  40  53  83 114 156 205 239 293 331
#     4  10  19  34  55  84 123 153 184 232 302 367
#     4  10  21  36  56  85 121 155 195 242 296 354
#
# _framework density 19.399107000000001
#
# number of rings (size 3 to 8) (size 9 to 14) (size 15 to 20)
#    0.000    2.222    1.111    1.333    0.000    3.556 
#   60.000    0.000    0.000    0.000    0.000    0.000 
#   93.333    0.000    0.000    0.000    0.000    0.000 
#
# Total GULP energy -200831.679930 kJ/mol
# GULP energy per Si atom -5578.657776 kJ/mol
# Density = 1.935495 g / cm^3
# Si number density = 19.399107 Si / 1000 Ang^3
#
#
#
# Elastic Constant Matrix: (Units=GPa)
#
#
# Indices 1 2 3 4 5 6 
#
# 1 72.9422 27.2365 44.0620 0.0000 0.0000 0.0000
# 2 27.2365 94.2481 39.7865 0.0000 0.0000 0.0000
# 3 44.0620 39.7865 103.1132 0.0000 0.0000 0.0000
# 4 0.0000 0.0000 0.0000 41.4180 0.0000 0.0000
# 5 0.0000 0.0000 0.0000 0.0000 18.8660 0.0000
# 6 0.0000 0.0000 0.0000 0.0000 0.0000 27.1774
#
#
#
# Elastic Compliance Matrix: (Units=1/GPa)
#
#
# Indices 1 2 3 4 5 6 
#
# 1 0.018944 -0.002458 -0.007147 0.000000 0.000000 0.000000
# 2 -0.002458 0.012994 -0.003963 0.000000 0.000000 0.000000
# 3 -0.007147 -0.003963 0.014281 0.000000 0.000000 0.000000
# 4 0.000000 0.000000 0.000000 0.024144 0.000000 0.000000
# 5 0.000000 0.000000 0.000000 0.000000 0.053005 0.000000
# 6 0.000000 0.000000 0.000000 0.000000 0.000000 0.036795
#
#
# Mechanical properties :
#
#
# Convention : Reuss Voigt Hill
#
# Bulk Modulus (GPa) = 52.40165 54.71928 53.56047
# Shear Modulus (GPa) = 25.81824 28.10685 26.96255
#
# Velocity S-wave (km/s) = 3.65211 3.81054 3.73216
# Velocity P-wave (km/s) = 6.69738 6.90135 6.80013
#
# Compressibility (1/GPa) = 0.01908337
#
# Stress axis : x y z
#
# Youngs Moduli (GPa) = 52.78602 76.96053 70.02098
#
# Poissons Ratio (x) = 0.18914 0.50044
# Poissons Ratio (y) = 0.12973 0.27753
# Poissons Ratio (z) = 0.37726 0.30503
#
# Static dielectric constant tensor:
#      x y z
#    x 1.662960 0.000000 0.000000 
#    y 0.000000 1.728330 0.000000 
#    z 0.000000 0.000000 1.728450 
# 
# From -- ./inp_files/39921.got.cif
#   From: 2010.05.17/outbox.cif.g08.bks.cpg/sg52_20_cif.got.tgz:39921.got - 2010.06.03 12:15:38.
