data_PCOD9408942
_publ_section_title
;
Structure prediction by ZEFSAII (Michael W. Deem and Ramdas Pophale) SiO2 
 PCOD9408942
Probable space group: P N N A
;
_chemical_formula_sum "Si O2"
_cell_formula_units_Z 48
_cell_length_a 33.192086
_cell_length_b 8.484917
_cell_length_c 8.755025
_cell_angle_alpha 90.000000
_cell_angle_beta 90.000000
_cell_angle_gamma 90.000000
_cell_volume 2465.696030
_symmetry_space_group_name_H-M "P N N A"
_symmetry_group_IT_number 52
_symmetry_cell_setting 'orthorhombic'
loop_
_space_group_symop_operation_xyz
x,y,z
1/2-x,-y,z
x,1/2-y,1/2-z
1/2-x,1/2+y,1/2-z
-x,-y,-z
1/2+x,y,-z
-x,1/2+y,1/2+z
1/2+x,1/2-y,1/2+z
loop_
_atom_site_type_symbol
_atom_site_label
_atom_site_fract_x
_atom_site_fract_y
_atom_site_fract_z
Si Si1 0.249114 0.190026 0.575156
Si Si2 0.161556 0.188310 0.576179
Si Si3 0.999882 0.680785 0.070716
Si Si4 0.836063 0.309545 0.076754
Si Si5 0.419253 0.811713 0.079203
Si Si6 0.583672 0.685409 0.578563
O O1 0.248800 0.250000 0.750000
O O2 0.205520 0.239050 0.510217
O O3 0.292371 0.239343 0.506968
O O4 0.250000 0.000000 0.578009
O O5 0.159571 0.250000 0.750000
O O6 0.122724 0.251650 0.489916
O O7 0.160678 0.998702 0.574624
O O8 0.000727 0.750000 0.250000
O O9 0.042254 0.748131 0.007702
O O10 0.958248 0.751056 0.010182
O O11 0.000000 0.500000 0.000000
O O12 0.835389 0.250000 0.250000
O O13 0.875475 0.238715 0.001330
O O14 0.422717 0.750000 0.250000
O O15 0.419164 0.998936 0.078791
O O16 0.586149 0.750000 0.750000
#
# Coordination Sequence:
#
# PCOD9408942 Si02
#       6
#     8   8   8   8   8   8
#     4   8  16  30  52  80 113 148 190 240 290 344
#     4  10  19  35  57  85 117 153 196 243 293 353
#     4  11  24  44  67  93 123 158 200 250 304 366
#     4  10  19  34  57  86 115 151 194 241 293 351
#     4  12  24  40  62  88 118 156 199 248 301 359
#     4  11  24  41  58  84 118 154 192 242 298 357
#
# _framework density 19.467120000000001
#
# number of rings (size 3 to 8) (size 9 to 14) (size 15 to 20)
#    0.000    1.667    0.000    6.000    0.000    3.333 
#    0.000    0.833    0.000    0.000    0.000    0.000 
#    0.000    0.000    0.000    0.000    0.000    0.000 
#
# Total GULP energy -267389.251689 kJ/mol
# GULP energy per Si atom -5570.609410 kJ/mol
# Density = 1.942281 g / cm^3
# Si number density = 19.467120 Si / 1000 Ang^3
#
#
#
# Elastic Constant Matrix: (Units=GPa)
#
#
# Indices 1 2 3 4 5 6 
#
# 1 251.2357 77.9060 64.3408 0.0000 0.0000 0.0000
# 2 77.9060 135.2339 28.2964 0.0000 0.0000 0.0000
# 3 64.3408 28.2964 56.7158 0.0000 0.0000 0.0000
# 4 0.0000 0.0000 0.0000 29.5834 0.0000 0.0000
# 5 0.0000 0.0000 0.0000 0.0000 25.7952 0.0000
# 6 0.0000 0.0000 0.0000 0.0000 0.0000 30.3711
#
#
#
# Elastic Compliance Matrix: (Units=1/GPa)
#
#
# Indices 1 2 3 4 5 6 
#
# 1 0.006214 -0.002350 -0.005877 0.000000 0.000000 0.000000
# 2 -0.002350 0.009145 -0.001897 0.000000 0.000000 0.000000
# 3 -0.005877 -0.001897 0.025245 0.000000 0.000000 0.000000
# 4 0.000000 0.000000 0.000000 0.033803 0.000000 0.000000
# 5 0.000000 0.000000 0.000000 0.000000 0.038767 0.000000
# 6 0.000000 0.000000 0.000000 0.000000 0.000000 0.032926
#
#
# Mechanical properties :
#
#
# Convention : Reuss Voigt Hill
#
# Bulk Modulus (GPa) = 49.12315 87.14131 68.13223
# Shear Modulus (GPa) = 28.87935 35.32608 32.10272
#
# Velocity S-wave (km/s) = 3.85579 4.26450 4.06528
# Velocity P-wave (km/s) = 6.71651 8.31315 7.55711
#
# Compressibility (1/GPa) = 0.02035700
#
# Stress axis : x y z
#
# Youngs Moduli (GPa) = 160.92154 109.34533 39.61135
#
# Poissons Ratio (x) = 0.25698 0.23280
# Poissons Ratio (y) = 0.37819 0.07513
# Poissons Ratio (z) = 0.94576 0.20739
#
# Static dielectric constant tensor:
#      x y z
#    x 1.724840 0.000000 0.000000 
#    y 0.000000 1.671170 0.000000 
#    z 0.000000 0.000000 1.823900 
# 
# From -- ./inp_files/15526.got.cif
#   From: 2010.05.17/outbox.cif.g08.bks.cpg/sg52_8_cif.got.tgz:15526.got - 2010.06.03 12:15:38.
