data_PCOD9408421
_publ_section_title
;
Structure prediction by ZEFSAII (Michael W. Deem and Ramdas Pophale) SiO2 
 PCOD9408421
Probable space group: P N N A
;
_chemical_formula_sum "Si O2"
_cell_formula_units_Z 40
_cell_length_a 9.939112
_cell_length_b 7.531407
_cell_length_c 23.095392
_cell_angle_alpha 90.000000
_cell_angle_beta 90.000000
_cell_angle_gamma 90.000000
_cell_volume 1728.817063
_symmetry_space_group_name_H-M "P N N A"
_symmetry_group_IT_number 52
_symmetry_cell_setting 'orthorhombic'
loop_
_space_group_symop_operation_xyz
x,y,z
1/2-x,-y,z
x,1/2-y,1/2-z
1/2-x,1/2+y,1/2-z
-x,-y,-z
1/2+x,y,-z
-x,1/2+y,1/2+z
1/2+x,1/2-y,1/2+z
loop_
_atom_site_type_symbol
_atom_site_label
_atom_site_fract_x
_atom_site_fract_y
_atom_site_fract_z
Si Si1 0.205010 0.706401 0.316622
Si Si2 0.125418 0.130745 0.000076
Si Si3 0.037720 0.239195 0.383097
Si Si4 0.814146 0.180127 0.307332
Si Si5 0.571273 0.148139 0.128592
O O1 0.250000 0.500000 0.321837
O O2 0.180763 0.750000 0.250000
O O3 0.335507 0.801710 0.342549
O O4 0.068977 0.737680 0.352737
O O5 0.093775 0.266226 0.051753
O O6 0.250000 0.000000 0.013343
O O7 0.127919 0.200990 0.934739
O O8 0.000000 0.000000 0.000000
O O9 0.911478 0.130266 0.360491
O O10 0.973318 0.439266 0.373510
O O11 0.890432 0.250000 0.250000
O O12 0.691909 0.305615 0.328010
O O13 0.750000 0.000000 0.286817
#
# Coordination Sequence:
#
# PCOD9408421 Si02
#       5
#     8   8   8   8   8
#     4  10  21  35  55  83 114 147 188 235 288 347
#     4  10  18  33  61  92 117 148 190 238 288 347
#     4  10  20  37  60  88 116 148 191 240 292 352
#     4  12  25  40  58  83 115 156 201 247 295 348
#     4  10  20  37  61  88 116 149 192 242 292 348
#
# _framework density 23.137208000000001
#
# number of rings (size 3 to 8) (size 9 to 14) (size 15 to 20)
#    0.000    1.600    0.000    8.400    0.000    4.800 
#    0.000    1.000    0.000    2.400    0.000    0.000 
#    0.000    0.000    0.000    0.000    0.000    0.000 
#
# Total GULP energy -223317.648008 kJ/mol
# GULP energy per Si atom -5582.941200 kJ/mol
# Density = 2.308455 g / cm^3
# Si number density = 23.137208 Si / 1000 Ang^3
#
#
#
# Elastic Constant Matrix: (Units=GPa)
#
#
# Indices 1 2 3 4 5 6 
#
# 1 120.4107 2.8511 27.7976 0.0000 0.0000 0.0000
# 2 2.8511 21.9072 9.4821 0.0000 0.0000 0.0000
# 3 27.7976 9.4821 141.7070 0.0000 0.0000 0.0000
# 4 0.0000 0.0000 0.0000 21.6807 0.0000 0.0000
# 5 0.0000 0.0000 0.0000 0.0000 46.4284 0.0000
# 6 0.0000 0.0000 0.0000 0.0000 0.0000 14.2150
#
#
#
# Elastic Compliance Matrix: (Units=1/GPa)
#
#
# Indices 1 2 3 4 5 6 
#
# 1 0.008702 -0.000405 -0.001680 0.000000 0.000000 0.000000
# 2 -0.000405 0.047027 -0.003067 0.000000 0.000000 0.000000
# 3 -0.001680 -0.003067 0.007592 0.000000 0.000000 0.000000
# 4 0.000000 0.000000 0.000000 0.046124 0.000000 0.000000
# 5 0.000000 0.000000 0.000000 0.000000 0.021539 0.000000
# 6 0.000000 0.000000 0.000000 0.000000 0.000000 0.070348
#
#
# Mechanical properties :
#
#
# Convention : Reuss Voigt Hill
#
# Bulk Modulus (GPa) = 18.86221 40.47629 29.66925
# Shear Modulus (GPa) = 21.80463 32.72443 27.26453
#
# Velocity S-wave (km/s) = 3.07319 3.76488 3.43648
# Velocity P-wave (km/s) = 4.55661 6.03582 5.34761
#
# Compressibility (1/GPa) = 0.05301607
#
# Stress axis : x y z
#
# Youngs Moduli (GPa) = 114.91168 21.26422 131.72463
#
# Poissons Ratio (x) = 0.00862 0.22129
# Poissons Ratio (y) = 0.04659 0.40403
# Poissons Ratio (z) = 0.19305 0.06522
#
# Static dielectric constant tensor:
#      x y z
#    x 1.794420 0.000000 0.000000 
#    y 0.000000 1.946860 0.000000 
#    z 0.000000 0.000000 1.978970 
# 
# From -- ./inp_files/39231.got.cif
#   From: 2010.05.17/outbox.cif.g08.bks.cpg/sg52_20_cif.got.tgz:39231.got - 2010.06.03 12:15:38.
