data_PCOD9408542
_publ_section_title
;
Structure prediction by ZEFSAII (Michael W. Deem and Ramdas Pophale) SiO2 
 PCOD9408542
Probable space group: P N N A
;
_chemical_formula_sum "Si O2"
_cell_formula_units_Z 44
_cell_length_a 7.768113
_cell_length_b 17.613751
_cell_length_c 13.313036
_cell_angle_alpha 90.000000
_cell_angle_beta 90.000000
_cell_angle_gamma 90.000000
_cell_volume 1821.564247
_symmetry_space_group_name_H-M "P N N A"
_symmetry_group_IT_number 52
_symmetry_cell_setting 'orthorhombic'
loop_
_space_group_symop_operation_xyz
x,y,z
1/2-x,-y,z
x,1/2-y,1/2-z
1/2-x,1/2+y,1/2-z
-x,-y,-z
1/2+x,y,-z
-x,1/2+y,1/2+z
1/2+x,1/2-y,1/2+z
loop_
_atom_site_type_symbol
_atom_site_label
_atom_site_fract_x
_atom_site_fract_y
_atom_site_fract_z
Si Si1 0.864046 0.642731 0.062624
Si Si2 0.250000 0.500000 0.247344
Si Si3 0.938946 0.093623 0.901976
Si Si4 0.750000 0.000000 0.072681
Si Si5 0.340536 0.258037 0.080081
Si Si6 0.536885 0.595746 0.148220
Si Si7 0.939236 0.750000 0.750000
O O1 0.029283 0.676713 0.119101
O O2 0.737379 0.587400 0.120965
O O3 0.739159 0.711429 0.023956
O O4 0.939583 0.611311 0.958182
O O5 0.196371 0.570529 0.317057
O O6 0.420076 0.528098 0.190551
O O7 0.948467 0.181546 0.925759
O O8 0.865433 0.053876 0.002107
O O9 0.118364 0.054922 0.872137
O O10 0.184887 0.241031 0.154182
O O11 0.531530 0.670293 0.221876
#
# Coordination Sequence:
#
# PCOD9408542 Si02
#       7
#     8   4   8   4   8   8   4
#     4   9  21  37  61  85 114 153 212 238 306 349
#     4  11  22  38  62  85 132 160 200 247 318 352
#     4  10  19  36  56  85 117 161 189 248 298 364
#     4   9  20  34  52  81 120 154 200 227 296 376
#     4  10  18  36  58  84 109 152 190 254 289 359
#     4  10  21  41  58  91 116 164 197 259 293 371
#     4  10  20  36  60  80 122 144 198 248 308 336
#
# _framework density 24.155063999999999
#
# number of rings (size 3 to 8) (size 9 to 14) (size 15 to 20)
#    0.000    2.182    1.818    1.091    0.000    1.455 
#    9.818    0.000    0.000    0.000    0.000    0.000 
#    0.000    0.000    0.000    0.000    0.000    0.000 
#
# Total GULP energy -245744.055051 kJ/mol
# GULP energy per Si atom -5585.092160 kJ/mol
# Density = 2.410009 g / cm^3
# Si number density = 24.155064 Si / 1000 Ang^3
#
#
#
# Elastic Constant Matrix: (Units=GPa)
#
#
# Indices 1 2 3 4 5 6 
#
# 1 83.6943 1.8488 12.9299 0.0000 0.0000 0.0000
# 2 1.8488 69.6084 9.6782 0.0000 0.0000 0.0000
# 3 12.9299 9.6782 48.9682 0.0000 0.0000 0.0000
# 4 0.0000 0.0000 0.0000 14.9177 0.0000 0.0000
# 5 0.0000 0.0000 0.0000 0.0000 11.0837 0.0000
# 6 0.0000 0.0000 0.0000 0.0000 0.0000 33.6320
#
#
#
# Elastic Compliance Matrix: (Units=1/GPa)
#
#
# Indices 1 2 3 4 5 6 
#
# 1 0.012458 0.000130 -0.003315 0.000000 0.000000 0.000000
# 2 0.000130 0.014773 -0.002954 0.000000 0.000000 0.000000
# 3 -0.003315 -0.002954 0.021881 0.000000 0.000000 0.000000
# 4 0.000000 0.000000 0.000000 0.067034 0.000000 0.000000
# 5 0.000000 0.000000 0.000000 0.000000 0.090222 0.000000
# 6 0.000000 0.000000 0.000000 0.000000 0.000000 0.029734
#
#
# Mechanical properties :
#
#
# Convention : Reuss Voigt Hill
#
# Bulk Modulus (GPa) = 27.14950 27.90942 27.52946
# Shear Modulus (GPa) = 19.18224 23.78096 21.48160
#
# Velocity S-wave (km/s) = 2.82109 3.14110 2.98538
# Velocity P-wave (km/s) = 4.67712 4.97340 4.82753
#
# Compressibility (1/GPa) = 0.03683309
#
# Stress axis : x y z
#
# Youngs Moduli (GPa) = 80.27283 67.68935 45.70250
#
# Poissons Ratio (x) = -0.00880 0.15151
# Poissons Ratio (y) = -0.01044 0.13501
# Poissons Ratio (z) = 0.26611 0.19997
#
# Static dielectric constant tensor:
#      x y z
#    x 1.957790 0.000000 0.000000 
#    y 0.000000 1.977550 0.000000 
#    z 0.000000 0.000000 1.928790 
# 
# From -- ./inp_files/24669.got.cif
#   From: 2010.05.17/outbox.cif.g08.bks.cpg/sg52_13_cif.got.tgz:24669.got - 2010.06.03 12:15:38.
