data_PCOD9408211
_publ_section_title
;
Structure prediction by ZEFSAII (Michael W. Deem and Ramdas Pophale) SiO2 
 PCOD9408211
Probable space group: P N N A
;
_chemical_formula_sum "Si O2"
_cell_formula_units_Z 48
_cell_length_a 8.107461
_cell_length_b 33.811617
_cell_length_c 8.895820
_cell_angle_alpha 90.000000
_cell_angle_beta 90.000000
_cell_angle_gamma 90.000000
_cell_volume 2438.578811
_symmetry_space_group_name_H-M "P N N A"
_symmetry_group_IT_number 52
_symmetry_cell_setting 'orthorhombic'
loop_
_space_group_symop_operation_xyz
x,y,z
1/2-x,-y,z
x,1/2-y,1/2-z
1/2-x,1/2+y,1/2-z
-x,-y,-z
1/2+x,y,-z
-x,1/2+y,1/2+z
1/2+x,1/2-y,1/2+z
loop_
_atom_site_type_symbol
_atom_site_label
_atom_site_fract_x
_atom_site_fract_y
_atom_site_fract_z
Si Si1 0.913410 0.129301 0.630635
Si Si2 0.197098 0.543869 0.784163
Si Si3 0.503754 0.170018 0.921282
Si Si4 0.702825 0.119486 0.131018
Si Si5 0.682944 0.795169 0.787127
Si Si6 0.886528 0.922070 0.577717
O O1 0.854743 0.174163 0.651720
O O2 0.764169 0.099000 0.661301
O O3 0.057964 0.123888 0.749696
O O4 0.994229 0.113879 0.476770
O O5 0.250000 0.500000 0.742937
O O6 0.230887 0.575452 0.652349
O O7 0.006266 0.548617 0.833382
O O8 0.306627 0.556736 0.931042
O O9 0.349486 0.150487 0.838148
O O10 0.625871 0.198382 0.832056
O O11 0.620427 0.133738 0.976521
O O12 0.427365 0.191304 0.068998
O O13 0.648530 0.750000 0.750000
#
# Coordination Sequence:
#
# PCOD9408211 Si02
#       6
#     8   8   8   8   8   8
#     4   9  18  32  51  74 100 136 169 196 245 307
#     4  10  18  30  49  77 104 131 166 209 250 291
#     4   9  19  37  54  70  98 133 166 202 245 300
#     4   9  18  34  54  70  94 135 171 198 246 305
#     4  10  20  34  53  77 100 127 164 207 247 284
#     4   9  18  31  49  74 106 136 164 200 248 305
#
# _framework density 19.683598
#
# number of rings (size 3 to 8) (size 9 to 14) (size 15 to 20)
#    0.000    2.667    0.000    1.500    0.000    1.333 
#    0.000    8.333    0.000    0.000    0.000    0.000 
#    0.000    0.000    0.000    0.000    0.000    0.000 
#
# Total GULP energy -267542.961386 kJ/mol
# GULP energy per Si atom -5573.811696 kJ/mol
# Density = 1.963880 g / cm^3
# Si number density = 19.683598 Si / 1000 Ang^3
#
#
#
# Elastic Constant Matrix: (Units=GPa)
#
#
# Indices 1 2 3 4 5 6 
#
# 1 98.0622 12.4556 7.7273 0.0000 0.0000 0.0000
# 2 12.4556 104.9852 8.5206 0.0000 0.0000 0.0000
# 3 7.7273 8.5206 20.0624 0.0000 0.0000 0.0000
# 4 0.0000 0.0000 0.0000 28.1631 0.0000 0.0000
# 5 0.0000 0.0000 0.0000 0.0000 23.0370 0.0000
# 6 0.0000 0.0000 0.0000 0.0000 0.0000 21.2029
#
#
#
# Elastic Compliance Matrix: (Units=1/GPa)
#
#
# Indices 1 2 3 4 5 6 
#
# 1 0.010609 -0.000960 -0.003679 0.000000 0.000000 0.000000
# 2 -0.000960 0.009952 -0.003857 0.000000 0.000000 0.000000
# 3 -0.003679 -0.003857 0.052899 0.000000 0.000000 0.000000
# 4 0.000000 0.000000 0.000000 0.035507 0.000000 0.000000
# 5 0.000000 0.000000 0.000000 0.000000 0.043408 0.000000
# 6 0.000000 0.000000 0.000000 0.000000 0.000000 0.047163
#
#
# Mechanical properties :
#
#
# Convention : Reuss Voigt Hill
#
# Bulk Modulus (GPa) = 17.70861 31.16853 24.43857
# Shear Modulus (GPa) = 21.24453 27.44103 24.34278
#
# Velocity S-wave (km/s) = 3.28884 3.73782 3.52050
# Velocity P-wave (km/s) = 4.84129 5.87346 5.38218
#
# Compressibility (1/GPa) = 0.05646971
#
# Stress axis : x y z
#
# Youngs Moduli (GPa) = 94.25566 100.48139 18.90378
#
# Poissons Ratio (x) = 0.09648 0.06954
# Poissons Ratio (y) = 0.09050 0.07291
# Poissons Ratio (z) = 0.34673 0.38755
#
# Static dielectric constant tensor:
#      x y z
#    x 1.722330 0.000000 0.000000 
#    y 0.000000 1.686710 0.000000 
#    z 0.000000 0.000000 1.742850 
# 
# From -- ./inp_files/7694.got.cif
#   From: 2010.05.17/outbox.cif.g08.bks.cpg/sg52_4_cif.got.tgz:7694.got - 2010.06.03 12:15:38.
