data_PCOD9408760
_publ_section_title
;
Structure prediction by ZEFSAII (Michael W. Deem and Ramdas Pophale) SiO2 
 PCOD9408760
Probable space group: P N N A
;
_chemical_formula_sum "Si O2"
_cell_formula_units_Z 40
_cell_length_a 22.247345
_cell_length_b 5.290391
_cell_length_c 16.408902
_cell_angle_alpha 90.000000
_cell_angle_beta 90.000000
_cell_angle_gamma 90.000000
_cell_volume 1931.281062
_symmetry_space_group_name_H-M "P N N A"
_symmetry_group_IT_number 52
_symmetry_cell_setting 'orthorhombic'
loop_
_space_group_symop_operation_xyz
x,y,z
1/2-x,-y,z
x,1/2-y,1/2-z
1/2-x,1/2+y,1/2-z
-x,-y,-z
1/2+x,y,-z
-x,1/2+y,1/2+z
1/2+x,1/2-y,1/2+z
loop_
_atom_site_type_symbol
_atom_site_label
_atom_site_fract_x
_atom_site_fract_y
_atom_site_fract_z
Si Si1 0.291043 0.254567 0.843683
Si Si2 0.932554 0.502278 0.537693
Si Si3 0.100098 0.001640 0.225492
Si Si4 0.469131 0.502503 0.795302
Si Si5 0.103360 0.512686 0.954700
O O1 0.250000 0.500000 0.846172
O O2 0.313526 0.250000 0.750000
O O3 0.343394 0.343145 0.905117
O O4 0.250000 0.000000 0.859487
O O5 0.925669 0.532031 0.634497
O O6 0.910450 0.218049 0.522590
O O7 0.000000 0.500000 0.500000
O O8 0.895180 0.729041 0.492544
O O9 0.135404 0.250000 0.250000
O O10 0.134361 0.750000 0.250000
O O11 0.040636 0.990176 0.283050
O O12 0.443631 0.750000 0.750000
O O13 0.449855 0.501270 0.888156
O O14 0.448747 0.250000 0.750000
#
# Coordination Sequence:
#
# PCOD9408760 Si02
#       5
#     8   8   8   8   8
#     4  10  22  40  61  85 114 152 200 251 298 351
#     4  12  23  35  53  83 118 154 197 242 284 344
#     4  10  19  34  50  70 107 153 190 224 272 331
#     4  10  19  32  49  71 102 148 192 222 268 332
#     4  12  23  37  57  83 116 153 198 245 294 344
#
# _framework density 20.711642000000001
#
# number of rings (size 3 to 8) (size 9 to 14) (size 15 to 20)
#    0.000    1.200    0.000    9.600    0.000    2.400 
#    0.000    0.000    0.000    0.000    0.000    0.000 
#    0.000   44.800    0.000    0.000    0.000    0.000 
#
# Total GULP energy -222908.552430 kJ/mol
# GULP energy per Si atom -5572.713811 kJ/mol
# Density = 2.066450 g / cm^3
# Si number density = 20.711642 Si / 1000 Ang^3
#
#
#
# Elastic Constant Matrix: (Units=GPa)
#
#
# Indices 1 2 3 4 5 6 
#
# 1 37.0320 7.9906 2.0224 0.0000 0.0000 0.0000
# 2 7.9906 198.4711 36.6900 0.0000 0.0000 0.0000
# 3 2.0224 36.6900 100.7845 0.0000 0.0000 0.0000
# 4 0.0000 0.0000 0.0000 51.9021 0.0000 0.0000
# 5 0.0000 0.0000 0.0000 0.0000 66.0602 0.0000
# 6 0.0000 0.0000 0.0000 0.0000 0.0000 23.1185
#
#
#
# Elastic Compliance Matrix: (Units=1/GPa)
#
#
# Indices 1 2 3 4 5 6 
#
# 1 0.027243 -0.001068 -0.000158 0.000000 0.000000 0.000000
# 2 -0.001068 0.005444 -0.001960 0.000000 0.000000 0.000000
# 3 -0.000158 -0.001960 0.010639 0.000000 0.000000 0.000000
# 4 0.000000 0.000000 0.000000 0.019267 0.000000 0.000000
# 5 0.000000 0.000000 0.000000 0.000000 0.015138 0.000000
# 6 0.000000 0.000000 0.000000 0.000000 0.000000 0.043255
#
#
# Mechanical properties :
#
#
# Convention : Reuss Voigt Hill
#
# Bulk Modulus (GPa) = 27.06099 47.74374 37.40236
# Shear Modulus (GPa) = 35.79724 47.52182 41.65953
#
# Velocity S-wave (km/s) = 4.16187 4.79524 4.48974
# Velocity P-wave (km/s) = 6.01572 7.33217 6.70633
#
# Compressibility (1/GPa) = 0.03695356
#
# Stress axis : x y z
#
# Youngs Moduli (GPa) = 36.70710 183.69168 93.99381
#
# Poissons Ratio (x) = 0.19611 0.01485
# Poissons Ratio (y) = 0.03919 0.18427
# Poissons Ratio (z) = 0.00580 0.36011
#
# Static dielectric constant tensor:
#      x y z
#    x 1.663730 0.000000 0.000000 
#    y 0.000000 1.884210 0.000000 
#    z 0.000000 0.000000 2.116300 
# 
# From -- ./inp_files/29304.got.cif
#   From: 2010.05.17/outbox.cif.g08.bks.cpg/sg52_15_cif.got.tgz:29304.got - 2010.06.03 12:15:38.
