data_PCOD9408220
_publ_section_title
;
Structure prediction by ZEFSAII (Michael W. Deem and Ramdas Pophale) SiO2 
 PCOD9408220
Probable space group: P N N A
;
_chemical_formula_sum "Si O2"
_cell_formula_units_Z 48
_cell_length_a 8.808608
_cell_length_b 26.775197
_cell_length_c 11.295674
_cell_angle_alpha 90.000000
_cell_angle_beta 90.000000
_cell_angle_gamma 90.000000
_cell_volume 2664.109727
_symmetry_space_group_name_H-M "P N N A"
_symmetry_group_IT_number 52
_symmetry_cell_setting 'orthorhombic'
loop_
_space_group_symop_operation_xyz
x,y,z
1/2-x,-y,z
x,1/2-y,1/2-z
1/2-x,1/2+y,1/2-z
-x,-y,-z
1/2+x,y,-z
-x,1/2+y,1/2+z
1/2+x,1/2-y,1/2+z
loop_
_atom_site_type_symbol
_atom_site_label
_atom_site_fract_x
_atom_site_fract_y
_atom_site_fract_z
Si Si1 0.908387 0.890434 0.884489
Si Si2 0.495584 0.698320 0.824995
Si Si3 0.774404 0.269094 0.021454
Si Si4 0.053631 0.217529 0.143369
Si Si5 0.932739 0.501708 0.632114
Si Si6 0.954534 0.392934 0.647643
O O1 0.968636 0.941961 0.826819
O O2 0.725990 0.889908 0.877212
O O3 0.965904 0.839842 0.824999
O O4 0.960877 0.887768 0.021574
O O5 0.496364 0.750000 0.750000
O O6 0.634201 0.701731 0.918944
O O7 0.505948 0.651301 0.737600
O O8 0.341545 0.698275 0.902104
O O9 0.673061 0.225520 0.962076
O O10 0.898427 0.242779 0.102953
O O11 0.116496 0.250000 0.250000
O O12 0.750000 0.500000 0.625631
O O13 0.984782 0.449974 0.692055
O O14 0.000000 0.500000 0.500000
#
# Coordination Sequence:
#
# PCOD9408220 Si02
#       6
#     8   8   8   8   8   8
#     4  10  18  30  50  78 108 135 169 211 254 315
#     4  11  21  35  52  73 103 140 172 210 261 308
#     4  10  22  34  47  74 104 131 173 210 245 308
#     4  11  20  32  49  72  99 131 163 203 254 299
#     4   8  16  29  46  73 104 134 164 202 252 305
#     4  10  19  32  52  76 107 141 169 206 260 313
#
# _framework density 18.017277
#
# number of rings (size 3 to 8) (size 9 to 14) (size 15 to 20)
#    0.000    2.000    0.000    6.000    0.000    1.333 
#    0.000    0.000    0.000    0.000    0.000   31.500 
#    0.000    0.000    0.000    0.000    0.000    0.000 
#
# Total GULP energy -267605.883419 kJ/mol
# GULP energy per Si atom -5575.122571 kJ/mol
# Density = 1.797627 g / cm^3
# Si number density = 18.017277 Si / 1000 Ang^3
#
#
#
# Elastic Constant Matrix: (Units=GPa)
#
#
# Indices 1 2 3 4 5 6 
#
# 1 59.1642 14.4346 24.0480 0.0000 0.0000 0.0000
# 2 14.4346 178.7191 49.7962 0.0000 0.0000 0.0000
# 3 24.0480 49.7962 56.4391 0.0000 0.0000 0.0000
# 4 0.0000 0.0000 0.0000 26.8120 0.0000 0.0000
# 5 0.0000 0.0000 0.0000 0.0000 103.8183 0.0000
# 6 0.0000 0.0000 0.0000 0.0000 0.0000 8.3195
#
#
#
# Elastic Compliance Matrix: (Units=1/GPa)
#
#
# Indices 1 2 3 4 5 6 
#
# 1 0.020586 0.001036 -0.009686 0.000000 0.000000 0.000000
# 2 0.001036 0.007471 -0.007033 0.000000 0.000000 0.000000
# 3 -0.009686 -0.007033 0.028051 0.000000 0.000000 0.000000
# 4 0.000000 0.000000 0.000000 0.037297 0.000000 0.000000
# 5 0.000000 0.000000 0.000000 0.000000 0.009632 0.000000
# 6 0.000000 0.000000 0.000000 0.000000 0.000000 0.120199
#
#
# Mechanical properties :
#
#
# Convention : Reuss Voigt Hill
#
# Bulk Modulus (GPa) = 40.41668 52.32001 46.36834
# Shear Modulus (GPa) = 19.02225 41.52621 30.27423
#
# Velocity S-wave (km/s) = 3.25280 4.80604 4.10358
# Velocity P-wave (km/s) = 6.04884 7.73946 6.94578
#
# Compressibility (1/GPa) = 0.02474226
#
# Stress axis : x y z
#
# Youngs Moduli (GPa) = 48.57625 133.84333 35.64968
#
# Poissons Ratio (x) = -0.13866 0.34529
# Poissons Ratio (y) = -0.05032 0.25074
# Poissons Ratio (z) = 0.47049 0.94138
#
# Static dielectric constant tensor:
#      x y z
#    x 1.636680 0.000000 0.000000 
#    y 0.000000 1.684850 0.000000 
#    z 0.000000 0.000000 1.577920 
# 
# From -- ./inp_files/16946.got.cif
#   From: 2010.05.17/outbox.cif.g08.bks.cpg/sg52_9_cif.got.tgz:16946.got - 2010.06.03 12:15:38.
