data_PCOD9408894
_publ_section_title
;
Structure prediction by ZEFSAII (Michael W. Deem and Ramdas Pophale) SiO2 
 PCOD9408894
Probable space group: P N N A
;
_chemical_formula_sum "Si O2"
_cell_formula_units_Z 40
_cell_length_a 11.486791
_cell_length_b 19.352971
_cell_length_c 9.226318
_cell_angle_alpha 90.000000
_cell_angle_beta 90.000000
_cell_angle_gamma 90.000000
_cell_volume 2051.043089
_symmetry_space_group_name_H-M "P N N A"
_symmetry_group_IT_number 52
_symmetry_cell_setting 'orthorhombic'
loop_
_space_group_symop_operation_xyz
x,y,z
1/2-x,-y,z
x,1/2-y,1/2-z
1/2-x,1/2+y,1/2-z
-x,-y,-z
1/2+x,y,-z
-x,1/2+y,1/2+z
1/2+x,1/2-y,1/2+z
loop_
_atom_site_type_symbol
_atom_site_label
_atom_site_fract_x
_atom_site_fract_y
_atom_site_fract_z
Si Si1 0.704654 0.078871 0.779154
Si Si2 0.970298 0.591577 0.455253
Si Si3 0.870847 0.460407 0.325532
Si Si4 0.004371 0.920620 0.555749
Si Si5 0.068291 0.829858 0.280189
O O1 0.613043 0.090191 0.648334
O O2 0.814559 0.127692 0.755185
O O3 0.750000 0.000000 0.779616
O O4 0.632648 0.092317 0.927456
O O5 0.962986 0.522492 0.356241
O O6 0.090961 0.590099 0.545515
O O7 0.970889 0.651724 0.339954
O O8 0.750000 0.500000 0.333471
O O9 0.891803 0.423201 0.174197
O O10 0.025297 0.863027 0.432877
O O11 0.000000 0.000000 0.500000
O O12 0.092696 0.750000 0.250000
#
# Coordination Sequence:
#
# PCOD9408894 Si02
#       5
#     8   8   8   8   8
#     4  11  22  41  70  95 125 171 224 270 329 392
#     4  10  20  38  59  90 129 164 208 267 323 388
#     4  10  19  33  62  93 119 156 208 264 317 375
#     4  11  22  39  63  97 123 157 216 275 314 382
#     4  12  26  42  61  93 134 174 215 272 339 399
#
# _framework density 19.502272000000001
#
# number of rings (size 3 to 8) (size 9 to 14) (size 15 to 20)
#    0.000    1.200    4.000    4.200    2.800    1.600 
#    0.000    3.000    0.000    0.000    0.000    0.000 
#    0.000    0.000    0.000    0.000    0.000    0.000 
#
# Total GULP energy -223059.061659 kJ/mol
# GULP energy per Si atom -5576.476541 kJ/mol
# Density = 1.945788 g / cm^3
# Si number density = 19.502272 Si / 1000 Ang^3
#
#
#
# Elastic Constant Matrix: (Units=GPa)
#
#
# Indices 1 2 3 4 5 6 
#
# 1 100.8562 28.2455 65.7400 0.0000 0.0000 0.0000
# 2 28.2455 115.2943 64.8247 0.0000 0.0000 0.0000
# 3 65.7400 64.8247 159.1976 0.0000 0.0000 0.0000
# 4 0.0000 0.0000 0.0000 18.7282 0.0000 0.0000
# 5 0.0000 0.0000 0.0000 0.0000 25.2831 0.0000
# 6 0.0000 0.0000 0.0000 0.0000 0.0000 23.4757
#
#
#
# Elastic Compliance Matrix: (Units=1/GPa)
#
#
# Indices 1 2 3 4 5 6 
#
# 1 0.013571 -0.000225 -0.005512 0.000000 0.000000 0.000000
# 2 -0.000225 0.011253 -0.004489 0.000000 0.000000 0.000000
# 3 -0.005512 -0.004489 0.010386 0.000000 0.000000 0.000000
# 4 0.000000 0.000000 0.000000 0.053396 0.000000 0.000000
# 5 0.000000 0.000000 0.000000 0.000000 0.039552 0.000000
# 6 0.000000 0.000000 0.000000 0.000000 0.000000 0.042597
#
#
# Mechanical properties :
#
#
# Convention : Reuss Voigt Hill
#
# Bulk Modulus (GPa) = 67.76861 76.99651 72.38256
# Shear Modulus (GPa) = 25.49373 27.93327 26.71350
#
# Velocity S-wave (km/s) = 3.61947 3.78869 3.70505
# Velocity P-wave (km/s) = 7.23132 7.66195 7.44974
#
# Compressibility (1/GPa) = 0.01475609
#
# Stress axis : x y z
#
# Youngs Moduli (GPa) = 73.68463 88.86837 96.28602
#
# Poissons Ratio (x) = 0.02003 0.53077
# Poissons Ratio (y) = 0.01661 0.43222
# Poissons Ratio (z) = 0.40618 0.39892
#
# Static dielectric constant tensor:
#      x y z
#    x 1.743150 0.000000 0.000000 
#    y 0.000000 1.722820 0.000000 
#    z 0.000000 0.000000 1.755650 
# 
# From -- ./inp_files/8505.got.cif
#   From: 2010.05.17/outbox.cif.g08.bks.cpg/sg52_5_cif.got.tgz:8505.got - 2010.06.03 12:15:38.
