data_PCOD9408676
_publ_section_title
;
Structure prediction by ZEFSAII (Michael W. Deem and Ramdas Pophale) SiO2 
 PCOD9408676
Probable space group: P N N A
;
_chemical_formula_sum "Si O2"
_cell_formula_units_Z 64
_cell_length_a 5.575531
_cell_length_b 20.537971
_cell_length_c 25.531172
_cell_angle_alpha 90.000000
_cell_angle_beta 90.000000
_cell_angle_gamma 90.000000
_cell_volume 2923.576905
_symmetry_space_group_name_H-M "P N N A"
_symmetry_group_IT_number 52
_symmetry_cell_setting 'orthorhombic'
loop_
_space_group_symop_operation_xyz
x,y,z
1/2-x,-y,z
x,1/2-y,1/2-z
1/2-x,1/2+y,1/2-z
-x,-y,-z
1/2+x,y,-z
-x,1/2+y,1/2+z
1/2+x,1/2-y,1/2+z
loop_
_atom_site_type_symbol
_atom_site_label
_atom_site_fract_x
_atom_site_fract_y
_atom_site_fract_z
Si Si1 0.254868 0.076198 0.802925
Si Si2 0.254375 0.420329 0.351409
Si Si3 0.128407 0.091223 0.681782
Si Si4 0.742719 0.079219 0.973224
Si Si5 0.873296 0.597728 0.854282
Si Si6 0.433333 0.743785 0.187111
Si Si7 0.066342 0.244806 0.686266
Si Si8 0.747095 0.421050 0.972286
O O1 0.520135 0.100365 0.818181
O O2 0.209405 0.082691 0.741368
O O3 0.012700 0.101969 0.829823
O O4 0.250000 0.000000 0.816865
O O5 0.250000 0.500000 0.348465
O O6 0.226913 0.403180 0.412213
O O7 0.359125 0.067307 0.648865
O O8 0.085174 0.168306 0.672779
O O9 0.860842 0.064399 0.671823
O O10 0.750000 0.000000 0.976414
O O11 0.497889 0.101018 0.002246
O O12 0.916524 0.667040 0.825946
O O13 0.798458 0.605644 0.914332
O O14 0.436566 0.750000 0.250000
O O15 0.682224 0.772036 0.166917
O O16 0.184748 0.771139 0.166117
O O17 0.062482 0.250000 0.750000
O O18 0.750000 0.500000 0.968877
O O19 0.510737 0.402301 0.006111
#
# Coordination Sequence:
#
# PCOD9408676 Si02
#       8
#     8   8   8   8   8   8   8   8
#     4  10  19  29  39  54  82 118 147 171 207 258
#     4   9  17  28  39  52  76 111 142 173 216 257
#     4  10  19  29  44  66  88 117 151 185 223 274
#     4   9  15  23  37  55  71  92 130 176 215 249
#     4  10  19  31  48  68  90 120 156 198 243 284
#     4   8  14  25  42  65  91 116 139 170 224 287
#     4   8  14  25  40  59  85 114 135 165 210 256
#     4  10  21  36  51  67  91 128 174 220 259 289
#
# _framework density 21.890989999999999
#
# number of rings (size 3 to 8) (size 9 to 14) (size 15 to 20)
#    0.000    2.750    0.000    2.250    0.000    4.000 
#    0.000    0.000    0.000    0.000    0.000    0.000 
#    0.000    0.000    0.000  360.000    0.000   80.000 
#
# Total GULP energy -356873.190876 kJ/mol
# GULP energy per Si atom -5576.143607 kJ/mol
# Density = 2.184117 g / cm^3
# Si number density = 21.890990 Si / 1000 Ang^3
#
#
#
# Elastic Constant Matrix: (Units=GPa)
#
#
# Indices 1 2 3 4 5 6 
#
# 1 265.6673 29.9810 65.9042 0.0000 0.0000 0.0000
# 2 29.9810 56.1644 -9.0938 0.0000 0.0000 0.0000
# 3 65.9042 -9.0938 65.6566 0.0000 0.0000 0.0000
# 4 0.0000 0.0000 0.0000 13.5951 0.0000 0.0000
# 5 0.0000 0.0000 0.0000 0.0000 41.2372 0.0000
# 6 0.0000 0.0000 0.0000 0.0000 0.0000 28.5464
#
#
#
# Elastic Compliance Matrix: (Units=1/GPa)
#
#
# Indices 1 2 3 4 5 6 
#
# 1 0.005826 -0.004150 -0.006422 0.000000 0.000000 0.000000
# 2 -0.004150 0.021169 0.007097 0.000000 0.000000 0.000000
# 3 -0.006422 0.007097 0.022660 0.000000 0.000000 0.000000
# 4 0.000000 0.000000 0.000000 0.073556 0.000000 0.000000
# 5 0.000000 0.000000 0.000000 0.000000 0.024250 0.000000
# 6 0.000000 0.000000 0.000000 0.000000 0.000000 0.035031
#
#
# Mechanical properties :
#
#
# Convention : Reuss Voigt Hill
#
# Bulk Modulus (GPa) = 23.41603 62.34121 42.87862
# Shear Modulus (GPa) = 24.54880 36.72222 30.63551
#
# Velocity S-wave (km/s) = 3.35238 4.10018 3.74499
# Velocity P-wave (km/s) = 5.06996 7.13829 6.19111
#
# Compressibility (1/GPa) = 0.04270579
#
# Stress axis : x y z
#
# Youngs Moduli (GPa) = 171.65693 47.23863 44.13011
#
# Poissons Ratio (x) = 0.19602 0.28342
# Poissons Ratio (y) = 0.71231 -0.31320
# Poissons Ratio (z) = 1.10243 -0.33527
#
# Static dielectric constant tensor:
#      x y z
#    x 1.912780 0.000000 0.000000 
#    y 0.000000 1.770530 0.000000 
#    z 0.000000 0.000000 1.681070 
# 
# From -- ./inp_files/35325.got.cif
#   From: 2010.05.17/outbox.cif.g08.bks.cpg/sg52_18_cif.got.tgz:35325.got - 2010.06.03 12:15:38.
