data_PCOD9408465
_publ_section_title
;
Structure prediction by ZEFSAII (Michael W. Deem and Ramdas Pophale) SiO2 
 PCOD9408465
Probable space group: P N N A
;
_chemical_formula_sum "Si O2"
_cell_formula_units_Z 32
_cell_length_a 18.442101
_cell_length_b 8.750563
_cell_length_c 8.305620
_cell_angle_alpha 90.000000
_cell_angle_beta 90.000000
_cell_angle_gamma 90.000000
_cell_volume 1340.350712
_symmetry_space_group_name_H-M "P N N A"
_symmetry_group_IT_number 52
_symmetry_cell_setting 'orthorhombic'
loop_
_space_group_symop_operation_xyz
x,y,z
1/2-x,-y,z
x,1/2-y,1/2-z
1/2-x,1/2+y,1/2-z
-x,-y,-z
1/2+x,y,-z
-x,1/2+y,1/2+z
1/2+x,1/2-y,1/2+z
loop_
_atom_site_type_symbol
_atom_site_label
_atom_site_fract_x
_atom_site_fract_y
_atom_site_fract_z
Si Si1 0.594363 0.037385 0.308184
Si Si2 0.777860 0.750000 0.250000
Si Si3 0.480918 0.250000 0.750000
Si Si4 0.250000 0.500000 0.499034
Si Si5 0.904197 0.971802 0.920773
Si Si6 0.973475 0.250000 0.750000
O O1 0.668697 0.128231 0.342667
O O2 0.527831 0.145571 0.356030
O O3 0.572830 0.864565 0.347659
O O4 0.592068 0.036578 0.113190
O O5 0.736165 0.644660 0.379237
O O6 0.537778 0.356260 0.653618
O O7 0.181281 0.452570 0.392829
O O8 0.926123 0.135456 0.852862
#
# Coordination Sequence:
#
# PCOD9408465 Si02
#       6
#     8   4   4   4   8   4
#     4   9  19  37  57  83 111 139 188 240 280 317
#     4   9  20  39  62  79 106 151 188 238 276 325
#     4  10  18  34  60  86 114 146 182 236 292 328
#     4  10  22  42  56  80 118 150 192 226 278 340
#     4  10  21  36  56  81 117 153 182 234 277 332
#     4   9  16  33  56  79 110 145 180 224 284 327
#
# _framework density 23.874348999999999
#
# number of rings (size 3 to 8) (size 9 to 14) (size 15 to 20)
#    0.000    2.500    0.000    3.000    0.000    5.000 
#    0.000   55.000    0.000    0.000    0.000    0.000 
#    0.000    0.000    0.000    0.000    0.000    0.000 
#
# Total GULP energy -178560.952415 kJ/mol
# GULP energy per Si atom -5580.029763 kJ/mol
# Density = 2.382001 g / cm^3
# Si number density = 23.874349 Si / 1000 Ang^3
#
#
#
# Elastic Constant Matrix: (Units=GPa)
#
#
# Indices 1 2 3 4 5 6 
#
# 1 102.3921 31.3866 -4.2935 0.0000 0.0000 0.0000
# 2 31.3866 174.1714 23.2053 0.0000 0.0000 0.0000
# 3 -4.2935 23.2053 29.7538 0.0000 0.0000 0.0000
# 4 0.0000 0.0000 0.0000 40.1036 0.0000 0.0000
# 5 0.0000 0.0000 0.0000 0.0000 27.3745 0.0000
# 6 0.0000 0.0000 0.0000 0.0000 0.0000 47.8221
#
#
#
# Elastic Compliance Matrix: (Units=1/GPa)
#
#
# Indices 1 2 3 4 5 6 
#
# 1 0.010634 -0.002367 0.003380 0.000000 0.000000 0.000000
# 2 -0.002367 0.006934 -0.005749 0.000000 0.000000 0.000000
# 3 0.003380 -0.005749 0.038581 0.000000 0.000000 0.000000
# 4 0.000000 0.000000 0.000000 0.024935 0.000000 0.000000
# 5 0.000000 0.000000 0.000000 0.000000 0.036530 0.000000
# 6 0.000000 0.000000 0.000000 0.000000 0.000000 0.020911
#
#
# Mechanical properties :
#
#
# Convention : Reuss Voigt Hill
#
# Bulk Modulus (GPa) = 21.42393 45.21269 33.31831
# Shear Modulus (GPa) = 30.57068 40.12797 35.34933
#
# Velocity S-wave (km/s) = 3.58226 4.10420 3.85208
# Velocity P-wave (km/s) = 5.10913 6.43725 5.81126
#
# Compressibility (1/GPa) = 0.04667679
#
# Stress axis : x y z
#
# Youngs Moduli (GPa) = 94.04198 144.21818 25.91960
#
# Poissons Ratio (x) = 0.34130 -0.08761
# Poissons Ratio (y) = 0.22256 0.14902
# Poissons Ratio (z) = -0.31788 0.82916
#
# Static dielectric constant tensor:
#      x y z
#    x 1.989250 0.000000 0.000000 
#    y 0.000000 2.009290 0.000000 
#    z 0.000000 0.000000 1.968690 
# 
# From -- ./inp_files/12888.got.cif
#   From: 2010.05.17/outbox.cif.g08.bks.cpg/sg52_7_cif.got.tgz:12888.got - 2010.06.03 12:15:38.
