data_PCOD9408067
_publ_section_title
;
Structure prediction by ZEFSAII (Michael W. Deem and Ramdas Pophale) SiO2 
 PCOD9408067
Probable space group: P N N A
;
_chemical_formula_sum "Si O2"
_cell_formula_units_Z 48
_cell_length_a 14.850392
_cell_length_b 7.520944
_cell_length_c 17.213483
_cell_angle_alpha 90.000000
_cell_angle_beta 90.000000
_cell_angle_gamma 90.000000
_cell_volume 1922.556128
_symmetry_space_group_name_H-M "P N N A"
_symmetry_group_IT_number 52
_symmetry_cell_setting 'orthorhombic'
loop_
_space_group_symop_operation_xyz
x,y,z
1/2-x,-y,z
x,1/2-y,1/2-z
1/2-x,1/2+y,1/2-z
-x,-y,-z
1/2+x,y,-z
-x,1/2+y,1/2+z
1/2+x,1/2-y,1/2+z
loop_
_atom_site_type_symbol
_atom_site_label
_atom_site_fract_x
_atom_site_fract_y
_atom_site_fract_z
Si Si1 0.980639 0.600865 0.879916
Si Si2 0.038610 0.766655 0.035088
Si Si3 0.619501 0.122450 0.125333
Si Si4 0.355436 0.508087 0.789412
Si Si5 0.257558 0.278005 0.999875
Si Si6 0.294349 0.810961 0.332273
O O1 0.954723 0.399054 0.904787
O O2 0.901086 0.671711 0.827545
O O3 0.075972 0.613851 0.837151
O O4 0.980975 0.698366 0.962432
O O5 0.138668 0.785960 0.000926
O O6 0.975343 0.906982 0.080454
O O7 0.613367 0.303019 0.176031
O O8 0.637974 0.987905 0.196042
O O9 0.697165 0.177753 0.064132
O O10 0.250000 0.500000 0.808088
O O11 0.250000 0.500000 0.990602
O O12 0.224938 0.219118 0.085736
O O13 0.256629 0.750000 0.250000
O O14 0.250000 0.000000 0.344818
#
# Coordination Sequence:
#
# PCOD9408067 Si02
#       6
#     8   8   8   8   8   8
#     4  10  18  35  58  85 116 146 199 256 298 360
#     4  10  17  31  61  86 108 147 202 254 300 339
#     4  10  20  34  57  88 118 148 202 258 299 364
#     4  10  21  36  54  86 122 156 192 246 319 369
#     4  11  18  35  60  85 111 151 201 250 295 355
#     4  11  23  40  61  90 122 157 205 255 304 361
#
# _framework density 24.966761000000002
#
# number of rings (size 3 to 8) (size 9 to 14) (size 15 to 20)
#    0.000    1.667    5.000    3.500    0.000    1.333 
#    6.000    0.833    0.000    2.000    0.000    0.000 
#    0.000    0.000    0.000    0.000    0.000    0.000 
#
# Total GULP energy -267962.884236 kJ/mol
# GULP energy per Si atom -5582.560088 kJ/mol
# Density = 2.490994 g / cm^3
# Si number density = 24.966761 Si / 1000 Ang^3
#
#
#
# Elastic Constant Matrix: (Units=GPa)
#
#
# Indices 1 2 3 4 5 6 
#
# 1 129.3565 -11.7588 24.3105 0.0000 0.0000 0.0000
# 2 -11.7588 42.1225 -5.0973 0.0000 0.0000 0.0000
# 3 24.3105 -5.0973 168.4274 0.0000 0.0000 0.0000
# 4 0.0000 0.0000 0.0000 12.4070 0.0000 0.0000
# 5 0.0000 0.0000 0.0000 0.0000 -6.9008 0.0000
# 6 0.0000 0.0000 0.0000 0.0000 0.0000 17.1245
#
#
#
# Elastic Compliance Matrix: (Units=1/GPa)
#
#
# Indices 1 2 3 4 5 6 
#
# 1 0.008133 0.002136 -0.001109 0.000000 0.000000 0.000000
# 2 0.002136 0.024389 0.000430 0.000000 0.000000 0.000000
# 3 -0.001109 0.000430 0.006110 0.000000 0.000000 0.000000
# 4 0.000000 0.000000 0.000000 0.080600 0.000000 0.000000
# 5 0.000000 0.000000 0.000000 0.000000 -0.144911 0.000000
# 6 0.000000 0.000000 0.000000 0.000000 0.000000 0.058396
#
#
# Mechanical properties :
#
#
# Convention : Reuss Voigt Hill
#
# Bulk Modulus (GPa) = 24.06989 39.42388 31.74689
# Shear Modulus (GPa) = 114.54174 26.68961 70.61567
#
# Velocity S-wave (km/s) = 6.78066 3.27311 5.32403
# Velocity P-wave (km/s) = 8.42406 5.48718 7.10894
#
# Compressibility (1/GPa) = 0.04154568
#
# Stress axis : x y z
#
# Youngs Moduli (GPa) = 122.95229 41.00269 163.65552
#
# Poissons Ratio (x) = -0.08759 0.18154
# Poissons Ratio (y) = -0.26265 -0.07033
# Poissons Ratio (z) = 0.13639 -0.01762
#
# Static dielectric constant tensor:
#      x y z
#    x 1.984010 0.000000 0.000000 
#    y 0.000000 1.756730 0.000000 
#    z 0.000000 0.000000 1.983300 
# 
# From -- ./inp_files/27193.got.cif
#   From: 2010.05.17/outbox.cif.g08.bks.cpg/sg52_14_cif.got.tgz:27193.got - 2010.06.03 12:15:38.
