data_PCOD9408605
_publ_section_title
;
Structure prediction by ZEFSAII (Michael W. Deem and Ramdas Pophale) SiO2 
 PCOD9408605
Probable space group: P N N A
;
_chemical_formula_sum "Si O2"
_cell_formula_units_Z 32
_cell_length_a 5.213932
_cell_length_b 16.680625
_cell_length_c 15.829425
_cell_angle_alpha 90.000000
_cell_angle_beta 90.000000
_cell_angle_gamma 90.000000
_cell_volume 1376.711123
_symmetry_space_group_name_H-M "P N N A"
_symmetry_group_IT_number 52
_symmetry_cell_setting 'orthorhombic'
loop_
_space_group_symop_operation_xyz
x,y,z
1/2-x,-y,z
x,1/2-y,1/2-z
1/2-x,1/2+y,1/2-z
-x,-y,-z
1/2+x,y,-z
-x,1/2+y,1/2+z
1/2+x,1/2-y,1/2+z
loop_
_atom_site_type_symbol
_atom_site_label
_atom_site_fract_x
_atom_site_fract_y
_atom_site_fract_z
Si Si1 0.373541 0.084636 0.738264
Si Si2 0.713302 0.640700 0.054505
Si Si3 0.691133 0.089517 0.887472
Si Si4 0.302750 0.820365 0.883396
O O1 0.357064 0.092324 0.638780
O O2 0.647987 0.087967 0.784803
O O3 0.228720 0.159024 0.783577
O O4 0.250000 0.000000 0.765396
O O5 0.725752 0.733290 0.085335
O O6 0.490680 0.625229 0.986278
O O7 0.413113 0.118371 0.918240
O O8 0.911436 0.153273 0.905342
O O9 0.750000 0.000000 0.915360
#
# Coordination Sequence:
#
# PCOD9408605 Si02
#       4
#     8   8   8   8
#     4  10  23  42  71  98 125 169 226 274 320 376
#     4  12  28  44  62  98 143 180 209 259 337 407
#     4  10  18  37  68 100 119 154 215 287 318 358
#     4  10  21  41  68  93 127 169 225 270 314 380
#
# _framework density 23.2438
#
# number of rings (size 3 to 8) (size 9 to 14) (size 15 to 20)
#    1.500    0.000    2.500    3.000    3.500    1.000 
#    4.500    0.000    0.000   25.500    0.000    0.000 
#    0.000    0.000    0.000    0.000    0.000    0.000 
#
# Total GULP energy -178619.368074 kJ/mol
# GULP energy per Si atom -5581.855252 kJ/mol
# Density = 2.319090 g / cm^3
# Si number density = 23.243800 Si / 1000 Ang^3
#
#
#
# Elastic Constant Matrix: (Units=GPa)
#
#
# Indices 1 2 3 4 5 6 
#
# 1 119.7204 14.2048 7.5677 0.0000 0.0000 0.0000
# 2 14.2048 52.4571 3.3259 0.0000 0.0000 0.0000
# 3 7.5677 3.3259 110.9135 0.0000 0.0000 0.0000
# 4 0.0000 0.0000 0.0000 26.9267 0.0000 0.0000
# 5 0.0000 0.0000 0.0000 0.0000 48.1981 0.0000
# 6 0.0000 0.0000 0.0000 0.0000 0.0000 15.9033
#
#
#
# Elastic Compliance Matrix: (Units=1/GPa)
#
#
# Indices 1 2 3 4 5 6 
#
# 1 0.008660 -0.002312 -0.000522 0.000000 0.000000 0.000000
# 2 -0.002312 0.019717 -0.000433 0.000000 0.000000 0.000000
# 3 -0.000522 -0.000433 0.009065 0.000000 0.000000 0.000000
# 4 0.000000 0.000000 0.000000 0.037138 0.000000 0.000000
# 5 0.000000 0.000000 0.000000 0.000000 0.020748 0.000000
# 6 0.000000 0.000000 0.000000 0.000000 0.000000 0.062880
#
#
# Mechanical properties :
#
#
# Convention : Reuss Voigt Hill
#
# Bulk Modulus (GPa) = 32.35473 37.03199 34.69336
# Shear Modulus (GPa) = 28.56434 35.40513 31.98473
#
# Velocity S-wave (km/s) = 3.50937 3.90706 3.71355
# Velocity P-wave (km/s) = 5.51098 6.02662 5.77455
#
# Compressibility (1/GPa) = 0.03090738
#
# Stress axis : x y z
#
# Youngs Moduli (GPa) = 115.47241 50.71833 110.31903
#
# Poissons Ratio (x) = 0.11726 0.05754
# Poissons Ratio (y) = 0.26697 0.04782
# Poissons Ratio (z) = 0.06023 0.02199
#
# Static dielectric constant tensor:
#      x y z
#    x 1.834410 0.000000 0.000000 
#    y 0.000000 1.845410 0.000000 
#    z 0.000000 0.000000 1.974680 
# 
# From -- ./inp_files/23464.got.cif
#   From: 2010.05.17/outbox.cif.g08.bks.cpg/sg52_12_cif.got.tgz:23464.got - 2010.06.03 12:15:38.
