data_PCOD9408165
_publ_section_title
;
Structure prediction by ZEFSAII (Michael W. Deem and Ramdas Pophale) SiO2 
 PCOD9408165
Probable space group: P N N A
;
_chemical_formula_sum "Si O2"
_cell_formula_units_Z 40
_cell_length_a 7.593659
_cell_length_b 8.661076
_cell_length_c 24.465467
_cell_angle_alpha 90.000000
_cell_angle_beta 90.000000
_cell_angle_gamma 90.000000
_cell_volume 1609.075604
_symmetry_space_group_name_H-M "P N N A"
_symmetry_group_IT_number 52
_symmetry_cell_setting 'orthorhombic'
loop_
_space_group_symop_operation_xyz
x,y,z
1/2-x,-y,z
x,1/2-y,1/2-z
1/2-x,1/2+y,1/2-z
-x,-y,-z
1/2+x,y,-z
-x,1/2+y,1/2+z
1/2+x,1/2-y,1/2+z
loop_
_atom_site_type_symbol
_atom_site_label
_atom_site_fract_x
_atom_site_fract_y
_atom_site_fract_z
Si Si1 0.622763 0.706740 0.080700
Si Si2 0.510856 0.330971 0.691927
Si Si3 0.422047 0.098899 0.407100
Si Si4 0.797042 0.821584 0.985192
Si Si5 0.562382 0.686413 0.690254
O O1 0.596535 0.749646 0.143626
O O2 0.558782 0.531057 0.073481
O O3 0.476681 0.805788 0.047899
O O4 0.794245 0.758999 0.047254
O O5 0.471260 0.250000 0.750000
O O6 0.483675 0.514935 0.687737
O O7 0.723476 0.317317 0.683820
O O8 0.335627 0.209500 0.452341
O O9 0.495353 0.196482 0.356608
O O10 0.250000 0.000000 0.386731
O O11 0.750000 0.000000 0.983721
O O12 0.523528 0.750000 0.750000
#
# Coordination Sequence:
#
# PCOD9408165 Si02
#       5
#     8   8   8   8   8
#     4  11  22  37  57  83 119 151 192 240 292 352
#     4  10  19  32  54  83 114 146 187 241 297 343
#     4  10  19  33  51  78 116 151 186 236 292 352
#     4  11  22  37  55  82 113 155 193 238 287 347
#     4  10  18  28  51  79 115 147 181 238 300 346
#
# _framework density 24.858992000000001
#
# number of rings (size 3 to 8) (size 9 to 14) (size 15 to 20)
#    0.000    1.600    4.000    3.600    2.800    0.000 
#    0.000    0.000    0.000    0.000    0.000   14.000 
#    0.000    0.000    0.000    0.200    0.000    0.000 
#
# Total GULP energy -224132.578283 kJ/mol
# GULP energy per Si atom -5603.314457 kJ/mol
# Density = 2.480241 g / cm^3
# Si number density = 24.858992 Si / 1000 Ang^3
#
#
#
# Elastic Constant Matrix: (Units=GPa)
#
#
# Indices 1 2 3 4 5 6 
#
# 1 82.2351 2.1341 17.0866 0.0000 0.0000 0.0000
# 2 2.1341 195.3930 58.8950 0.0000 0.0000 0.0000
# 3 17.0866 58.8950 179.8082 0.0000 0.0000 0.0000
# 4 0.0000 0.0000 0.0000 49.7850 0.0000 0.0000
# 5 0.0000 0.0000 0.0000 0.0000 97.4183 0.0000
# 6 0.0000 0.0000 0.0000 0.0000 0.0000 10.3554
#
#
#
# Elastic Compliance Matrix: (Units=1/GPa)
#
#
# Indices 1 2 3 4 5 6 
#
# 1 0.012416 0.000244 -0.001260 0.000000 0.000000 0.000000
# 2 0.000244 0.005683 -0.001885 0.000000 0.000000 0.000000
# 3 -0.001260 -0.001885 0.006299 0.000000 0.000000 0.000000
# 4 0.000000 0.000000 0.000000 0.020086 0.000000 0.000000
# 5 0.000000 0.000000 0.000000 0.000000 0.010265 0.000000
# 6 0.000000 0.000000 0.000000 0.000000 0.000000 0.096568
#
#
# Mechanical properties :
#
#
# Convention : Reuss Voigt Hill
#
# Bulk Modulus (GPa) = 53.77290 68.18530 60.97910
# Shear Modulus (GPa) = 30.61543 56.79977 43.70760
#
# Velocity S-wave (km/s) = 3.51317 4.78523 4.19766
# Velocity P-wave (km/s) = 6.17532 7.61706 6.93376
#
# Compressibility (1/GPa) = 0.01859673
#
# Stress axis : x y z
#
# Youngs Moduli (GPa) = 80.54332 175.95359 158.76733
#
# Poissons Ratio (x) = -0.04295 0.20001
# Poissons Ratio (y) = -0.01966 0.29923
# Poissons Ratio (z) = 0.10147 0.33162
#
# Static dielectric constant tensor:
#      x y z
#    x 2.162250 0.000000 0.000000 
#    y 0.000000 1.911930 0.000000 
#    z 0.000000 0.000000 1.899170 
# 
# From -- ./inp_files/39224.got.cif
#   From: 2010.05.17/outbox.cif.g08.bks.cpg/sg52_20_cif.got.tgz:39224.got - 2010.06.03 12:15:38.
