data_PCOD9408395
_publ_section_title
;
Structure prediction by ZEFSAII (Michael W. Deem and Ramdas Pophale) SiO2 
 PCOD9408395
Probable space group: P N N A
;
_chemical_formula_sum "Si O2"
_cell_formula_units_Z 64
_cell_length_a 14.947869
_cell_length_b 23.614747
_cell_length_c 8.725769
_cell_angle_alpha 90.000000
_cell_angle_beta 90.000000
_cell_angle_gamma 90.000000
_cell_volume 3080.110461
_symmetry_space_group_name_H-M "P N N A"
_symmetry_group_IT_number 52
_symmetry_cell_setting 'orthorhombic'
loop_
_space_group_symop_operation_xyz
x,y,z
1/2-x,-y,z
x,1/2-y,1/2-z
1/2-x,1/2+y,1/2-z
-x,-y,-z
1/2+x,y,-z
-x,1/2+y,1/2+z
1/2+x,1/2-y,1/2+z
loop_
_atom_site_type_symbol
_atom_site_label
_atom_site_fract_x
_atom_site_fract_y
_atom_site_fract_z
Si Si1 0.458349 0.950376 0.340614
Si Si2 0.916649 0.429042 0.873543
Si Si3 0.730626 0.440705 0.016245
Si Si4 0.516190 0.808634 0.662939
Si Si5 0.328546 0.822362 0.546298
Si Si6 0.596252 0.342006 0.698641
Si Si7 0.764119 0.217224 0.914068
Si Si8 0.572461 0.731469 0.408903
O O1 0.538555 0.932319 0.454998
O O2 0.367752 0.947321 0.443618
O O3 0.442903 0.905082 0.207549
O O4 0.461421 0.016182 0.293988
O O5 0.810212 0.436396 0.891343
O O6 0.938505 0.368341 0.801372
O O7 0.750000 0.500000 0.102654
O O8 0.727788 0.378221 0.087412
O O9 0.531659 0.750000 0.750000
O O10 0.410517 0.818064 0.661206
O O11 0.550048 0.789765 0.495861
O O12 0.374143 0.829077 0.375505
O O13 0.272623 0.765750 0.527281
O O14 0.687883 0.329610 0.608478
O O15 0.519433 0.301379 0.630347
O O16 0.775841 0.250000 0.750000
O O17 0.857241 0.197793 0.986686
O O18 0.614199 0.750000 0.250000
#
# Coordination Sequence:
#
# PCOD9408395 Si02
#       8
#     8   8   8   8   8   8   8   8
#     4   9  18  33  60  85 117 156 206 255 304 369
#     4  10  18  33  55  90 119 153 203 259 309 351
#     4   9  17  29  52  81 115 149 194 251 309 353
#     4  12  23  35  56  88 128 159 198 258 308 364
#     4  10  18  36  54  80 121 161 189 245 306 369
#     4  10  18  38  61  81 122 161 203 239 317 376
#     4  10  21  35  57  88 124 162 203 252 313 373
#     4  12  21  37  59  86 123 167 209 245 309 379
#
# _framework density 20.778473999999999
#
# number of rings (size 3 to 8) (size 9 to 14) (size 15 to 20)
#    0.000    1.750    5.000    1.500    0.000    2.500 
#    0.000    0.000    0.000    0.750    0.000    0.000 
#    0.000    0.000    0.000    0.000    0.000    0.000 
#
# Total GULP energy -356598.409253 kJ/mol
# GULP energy per Si atom -5571.850145 kJ/mol
# Density = 2.073118 g / cm^3
# Si number density = 20.778474 Si / 1000 Ang^3
#
#
#
# Elastic Constant Matrix: (Units=GPa)
#
#
# Indices 1 2 3 4 5 6 
#
# 1 79.4900 7.6363 17.6184 0.0000 0.0000 0.0000
# 2 7.6363 137.1685 17.3587 0.0000 0.0000 0.0000
# 3 17.6184 17.3587 28.0207 0.0000 0.0000 0.0000
# 4 0.0000 0.0000 0.0000 13.1054 0.0000 0.0000
# 5 0.0000 0.0000 0.0000 0.0000 17.4690 0.0000
# 6 0.0000 0.0000 0.0000 0.0000 0.0000 22.2870
#
#
#
# Elastic Compliance Matrix: (Units=1/GPa)
#
#
# Indices 1 2 3 4 5 6 
#
# 1 0.014635 0.000380 -0.009437 0.000000 0.000000 0.000000
# 2 0.000380 0.007920 -0.005145 0.000000 0.000000 0.000000
# 3 -0.009437 -0.005145 0.044809 0.000000 0.000000 0.000000
# 4 0.000000 0.000000 0.000000 0.076304 0.000000 0.000000
# 5 0.000000 0.000000 0.000000 0.000000 0.057244 0.000000
# 6 0.000000 0.000000 0.000000 0.000000 0.000000 0.044869
#
#
# Mechanical properties :
#
#
# Convention : Reuss Voigt Hill
#
# Bulk Modulus (GPa) = 25.66808 36.65622 31.16215
# Shear Modulus (GPa) = 17.41095 24.04332 20.72714
#
# Velocity S-wave (km/s) = 2.89785 3.40535 3.16180
# Velocity P-wave (km/s) = 4.85559 5.75687 5.32533
#
# Compressibility (1/GPa) = 0.03895889
#
# Stress axis : x y z
#
# Youngs Moduli (GPa) = 68.32706 126.25779 22.31677
#
# Poissons Ratio (x) = -0.04792 0.21061
# Poissons Ratio (y) = -0.02593 0.11483
# Poissons Ratio (z) = 0.64483 0.64963
#
# Static dielectric constant tensor:
#      x y z
#    x 1.798390 0.000000 0.000000 
#    y 0.000000 1.832010 0.000000 
#    z 0.000000 0.000000 1.812130 
# 
# From -- ./inp_files/11023.got.cif
#   From: 2010.05.17/outbox.cif.g08.bks.cpg/sg52_6_cif.got.tgz:11023.got - 2010.06.03 12:15:38.
