data_PCOD9408147
_publ_section_title
;
Structure prediction by ZEFSAII (Michael W. Deem and Ramdas Pophale) SiO2 
 PCOD9408147
Probable space group: P N N A
;
_chemical_formula_sum "Si O2"
_cell_formula_units_Z 48
_cell_length_a 18.579355
_cell_length_b 14.264211
_cell_length_c 6.929599
_cell_angle_alpha 90.000000
_cell_angle_beta 90.000000
_cell_angle_gamma 90.000000
_cell_volume 1836.481218
_symmetry_space_group_name_H-M "P N N A"
_symmetry_group_IT_number 52
_symmetry_cell_setting 'orthorhombic'
loop_
_space_group_symop_operation_xyz
x,y,z
1/2-x,-y,z
x,1/2-y,1/2-z
1/2-x,1/2+y,1/2-z
-x,-y,-z
1/2+x,y,-z
-x,1/2+y,1/2+z
1/2+x,1/2-y,1/2+z
loop_
_atom_site_type_symbol
_atom_site_label
_atom_site_fract_x
_atom_site_fract_y
_atom_site_fract_z
Si Si1 0.798896 0.584608 0.393363
Si Si2 0.048214 0.472880 0.721636
Si Si3 0.037174 0.847034 0.959113
Si Si4 0.725272 0.103418 0.568601
Si Si5 0.413349 0.803378 0.537633
Si Si6 0.308732 0.265623 0.518760
O O1 0.750000 0.500000 0.457304
O O2 0.881388 0.555618 0.407195
O O3 0.785202 0.594904 0.164571
O O4 0.762935 0.670911 0.502068
O O5 0.045139 0.585382 0.729149
O O6 0.056756 0.406555 0.906397
O O7 0.981659 0.425624 0.616340
O O8 0.113161 0.805488 0.017401
O O9 0.974620 0.768187 0.961423
O O10 0.651333 0.162469 0.604981
O O11 0.793054 0.170985 0.593981
O O12 0.750000 0.000000 0.633014
O O13 0.392288 0.750000 0.750000
O O14 0.311241 0.250000 0.750000
#
# Coordination Sequence:
#
# PCOD9408147 Si02
#       6
#     8   8   8   8   8   8
#     4   9  14  26  46  71  96 122 153 205 262 304
#     4   9  17  29  48  71 103 131 158 207 265 316
#     4  10  18  28  45  72 102 131 164 199 259 317
#     4   9  17  28  46  65  94 133 160 203 264 307
#     4   9  17  31  47  70 103 131 162 210 268 317
#     4  10  18  27  44  72 101 126 163 206 251 307
#
# _framework density 26.136942000000001
#
# number of rings (size 3 to 8) (size 9 to 14) (size 15 to 20)
#    0.000    2.667    1.667    3.500    2.333    0.000 
#    0.000    0.833    0.000    0.000    0.000   14.000 
#    0.000    0.000    0.000    0.000    0.000    0.000 
#
# Total GULP energy -267650.067421 kJ/mol
# GULP energy per Si atom -5576.043071 kJ/mol
# Density = 2.607745 g / cm^3
# Si number density = 26.136942 Si / 1000 Ang^3
#
#
#
# Elastic Constant Matrix: (Units=GPa)
#
#
# Indices 1 2 3 4 5 6 
#
# 1 200.4488 114.2800 31.9586 0.0000 0.0000 0.0000
# 2 114.2800 212.4487 11.0839 0.0000 0.0000 0.0000
# 3 31.9586 11.0839 70.7249 0.0000 0.0000 0.0000
# 4 0.0000 0.0000 0.0000 4.2832 0.0000 0.0000
# 5 0.0000 0.0000 0.0000 0.0000 28.1433 0.0000
# 6 0.0000 0.0000 0.0000 0.0000 0.0000 53.9177
#
#
#
# Elastic Compliance Matrix: (Units=1/GPa)
#
#
# Indices 1 2 3 4 5 6 
#
# 1 0.007731 -0.004009 -0.002865 0.000000 0.000000 0.000000
# 2 -0.004009 0.006825 0.000742 0.000000 0.000000 0.000000
# 3 -0.002865 0.000742 0.015318 0.000000 0.000000 0.000000
# 4 0.000000 0.000000 0.000000 0.233472 0.000000 0.000000
# 5 0.000000 0.000000 0.000000 0.000000 0.035532 0.000000
# 6 0.000000 0.000000 0.000000 0.000000 0.000000 0.018547
#
#
# Mechanical properties :
#
#
# Convention : Reuss Voigt Hill
#
# Bulk Modulus (GPa) = 56.78884 88.69640 72.74262
# Shear Modulus (GPa) = 14.90043 39.02216 26.96129
#
# Velocity S-wave (km/s) = 2.39025 3.86811 3.21524
# Velocity P-wave (km/s) = 5.42147 7.34566 6.45566
#
# Compressibility (1/GPa) = 0.01760909
#
# Stress axis : x y z
#
# Youngs Moduli (GPa) = 129.34122 146.51925 65.28386
#
# Poissons Ratio (x) = 0.58746 0.18706
# Poissons Ratio (y) = 0.51858 -0.04845
# Poissons Ratio (z) = 0.37060 -0.10874
#
# Static dielectric constant tensor:
#      x y z
#    x 2.038180 0.000000 0.000000 
#    y 0.000000 2.161900 0.000000 
#    z 0.000000 0.000000 2.220970 
# 
# From -- ./inp_files/20739.got.cif
#   From: 2010.05.17/outbox.cif.g08.bks.cpg/sg52_11_cif.got.tgz:20739.got - 2010.06.03 12:15:38.
