data_PCOD9408844
_publ_section_title
;
Structure prediction by ZEFSAII (Michael W. Deem and Ramdas Pophale) SiO2 
 PCOD9408844
Probable space group: P N N A
;
_chemical_formula_sum "Si O2"
_cell_formula_units_Z 60
_cell_length_a 17.423193
_cell_length_b 12.038393
_cell_length_c 14.122636
_cell_angle_alpha 90.000000
_cell_angle_beta 90.000000
_cell_angle_gamma 90.000000
_cell_volume 2962.183988
_symmetry_space_group_name_H-M "P N N A"
_symmetry_group_IT_number 52
_symmetry_cell_setting 'orthorhombic'
loop_
_space_group_symop_operation_xyz
x,y,z
1/2-x,-y,z
x,1/2-y,1/2-z
1/2-x,1/2+y,1/2-z
-x,-y,-z
1/2+x,y,-z
-x,1/2+y,1/2+z
1/2+x,1/2-y,1/2+z
loop_
_atom_site_type_symbol
_atom_site_label
_atom_site_fract_x
_atom_site_fract_y
_atom_site_fract_z
Si Si1 0.871315 0.302191 0.426882
Si Si2 0.403378 0.092575 0.457148
Si Si3 0.430820 0.655896 0.979362
Si Si4 0.700543 0.190731 0.027061
Si Si5 0.764263 0.184162 0.657631
Si Si6 0.122414 0.510526 0.425124
Si Si7 0.523648 0.314829 0.655663
Si Si8 0.750000 0.000000 0.776307
O O1 0.882542 0.173564 0.455116
O O2 0.780429 0.321990 0.417287
O O3 0.899038 0.379897 0.515907
O O4 0.931434 0.328774 0.344977
O O5 0.489433 0.127813 0.426448
O O6 0.338303 0.123561 0.383316
O O7 0.402066 0.964101 0.485501
O O8 0.362967 0.725914 0.930193
O O9 0.453898 0.733775 0.068437
O O10 0.724557 0.247095 0.925580
O O11 0.662545 0.073585 0.000165
O O12 0.788354 0.250000 0.750000
O O13 0.712450 0.090974 0.707691
O O14 0.060687 0.433834 0.370866
O O15 0.185079 0.543196 0.347107
O O16 0.548836 0.250000 0.750000
#
# Coordination Sequence:
#
# PCOD9408844 Si02
#       8
#     8   8   8   8   8   8   8   4
#     4  10  19  37  53  80 111 146 188 233 272 347
#     4   9  19  35  50  74 110 141 189 211 274 331
#     4   9  19  35  55  75 102 143 185 235 263 338
#     4  10  19  33  54  80 109 142 191 223 280 331
#     4  11  20  29  45  77 113 143 164 220 277 344
#     4  11  20  34  53  84 117 145 182 224 286 356
#     4  10  23  35  56  80 108 147 188 233 288 334
#     4  12  20  28  50  82 120 138 178 222 292 350
#
# _framework density 20.255326
#
# number of rings (size 3 to 8) (size 9 to 14) (size 15 to 20)
#    0.000    1.867    2.667    2.000    5.600    1.600 
#    0.000    0.000    0.000    0.800   17.333    0.000 
#    0.000    0.000    0.000    0.000    0.000    0.000 
#
# Total GULP energy -334370.798739 kJ/mol
# GULP energy per Si atom -5572.846646 kJ/mol
# Density = 2.020922 g / cm^3
# Si number density = 20.255326 Si / 1000 Ang^3
#
#
#
# Elastic Constant Matrix: (Units=GPa)
#
#
# Indices 1 2 3 4 5 6 
#
# 1 80.8216 4.1961 -5.0164 0.0000 0.0000 0.0000
# 2 4.1961 83.9482 -1.6413 0.0000 0.0000 0.0000
# 3 -5.0164 -1.6413 11.9744 0.0000 0.0000 0.0000
# 4 0.0000 0.0000 0.0000 17.8184 0.0000 0.0000
# 5 0.0000 0.0000 0.0000 0.0000 16.0903 0.0000
# 6 0.0000 0.0000 0.0000 0.0000 0.0000 32.2360
#
#
#
# Elastic Compliance Matrix: (Units=1/GPa)
#
#
# Indices 1 2 3 4 5 6 
#
# 1 0.012727 -0.000533 0.005259 0.000000 0.000000 0.000000
# 2 -0.000533 0.011966 0.001417 0.000000 0.000000 0.000000
# 3 0.005259 0.001417 0.085908 0.000000 0.000000 0.000000
# 4 0.000000 0.000000 0.000000 0.056122 0.000000 0.000000
# 5 0.000000 0.000000 0.000000 0.000000 0.062149 0.000000
# 6 0.000000 0.000000 0.000000 0.000000 0.000000 0.031021
#
#
# Mechanical properties :
#
#
# Convention : Reuss Voigt Hill
#
# Bulk Modulus (GPa) = 8.13763 19.09123 13.61443
# Shear Modulus (GPa) = 17.32668 25.17599 21.25134
#
# Velocity S-wave (km/s) = 2.92792 3.52935 3.24261
# Velocity P-wave (km/s) = 3.93148 5.10433 4.55580
#
# Compressibility (1/GPa) = 0.12288592
#
# Stress axis : x y z
#
# Youngs Moduli (GPa) = 78.57305 83.56685 11.64030
#
# Poissons Ratio (x) = 0.04457 -0.06121
# Poissons Ratio (y) = 0.04191 -0.01649
# Poissons Ratio (z) = -0.41318 -0.11839
#
# Static dielectric constant tensor:
#      x y z
#    x 1.811000 0.000000 0.000000 
#    y 0.000000 1.787490 0.000000 
#    z 0.000000 0.000000 1.689010 
# 
# From -- ./inp_files/28268.got.cif
#   From: 2010.05.17/outbox.cif.g08.bks.cpg/sg52_15_cif.got.tgz:28268.got - 2010.06.03 12:15:38.
