data_PCOD9408650
_publ_section_title
;
Structure prediction by ZEFSAII (Michael W. Deem and Ramdas Pophale) SiO2 
 PCOD9408650
Probable space group: P N N A
;
_chemical_formula_sum "Si O2"
_cell_formula_units_Z 56
_cell_length_a 22.043252
_cell_length_b 14.064072
_cell_length_c 9.330536
_cell_angle_alpha 90.000000
_cell_angle_beta 90.000000
_cell_angle_gamma 90.000000
_cell_volume 2892.633020
_symmetry_space_group_name_H-M "P N N A"
_symmetry_group_IT_number 52
_symmetry_cell_setting 'orthorhombic'
loop_
_space_group_symop_operation_xyz
x,y,z
1/2-x,-y,z
x,1/2-y,1/2-z
1/2-x,1/2+y,1/2-z
-x,-y,-z
1/2+x,y,-z
-x,1/2+y,1/2+z
1/2+x,1/2-y,1/2+z
loop_
_atom_site_type_symbol
_atom_site_label
_atom_site_fract_x
_atom_site_fract_y
_atom_site_fract_z
Si Si1 0.602159 0.287167 0.409544
Si Si2 0.378366 0.527272 0.197404
Si Si3 0.292879 0.798581 0.392722
Si Si4 0.197990 0.920616 0.520839
Si Si5 0.392730 0.141316 0.739893
Si Si6 0.072787 0.500252 0.514451
Si Si7 0.523166 0.175574 0.619551
O O1 0.613637 0.250000 0.250000
O O2 0.657588 0.259318 0.515526
O O3 0.591052 0.399751 0.413468
O O4 0.544307 0.231559 0.478237
O O5 0.328332 0.609838 0.172265
O O6 0.394654 0.500226 0.359534
O O7 0.438059 0.579361 0.134879
O O8 0.349709 0.442216 0.106179
O O9 0.269650 0.750000 0.250000
O O10 0.236462 0.826775 0.490222
O O11 0.159015 0.918333 0.663284
O O12 0.250000 0.000000 0.528073
O O13 0.371802 0.250000 0.750000
O O14 0.453424 0.149004 0.642456
O O15 0.409810 0.089943 0.887576
O O16 0.000000 0.500000 0.500000
O O17 0.538345 0.250000 0.750000
#
# Coordination Sequence:
#
# PCOD9408650 Si02
#       7
#     8   8   8   8   8   8   8
#     4  11  23  37  67 105 126 165 222 271 324 393
#     4  10  19  39  64  96 120 167 215 265 319 401
#     4  10  20  43  68  85 129 171 220 270 321 379
#     4  10  25  42  62  91 127 173 224 263 321 383
#     4  11  25  43  62  92 139 175 204 276 344 377
#     4  12  22  40  67 103 133 165 220 267 330 408
#     4  10  18  40  64  89 136 169 202 260 342 388
#
# _framework density 19.359524
#
# number of rings (size 3 to 8) (size 9 to 14) (size 15 to 20)
#    0.000    1.429    4.286    1.714    6.000    3.429 
#    0.000    2.857    0.000    0.000    0.000    0.000 
#    0.000    0.000    0.000    0.000    0.000    0.000 
#
# Total GULP energy -312413.381611 kJ/mol
# GULP energy per Si atom -5578.810386 kJ/mol
# Density = 1.931546 g / cm^3
# Si number density = 19.359524 Si / 1000 Ang^3
#
#
#
# Elastic Constant Matrix: (Units=GPa)
#
#
# Indices 1 2 3 4 5 6 
#
# 1 70.2903 16.8316 27.4803 0.0000 0.0000 0.0000
# 2 16.8316 74.2697 31.0174 0.0000 0.0000 0.0000
# 3 27.4803 31.0174 89.6926 0.0000 0.0000 0.0000
# 4 0.0000 0.0000 0.0000 22.1898 0.0000 0.0000
# 5 0.0000 0.0000 0.0000 0.0000 12.4355 0.0000
# 6 0.0000 0.0000 0.0000 0.0000 0.0000 7.3499
#
#
#
# Elastic Compliance Matrix: (Units=1/GPa)
#
#
# Indices 1 2 3 4 5 6 
#
# 1 0.016387 -0.001890 -0.004367 0.000000 0.000000 0.000000
# 2 -0.001890 0.015955 -0.004939 0.000000 0.000000 0.000000
# 3 -0.004367 -0.004939 0.014195 0.000000 0.000000 0.000000
# 4 0.000000 0.000000 0.000000 0.045066 0.000000 0.000000
# 5 0.000000 0.000000 0.000000 0.000000 0.080415 0.000000
# 6 0.000000 0.000000 0.000000 0.000000 0.000000 0.136057
#
#
# Mechanical properties :
#
#
# Convention : Reuss Voigt Hill
#
# Bulk Modulus (GPa) = 41.41488 42.76789 42.09138
# Shear Modulus (GPa) = 14.77041 18.98990 16.88016
#
# Velocity S-wave (km/s) = 2.76516 3.13534 2.95605
# Velocity P-wave (km/s) = 5.62439 5.93688 5.78274
#
# Compressibility (1/GPa) = 0.02414591
#
# Stress axis : x y z
#
# Youngs Moduli (GPa) = 61.02562 62.67524 70.44710
#
# Poissons Ratio (x) = 0.11845 0.30764
# Poissons Ratio (y) = 0.11533 0.34791
# Poissons Ratio (z) = 0.26650 0.30953
#
# Static dielectric constant tensor:
#      x y z
#    x 1.663360 0.000000 0.000000 
#    y 0.000000 1.738110 0.000000 
#    z 0.000000 0.000000 1.676260 
# 
# From -- ./inp_files/13431.got.cif
#   From: 2010.05.17/outbox.cif.g08.bks.cpg/sg52_7_cif.got.tgz:13431.got - 2010.06.03 12:15:38.
