data_PCOD9408144
_publ_section_title
;
Structure prediction by ZEFSAII (Michael W. Deem and Ramdas Pophale) SiO2 
 PCOD9408144
Probable space group: P N N A
;
_chemical_formula_sum "Si O2"
_cell_formula_units_Z 52
_cell_length_a 25.305704
_cell_length_b 5.195598
_cell_length_c 27.821990
_cell_angle_alpha 90.000000
_cell_angle_beta 90.000000
_cell_angle_gamma 90.000000
_cell_volume 3657.986977
_symmetry_space_group_name_H-M "P N N A"
_symmetry_group_IT_number 52
_symmetry_cell_setting 'orthorhombic'
loop_
_space_group_symop_operation_xyz
x,y,z
1/2-x,-y,z
x,1/2-y,1/2-z
1/2-x,1/2+y,1/2-z
-x,-y,-z
1/2+x,y,-z
-x,1/2+y,1/2+z
1/2+x,1/2-y,1/2+z
loop_
_atom_site_type_symbol
_atom_site_label
_atom_site_fract_x
_atom_site_fract_y
_atom_site_fract_z
Si Si1 0.401484 0.925721 0.088034
Si Si2 0.424414 0.058925 0.540332
Si Si3 0.864533 0.557763 0.476391
Si Si4 0.805963 0.156091 0.855430
Si Si5 0.250000 0.000000 0.425250
Si Si6 0.286874 0.250000 0.250000
Si Si7 0.250000 0.500000 0.493036
Si Si8 0.462143 0.427493 0.071421
O O1 0.352564 0.991115 0.121914
O O2 0.445082 0.151261 0.091082
O O3 0.428585 0.652406 0.096182
O O4 0.380042 0.937144 0.033125
O O5 0.380587 0.836064 0.543354
O O6 0.444475 0.064583 0.484787
O O7 0.399462 0.337689 0.548538
O O8 0.475784 0.988650 0.571316
O O9 0.803157 0.484510 0.476086
O O10 0.796389 0.405250 0.889444
O O11 0.817168 0.224736 0.800267
O O12 0.750000 0.000000 0.856255
O O13 0.242432 0.247513 0.459377
O O14 0.250000 0.500000 0.244822
#
# Coordination Sequence:
#
# PCOD9408144 Si02
#       8
#     8   8   8   8   4   4   4   8
#     4  10  19  27  43  58  74  94 123 159 199 231
#     4   9  17  29  41  53  76  98 122 149 191 232
#     4  10  18  27  40  57  76 102 121 154 191 231
#     4  11  22  33  46  60  79 101 128 163 206 253
#     4  12  20  30  43  56  78 100 124 168 192 250
#     4  10  22  34  46  58  76 102 130 156 198 254
#     4  12  22  28  41  64  82 100 132 160 198 238
#     4   9  18  29  41  58  72  94 123 154 189 238
#
# _framework density 14.215468
#
# number of rings (size 3 to 8) (size 9 to 14) (size 15 to 20)
#    0.000    1.846    3.077    1.846    6.462    3.692 
#    0.000    0.000    0.000    0.000    0.000    0.000 
#    0.000    0.000    0.000    0.000    0.000    0.000 
#
# Total GULP energy -289991.761348 kJ/mol
# GULP energy per Si atom -5576.764641 kJ/mol
# Density = 1.418311 g / cm^3
# Si number density = 14.215468 Si / 1000 Ang^3
#
#
#
# Elastic Constant Matrix: (Units=GPa)
#
#
# Indices 1 2 3 4 5 6 
#
# 1 43.9806 -10.1448 6.2725 0.0000 0.0000 0.0000
# 2 -10.1448 54.8109 -1.7329 0.0000 0.0000 0.0000
# 3 6.2725 -1.7329 19.2425 0.0000 0.0000 0.0000
# 4 0.0000 0.0000 0.0000 4.8115 0.0000 0.0000
# 5 0.0000 0.0000 0.0000 0.0000 7.0150 0.0000
# 6 0.0000 0.0000 0.0000 0.0000 0.0000 19.9026
#
#
#
# Elastic Compliance Matrix: (Units=1/GPa)
#
#
# Indices 1 2 3 4 5 6 
#
# 1 0.024841 0.004354 -0.007705 0.000000 0.000000 0.000000
# 2 0.004354 0.019060 0.000297 0.000000 0.000000 0.000000
# 3 -0.007705 0.000297 0.054507 0.000000 0.000000 0.000000
# 4 0.000000 0.000000 0.000000 0.207835 0.000000 0.000000
# 5 0.000000 0.000000 0.000000 0.000000 0.142552 0.000000
# 6 0.000000 0.000000 0.000000 0.000000 0.000000 0.050245
#
#
# Mechanical properties :
#
#
# Convention : Reuss Voigt Hill
#
# Bulk Modulus (GPa) = 10.83433 11.86928 11.35180
# Shear Modulus (GPa) = 9.32987 14.58844 11.95916
#
# Velocity S-wave (km/s) = 2.56465 3.20697 2.90363
# Velocity P-wave (km/s) = 4.05067 4.69899 4.38683
#
# Compressibility (1/GPa) = 0.09229922
#
# Stress axis : x y z
#
# Youngs Moduli (GPa) = 40.25676 52.46639 18.34638
#
# Poissons Ratio (x) = -0.22844 0.14136
# Poissons Ratio (y) = -0.17528 -0.00545
# Poissons Ratio (z) = 0.31019 -0.01559
#
# Static dielectric constant tensor:
#      x y z
#    x 1.491300 0.000000 0.000000 
#    y 0.000000 1.510330 0.000000 
#    z 0.000000 0.000000 1.436790 
# 
# From -- ./inp_files/45181.got.cif
#   From: 2010.05.17/outbox.cif.g08.bks.cpg/sg52_23_cif.got.tgz:45181.got - 2010.06.03 12:15:38.
