data_PCOD9408139
_publ_section_title
;
Structure prediction by ZEFSAII (Michael W. Deem and Ramdas Pophale) SiO2 
 PCOD9408139
Probable space group: P N N A
;
_chemical_formula_sum "Si O2"
_cell_formula_units_Z 36
_cell_length_a 8.774511
_cell_length_b 9.902853
_cell_length_c 21.265590
_cell_angle_alpha 90.000000
_cell_angle_beta 90.000000
_cell_angle_gamma 90.000000
_cell_volume 1847.824374
_symmetry_space_group_name_H-M "P N N A"
_symmetry_group_IT_number 52
_symmetry_cell_setting 'orthorhombic'
loop_
_space_group_symop_operation_xyz
x,y,z
1/2-x,-y,z
x,1/2-y,1/2-z
1/2-x,1/2+y,1/2-z
-x,-y,-z
1/2+x,y,-z
-x,1/2+y,1/2+z
1/2+x,1/2-y,1/2+z
loop_
_atom_site_type_symbol
_atom_site_label
_atom_site_fract_x
_atom_site_fract_y
_atom_site_fract_z
Si Si1 0.540177 0.061374 0.255080
Si Si2 0.758471 0.250000 0.750000
Si Si3 0.071181 0.460033 0.566309
Si Si4 0.828950 0.759356 0.351632
Si Si5 0.502162 0.827977 0.168372
O O1 0.370374 0.121750 0.251976
O O2 0.607665 0.103303 0.322177
O O3 0.631782 0.146936 0.202255
O O4 0.545218 0.908161 0.232960
O O5 0.653795 0.243086 0.812196
O O6 0.250000 0.500000 0.567925
O O7 0.081552 0.303663 0.588766
O O8 0.984192 0.551687 0.617802
O O9 0.000000 0.500000 0.500000
O O10 0.646302 0.756505 0.356354
#
# Coordination Sequence:
#
# PCOD9408139 Si02
#       5
#     8   4   8   8   8
#     4   9  17  28  42  64  91 120 151 187 223 268
#     4  10  18  26  42  66  92 120 148 184 230 270
#     4   9  18  29  44  65  90 120 152 186 227 271
#     4   8  16  29  43  61  87 120 151 179 220 272
#     4  10  18  30  45  66  95 122 149 184 226 274
#
# _framework density 19.482371000000001
#
# number of rings (size 3 to 8) (size 9 to 14) (size 15 to 20)
#    0.000    3.111    0.000    4.000    0.000    5.333 
#    0.000    0.000    0.000    0.000    0.000    1.556 
#    0.000   21.333    0.000   14.667    0.000    1.778 
#
# Total GULP energy -200498.865348 kJ/mol
# GULP energy per Si atom -5569.412926 kJ/mol
# Density = 1.943803 g / cm^3
# Si number density = 19.482371 Si / 1000 Ang^3
#
#
#
# Elastic Constant Matrix: (Units=GPa)
#
#
# Indices 1 2 3 4 5 6 
#
# 1 105.8816 14.7514 24.8097 0.0000 0.0000 0.0000
# 2 14.7514 39.0642 17.4443 0.0000 0.0000 0.0000
# 3 24.8097 17.4443 84.2098 0.0000 0.0000 0.0000
# 4 0.0000 0.0000 0.0000 21.8998 0.0000 0.0000
# 5 0.0000 0.0000 0.0000 0.0000 26.8060 0.0000
# 6 0.0000 0.0000 0.0000 0.0000 0.0000 29.6221
#
#
#
# Elastic Compliance Matrix: (Units=1/GPa)
#
#
# Indices 1 2 3 4 5 6 
#
# 1 0.010420 -0.002825 -0.002485 0.000000 0.000000 0.000000
# 2 -0.002825 0.028974 -0.005170 0.000000 0.000000 0.000000
# 3 -0.002485 -0.005170 0.013678 0.000000 0.000000 0.000000
# 4 0.000000 0.000000 0.000000 0.045663 0.000000 0.000000
# 5 0.000000 0.000000 0.000000 0.000000 0.037305 0.000000
# 6 0.000000 0.000000 0.000000 0.000000 0.000000 0.033759
#
#
# Mechanical properties :
#
#
# Convention : Reuss Voigt Hill
#
# Bulk Modulus (GPa) = 31.13990 38.12961 34.63476
# Shear Modulus (GPa) = 24.81844 27.14225 25.98035
#
# Velocity S-wave (km/s) = 3.57303 3.73657 3.65572
# Velocity P-wave (km/s) = 5.74808 6.18302 5.96951
#
# Compressibility (1/GPa) = 0.03211314
#
# Stress axis : x y z
#
# Youngs Moduli (GPa) = 95.96599 34.51324 73.10967
#
# Poissons Ratio (x) = 0.09751 0.18166
# Poissons Ratio (y) = 0.27114 0.37796
# Poissons Ratio (z) = 0.23845 0.17842
#
# Static dielectric constant tensor:
#      x y z
#    x 1.741910 0.000000 0.000000 
#    y 0.000000 1.797270 0.000000 
#    z 0.000000 0.000000 1.710740 
# 
# From -- ./inp_files/35705.got.cif
#   From: 2010.05.17/outbox.cif.g08.bks.cpg/sg52_18_cif.got.tgz:35705.got - 2010.06.03 12:15:38.
