data_PCOD9408019
_publ_section_title
;
Structure prediction by ZEFSAII (Michael W. Deem and Ramdas Pophale) SiO2 
 PCOD9408019
Probable space group: P N N A
;
_chemical_formula_sum "Si O2"
_cell_formula_units_Z 48
_cell_length_a 23.585781
_cell_length_b 5.346931
_cell_length_c 18.860770
_cell_angle_alpha 90.000000
_cell_angle_beta 90.000000
_cell_angle_gamma 90.000000
_cell_volume 2378.560818
_symmetry_space_group_name_H-M "P N N A"
_symmetry_group_IT_number 52
_symmetry_cell_setting 'orthorhombic'
loop_
_space_group_symop_operation_xyz
x,y,z
1/2-x,-y,z
x,1/2-y,1/2-z
1/2-x,1/2+y,1/2-z
-x,-y,-z
1/2+x,y,-z
-x,1/2+y,1/2+z
1/2+x,1/2-y,1/2+z
loop_
_atom_site_type_symbol
_atom_site_label
_atom_site_fract_x
_atom_site_fract_y
_atom_site_fract_z
Si Si1 0.001668 0.667932 0.325192
Si Si2 0.602207 0.697522 0.493054
Si Si3 0.309430 0.861438 0.347351
Si Si4 0.994710 0.818462 0.585243
Si Si5 0.630062 0.856559 0.838522
Si Si6 0.630083 0.196942 0.510826
O O1 0.975921 0.750000 0.250000
O O2 0.985353 0.408620 0.363258
O O3 0.067699 0.596932 0.310605
O O4 0.998388 0.914149 0.375763
O O5 0.536269 0.758693 0.480897
O O6 0.620727 0.666724 0.575653
O O7 0.624270 0.439159 0.463015
O O8 0.631363 0.946383 0.465997
O O9 0.325709 0.581310 0.322010
O O10 0.320215 0.823090 0.431646
O O11 0.250000 0.000000 0.335274
O O12 0.351536 0.076413 0.319382
O O13 0.929469 0.800251 0.557601
#
# Coordination Sequence:
#
# PCOD9408019 Si02
#       6
#     8   8   8   8   8   8
#     4  12  23  34  47  65  95 129 162 201 239 284
#     4  10  18  28  51  71  95 113 147 209 228 283
#     4  10  18  30  49  67  91 118 152 196 241 295
#     4  12  19  33  49  70  92 121 160 198 238 280
#     4  10  19  34  46  72  90 118 161 193 244 284
#     4  10  17  29  45  73  94 113 151 189 244 286
#
# _framework density 20.180271000000001
#
# number of rings (size 3 to 8) (size 9 to 14) (size 15 to 20)
#    0.000    1.333    6.667    3.000    0.000    0.000 
#    0.000    0.000    0.000    2.000    0.000    0.000 
#    0.000    0.000    0.000    0.000    0.000  746.667 
#
# Total GULP energy -267244.993562 kJ/mol
# GULP energy per Si atom -5567.604033 kJ/mol
# Density = 2.013434 g / cm^3
# Si number density = 20.180271 Si / 1000 Ang^3
#
#
#
# Elastic Constant Matrix: (Units=GPa)
#
#
# Indices 1 2 3 4 5 6 
#
# 1 34.5067 15.0642 18.0600 0.0000 0.0000 0.0000
# 2 15.0642 196.7776 37.4187 0.0000 0.0000 0.0000
# 3 18.0600 37.4187 58.6089 0.0000 0.0000 0.0000
# 4 0.0000 0.0000 0.0000 14.5488 0.0000 0.0000
# 5 0.0000 0.0000 0.0000 0.0000 13.0108 0.0000
# 6 0.0000 0.0000 0.0000 0.0000 0.0000 24.0040
#
#
#
# Elastic Compliance Matrix: (Units=1/GPa)
#
#
# Indices 1 2 3 4 5 6 
#
# 1 0.034639 -0.000708 -0.010222 0.000000 0.000000 0.000000
# 2 -0.000708 0.005799 -0.003484 0.000000 0.000000 0.000000
# 3 -0.010222 -0.003484 0.022436 0.000000 0.000000 0.000000
# 4 0.000000 0.000000 0.000000 0.068734 0.000000 0.000000
# 5 0.000000 0.000000 0.000000 0.000000 0.076859 0.000000
# 6 0.000000 0.000000 0.000000 0.000000 0.000000 0.041660
#
#
# Mechanical properties :
#
#
# Convention : Reuss Voigt Hill
#
# Bulk Modulus (GPa) = 29.37169 47.88656 38.62913
# Shear Modulus (GPa) = 17.22338 24.93608 21.07973
#
# Velocity S-wave (km/s) = 2.92460 3.51902 3.23549
# Velocity P-wave (km/s) = 5.09810 6.34762 5.75686
#
# Compressibility (1/GPa) = 0.03404639
#
# Stress axis : x y z
#
# Youngs Moduli (GPa) = 28.86934 172.45631 44.57064
#
# Poissons Ratio (x) = 0.12210 0.45559
# Poissons Ratio (y) = 0.02044 0.15528
# Poissons Ratio (z) = 0.29509 0.60082
#
# Static dielectric constant tensor:
#      x y z
#    x 1.754220 0.000000 0.000000 
#    y 0.000000 1.919450 0.000000 
#    z 0.000000 0.000000 1.839080 
# 
# From -- ./inp_files/38093.got.cif
#   From: 2010.05.17/outbox.cif.g08.bks.cpg/sg52_20_cif.got.tgz:38093.got - 2010.06.03 12:15:38.
