data_PCOD9408826
_publ_section_title
;
Structure prediction by ZEFSAII (Michael W. Deem and Ramdas Pophale) SiO2 
 PCOD9408826
Probable space group: P N N A
;
_chemical_formula_sum "Si O2"
_cell_formula_units_Z 64
_cell_length_a 12.573364
_cell_length_b 12.395166
_cell_length_c 21.023239
_cell_angle_alpha 90.000000
_cell_angle_beta 90.000000
_cell_angle_gamma 90.000000
_cell_volume 3276.449387
_symmetry_space_group_name_H-M "P N N A"
_symmetry_group_IT_number 52
_symmetry_cell_setting 'orthorhombic'
loop_
_space_group_symop_operation_xyz
x,y,z
1/2-x,-y,z
x,1/2-y,1/2-z
1/2-x,1/2+y,1/2-z
-x,-y,-z
1/2+x,y,-z
-x,1/2+y,1/2+z
1/2+x,1/2-y,1/2+z
loop_
_atom_site_type_symbol
_atom_site_label
_atom_site_fract_x
_atom_site_fract_y
_atom_site_fract_z
Si Si1 0.527082 0.143190 0.376687
Si Si2 0.172250 0.186394 0.816672
Si Si3 0.925004 0.005413 0.253739
Si Si4 0.794173 0.113884 0.583239
Si Si5 0.344788 0.922957 0.236078
Si Si6 0.631459 0.253821 0.851011
Si Si7 0.637713 0.964788 0.443985
Si Si8 0.894514 0.208929 0.340095
O O1 0.588774 0.255195 0.364755
O O2 0.561116 0.066487 0.317691
O O3 0.399647 0.152798 0.380001
O O4 0.565345 0.071674 0.437792
O O5 0.160439 0.250000 0.750000
O O6 0.144640 0.063680 0.796156
O O7 0.290331 0.216888 0.841052
O O8 0.888812 0.124355 0.279806
O O9 0.043462 0.018163 0.227063
O O10 0.695664 0.196593 0.589897
O O11 0.833121 0.083512 0.512375
O O12 0.750000 0.000000 0.608255
O O13 0.313964 0.852955 0.174846
O O14 0.358982 0.843865 0.295946
O O15 0.250000 0.000000 0.250597
O O16 0.505775 0.229184 0.846760
O O17 0.595868 0.869749 0.400543
O O18 0.750000 0.000000 0.413734
#
# Coordination Sequence:
#
# PCOD9408826 Si02
#       8
#     8   8   8   8   8   8   8   8
#     4  10  19  33  51  78 115 143 185 232 283 336
#     4  10  21  32  55  81 111 152 184 234 282 348
#     4   9  20  33  53  81 108 154 188 220 289 346
#     4  11  21  34  54  82 113 146 192 230 286 348
#     4  10  20  36  56  80 118 151 189 231 289 340
#     4  10  22  36  56  83 112 158 185 234 282 355
#     4  10  19  33  54  80 112 153 180 231 292 339
#     4  10  20  39  53  80 122 148 189 231 288 343
#
# _framework density 19.533341
#
# number of rings (size 3 to 8) (size 9 to 14) (size 15 to 20)
#    0.000    2.000    1.250    3.750    5.250    1.000 
#    0.000    0.000    0.000    0.000    0.000    3.500 
#    0.000    0.000    0.000    0.000    0.000    0.000 
#
# Total GULP energy -356651.618098 kJ/mol
# GULP energy per Si atom -5572.681533 kJ/mol
# Density = 1.948888 g / cm^3
# Si number density = 19.533341 Si / 1000 Ang^3
#
#
#
# Elastic Constant Matrix: (Units=GPa)
#
#
# Indices 1 2 3 4 5 6 
#
# 1 127.2017 38.6136 20.5506 0.0000 0.0000 0.0000
# 2 38.6136 40.0528 23.8650 0.0000 0.0000 0.0000
# 3 20.5506 23.8650 59.2888 0.0000 0.0000 0.0000
# 4 0.0000 0.0000 0.0000 7.9531 0.0000 0.0000
# 5 0.0000 0.0000 0.0000 0.0000 13.7983 0.0000
# 6 0.0000 0.0000 0.0000 0.0000 0.0000 21.1037
#
#
#
# Elastic Compliance Matrix: (Units=1/GPa)
#
#
# Indices 1 2 3 4 5 6 
#
# 1 0.011131 -0.011092 0.000607 0.000000 0.000000 0.000000
# 2 -0.011092 0.043898 -0.013825 0.000000 0.000000 0.000000
# 3 0.000607 -0.013825 0.022221 0.000000 0.000000 0.000000
# 4 0.000000 0.000000 0.000000 0.125737 0.000000 0.000000
# 5 0.000000 0.000000 0.000000 0.000000 0.072473 0.000000
# 6 0.000000 0.000000 0.000000 0.000000 0.000000 0.047385
#
#
# Mechanical properties :
#
#
# Convention : Reuss Voigt Hill
#
# Bulk Modulus (GPa) = 34.92986 43.62239 39.27613
# Shear Modulus (GPa) = 13.12303 18.13863 15.63083
#
# Velocity S-wave (km/s) = 2.59478 3.05060 2.83187
# Velocity P-wave (km/s) = 5.18634 5.89822 5.55370
#
# Compressibility (1/GPa) = 0.02862880
#
# Stress axis : x y z
#
# Youngs Moduli (GPa) = 89.84167 22.77996 45.00213
#
# Poissons Ratio (x) = 0.25268 -0.02731
# Poissons Ratio (y) = 0.99655 0.62216
# Poissons Ratio (z) = -0.05451 0.31494
#
# Static dielectric constant tensor:
#      x y z
#    x 1.744980 0.000000 0.000000 
#    y 0.000000 1.726280 0.000000 
#    z 0.000000 0.000000 1.725840 
# 
# From -- ./inp_files/40326.got.cif
#   From: 2010.05.17/outbox.cif.g08.bks.cpg/sg52_21_cif.got.tgz:40326.got - 2010.06.03 12:15:38.
