data_PCOD9408230
_publ_section_title
;
Structure prediction by ZEFSAII (Michael W. Deem and Ramdas Pophale) SiO2 
 PCOD9408230
Probable space group: P N N A
;
_chemical_formula_sum "Si O2"
_cell_formula_units_Z 52
_cell_length_a 11.597371
_cell_length_b 9.350024
_cell_length_c 25.458126
_cell_angle_alpha 90.000000
_cell_angle_beta 90.000000
_cell_angle_gamma 90.000000
_cell_volume 2760.569642
_symmetry_space_group_name_H-M "P N N A"
_symmetry_group_IT_number 52
_symmetry_cell_setting 'orthorhombic'
loop_
_space_group_symop_operation_xyz
x,y,z
1/2-x,-y,z
x,1/2-y,1/2-z
1/2-x,1/2+y,1/2-z
-x,-y,-z
1/2+x,y,-z
-x,1/2+y,1/2+z
1/2+x,1/2-y,1/2+z
loop_
_atom_site_type_symbol
_atom_site_label
_atom_site_fract_x
_atom_site_fract_y
_atom_site_fract_z
Si Si1 0.418120 0.186177 0.834082
Si Si2 0.563330 0.114744 0.420495
Si Si3 0.750000 0.500000 0.262433
Si Si4 0.544041 0.487706 0.195809
Si Si5 0.655599 0.604601 0.992715
Si Si6 0.733483 0.832536 0.065720
Si Si7 0.862050 0.591654 0.724632
O O1 0.422344 0.346852 0.813169
O O2 0.371065 0.187252 0.893079
O O3 0.544031 0.119971 0.821582
O O4 0.324991 0.100668 0.799847
O O5 0.451251 0.138107 0.455836
O O6 0.652466 0.246230 0.416066
O O7 0.528562 0.075404 0.361630
O O8 0.621738 0.984322 0.453947
O O9 0.654572 0.423467 0.225809
O O10 0.431681 0.497050 0.232138
O O11 0.750000 0.500000 0.966560
O O12 0.706142 0.753749 0.011534
O O13 0.750000 0.000000 0.060314
O O14 0.750000 0.500000 0.709486
O O15 0.836893 0.750000 0.750000
#
# Coordination Sequence:
#
# PCOD9408230 Si02
#       7
#     8   8   4   8   8   8   8
#     4  10  19  35  56  84 122 158 190 246 296 359
#     4  10  20  36  60  86 112 150 199 246 296 349
#     4  10  18  30  52  90 122 146 186 230 306 358
#     4  10  19  33  58  83 113 156 198 240 287 354
#     4   9  20  38  61  85 111 150 196 250 296 355
#     4  11  21  36  60  88 121 151 192 249 312 368
#     4   9  20  38  55  79 117 167 199 241 290 352
#
# _framework density 18.836693
#
# number of rings (size 3 to 8) (size 9 to 14) (size 15 to 20)
#    0.000    2.154    2.308    2.308    1.077    1.231 
#    2.769    3.077    0.000    0.923    0.000    0.000 
#    0.000    0.000    0.000    0.000    0.000    0.000 
#
# Total GULP energy -289897.552254 kJ/mol
# GULP energy per Si atom -5574.952928 kJ/mol
# Density = 1.879382 g / cm^3
# Si number density = 18.836693 Si / 1000 Ang^3
#
#
#
# Elastic Constant Matrix: (Units=GPa)
#
#
# Indices 1 2 3 4 5 6 
#
# 1 126.2341 54.3163 35.4767 0.0000 0.0000 0.0000
# 2 54.3163 89.1928 22.3609 0.0000 0.0000 0.0000
# 3 35.4767 22.3609 49.7184 0.0000 0.0000 0.0000
# 4 0.0000 0.0000 0.0000 13.3475 0.0000 0.0000
# 5 0.0000 0.0000 0.0000 0.0000 23.3146 0.0000
# 6 0.0000 0.0000 0.0000 0.0000 0.0000 26.2002
#
#
#
# Elastic Compliance Matrix: (Units=1/GPa)
#
#
# Indices 1 2 3 4 5 6 
#
# 1 0.012147 -0.005888 -0.006019 0.000000 0.000000 0.000000
# 2 -0.005888 0.015491 -0.002765 0.000000 0.000000 0.000000
# 3 -0.006019 -0.002765 0.025652 0.000000 0.000000 0.000000
# 4 0.000000 0.000000 0.000000 0.074921 0.000000 0.000000
# 5 0.000000 0.000000 0.000000 0.000000 0.042892 0.000000
# 6 0.000000 0.000000 0.000000 0.000000 0.000000 0.038168
#
#
# Mechanical properties :
#
#
# Convention : Reuss Voigt Hill
#
# Bulk Modulus (GPa) = 41.76411 54.38367 48.07389
# Shear Modulus (GPa) = 20.27599 22.77187 21.52393
#
# Velocity S-wave (km/s) = 3.28443 3.48071 3.38399
# Velocity P-wave (km/s) = 6.05005 6.71473 6.39104
#
# Compressibility (1/GPa) = 0.02394400
#
# Stress axis : x y z
#
# Youngs Moduli (GPa) = 82.32452 64.55470 38.98311
#
# Poissons Ratio (x) = 0.38011 0.23465
# Poissons Ratio (y) = 0.48474 0.10780
# Poissons Ratio (z) = 0.49554 0.17852
#
# Static dielectric constant tensor:
#      x y z
#    x 1.688340 0.000000 0.000000 
#    y 0.000000 1.651730 0.000000 
#    z 0.000000 0.000000 1.675000 
# 
# From -- ./inp_files/42722.got.cif
#   From: 2010.05.17/outbox.cif.g08.bks.cpg/sg52_22_cif.got.tgz:42722.got - 2010.06.03 12:15:38.
