data_PCOD9408382
_publ_section_title
;
Structure prediction by ZEFSAII (Michael W. Deem and Ramdas Pophale) SiO2 
 PCOD9408382
Probable space group: P N N A
;
_chemical_formula_sum "Si O2"
_cell_formula_units_Z 48
_cell_length_a 21.443124
_cell_length_b 8.702852
_cell_length_c 11.876741
_cell_angle_alpha 90.000000
_cell_angle_beta 90.000000
_cell_angle_gamma 90.000000
_cell_volume 2216.393872
_symmetry_space_group_name_H-M "P N N A"
_symmetry_group_IT_number 52
_symmetry_cell_setting 'orthorhombic'
loop_
_space_group_symop_operation_xyz
x,y,z
1/2-x,-y,z
x,1/2-y,1/2-z
1/2-x,1/2+y,1/2-z
-x,-y,-z
1/2+x,y,-z
-x,1/2+y,1/2+z
1/2+x,1/2-y,1/2+z
loop_
_atom_site_type_symbol
_atom_site_label
_atom_site_fract_x
_atom_site_fract_y
_atom_site_fract_z
Si Si1 0.330694 0.915709 0.038256
Si Si2 0.328292 0.750000 0.250000
Si Si3 0.004500 0.250000 0.750000
Si Si4 0.036085 0.235498 0.999710
Si Si5 0.104224 0.779031 0.992202
Si Si6 0.250000 0.500000 0.661836
Si Si7 0.338874 0.250000 0.750000
Si Si8 0.923128 0.500292 0.846145
O O1 0.296616 0.829273 0.141530
O O2 0.400010 0.845171 0.033445
O O3 0.347327 0.096624 0.041247
O O4 0.291655 0.897201 0.923704
O O5 0.371101 0.608688 0.207160
O O6 0.961362 0.402811 0.753818
O O7 0.041653 0.262713 0.865720
O O8 0.034464 0.386837 0.078398
O O9 0.967553 0.161735 0.011931
O O10 0.122253 0.741862 0.864408
O O11 0.103494 0.629268 0.070468
O O12 0.295291 0.397805 0.735770
#
# Coordination Sequence:
#
# PCOD9408382 Si02
#       8
#     8   4   4   8   8   4   4   8
#     4  10  22  38  59  85 120 157 204 252 297 368
#     4  10  20  37  58  81 110 158 194 252 308 336
#     4  10  18  33  52  81 124 162 188 240 300 356
#     4  10  21  34  56  90 123 158 203 247 303 371
#     4  10  20  37  58  91 121 156 202 251 306 365
#     4  10  24  44  60  90 120 160 216 248 300 372
#     4  10  24  42  68  88 124 166 202 262 308 356
#     4  10  21  34  53  85 122 153 197 240 295 370
#
# _framework density 21.656801000000002
#
# number of rings (size 3 to 8) (size 9 to 14) (size 15 to 20)
#    0.000    2.000    0.000    4.500    0.000   12.667 
#    0.000    3.333    0.000    0.000    0.000    0.000 
#    0.000    0.000    0.000    0.000    0.000    0.000 
#
# Total GULP energy -267798.053472 kJ/mol
# GULP energy per Si atom -5579.126114 kJ/mol
# Density = 2.160751 g / cm^3
# Si number density = 21.656801 Si / 1000 Ang^3
#
#
#
# Elastic Constant Matrix: (Units=GPa)
#
#
# Indices 1 2 3 4 5 6 
#
# 1 67.9152 18.1885 22.8091 0.0000 0.0000 0.0000
# 2 18.1885 76.5455 33.7332 0.0000 0.0000 0.0000
# 3 22.8091 33.7332 115.1005 0.0000 0.0000 0.0000
# 4 0.0000 0.0000 0.0000 48.7249 0.0000 0.0000
# 5 0.0000 0.0000 0.0000 0.0000 -89.7216 0.0000
# 6 0.0000 0.0000 0.0000 0.0000 0.0000 16.4609
#
#
#
# Elastic Compliance Matrix: (Units=1/GPa)
#
#
# Indices 1 2 3 4 5 6 
#
# 1 0.016284 -0.002810 -0.002403 0.000000 0.000000 0.000000
# 2 -0.002810 0.015487 -0.003982 0.000000 0.000000 0.000000
# 3 -0.002403 -0.003982 0.010331 0.000000 0.000000 0.000000
# 4 0.000000 0.000000 0.000000 0.020523 0.000000 0.000000
# 5 0.000000 0.000000 0.000000 0.000000 -0.011146 0.000000
# 6 0.000000 0.000000 0.000000 0.000000 0.000000 0.060750
#
#
# Mechanical properties :
#
#
# Convention : Reuss Voigt Hill
#
# Bulk Modulus (GPa) = 42.17431 45.44699 43.81065
# Shear Modulus (GPa) = 36.09476 7.41488 21.75482
#
# Velocity S-wave (km/s) = 4.08692 1.85236 3.17286
# Velocity P-wave (km/s) = 6.46427 5.06020 5.80484
#
# Compressibility (1/GPa) = 0.02371112
#
# Stress axis : x y z
#
# Youngs Moduli (GPa) = 61.40991 64.57167 96.79313
#
# Poissons Ratio (x) = 0.18146 0.23263
# Poissons Ratio (y) = 0.17258 0.38542
# Poissons Ratio (z) = 0.14759 0.25712
#
# Static dielectric constant tensor:
#      x y z
#    x 1.790250 0.000000 0.000000 
#    y 0.000000 1.805840 0.000000 
#    z 0.000000 0.000000 1.804010 
# 
# From -- ./inp_files/22376.got.cif
#   From: 2010.05.17/outbox.cif.g08.bks.cpg/sg52_12_cif.got.tgz:22376.got - 2010.06.03 12:15:38.
