data_PCOD9408185
_publ_section_title
;
Structure prediction by ZEFSAII (Michael W. Deem and Ramdas Pophale) SiO2 
 PCOD9408185
Probable space group: P N N A
;
_chemical_formula_sum "Si O2"
_cell_formula_units_Z 52
_cell_length_a 16.975661
_cell_length_b 9.052939
_cell_length_c 17.914638
_cell_angle_alpha 90.000000
_cell_angle_beta 90.000000
_cell_angle_gamma 90.000000
_cell_volume 2753.114823
_symmetry_space_group_name_H-M "P N N A"
_symmetry_group_IT_number 52
_symmetry_cell_setting 'orthorhombic'
loop_
_space_group_symop_operation_xyz
x,y,z
1/2-x,-y,z
x,1/2-y,1/2-z
1/2-x,1/2+y,1/2-z
-x,-y,-z
1/2+x,y,-z
-x,1/2+y,1/2+z
1/2+x,1/2-y,1/2+z
loop_
_atom_site_type_symbol
_atom_site_label
_atom_site_fract_x
_atom_site_fract_y
_atom_site_fract_z
Si Si1 0.334124 0.567409 0.381961
Si Si2 0.591881 0.250000 0.250000
Si Si3 0.761056 0.750000 0.750000
Si Si4 0.484877 0.160944 0.647291
Si Si5 0.750000 0.500000 0.856334
Si Si6 0.619484 0.151026 0.538530
Si Si7 0.480591 0.512516 0.299205
Si Si8 0.159074 0.042797 0.625678
O O1 0.250000 0.500000 0.402318
O O2 0.314893 0.666090 0.309221
O O3 0.362669 0.675951 0.446607
O O4 0.404394 0.468392 0.348829
O O5 0.537757 0.373397 0.290487
O O6 0.642898 0.163925 0.310958
O O7 0.718026 0.628027 0.800538
O O8 0.533110 0.126768 0.572437
O O9 0.486462 0.336882 0.662109
O O10 0.530221 0.074820 0.714583
O O11 0.397591 0.095597 0.644422
O O12 0.682129 0.436086 0.909276
O O13 0.631797 0.104499 0.454244
O O14 0.250000 0.000000 0.622482
#
# Coordination Sequence:
#
# PCOD9408185 Si02
#       8
#     8   4   4   8   4   8   8   8
#     4  10  19  32  52  87 131 164 188 230 286 356
#     4  10  24  41  62  87 108 150 206 264 309 352
#     4  10  18  29  48  83 122 162 200 214 273 338
#     4   9  19  37  64  84 118 157 188 242 305 357
#     4  10  18  32  54  82 120 162 190 232 266 348
#     4  10  20  38  58  85 122 157 198 236 293 367
#     4   9  18  38  58  88 121 153 197 241 292 365
#     4  11  23  43  63  86 111 147 208 264 310 361
#
# _framework density 18.887698
#
# number of rings (size 3 to 8) (size 9 to 14) (size 15 to 20)
#    0.000    2.154    1.538    3.231    0.000    3.077 
#    8.308    5.385    0.000    0.000    0.000    0.000 
#    0.000    0.000    0.000    0.000    0.000    0.000 
#
# Total GULP energy -289853.696518 kJ/mol
# GULP energy per Si atom -5574.109548 kJ/mol
# Density = 1.884471 g / cm^3
# Si number density = 18.887698 Si / 1000 Ang^3
#
#
#
# Elastic Constant Matrix: (Units=GPa)
#
#
# Indices 1 2 3 4 5 6 
#
# 1 106.6929 39.4985 39.6665 0.0000 0.0000 0.0000
# 2 39.4985 65.2864 39.4587 0.0000 0.0000 0.0000
# 3 39.6665 39.4587 97.1114 0.0000 0.0000 0.0000
# 4 0.0000 0.0000 0.0000 21.6915 0.0000 0.0000
# 5 0.0000 0.0000 0.0000 0.0000 17.0645 0.0000
# 6 0.0000 0.0000 0.0000 0.0000 0.0000 14.0975
#
#
#
# Elastic Compliance Matrix: (Units=1/GPa)
#
#
# Indices 1 2 3 4 5 6 
#
# 1 0.012596 -0.005979 -0.002715 0.000000 0.000000 0.000000
# 2 -0.005979 0.023142 -0.006961 0.000000 0.000000 0.000000
# 3 -0.002715 -0.006961 0.014235 0.000000 0.000000 0.000000
# 4 0.000000 0.000000 0.000000 0.046101 0.000000 0.000000
# 5 0.000000 0.000000 0.000000 0.000000 0.058601 0.000000
# 6 0.000000 0.000000 0.000000 0.000000 0.000000 0.070935
#
#
# Mechanical properties :
#
#
# Convention : Reuss Voigt Hill
#
# Bulk Modulus (GPa) = 53.58614 56.25978 54.92296
# Shear Modulus (GPa) = 19.00127 20.60184 19.80155
#
# Velocity S-wave (km/s) = 3.17521 3.30624 3.24139
# Velocity P-wave (km/s) = 6.47110 6.66529 6.56891
#
# Compressibility (1/GPa) = 0.01866154
#
# Stress axis : x y z
#
# Youngs Moduli (GPa) = 79.39135 43.21216 70.25004
#
# Poissons Ratio (x) = 0.25838 0.19076
# Poissons Ratio (y) = 0.47471 0.48899
# Poissons Ratio (z) = 0.21558 0.30078
#
# Static dielectric constant tensor:
#      x y z
#    x 1.688100 0.000000 0.000000 
#    y 0.000000 1.685870 0.000000 
#    z 0.000000 0.000000 1.638060 
# 
# From -- ./inp_files/33745.got.cif
#   From: 2010.05.17/outbox.cif.g08.bks.cpg/sg52_17_cif.got.tgz:33745.got - 2010.06.03 12:15:38.
