data_PCOD9408447
_publ_section_title
;
Structure prediction by ZEFSAII (Michael W. Deem and Ramdas Pophale) SiO2 
 PCOD9408447
Probable space group: P N N A
;
_chemical_formula_sum "Si O2"
_cell_formula_units_Z 48
_cell_length_a 28.312723
_cell_length_b 5.316036
_cell_length_c 14.243059
_cell_angle_alpha 90.000000
_cell_angle_beta 90.000000
_cell_angle_gamma 90.000000
_cell_volume 2143.743530
_symmetry_space_group_name_H-M "P N N A"
_symmetry_group_IT_number 52
_symmetry_cell_setting 'orthorhombic'
loop_
_space_group_symop_operation_xyz
x,y,z
1/2-x,-y,z
x,1/2-y,1/2-z
1/2-x,1/2+y,1/2-z
-x,-y,-z
1/2+x,y,-z
-x,1/2+y,1/2+z
1/2+x,1/2-y,1/2+z
loop_
_atom_site_type_symbol
_atom_site_label
_atom_site_fract_x
_atom_site_fract_y
_atom_site_fract_z
Si Si1 0.958942 0.821012 0.532918
Si Si2 0.873109 0.899260 0.046023
Si Si3 0.695694 0.501628 0.960736
Si Si4 0.531245 0.504175 0.696957
Si Si5 0.109828 0.721840 0.114269
Si Si6 0.202068 0.649718 0.645272
O O1 0.921158 0.758020 0.451482
O O2 0.979029 0.579110 0.589510
O O3 0.926304 0.988238 0.604852
O O4 0.000000 0.000000 0.500000
O O5 0.833081 0.753561 0.984458
O O6 0.844758 0.978290 0.137601
O O7 0.889350 0.141857 0.987302
O O8 0.750000 0.500000 0.931778
O O9 0.696507 0.646379 0.062015
O O10 0.663403 0.632271 0.881142
O O11 0.519298 0.250000 0.750000
O O12 0.587128 0.574068 0.683775
O O13 0.510817 0.750000 0.750000
O O14 0.250000 0.500000 0.623507
O O15 0.206641 0.750000 0.750000
#
# Coordination Sequence:
#
# PCOD9408447 Si02
#       6
#     8   8   8   8   8   8
#     4  10  21  40  69  97 126 170 219 270 336 410
#     4   9  20  35  55  87 121 159 220 277 320 385
#     4  10  18  34  56  85 120 159 216 270 315 380
#     4  11  21  39  65 100 129 162 211 273 324 393
#     4   9  20  36  60  95 117 163 208 262 322 381
#     4  11  21  31  51  85 120 173 225 270 330 394
#
# _framework density 22.390737000000001
#
# number of rings (size 3 to 8) (size 9 to 14) (size 15 to 20)
#    0.000    2.000    3.333    0.500    0.000    2.667 
#    0.000    0.000    0.000   24.000   13.000    0.000 
#    0.000    0.000    0.000    0.000    0.000    0.000 
#
# Total GULP energy -267328.966181 kJ/mol
# GULP energy per Si atom -5569.353462 kJ/mol
# Density = 2.233977 g / cm^3
# Si number density = 22.390737 Si / 1000 Ang^3
#
#
#
# Elastic Constant Matrix: (Units=GPa)
#
#
# Indices 1 2 3 4 5 6 
#
# 1 117.8811 27.0438 19.4547 0.0000 0.0000 0.0000
# 2 27.0438 103.3922 26.5007 0.0000 0.0000 0.0000
# 3 19.4547 26.5007 52.0396 0.0000 0.0000 0.0000
# 4 0.0000 0.0000 0.0000 38.5238 0.0000 0.0000
# 5 0.0000 0.0000 0.0000 0.0000 17.8828 0.0000
# 6 0.0000 0.0000 0.0000 0.0000 0.0000 38.2537
#
#
#
# Elastic Compliance Matrix: (Units=1/GPa)
#
#
# Indices 1 2 3 4 5 6 
#
# 1 0.009316 -0.001776 -0.002578 0.000000 0.000000 0.000000
# 2 -0.001776 0.011462 -0.005173 0.000000 0.000000 0.000000
# 3 -0.002578 -0.005173 0.022814 0.000000 0.000000 0.000000
# 4 0.000000 0.000000 0.000000 0.025958 0.000000 0.000000
# 5 0.000000 0.000000 0.000000 0.000000 0.055920 0.000000
# 6 0.000000 0.000000 0.000000 0.000000 0.000000 0.026141
#
#
# Mechanical properties :
#
#
# Convention : Reuss Voigt Hill
#
# Bulk Modulus (GPa) = 40.75326 46.59014 43.67170
# Shear Modulus (GPa) = 27.95699 32.28631 30.12165
#
# Velocity S-wave (km/s) = 3.53738 3.80142 3.67178
# Velocity P-wave (km/s) = 5.90970 6.33409 6.12557
#
# Compressibility (1/GPa) = 0.02453791
#
# Stress axis : x y z
#
# Youngs Moduli (GPa) = 107.34145 87.24203 43.83189
#
# Poissons Ratio (x) = 0.15493 0.11302
# Poissons Ratio (y) = 0.19063 0.22675
# Poissons Ratio (z) = 0.27677 0.45132
#
# Static dielectric constant tensor:
#      x y z
#    x 1.821850 0.000000 0.000000 
#    y 0.000000 1.971800 0.000000 
#    z 0.000000 0.000000 1.912750 
# 
# From -- ./inp_files/29402.got.cif
#   From: 2010.05.17/outbox.cif.g08.bks.cpg/sg52_15_cif.got.tgz:29402.got - 2010.06.03 12:15:38.
