data_PCOD9408793
_publ_section_title
;
Structure prediction by ZEFSAII (Michael W. Deem and Ramdas Pophale) SiO2 
 PCOD9408793
Probable space group: P N N A
;
_chemical_formula_sum "Si O2"
_cell_formula_units_Z 64
_cell_length_a 24.352910
_cell_length_b 13.666109
_cell_length_c 9.691121
_cell_angle_alpha 90.000000
_cell_angle_beta 90.000000
_cell_angle_gamma 90.000000
_cell_volume 3225.297353
_symmetry_space_group_name_H-M "P N N A"
_symmetry_group_IT_number 52
_symmetry_cell_setting 'orthorhombic'
loop_
_space_group_symop_operation_xyz
x,y,z
1/2-x,-y,z
x,1/2-y,1/2-z
1/2-x,1/2+y,1/2-z
-x,-y,-z
1/2+x,y,-z
-x,1/2+y,1/2+z
1/2+x,1/2-y,1/2+z
loop_
_atom_site_type_symbol
_atom_site_label
_atom_site_fract_x
_atom_site_fract_y
_atom_site_fract_z
Si Si1 0.887338 0.630521 0.528314
Si Si2 0.034602 0.990346 0.140514
Si Si3 0.454333 0.855837 0.749189
Si Si4 0.152337 0.336411 0.945601
Si Si5 0.195822 0.545385 0.534399
Si Si6 0.274306 0.147126 0.685091
Si Si7 0.132362 0.648035 0.324643
Si Si8 0.688519 0.530480 0.917955
O O1 0.926558 0.587126 0.650106
O O2 0.927501 0.641723 0.399444
O O3 0.854855 0.733960 0.529773
O O4 0.847687 0.541536 0.484581
O O5 0.076054 0.899521 0.124933
O O6 0.993211 0.951337 0.259227
O O7 0.000000 0.000000 0.000000
O O8 0.484148 0.750000 0.750000
O O9 0.402356 0.850855 0.646522
O O10 0.209246 0.339701 0.855264
O O11 0.158013 0.431544 0.039350
O O12 0.250000 0.500000 0.468125
O O13 0.210640 0.573499 0.690553
O O14 0.174094 0.640035 0.452820
O O15 0.292328 0.250000 0.750000
O O16 0.303560 0.103747 0.548820
O O17 0.125973 0.750000 0.250000
O O18 0.157620 0.578968 0.207386
O O19 0.750000 0.500000 0.878321
#
# Coordination Sequence:
#
# PCOD9408793 Si02
#       8
#     8   8   8   8   8   8   8   8
#     4   9  18  31  50  79 108 142 183 229 279 334
#     4   9  19  35  56  80 107 144 195 243 281 330
#     4   9  15  28  52  79 104 137 183 236 285 327
#     4  10  19  32  55  80 112 145 183 232 287 336
#     4  11  20  33  53  80 110 145 190 234 271 332
#     4  11  20  33  56  86 116 149 189 233 278 332
#     4  11  23  39  57  80 113 152 189 231 287 349
#     4  10  22  39  56  84 122 158 184 222 283 348
#
# _framework density 19.843129999999999
#
# number of rings (size 3 to 8) (size 9 to 14) (size 15 to 20)
#    0.000    2.000    0.000    6.000    0.000    1.000 
#    0.000    3.125    0.000    1.500    0.000    0.000 
#    0.000    0.000    0.000    0.000    0.000    0.000 
#
# Total GULP energy -356330.218156 kJ/mol
# GULP energy per Si atom -5567.659659 kJ/mol
# Density = 1.979797 g / cm^3
# Si number density = 19.843130 Si / 1000 Ang^3
#
#
#
# Elastic Constant Matrix: (Units=GPa)
#
#
# Indices 1 2 3 4 5 6 
#
# 1 72.7441 41.2564 31.3909 0.0000 0.0000 0.0000
# 2 41.2564 111.4754 35.0061 0.0000 0.0000 0.0000
# 3 31.3909 35.0061 67.6040 0.0000 0.0000 0.0000
# 4 0.0000 0.0000 0.0000 26.7366 0.0000 0.0000
# 5 0.0000 0.0000 0.0000 0.0000 15.1734 0.0000
# 6 0.0000 0.0000 0.0000 0.0000 0.0000 -19.3400
#
#
#
# Elastic Compliance Matrix: (Units=1/GPa)
#
#
# Indices 1 2 3 4 5 6 
#
# 1 0.019428 -0.005203 -0.006327 0.000000 0.000000 0.000000
# 2 -0.005203 0.012106 -0.003853 0.000000 0.000000 0.000000
# 3 -0.006327 -0.003853 0.019725 0.000000 0.000000 0.000000
# 4 0.000000 0.000000 0.000000 0.037402 0.000000 0.000000
# 5 0.000000 0.000000 0.000000 0.000000 0.065905 0.000000
# 6 0.000000 0.000000 0.000000 0.000000 0.000000 -0.051706
#
#
# Mechanical properties :
#
#
# Convention : Reuss Voigt Hill
#
# Bulk Modulus (GPa) = 48.79622 51.90338 50.34980
# Shear Modulus (GPa) = 35.59836 14.12534 24.86185
#
# Velocity S-wave (km/s) = 4.24015 2.67095 3.54350
# Velocity P-wave (km/s) = 6.97253 5.97709 6.49391
#
# Compressibility (1/GPa) = 0.02049339
#
# Stress axis : x y z
#
# Youngs Moduli (GPa) = 51.47193 82.60254 50.69798
#
# Poissons Ratio (x) = 0.42982 0.32075
# Poissons Ratio (y) = 0.26783 0.19532
# Poissons Ratio (z) = 0.32565 0.31823
#
# Static dielectric constant tensor:
#      x y z
#    x 1.131950 0.000000 0.000000 
#    y 0.000000 1.679660 0.000000 
#    z 0.000000 0.000000 1.710590 
# 
# From -- ./inp_files/14510.got.cif
#   From: 2010.05.17/outbox.cif.g08.bks.cpg/sg52_8_cif.got.tgz:14510.got - 2010.06.03 12:15:38.
