data_PCOD9408954
_publ_section_title
;
Structure prediction by ZEFSAII (Michael W. Deem and Ramdas Pophale) SiO2 
 PCOD9408954
Probable space group: P N N A
;
_chemical_formula_sum "Si O2"
_cell_formula_units_Z 60
_cell_length_a 17.479258
_cell_length_b 29.614908
_cell_length_c 5.339134
_cell_angle_alpha 90.000000
_cell_angle_beta 90.000000
_cell_angle_gamma 90.000000
_cell_volume 2763.784656
_symmetry_space_group_name_H-M "P N N A"
_symmetry_group_IT_number 52
_symmetry_cell_setting 'orthorhombic'
loop_
_space_group_symop_operation_xyz
x,y,z
1/2-x,-y,z
x,1/2-y,1/2-z
1/2-x,1/2+y,1/2-z
-x,-y,-z
1/2+x,y,-z
-x,1/2+y,1/2+z
1/2+x,1/2-y,1/2+z
loop_
_atom_site_type_symbol
_atom_site_label
_atom_site_fract_x
_atom_site_fract_y
_atom_site_fract_z
Si Si1 0.912535 0.960027 0.281420
Si Si2 0.036033 0.250000 0.250000
Si Si3 0.344665 0.618252 0.125229
Si Si4 0.354123 0.057298 0.678371
Si Si5 0.433141 0.413643 0.301991
Si Si6 0.219129 0.453247 0.455305
Si Si7 0.154815 0.294067 0.860762
Si Si8 0.534968 0.337351 0.513682
O O1 0.876359 0.917629 0.426043
O O2 0.869948 0.960658 0.014391
O O3 0.001331 0.950762 0.253653
O O4 0.886012 0.007662 0.388941
O O5 0.091904 0.227681 0.454778
O O6 0.994530 0.292984 0.370643
O O7 0.283416 0.591773 0.294015
O O8 0.421148 0.633136 0.277589
O O9 0.308791 0.663859 0.007634
O O10 0.376043 0.086258 0.434756
O O11 0.267965 0.052724 0.787928
O O12 0.395794 0.074649 0.930807
O O13 0.478979 0.367170 0.347048
O O14 0.250000 0.500000 0.337904
O O15 0.198023 0.250000 0.750000
O O16 0.106104 0.318473 0.645779
#
# Coordination Sequence:
#
# PCOD9408954 Si02
#       8
#     8   4   8   8   8   8   8   8
#     4  11  23  39  63  85 122 178 231 269 323 389
#     4   8  18  30  56  86 136 148 198 262 340 384
#     4  11  19  35  64  87 126 171 223 271 335 390
#     4  11  28  40  58  90 134 177 222 279 325 386
#     4  12  23  41  61  91 132 170 218 277 335 387
#     4  10  24  40  58  84 124 181 232 277 322 402
#     4   9  17  32  54  93 130 150 201 273 339 385
#     4  10  19  34  58  93 127 163 203 276 326 407
#
# _framework density 21.709361999999999
#
# number of rings (size 3 to 8) (size 9 to 14) (size 15 to 20)
#    0.000    1.600    2.667    1.600    7.467    0.533 
#    0.000    0.000    0.000    0.000    0.000    0.000 
#   86.000    0.000    0.000    0.000    0.000    0.000 
#
# Total GULP energy -334744.502012 kJ/mol
# GULP energy per Si atom -5579.075034 kJ/mol
# Density = 2.165995 g / cm^3
# Si number density = 21.709362 Si / 1000 Ang^3
#
#
#
# Elastic Constant Matrix: (Units=GPa)
#
#
# Indices 1 2 3 4 5 6 
#
# 1 67.3904 21.2669 24.4637 0.0000 0.0000 0.0000
# 2 21.2669 162.0383 60.7736 0.0000 0.0000 0.0000
# 3 24.4637 60.7736 81.7830 0.0000 0.0000 0.0000
# 4 0.0000 0.0000 0.0000 45.5703 0.0000 0.0000
# 5 0.0000 0.0000 0.0000 0.0000 83.4443 0.0000
# 6 0.0000 0.0000 0.0000 0.0000 0.0000 19.6803
#
#
#
# Elastic Compliance Matrix: (Units=1/GPa)
#
#
# Indices 1 2 3 4 5 6 
#
# 1 0.016669 -0.000440 -0.004659 0.000000 0.000000 0.000000
# 2 -0.000440 0.008568 -0.006235 0.000000 0.000000 0.000000
# 3 -0.004659 -0.006235 0.018254 0.000000 0.000000 0.000000
# 4 0.000000 0.000000 0.000000 0.021944 0.000000 0.000000
# 5 0.000000 0.000000 0.000000 0.000000 0.011984 0.000000
# 6 0.000000 0.000000 0.000000 0.000000 0.000000 0.050812
#
#
# Mechanical properties :
#
#
# Convention : Reuss Voigt Hill
#
# Bulk Modulus (GPa) = 48.02488 58.24667 53.13578
# Shear Modulus (GPa) = 31.67744 43.38614 37.53179
#
# Velocity S-wave (km/s) = 3.82404 4.47531 4.16243
# Velocity P-wave (km/s) = 6.45503 7.32072 6.90146
#
# Compressibility (1/GPa) = 0.02082254
#
# Stress axis : x y z
#
# Youngs Moduli (GPa) = 59.99102 116.71820 54.78139
#
# Poissons Ratio (x) = 0.05140 0.25523
# Poissons Ratio (y) = 0.02642 0.34156
# Poissons Ratio (z) = 0.27950 0.72773
#
# Static dielectric constant tensor:
#      x y z
#    x 1.783740 0.000000 0.000000 
#    y 0.000000 7.295720 0.000000 
#    z 0.000000 0.000000 2.217630 
# 
# From -- ./inp_files/3649.got.cif
#   From: 2010.05.17/outbox.cif.g08.bks.cpg/sg52_2_cif.got.tgz:3649.got - 2010.06.03 12:15:38.
