data_PCOD9408291
_publ_section_title
;
Structure prediction by ZEFSAII (Michael W. Deem and Ramdas Pophale) SiO2 
 PCOD9408291
Probable space group: P N N A
;
_chemical_formula_sum "Si O2"
_cell_formula_units_Z 56
_cell_length_a 5.809286
_cell_length_b 13.927371
_cell_length_c 28.388368
_cell_angle_alpha 90.000000
_cell_angle_beta 90.000000
_cell_angle_gamma 90.000000
_cell_volume 2296.848388
_symmetry_space_group_name_H-M "P N N A"
_symmetry_group_IT_number 52
_symmetry_cell_setting 'orthorhombic'
loop_
_space_group_symop_operation_xyz
x,y,z
1/2-x,-y,z
x,1/2-y,1/2-z
1/2-x,1/2+y,1/2-z
-x,-y,-z
1/2+x,y,-z
-x,1/2+y,1/2+z
1/2+x,1/2-y,1/2+z
loop_
_atom_site_type_symbol
_atom_site_label
_atom_site_fract_x
_atom_site_fract_y
_atom_site_fract_z
Si Si1 0.391705 0.367631 0.487791
Si Si2 0.796120 0.609799 0.296140
Si Si3 0.309574 0.623862 0.878966
Si Si4 0.090919 0.587453 0.204056
Si Si5 0.086337 0.810554 0.115668
Si Si6 0.950322 0.754302 0.676807
Si Si7 0.128419 0.641666 0.979476
O O1 0.632593 0.407597 0.507325
O O2 0.437567 0.366642 0.432014
O O3 0.374708 0.258531 0.511361
O O4 0.750000 0.500000 0.307613
O O5 0.567376 0.673801 0.291599
O O6 0.921386 0.610897 0.246323
O O7 0.945988 0.650832 0.339403
O O8 0.465495 0.557358 0.845149
O O9 0.490420 0.704743 0.895953
O O10 0.162735 0.605479 0.925626
O O11 0.141970 0.673564 0.841476
O O12 0.250000 0.500000 0.218997
O O13 0.241926 0.682539 0.195910
O O14 0.349100 0.801383 0.131595
O O15 0.371859 0.609887 0.003810
#
# Coordination Sequence:
#
# PCOD9408291 Si02
#       7
#     8   8   8   8   8   8   8
#     4  10  18  31  60 101 145 186 239 304 371 446
#     4  11  28  48  69 102 144 192 244 312 384 451
#     4  10  21  38  66 103 136 189 243 299 368 446
#     4  11  28  48  69 102 144 192 244 312 384 451
#     4  10  21  38  66 103 136 189 243 299 368 446
#     4  10  24  45  72  98 138 178 248 304 359 462
#     4  10  18  31  60 101 145 186 239 304 371 446
#
# _framework density 24.381236000000001
#
# number of rings (size 3 to 8) (size 9 to 14) (size 15 to 20)
#    0.000    1.714    2.857    1.714    8.000    6.286 
#    0.000    0.000    0.000    1.714    0.000    0.000 
#    0.000    0.000    0.000    0.000    0.000    0.000 
#
# Total GULP energy -313023.838217 kJ/mol
# GULP energy per Si atom -5589.711397 kJ/mol
# Density = 2.432574 g / cm^3
# Si number density = 24.381236 Si / 1000 Ang^3
#
#
#
# Elastic Constant Matrix: (Units=GPa)
#
#
# Indices 1 2 3 4 5 6 
#
# 1 135.4594 34.4749 32.8009 0.0000 0.0000 0.0000
# 2 34.4749 80.1556 18.5875 0.0000 0.0000 0.0000
# 3 32.8009 18.5875 128.8718 0.0000 0.0000 0.0000
# 4 0.0000 0.0000 0.0000 -0.8434 0.0000 0.0000
# 5 0.0000 0.0000 0.0000 0.0000 -4.8254 0.0000
# 6 0.0000 0.0000 0.0000 0.0000 0.0000 29.7538
#
#
#
# Elastic Compliance Matrix: (Units=1/GPa)
#
#
# Indices 1 2 3 4 5 6 
#
# 1 0.008644 -0.003318 -0.001721 0.000000 0.000000 0.000000
# 2 -0.003318 0.014181 -0.001201 0.000000 0.000000 0.000000
# 3 -0.001721 -0.001201 0.008371 0.000000 0.000000 0.000000
# 4 0.000000 0.000000 0.000000 -1.185721 0.000000 0.000000
# 5 0.000000 0.000000 0.000000 0.000000 -0.207235 0.000000
# 6 0.000000 0.000000 0.000000 0.000000 0.000000 0.033609
#
#
# Mechanical properties :
#
#
# Convention : Reuss Voigt Hill
#
# Bulk Modulus (GPa) = 53.43360 57.35702 55.39531
# Shear Modulus (GPa) = -3.81845 22.05858 9.12006
#
# Velocity S-wave (km/s) = -1.25281 3.01115 1.93616
# Velocity P-wave (km/s) = 4.45766 5.97206 5.26954
#
# Compressibility (1/GPa) = 0.01871482
#
# Stress axis : x y z
#
# Youngs Moduli (GPa) = 115.69160 70.51459 119.46041
#
# Poissons Ratio (x) = 0.23400 0.20564
# Poissons Ratio (y) = 0.38392 0.14345
# Poissons Ratio (z) = 0.19915 0.08467
#
# Static dielectric constant tensor:
#      x y z
#    x 1.984780 0.000000 0.000000 
#    y 0.000000 2.020180 0.000000 
#    z 0.000000 0.000000 1.921860 
# 
# From -- ./inp_files/43795.got.cif
#   From: 2010.05.17/outbox.cif.g08.bks.cpg/sg52_22_cif.got.tgz:43795.got - 2010.06.03 12:15:38.
