data_PCOD9408652
_publ_section_title
;
Structure prediction by ZEFSAII (Michael W. Deem and Ramdas Pophale) SiO2 
 PCOD9408652
Probable space group: P N N A
;
_chemical_formula_sum "Si O2"
_cell_formula_units_Z 44
_cell_length_a 14.675690
_cell_length_b 16.226459
_cell_length_c 8.987971
_cell_angle_alpha 90.000000
_cell_angle_beta 90.000000
_cell_angle_gamma 90.000000
_cell_volume 2140.345819
_symmetry_space_group_name_H-M "P N N A"
_symmetry_group_IT_number 52
_symmetry_cell_setting 'orthorhombic'
loop_
_space_group_symop_operation_xyz
x,y,z
1/2-x,-y,z
x,1/2-y,1/2-z
1/2-x,1/2+y,1/2-z
-x,-y,-z
1/2+x,y,-z
-x,1/2+y,1/2+z
1/2+x,1/2-y,1/2+z
loop_
_atom_site_type_symbol
_atom_site_label
_atom_site_fract_x
_atom_site_fract_y
_atom_site_fract_z
Si Si1 0.986789 0.112712 0.451008
Si Si2 0.091071 0.750000 0.750000
Si Si3 0.467186 0.157160 0.212142
Si Si4 0.676625 0.622052 0.476833
Si Si5 0.861276 0.566451 0.391452
Si Si6 0.153104 0.470477 0.939544
O O1 0.968666 0.196260 0.364160
O O2 0.962835 0.116895 0.625901
O O3 0.091605 0.083718 0.449947
O O4 0.915556 0.044501 0.394573
O O5 0.149589 0.686229 0.652206
O O6 0.496427 0.250000 0.250000
O O7 0.540973 0.109502 0.111257
O O8 0.372701 0.153042 0.125242
O O9 0.785193 0.612953 0.486982
O O10 0.640970 0.529332 0.438851
O O11 0.828012 0.572954 0.218772
O O12 0.250000 0.500000 0.000159
#
# Coordination Sequence:
#
# PCOD9408652 Si02
#       6
#     8   4   8   8   8   8
#     4  10  22  37  65  92 126 166 207 270 323 380
#     4  12  20  38  64  96 128 164 214 264 322 390
#     4  11  23  41  61  94 131 164 208 271 325 370
#     4  11  22  40  65  93 127 168 214 262 317 391
#     4  10  21  40  67  91 120 174 219 248 320 399
#     4  10  18  40  66  91 118 166 220 257 314 387
#
# _framework density 20.557424000000001
#
# number of rings (size 3 to 8) (size 9 to 14) (size 15 to 20)
#    0.000    1.455    5.455    0.545    1.273    0.000 
#    3.273    0.000    4.000    0.000    0.000    0.000 
#    0.000    0.000    0.000    0.000    0.000    0.000 
#
# Total GULP energy -245582.171379 kJ/mol
# GULP energy per Si atom -5581.412986 kJ/mol
# Density = 2.051063 g / cm^3
# Si number density = 20.557424 Si / 1000 Ang^3
#
#
#
# Elastic Constant Matrix: (Units=GPa)
#
#
# Indices 1 2 3 4 5 6 
#
# 1 96.8768 20.9499 35.3516 0.0000 0.0000 0.0000
# 2 20.9499 79.6238 10.0702 0.0000 0.0000 0.0000
# 3 35.3516 10.0702 48.9804 0.0000 0.0000 0.0000
# 4 0.0000 0.0000 0.0000 21.1899 0.0000 0.0000
# 5 0.0000 0.0000 0.0000 0.0000 19.9408 0.0000
# 6 0.0000 0.0000 0.0000 0.0000 0.0000 24.7155
#
#
#
# Elastic Compliance Matrix: (Units=1/GPa)
#
#
# Indices 1 2 3 4 5 6 
#
# 1 0.014504 -0.002559 -0.009942 0.000000 0.000000 0.000000
# 2 -0.002559 0.013346 -0.000897 0.000000 0.000000 0.000000
# 3 -0.009942 -0.000897 0.027776 0.000000 0.000000 0.000000
# 4 0.000000 0.000000 0.000000 0.047192 0.000000 0.000000
# 5 0.000000 0.000000 0.000000 0.000000 0.050148 0.000000
# 6 0.000000 0.000000 0.000000 0.000000 0.000000 0.040460
#
#
# Mechanical properties :
#
#
# Convention : Reuss Voigt Hill
#
# Bulk Modulus (GPa) = 34.68576 39.80271 37.24423
# Shear Modulus (GPa) = 21.75499 23.77654 22.76577
#
# Velocity S-wave (km/s) = 3.25661 3.40456 3.33141
# Velocity P-wave (km/s) = 5.57225 5.90410 5.74057
#
# Compressibility (1/GPa) = 0.02883028
#
# Stress axis : x y z
#
# Youngs Moduli (GPa) = 68.94812 74.93033 36.00180
#
# Poissons Ratio (x) = 0.19172 0.35793
# Poissons Ratio (y) = 0.17642 0.03230
# Poissons Ratio (z) = 0.68548 0.06722
#
# Static dielectric constant tensor:
#      x y z
#    x 1.733730 0.000000 0.000000 
#    y 0.000000 1.783820 0.000000 
#    z 0.000000 0.000000 1.773860 
# 
# From -- ./inp_files/10362.got.cif
#   From: 2010.05.17/outbox.cif.g08.bks.cpg/sg52_6_cif.got.tgz:10362.got - 2010.06.03 12:15:38.
