data_PCOD9408481
_publ_section_title
;
Structure prediction by ZEFSAII (Michael W. Deem and Ramdas Pophale) SiO2 
 PCOD9408481
Probable space group: P N N A
;
_chemical_formula_sum "Si O2"
_cell_formula_units_Z 36
_cell_length_a 9.144759
_cell_length_b 8.989496
_cell_length_c 18.644990
_cell_angle_alpha 90.000000
_cell_angle_beta 90.000000
_cell_angle_gamma 90.000000
_cell_volume 1532.744488
_symmetry_space_group_name_H-M "P N N A"
_symmetry_group_IT_number 52
_symmetry_cell_setting 'orthorhombic'
loop_
_space_group_symop_operation_xyz
x,y,z
1/2-x,-y,z
x,1/2-y,1/2-z
1/2-x,1/2+y,1/2-z
-x,-y,-z
1/2+x,y,-z
-x,1/2+y,1/2+z
1/2+x,1/2-y,1/2+z
loop_
_atom_site_type_symbol
_atom_site_label
_atom_site_fract_x
_atom_site_fract_y
_atom_site_fract_z
Si Si1 0.988689 0.584852 0.423315
Si Si2 0.483713 0.357040 0.690154
Si Si3 0.250000 0.500000 0.221639
Si Si4 0.756815 0.765070 0.608920
Si Si5 0.133286 0.097960 0.532597
O O1 0.916242 0.482250 0.361751
O O2 0.153424 0.624390 0.399194
O O3 0.000000 0.500000 0.500000
O O4 0.918767 0.748442 0.431603
O O5 0.408653 0.250000 0.750000
O O6 0.615867 0.435232 0.734062
O O7 0.576108 0.260396 0.632843
O O8 0.308551 0.370942 0.169761
O O9 0.768497 0.843809 0.533318
O O10 0.250000 0.000000 0.577483
O O11 0.000000 0.000000 0.500000
#
# Coordination Sequence:
#
# PCOD9408481 Si02
#       5
#     8   8   4   8   8
#     4  12  23  37  62  96 150 182 231 298 369 446
#     4  10  21  35  60  96 138 176 228 304 380 427
#     4  10  18  34  62  90 144 164 214 308 380 406
#     4  11  20  37  60  98 144 168 231 289 374 422
#     4  12  24  40  62  96 153 188 232 297 366 441
#
# _framework density 23.487279000000001
#
# number of rings (size 3 to 8) (size 9 to 14) (size 15 to 20)
#    0.000    0.889    7.778    0.000    0.000    0.000 
#    0.000    0.000    0.000    0.000    0.000    0.000 
#  353.333    0.000    0.000    0.000    0.000    0.000 
#
# Total GULP energy -200874.577271 kJ/mol
# GULP energy per Si atom -5579.849369 kJ/mol
# Density = 2.343382 g / cm^3
# Si number density = 23.487279 Si / 1000 Ang^3
#
#
#
# Elastic Constant Matrix: (Units=GPa)
#
#
# Indices 1 2 3 4 5 6 
#
# 1 63.1930 46.2241 15.0826 0.0000 0.0000 0.0000
# 2 46.2241 162.2781 60.7393 0.0000 0.0000 0.0000
# 3 15.0826 60.7393 105.4157 0.0000 0.0000 0.0000
# 4 0.0000 0.0000 0.0000 61.7704 0.0000 0.0000
# 5 0.0000 0.0000 0.0000 0.0000 -39.0206 0.0000
# 6 0.0000 0.0000 0.0000 0.0000 0.0000 43.3656
#
#
#
# Elastic Compliance Matrix: (Units=1/GPa)
#
#
# Indices 1 2 3 4 5 6 
#
# 1 0.020013 -0.005902 0.000537 0.000000 0.000000 0.000000
# 2 -0.005902 0.009597 -0.004685 0.000000 0.000000 0.000000
# 3 0.000537 -0.004685 0.012109 0.000000 0.000000 0.000000
# 4 0.000000 0.000000 0.000000 0.016189 0.000000 0.000000
# 5 0.000000 0.000000 0.000000 0.000000 -0.025627 0.000000
# 6 0.000000 0.000000 0.000000 0.000000 0.000000 0.023060
#
#
# Mechanical properties :
#
#
# Convention : Reuss Voigt Hill
#
# Bulk Modulus (GPa) = 46.25467 63.88655 55.07061
# Shear Modulus (GPa) = 60.49832 27.14579 43.82206
#
# Velocity S-wave (km/s) = 5.08073 3.40334 4.32415
# Velocity P-wave (km/s) = 7.35899 6.53477 6.95909
#
# Compressibility (1/GPa) = 0.02161944
#
# Stress axis : x y z
#
# Youngs Moduli (GPa) = 49.96676 104.19939 82.58311
#
# Poissons Ratio (x) = 0.61495 -0.04435
# Poissons Ratio (y) = 0.29489 0.38692
# Poissons Ratio (z) = -0.02683 0.48820
#
# Static dielectric constant tensor:
#      x y z
#    x 1.963620 0.000000 0.000000 
#    y 0.000000 2.051610 0.000000 
#    z 0.000000 0.000000 1.905680 
# 
# From -- ./inp_files/36595.got.cif
#   From: 2010.05.17/outbox.cif.g08.bks.cpg/sg52_19_cif.got.tgz:36595.got - 2010.06.03 12:15:38.
