data_PCOD9408304
_publ_section_title
;
Structure prediction by ZEFSAII (Michael W. Deem and Ramdas Pophale) SiO2 
 PCOD9408304
Probable space group: P N N A
;
_chemical_formula_sum "Si O2"
_cell_formula_units_Z 44
_cell_length_a 5.242881
_cell_length_b 13.398853
_cell_length_c 33.484357
_cell_angle_alpha 90.000000
_cell_angle_beta 90.000000
_cell_angle_gamma 90.000000
_cell_volume 2352.228927
_symmetry_space_group_name_H-M "P N N A"
_symmetry_group_IT_number 52
_symmetry_cell_setting 'orthorhombic'
loop_
_space_group_symop_operation_xyz
x,y,z
1/2-x,-y,z
x,1/2-y,1/2-z
1/2-x,1/2+y,1/2-z
-x,-y,-z
1/2+x,y,-z
-x,1/2+y,1/2+z
1/2+x,1/2-y,1/2+z
loop_
_atom_site_type_symbol
_atom_site_label
_atom_site_fract_x
_atom_site_fract_y
_atom_site_fract_z
Si Si1 0.597962 0.394408 0.780971
Si Si2 0.377657 0.737997 0.146016
Si Si3 0.027395 0.386620 0.983067
Si Si4 0.997006 0.569267 0.691648
Si Si5 0.398251 0.850684 0.609302
Si Si6 0.750000 0.500000 0.165777
O O1 0.750000 0.500000 0.782645
O O2 0.707131 0.312411 0.811224
O O3 0.537053 0.376777 0.734893
O O4 0.335204 0.415469 0.803809
O O5 0.481625 0.846578 0.157891
O O6 0.615198 0.684252 0.123220
O O7 0.122194 0.727257 0.119668
O O8 0.093569 0.381376 0.936709
O O9 0.755592 0.338526 0.992026
O O10 0.000000 0.500000 0.000000
O O11 0.750000 0.500000 0.687191
O O12 0.250000 0.500000 0.691899
O O13 0.451243 0.949747 0.636000
#
# Coordination Sequence:
#
# PCOD9408304 Si02
#       6
#     8   8   8   8   8   4
#     4  10  19  34  52  80 112 150 198 244 297 351
#     4  11  23  37  56  83 115 154 202 245 292 341
#     4  10  20  34  53  81 116 156 185 207 262 340
#     4  11  23  39  58  77 110 152 207 262 303 331
#     4  11  22  35  56  83 120 154 193 225 274 350
#     4  10  18  32  50  78 114 154 194 232 270 342
#
# _framework density 18.705662
#
# number of rings (size 3 to 8) (size 9 to 14) (size 15 to 20)
#    0.000    1.455    2.727    3.818    0.000    4.364 
#    0.000    3.636    0.000    0.000    0.000    0.000 
#    0.000   50.909    0.000    0.000    0.000    0.000 
#
# Total GULP energy -244946.855055 kJ/mol
# GULP energy per Si atom -5566.973979 kJ/mol
# Density = 1.866309 g / cm^3
# Si number density = 18.705662 Si / 1000 Ang^3
#
#
#
# Elastic Constant Matrix: (Units=GPa)
#
#
# Indices 1 2 3 4 5 6 
#
# 1 112.7716 15.8456 28.1472 0.0000 0.0000 0.0000
# 2 15.8456 45.3879 37.5609 0.0000 0.0000 0.0000
# 3 28.1472 37.5609 116.8136 0.0000 0.0000 0.0000
# 4 0.0000 0.0000 0.0000 18.9203 0.0000 0.0000
# 5 0.0000 0.0000 0.0000 0.0000 26.7717 0.0000
# 6 0.0000 0.0000 0.0000 0.0000 0.0000 17.9738
#
#
#
# Elastic Compliance Matrix: (Units=1/GPa)
#
#
# Indices 1 2 3 4 5 6 
#
# 1 0.009560 -0.001950 -0.001676 0.000000 0.000000 0.000000
# 2 -0.001950 0.030419 -0.009311 0.000000 0.000000 0.000000
# 3 -0.001676 -0.009311 0.011959 0.000000 0.000000 0.000000
# 4 0.000000 0.000000 0.000000 0.052853 0.000000 0.000000
# 5 0.000000 0.000000 0.000000 0.000000 0.037353 0.000000
# 6 0.000000 0.000000 0.000000 0.000000 0.000000 0.055636
#
#
# Mechanical properties :
#
#
# Convention : Reuss Voigt Hill
#
# Bulk Modulus (GPa) = 38.37054 48.67561 43.52308
# Shear Modulus (GPa) = 21.51999 25.62779 23.57389
#
# Velocity S-wave (km/s) = 3.39551 3.70544 3.55386
# Velocity P-wave (km/s) = 5.99416 6.66224 6.33701
#
# Compressibility (1/GPa) = 0.02606166
#
# Stress axis : x y z
#
# Youngs Moduli (GPa) = 104.60322 32.87471 83.62223
#
# Poissons Ratio (x) = 0.06411 0.14019
# Poissons Ratio (y) = 0.20399 0.77861
# Poissons Ratio (z) = 0.17537 0.30610
#
# Static dielectric constant tensor:
#      x y z
#    x 1.748350 0.000000 0.000000 
#    y 0.000000 1.681400 0.000000 
#    z 0.000000 0.000000 1.653520 
# 
# From -- ./inp_files/41627.got.cif
#   From: 2010.05.17/outbox.cif.g08.bks.cpg/sg52_21_cif.got.tgz:41627.got - 2010.06.03 12:15:38.
