data_PCOD9408284
_publ_section_title
;
Structure prediction by ZEFSAII (Michael W. Deem and Ramdas Pophale) SiO2 
 PCOD9408284
Probable space group: P N N A
;
_chemical_formula_sum "Si O2"
_cell_formula_units_Z 48
_cell_length_a 12.021511
_cell_length_b 9.003279
_cell_length_c 24.638462
_cell_angle_alpha 90.000000
_cell_angle_beta 90.000000
_cell_angle_gamma 90.000000
_cell_volume 2666.695090
_symmetry_space_group_name_H-M "P N N A"
_symmetry_group_IT_number 52
_symmetry_cell_setting 'orthorhombic'
loop_
_space_group_symop_operation_xyz
x,y,z
1/2-x,-y,z
x,1/2-y,1/2-z
1/2-x,1/2+y,1/2-z
-x,-y,-z
1/2+x,y,-z
-x,1/2+y,1/2+z
1/2+x,1/2-y,1/2+z
loop_
_atom_site_type_symbol
_atom_site_label
_atom_site_fract_x
_atom_site_fract_y
_atom_site_fract_z
Si Si1 0.452126 0.472351 0.102253
Si Si2 0.126395 0.461371 0.628535
Si Si3 0.048410 0.191801 0.083677
Si Si4 0.250000 0.000000 0.131997
Si Si5 0.750000 0.500000 0.977733
Si Si6 0.067993 0.711698 0.312966
Si Si7 0.116697 0.224071 0.534966
O O1 0.457585 0.647722 0.112736
O O2 0.433293 0.364808 0.152925
O O3 0.553827 0.405029 0.068095
O O4 0.350655 0.460469 0.060971
O O5 0.250000 0.500000 0.648946
O O6 0.139180 0.354371 0.576565
O O7 0.055346 0.598958 0.605684
O O8 0.045039 0.377007 0.670843
O O9 0.161895 0.100595 0.097916
O O10 0.050163 0.221873 0.018718
O O11 0.328520 0.110278 0.166922
O O12 0.774574 0.644655 0.012580
O O13 0.074089 0.750000 0.250000
#
# Coordination Sequence:
#
# PCOD9408284 Si02
#       7
#     8   8   8   4   4   8   8
#     4  10  21  36  55  84 112 151 191 234 282 344
#     4  10  23  37  57  84 117 157 200 238 286 349
#     4  10  20  37  55  86 124 148 190 234 290 352
#     4  10  22  35  60  90 112 145 184 236 302 348
#     4  10  18  31  56  82 120 143 188 226 288 352
#     4  10  22  43  61  83 115 146 198 248 295 338
#     4  10  21  32  55  82 117 156 185 233 280 346
#
# _framework density 17.999808999999999
#
# number of rings (size 3 to 8) (size 9 to 14) (size 15 to 20)
#    0.000    2.000    0.000    4.500    5.833    2.000 
#    0.000    4.167    0.000    0.000    0.000    0.000 
#    0.000    0.000    0.000    0.000    0.000    0.000 
#
# Total GULP energy -267710.103232 kJ/mol
# GULP energy per Si atom -5577.293817 kJ/mol
# Density = 1.795884 g / cm^3
# Si number density = 17.999809 Si / 1000 Ang^3
#
#
#
# Elastic Constant Matrix: (Units=GPa)
#
#
# Indices 1 2 3 4 5 6 
#
# 1 95.3876 47.4912 14.6732 0.0000 0.0000 0.0000
# 2 47.4912 129.9639 46.6673 0.0000 0.0000 0.0000
# 3 14.6732 46.6673 83.5852 0.0000 0.0000 0.0000
# 4 0.0000 0.0000 0.0000 10.5919 0.0000 0.0000
# 5 0.0000 0.0000 0.0000 0.0000 6.7168 0.0000
# 6 0.0000 0.0000 0.0000 0.0000 0.0000 20.4084
#
#
#
# Elastic Compliance Matrix: (Units=1/GPa)
#
#
# Indices 1 2 3 4 5 6 
#
# 1 0.012829 -0.004852 0.000457 0.000000 0.000000 0.000000
# 2 -0.004852 0.011459 -0.005546 0.000000 0.000000 0.000000
# 3 0.000457 -0.005546 0.014980 0.000000 0.000000 0.000000
# 4 0.000000 0.000000 0.000000 0.094411 0.000000 0.000000
# 5 0.000000 0.000000 0.000000 0.000000 0.148881 0.000000
# 6 0.000000 0.000000 0.000000 0.000000 0.000000 0.048999
#
#
# Mechanical properties :
#
#
# Convention : Reuss Voigt Hill
#
# Bulk Modulus (GPa) = 51.58435 58.51112 55.04774
# Shear Modulus (GPa) = 13.97023 20.88376 17.42700
#
# Velocity S-wave (km/s) = 2.78894 3.40990 3.11493
# Velocity P-wave (km/s) = 6.25231 6.93400 6.60196
#
# Compressibility (1/GPa) = 0.01938572
#
# Stress axis : x y z
#
# Youngs Moduli (GPa) = 77.94870 87.26853 66.75533
#
# Poissons Ratio (x) = 0.42342 -0.03050
# Poissons Ratio (y) = 0.37821 0.37022
# Poissons Ratio (z) = -0.03561 0.48399
#
# Static dielectric constant tensor:
#      x y z
#    x 1.610210 0.000000 0.000000 
#    y 0.000000 1.583920 0.000000 
#    z 0.000000 0.000000 1.585290 
# 
# From -- ./inp_files/40180.got.cif
#   From: 2010.05.17/outbox.cif.g08.bks.cpg/sg52_21_cif.got.tgz:40180.got - 2010.06.03 12:15:38.
