data_PCOD9408475
_publ_section_title
;
Structure prediction by ZEFSAII (Michael W. Deem and Ramdas Pophale) SiO2 
 PCOD9408475
Probable space group: P N N A
;
_chemical_formula_sum "Si O2"
_cell_formula_units_Z 52
_cell_length_a 24.497527
_cell_length_b 8.726697
_cell_length_c 11.160119
_cell_angle_alpha 90.000000
_cell_angle_beta 90.000000
_cell_angle_gamma 90.000000
_cell_volume 2385.838089
_symmetry_space_group_name_H-M "P N N A"
_symmetry_group_IT_number 52
_symmetry_cell_setting 'orthorhombic'
loop_
_space_group_symop_operation_xyz
x,y,z
1/2-x,-y,z
x,1/2-y,1/2-z
1/2-x,1/2+y,1/2-z
-x,-y,-z
1/2+x,y,-z
-x,1/2+y,1/2+z
1/2+x,1/2-y,1/2+z
loop_
_atom_site_type_symbol
_atom_site_label
_atom_site_fract_x
_atom_site_fract_y
_atom_site_fract_z
Si Si1 0.827797 0.250000 0.250000
Si Si2 0.750000 0.500000 0.697071
Si Si3 0.128574 0.291754 0.510965
Si Si4 0.833301 0.750000 0.750000
Si Si5 0.559637 0.708883 0.504908
Si Si6 0.027707 0.061683 0.850036
Si Si7 0.816313 0.097981 0.017020
Si Si8 0.093048 0.993346 0.624428
O O1 0.796264 0.185702 0.134948
O O2 0.867990 0.116173 0.296732
O O3 0.793785 0.602223 0.766497
O O4 0.781788 0.389078 0.603570
O O5 0.131477 0.278941 0.368043
O O6 0.072764 0.359040 0.564362
O O7 0.174665 0.416995 0.543560
O O8 0.130474 0.123545 0.566466
O O9 0.528414 0.646406 0.620869
O O10 0.529983 0.614271 0.397031
O O11 0.622798 0.659411 0.507694
O O12 0.562167 0.887392 0.472353
O O13 0.049434 0.434549 0.784262
#
# Coordination Sequence:
#
# PCOD9408475 Si02
#       8
#     4   4   8   4   8   8   8   8
#     4  10  18  34  61  92 124 158 203 252 322 380
#     4  10  22  42  68  84 128 160 216 268 328 384
#     4  10  21  37  62  89 122 159 211 253 323 368
#     4  10  24  46  65  94 118 172 209 272 326 380
#     4   9  19  34  57  89 129 170 209 243 316 377
#     4  10  18  35  58  93 127 170 204 261 308 374
#     4   9  19  39  59  90 118 168 208 257 318 382
#     4  11  18  35  62  91 124 167 200 259 310 380
#
# _framework density 21.795275
#
# number of rings (size 3 to 8) (size 9 to 14) (size 15 to 20)
#    0.000    2.154    4.615    0.462    0.000    3.077 
#   11.077    3.077    6.769    0.000    0.000    0.000 
#    0.000    0.000    0.000    0.000    0.000    0.000 
#
# Total GULP energy -290199.880847 kJ/mol
# GULP energy per Si atom -5580.766939 kJ/mol
# Density = 2.174567 g / cm^3
# Si number density = 21.795275 Si / 1000 Ang^3
#
#
#
# Elastic Constant Matrix: (Units=GPa)
#
#
# Indices 1 2 3 4 5 6 
#
# 1 51.6204 5.9853 12.2130 0.0000 0.0000 0.0000
# 2 5.9853 92.4305 35.2486 0.0000 0.0000 0.0000
# 3 12.2130 35.2486 63.3253 0.0000 0.0000 0.0000
# 4 0.0000 0.0000 0.0000 40.7871 0.0000 0.0000
# 5 0.0000 0.0000 0.0000 0.0000 22.9859 0.0000
# 6 0.0000 0.0000 0.0000 0.0000 0.0000 13.2440
#
#
#
# Elastic Compliance Matrix: (Units=1/GPa)
#
#
# Indices 1 2 3 4 5 6 
#
# 1 0.020302 0.000227 -0.004042 0.000000 0.000000 0.000000
# 2 0.000227 0.013737 -0.007690 0.000000 0.000000 0.000000
# 3 -0.004042 -0.007690 0.020851 0.000000 0.000000 0.000000
# 4 0.000000 0.000000 0.000000 0.024518 0.000000 0.000000
# 5 0.000000 0.000000 0.000000 0.000000 0.043505 0.000000
# 6 0.000000 0.000000 0.000000 0.000000 0.000000 0.075506
#
#
# Mechanical properties :
#
#
# Convention : Reuss Voigt Hill
#
# Bulk Modulus (GPa) = 31.36728 34.91890 33.14309
# Shear Modulus (GPa) = 21.54657 25.66536 23.60597
#
# Velocity S-wave (km/s) = 3.14759 3.43529 3.29458
# Velocity P-wave (km/s) = 5.25669 5.63836 5.45087
#
# Compressibility (1/GPa) = 0.03188036
#
# Stress axis : x y z
#
# Youngs Moduli (GPa) = 49.25591 72.79675 47.95833
#
# Poissons Ratio (x) = -0.01650 0.19383
# Poissons Ratio (y) = -0.01116 0.36880
# Poissons Ratio (z) = 0.19907 0.55981
#
# Static dielectric constant tensor:
#      x y z
#    x 1.796190 0.000000 0.000000 
#    y 0.000000 1.879690 0.000000 
#    z 0.000000 0.000000 1.803540 
# 
# From -- ./inp_files/23143.got.cif
#   From: 2010.05.17/outbox.cif.g08.bks.cpg/sg52_12_cif.got.tgz:23143.got - 2010.06.03 12:15:38.
