data_PCOD9408004
_publ_section_title
;
Structure prediction by ZEFSAII (Michael W. Deem and Ramdas Pophale) SiO2 
 PCOD9408004
Probable space group: P N N A
;
_chemical_formula_sum "Si O2"
_cell_formula_units_Z 36
_cell_length_a 11.267736
_cell_length_b 14.888916
_cell_length_c 9.100052
_cell_angle_alpha 90.000000
_cell_angle_beta 90.000000
_cell_angle_gamma 90.000000
_cell_volume 1526.664535
_symmetry_space_group_name_H-M "P N N A"
_symmetry_group_IT_number 52
_symmetry_cell_setting 'orthorhombic'
loop_
_space_group_symop_operation_xyz
x,y,z
1/2-x,-y,z
x,1/2-y,1/2-z
1/2-x,1/2+y,1/2-z
-x,-y,-z
1/2+x,y,-z
-x,1/2+y,1/2+z
1/2+x,1/2-y,1/2+z
loop_
_atom_site_type_symbol
_atom_site_label
_atom_site_fract_x
_atom_site_fract_y
_atom_site_fract_z
Si Si1 0.845874 0.376969 0.531088
Si Si2 0.750000 0.000000 0.220421
Si Si3 0.000933 0.536381 0.213839
Si Si4 0.864170 0.306658 0.905174
Si Si5 0.365583 0.648960 0.231576
O O1 0.814369 0.430513 0.387379
O O2 0.947269 0.424334 0.630304
O O3 0.881864 0.275767 0.487356
O O4 0.724620 0.373602 0.630834
O O5 0.639451 0.041551 0.303613
O O6 0.057554 0.605430 0.097440
O O7 0.050318 0.435319 0.208969
O O8 0.883486 0.250000 0.750000
O O9 0.729325 0.339927 0.900199
O O10 0.414402 0.750000 0.250000
#
# Coordination Sequence:
#
# PCOD9408004 Si02
#       5
#     8   4   8   8   8
#     4   9  16  28  44  67  96 122 157 194 251 292
#     4  12  20  24  44  78 106 124 146 212 274 292
#     4  10  17  28  42  68 101 122 154 203 255 289
#     4   7  14  28  46  60  88 128 165 191 232 298
#     4   8  14  26  44  63  89 118 167 204 231 278
#
# _framework density 23.580821
#
# number of rings (size 3 to 8) (size 9 to 14) (size 15 to 20)
#    0.000    4.000    2.222    2.667    0.000    0.000 
#    0.000    3.333    0.000    0.000    0.000    1.556 
#   33.333    5.778    0.000    0.000    0.000    0.000 
#
# Total GULP energy -200762.670898 kJ/mol
# GULP energy per Si atom -5576.740858 kJ/mol
# Density = 2.352715 g / cm^3
# Si number density = 23.580821 Si / 1000 Ang^3
#
#
#
# Elastic Constant Matrix: (Units=GPa)
#
#
# Indices 1 2 3 4 5 6 
#
# 1 132.9987 77.6555 29.0084 0.0000 0.0000 0.0000
# 2 77.6555 186.6152 27.3073 0.0000 0.0000 0.0000
# 3 29.0084 27.3073 29.1649 0.0000 0.0000 0.0000
# 4 0.0000 0.0000 0.0000 -7.2198 0.0000 0.0000
# 5 0.0000 0.0000 0.0000 0.0000 10.3875 0.0000
# 6 0.0000 0.0000 0.0000 0.0000 0.0000 -34.9631
#
#
#
# Elastic Compliance Matrix: (Units=1/GPa)
#
#
# Indices 1 2 3 4 5 6 
#
# 1 0.011323 -0.003550 -0.007938 0.000000 0.000000 0.000000
# 2 -0.003550 0.007323 -0.003325 0.000000 0.000000 0.000000
# 3 -0.007938 -0.003325 0.045297 0.000000 0.000000 0.000000
# 4 0.000000 0.000000 0.000000 -0.138509 0.000000 0.000000
# 5 0.000000 0.000000 0.000000 0.000000 0.096269 0.000000
# 6 0.000000 0.000000 0.000000 0.000000 0.000000 -0.028602
#
#
# Mechanical properties :
#
#
# Convention : Reuss Voigt Hill
#
# Bulk Modulus (GPa) = 29.14147 68.52459 48.83303
# Shear Modulus (GPa) = 146.34160 7.96144 77.15152
#
# Velocity S-wave (km/s) = 7.88634 1.83945 5.72616
# Velocity P-wave (km/s) = 9.76272 5.79948 8.02947
#
# Compressibility (1/GPa) = 0.03431536
#
# Stress axis : x y z
#
# Youngs Moduli (GPa) = 88.31386 136.56515 22.07672
#
# Poissons Ratio (x) = 0.48485 0.17525
# Poissons Ratio (y) = 0.31354 0.07340
# Poissons Ratio (z) = 0.70106 0.45406
#
# Static dielectric constant tensor:
#      x y z
#    x 1.875350 0.000000 0.000000 
#    y 0.000000 1.952730 0.000000 
#    z 0.000000 0.000000 2.012050 
# 
# From -- ./inp_files/24315.got.cif
#   From: 2010.05.17/outbox.cif.g08.bks.cpg/sg52_13_cif.got.tgz:24315.got - 2010.06.03 12:15:38.
