data_PCOD9408149
_publ_section_title
;
Structure prediction by ZEFSAII (Michael W. Deem and Ramdas Pophale) SiO2 
 PCOD9408149
Probable space group: P N N A
;
_chemical_formula_sum "Si O2"
_cell_formula_units_Z 56
_cell_length_a 5.176794
_cell_length_b 27.143890
_cell_length_c 22.185442
_cell_angle_alpha 90.000000
_cell_angle_beta 90.000000
_cell_angle_gamma 90.000000
_cell_volume 3117.461191
_symmetry_space_group_name_H-M "P N N A"
_symmetry_group_IT_number 52
_symmetry_cell_setting 'orthorhombic'
loop_
_space_group_symop_operation_xyz
x,y,z
1/2-x,-y,z
x,1/2-y,1/2-z
1/2-x,1/2+y,1/2-z
-x,-y,-z
1/2+x,y,-z
-x,1/2+y,1/2+z
1/2+x,1/2-y,1/2+z
loop_
_atom_site_type_symbol
_atom_site_label
_atom_site_fract_x
_atom_site_fract_y
_atom_site_fract_z
Si Si1 0.699818 0.169225 0.252977
Si Si2 0.705147 0.244963 0.153002
Si Si3 0.592562 0.192457 0.591080
Si Si4 0.780655 0.393004 0.039280
Si Si5 0.579634 0.262797 0.480406
Si Si6 0.494663 0.469449 0.866066
Si Si7 0.278480 0.625323 0.194623
O O1 0.694450 0.193147 0.186846
O O2 0.628015 0.213970 0.298491
O O3 0.484328 0.128542 0.267723
O O4 0.986344 0.151901 0.270537
O O5 0.549464 0.246823 0.090326
O O6 0.989798 0.262776 0.131950
O O7 0.350313 0.155745 0.577311
O O8 0.653235 0.216269 0.525525
O O9 0.761417 0.155728 0.631609
O O10 0.858658 0.439571 0.079506
O O11 0.990358 0.393166 0.984947
O O12 0.348186 0.290776 0.511458
O O13 0.250000 0.500000 0.840150
O O14 0.617724 0.428420 0.822228
O O15 0.750000 0.500000 0.885986
#
# Coordination Sequence:
#
# PCOD9408149 Si02
#       7
#     8   8   8   8   8   8   8
#     4  10  20  33  49  70  96 126 161 204 248 287
#     4   9  19  31  48  70  97 129 167 205 237 279
#     4   9  19  33  49  70  97 131 171 204 235 281
#     4  11  22  34  50  71  98 130 164 209 256 295
#     4  10  18  28  43  63  90 122 161 196 224 263
#     4  11  23  38  55  72  92 122 164 213 266 320
#     4  10  21  36  52  70  94 124 164 210 256 296
#
# _framework density 17.963332999999999
#
# number of rings (size 3 to 8) (size 9 to 14) (size 15 to 20)
#    0.000    2.000    0.000    4.286    0.000   15.429 
#    0.000    0.000    0.000    0.000    0.000    0.000 
#    0.000    0.000    0.000    0.000    0.000  200.000 
#
# Total GULP energy -312036.895975 kJ/mol
# GULP energy per Si atom -5572.087428 kJ/mol
# Density = 1.792245 g / cm^3
# Si number density = 17.963333 Si / 1000 Ang^3
#
#
#
# Elastic Constant Matrix: (Units=GPa)
#
#
# Indices 1 2 3 4 5 6 
#
# 1 71.1756 10.9901 20.3305 0.0000 0.0000 0.0000
# 2 10.9901 39.6385 30.8683 0.0000 0.0000 0.0000
# 3 20.3305 30.8683 86.5651 0.0000 0.0000 0.0000
# 4 0.0000 0.0000 0.0000 14.7836 0.0000 0.0000
# 5 0.0000 0.0000 0.0000 0.0000 17.3393 0.0000
# 6 0.0000 0.0000 0.0000 0.0000 0.0000 18.1300
#
#
#
# Elastic Compliance Matrix: (Units=1/GPa)
#
#
# Indices 1 2 3 4 5 6 
#
# 1 0.015172 -0.001982 -0.002856 0.000000 0.000000 0.000000
# 2 -0.001982 0.035186 -0.012081 0.000000 0.000000 0.000000
# 3 -0.002856 -0.012081 0.016531 0.000000 0.000000 0.000000
# 4 0.000000 0.000000 0.000000 0.067642 0.000000 0.000000
# 5 0.000000 0.000000 0.000000 0.000000 0.057672 0.000000
# 6 0.000000 0.000000 0.000000 0.000000 0.000000 0.055157
#
#
# Mechanical properties :
#
#
# Convention : Reuss Voigt Hill
#
# Bulk Modulus (GPa) = 30.25836 35.75079 33.00457
# Shear Modulus (GPa) = 17.11058 19.06327 18.08692
#
# Velocity S-wave (km/s) = 3.08965 3.26119 3.17658
# Velocity P-wave (km/s) = 5.44142 5.84173 5.64512
#
# Compressibility (1/GPa) = 0.03304872
#
# Stress axis : x y z
#
# Youngs Moduli (GPa) = 65.91211 28.42044 60.49245
#
# Poissons Ratio (x) = 0.05633 0.17279
# Poissons Ratio (y) = 0.13064 0.73084
# Poissons Ratio (z) = 0.18827 0.34336
#
# Static dielectric constant tensor:
#      x y z
#    x 1.771330 0.000000 0.000000 
#    y 0.000000 1.636570 0.000000 
#    z 0.000000 0.000000 1.651070 
# 
# From -- ./inp_files/35248.got.cif
#   From: 2010.05.17/outbox.cif.g08.bks.cpg/sg52_18_cif.got.tgz:35248.got - 2010.06.03 12:15:38.
