data_PCOD9408033
_publ_section_title
;
Structure prediction by ZEFSAII (Michael W. Deem and Ramdas Pophale) SiO2 
 PCOD9408033
Probable space group: P N N A
;
_chemical_formula_sum "Si O2"
_cell_formula_units_Z 56
_cell_length_a 23.993454
_cell_length_b 5.569857
_cell_length_c 17.446038
_cell_angle_alpha 90.000000
_cell_angle_beta 90.000000
_cell_angle_gamma 90.000000
_cell_volume 2331.490398
_symmetry_space_group_name_H-M "P N N A"
_symmetry_group_IT_number 52
_symmetry_cell_setting 'orthorhombic'
loop_
_space_group_symop_operation_xyz
x,y,z
1/2-x,-y,z
x,1/2-y,1/2-z
1/2-x,1/2+y,1/2-z
-x,-y,-z
1/2+x,y,-z
-x,1/2+y,1/2+z
1/2+x,1/2-y,1/2+z
loop_
_atom_site_type_symbol
_atom_site_label
_atom_site_fract_x
_atom_site_fract_y
_atom_site_fract_z
Si Si1 0.536692 0.500000 0.425039
Si Si2 0.496839 0.500000 0.844130
Si Si3 0.814030 1.000000 0.851502
Si Si4 0.342356 0.000000 0.551637
Si Si5 0.610447 0.500000 0.216515
Si Si6 0.627210 1.000000 0.632327
Si Si7 0.830551 0.500000 0.467214
O O1 0.500000 0.500000 0.500000
O O2 0.519124 0.748138 0.384769
O O3 0.602503 0.500000 0.447881
O O4 0.519124 0.251862 0.384769
O O5 0.456398 0.500000 0.770328
O O6 0.563467 0.500000 0.840568
O O7 0.843852 0.743579 0.836613
O O8 0.750000 0.000000 0.824488
O O9 0.843852 0.256420 0.836613
O O10 0.816217 1.000000 0.943890
O O11 0.367680 0.000000 0.463313
O O12 0.310189 0.246551 0.561684
O O13 0.382246 0.000000 0.625244
O O14 0.310189 0.753449 0.561684
O O15 0.632972 0.250000 0.250000
O O16 0.632972 0.750000 0.250000
#
# Coordination Sequence:
#
# PCOD9408033 Si02
#       7
#     8   8   8   8   8   8   8
#     4  12  19  29  50  78 105 137 170 215 252 302
#     4  12  23  35  52  78 111 143 183 218 251 315
#     4  10  20  34  50  76 114 138 162 214 275 334
#     4  10  18  34  49  71 102 134 179 217 243 311
#     4  12  24  36  49  71 110 155 185 213 260 303
#     4  10  21  35  55  81 102 140 181 213 265 319
#     4  10  17  30  47  72  97 135 173 206 242 311
#
# _framework density 24.018972000000002
#
# number of rings (size 3 to 8) (size 9 to 14) (size 15 to 20)
#    0.000    1.143    2.857    6.857    0.000    0.000 
#    0.000    0.000    0.000    0.000    0.000    0.000 
#    0.000  194.286    0.000    0.000    0.000    0.000 
#
# Total GULP energy -312287.020652 kJ/mol
# GULP energy per Si atom -5576.553940 kJ/mol
# Density = 2.396430 g / cm^3
# Si number density = 24.018972 Si / 1000 Ang^3
#
#
#
# Elastic Constant Matrix: (Units=GPa)
#
#
# Indices 1 2 3 4 5 6 
#
# 1 142.6895 45.6421 5.4025 0.0000 0.0000 0.0000
# 2 45.6421 282.0829 47.3852 0.0000 0.0000 0.0000
# 3 5.4025 47.3852 82.8130 0.0000 0.0000 0.0000
# 4 0.0000 0.0000 0.0000 -49.1824 0.0000 0.0000
# 5 0.0000 0.0000 0.0000 0.0000 197.8691 0.0000
# 6 0.0000 0.0000 0.0000 0.0000 0.0000 -118.6530
#
#
#
# Elastic Compliance Matrix: (Units=1/GPa)
#
#
# Indices 1 2 3 4 5 6 
#
# 1 0.007394 -0.001234 0.000224 0.000000 0.000000 0.000000
# 2 -0.001234 0.004128 -0.002282 0.000000 0.000000 0.000000
# 3 0.000224 -0.002282 0.013366 0.000000 0.000000 0.000000
# 4 0.000000 0.000000 0.000000 -0.020332 0.000000 0.000000
# 5 0.000000 0.000000 0.000000 0.000000 0.005054 0.000000
# 6 0.000000 0.000000 0.000000 0.000000 0.000000 -0.008428
#
#
# Mechanical properties :
#
#
# Convention : Reuss Voigt Hill
#
# Bulk Modulus (GPa) = 54.62964 78.27166 66.45065
# Shear Modulus (GPa) = 360.55533 33.28380 196.91956
#
# Velocity S-wave (km/s) = 12.26534 3.72658 9.06438
# Velocity P-wave (km/s) = 14.94585 7.15365 11.71651
#
# Compressibility (1/GPa) = 0.01830508
#
# Stress axis : x y z
#
# Youngs Moduli (GPa) = 135.23591 242.24909 74.81521
#
# Poissons Ratio (x) = 0.29894 -0.01674
# Poissons Ratio (y) = 0.16689 0.17069
# Poissons Ratio (z) = -0.03025 0.55269
#
# Static dielectric constant tensor:
#      x y z
#    x 1.968880 0.000000 0.000000 
#    y 0.000000 2.014390 0.000000 
#    z 0.000000 0.000000 1.947370 
# 
# From -- ./inp_files/35245.got.cif
#   From: 2010.05.17/outbox.cif.g08.bks.cpg/sg52_18_cif.got.tgz:35245.got - 2010.06.03 12:15:38.
