data_PCOD9408045
_publ_section_title
;
Structure prediction by ZEFSAII (Michael W. Deem and Ramdas Pophale) SiO2 
 PCOD9408045
Probable space group: P N N A
;
_chemical_formula_sum "Si O2"
_cell_formula_units_Z 64
_cell_length_a 16.647234
_cell_length_b 16.443994
_cell_length_c 12.446990
_cell_angle_alpha 90.000000
_cell_angle_beta 90.000000
_cell_angle_gamma 90.000000
_cell_volume 3407.326371
_symmetry_space_group_name_H-M "P N N A"
_symmetry_group_IT_number 52
_symmetry_cell_setting 'orthorhombic'
loop_
_space_group_symop_operation_xyz
x,y,z
1/2-x,-y,z
x,1/2-y,1/2-z
1/2-x,1/2+y,1/2-z
-x,-y,-z
1/2+x,y,-z
-x,1/2+y,1/2+z
1/2+x,1/2-y,1/2+z
loop_
_atom_site_type_symbol
_atom_site_label
_atom_site_fract_x
_atom_site_fract_y
_atom_site_fract_z
Si Si1 0.911922 0.346637 0.225834
Si Si2 0.811421 0.368951 0.433087
Si Si3 0.996977 0.772302 0.127395
Si Si4 0.367837 0.312653 0.005653
Si Si5 0.648128 0.189148 0.994445
Si Si6 0.436371 0.451073 0.425259
Si Si7 0.730858 0.316739 0.839243
Si Si8 0.588966 0.403890 0.712202
O O1 0.917159 0.250000 0.250000
O O2 0.849651 0.379604 0.315143
O O3 0.879333 0.359624 0.105748
O O4 0.002735 0.378953 0.239580
O O5 0.835849 0.277540 0.471895
O O6 0.716651 0.367479 0.453650
O O7 0.856011 0.433364 0.507975
O O8 0.005800 0.750000 0.250000
O O9 0.029761 0.862834 0.104663
O O10 0.046763 0.707607 0.057919
O O11 0.906360 0.775597 0.087651
O O12 0.307566 0.349173 0.094906
O O13 0.683507 0.264036 0.927219
O O14 0.598365 0.140880 0.903578
O O15 0.500000 0.500000 0.500000
O O16 0.415574 0.502199 0.319627
O O17 0.758797 0.250000 0.750000
O O18 0.666334 0.375857 0.781680
#
# Coordination Sequence:
#
# PCOD9408045 Si02
#       8
#     8   8   8   8   8   8   8   8
#     4  10  17  30  54  82 113 157 196 237 294 365
#     4   9  19  32  52  86 119 148 193 249 305 351
#     4  11  22  36  56  82 116 157 196 246 310 364
#     4   9  18  33  53  79 116 151 198 249 294 351
#     4  10  19  33  52  85 118 152 196 252 297 364
#     4  11  20  38  59  87 122 151 193 251 309 373
#     4   9  18  31  53  84 118 149 197 253 299 355
#     4  11  19  33  58  86 118 155 200 242 306 365
#
# _framework density 18.783055000000001
#
# number of rings (size 3 to 8) (size 9 to 14) (size 15 to 20)
#    0.000    2.000    2.500    3.750    0.000    4.000 
#    0.000    0.000    0.000    3.000    0.000    8.750 
#    0.000    0.000    0.000    0.000    0.000    0.000 
#
# Total GULP energy -356828.762947 kJ/mol
# GULP energy per Si atom -5575.449421 kJ/mol
# Density = 1.874030 g / cm^3
# Si number density = 18.783055 Si / 1000 Ang^3
#
#
#
# Elastic Constant Matrix: (Units=GPa)
#
#
# Indices 1 2 3 4 5 6 
#
# 1 91.7240 20.3234 59.9256 0.0000 0.0000 0.0000
# 2 20.3234 35.5604 24.8458 0.0000 0.0000 0.0000
# 3 59.9256 24.8458 115.4680 0.0000 0.0000 0.0000
# 4 0.0000 0.0000 0.0000 24.0782 0.0000 0.0000
# 5 0.0000 0.0000 0.0000 0.0000 36.1519 0.0000
# 6 0.0000 0.0000 0.0000 0.0000 0.0000 8.2218
#
#
#
# Elastic Compliance Matrix: (Units=1/GPa)
#
#
# Indices 1 2 3 4 5 6 
#
# 1 0.017008 -0.004182 -0.007927 0.000000 0.000000 0.000000
# 2 -0.004182 0.034125 -0.005173 0.000000 0.000000 0.000000
# 3 -0.007927 -0.005173 0.013887 0.000000 0.000000 0.000000
# 4 0.000000 0.000000 0.000000 0.041531 0.000000 0.000000
# 5 0.000000 0.000000 0.000000 0.000000 0.027661 0.000000
# 6 0.000000 0.000000 0.000000 0.000000 0.000000 0.121628
#
#
# Mechanical properties :
#
#
# Convention : Reuss Voigt Hill
#
# Bulk Modulus (GPa) = 32.83240 50.32691 41.57965
# Shear Modulus (GPa) = 16.63587 22.86755 19.75171
#
# Velocity S-wave (km/s) = 2.97927 3.49299 3.24631
# Velocity P-wave (km/s) = 5.41780 6.56658 6.01965
#
# Compressibility (1/GPa) = 0.03045772
#
# Stress axis : x y z
#
# Youngs Moduli (GPa) = 58.79719 29.30383 72.00833
#
# Poissons Ratio (x) = 0.12254 0.57080
# Poissons Ratio (y) = 0.24588 0.37247
# Poissons Ratio (z) = 0.46607 0.15158
#
# Static dielectric constant tensor:
#      x y z
#    x 1.697860 0.000000 0.000000 
#    y 0.000000 1.671990 0.000000 
#    z 0.000000 0.000000 1.599500 
# 
# From -- ./inp_files/19865.got.cif
#   From: 2010.05.17/outbox.cif.g08.bks.cpg/sg52_10_cif.got.tgz:19865.got - 2010.06.03 12:15:38.
