data_PCOD9408686
_publ_section_title
;
Structure prediction by ZEFSAII (Michael W. Deem and Ramdas Pophale) SiO2 
 PCOD9408686
Probable space group: P N N A
;
_chemical_formula_sum "Si O2"
_cell_formula_units_Z 48
_cell_length_a 16.096339
_cell_length_b 15.301003
_cell_length_c 8.242710
_cell_angle_alpha 90.000000
_cell_angle_beta 90.000000
_cell_angle_gamma 90.000000
_cell_volume 2030.098128
_symmetry_space_group_name_H-M "P N N A"
_symmetry_group_IT_number 52
_symmetry_cell_setting 'orthorhombic'
loop_
_space_group_symop_operation_xyz
x,y,z
1/2-x,-y,z
x,1/2-y,1/2-z
1/2-x,1/2+y,1/2-z
-x,-y,-z
1/2+x,y,-z
-x,1/2+y,1/2+z
1/2+x,1/2-y,1/2+z
loop_
_atom_site_type_symbol
_atom_site_label
_atom_site_fract_x
_atom_site_fract_y
_atom_site_fract_z
Si Si1 0.381662 0.838265 0.949732
Si Si2 0.299235 0.589927 0.233609
Si Si3 0.375520 0.151867 0.266173
Si Si4 0.175289 0.141866 0.604117
Si Si5 0.068635 0.660954 0.559767
Si Si6 0.370547 0.358163 0.893019
O O1 0.373948 0.879793 0.769730
O O2 0.336058 0.745271 0.928207
O O3 0.342162 0.892105 0.096513
O O4 0.474615 0.820446 0.010558
O O5 0.250000 0.500000 0.233855
O O6 0.223408 0.658333 0.216224
O O7 0.350397 0.598207 0.066598
O O8 0.411701 0.250000 0.250000
O O9 0.403128 0.107955 0.433347
O O10 0.394748 0.109097 0.093700
O O11 0.273200 0.121295 0.631881
O O12 0.079276 0.616061 0.733438
O O13 0.118268 0.752705 0.581805
#
# Coordination Sequence:
#
# PCOD9408686 Si02
#       6
#     8   8   8   8   8   8
#     4  11  22  34  61  93 118 141 193 265 298 338
#     4  11  23  39  59  83 118 166 204 237 288 354
#     4   9  18  35  58  80 110 151 197 236 286 354
#     4  10  22  39  61  88 120 152 202 252 294 346
#     4  10  19  29  55  90 114 142 179 244 307 346
#     4   9  18  32  52  80 115 151 178 224 299 358
#
# _framework density 23.644176999999999
#
# number of rings (size 3 to 8) (size 9 to 14) (size 15 to 20)
#    0.000    2.000    0.000    6.500   11.667    0.667 
#    0.000    0.833    0.000    5.000    0.000    0.000 
#    0.000    0.000    0.000    0.000    0.000    0.000 
#
# Total GULP energy -267793.842536 kJ/mol
# GULP energy per Si atom -5579.038386 kJ/mol
# Density = 2.359036 g / cm^3
# Si number density = 23.644177 Si / 1000 Ang^3
#
#
#
# Elastic Constant Matrix: (Units=GPa)
#
#
# Indices 1 2 3 4 5 6 
#
# 1 50.0594 -0.5245 38.5103 0.0000 0.0000 0.0000
# 2 -0.5245 59.7036 29.4470 0.0000 0.0000 0.0000
# 3 38.5103 29.4470 274.0855 0.0000 0.0000 0.0000
# 4 0.0000 0.0000 0.0000 -6.7899 0.0000 0.0000
# 5 0.0000 0.0000 0.0000 0.0000 45.2058 0.0000
# 6 0.0000 0.0000 0.0000 0.0000 0.0000 -13.9673
#
#
#
# Elastic Compliance Matrix: (Units=1/GPa)
#
#
# Indices 1 2 3 4 5 6 
#
# 1 0.022592 0.001863 -0.003374 0.000000 0.000000 0.000000
# 2 0.001863 0.017840 -0.002178 0.000000 0.000000 0.000000
# 3 -0.003374 -0.002178 0.004357 0.000000 0.000000 0.000000
# 4 0.000000 0.000000 0.000000 -0.147277 0.000000 0.000000
# 5 0.000000 0.000000 0.000000 0.000000 0.022121 0.000000
# 6 0.000000 0.000000 0.000000 0.000000 0.000000 -0.071596
#
#
# Mechanical properties :
#
#
# Convention : Reuss Voigt Hill
#
# Bulk Modulus (GPa) = 26.73193 57.63491 42.18342
# Shear Modulus (GPa) = -37.84613 25.98410 -5.93102
#
# Velocity S-wave (km/s) = -4.00516 3.31866 -1.58553
# Velocity P-wave (km/s) = 3.17142 6.25408 3.81154
#
# Compressibility (1/GPa) = 0.03740845
#
# Stress axis : x y z
#
# Youngs Moduli (GPa) = 44.26417 56.05312 229.53386
#
# Poissons Ratio (x) = -0.10441 0.77453
# Poissons Ratio (y) = -0.08245 0.50002
# Poissons Ratio (z) = 0.14936 0.12211
#
# Static dielectric constant tensor:
#      x y z
#    x 1.894420 0.000000 0.000000 
#    y 0.000000 1.960580 0.000000 
#    z 0.000000 0.000000 2.037830 
# 
# From -- ./inp_files/10445.got.cif
#   From: 2010.05.17/outbox.cif.g08.bks.cpg/sg52_6_cif.got.tgz:10445.got - 2010.06.03 12:15:38.
