data_PCOD9408088
_publ_section_title
;
Structure prediction by ZEFSAII (Michael W. Deem and Ramdas Pophale) SiO2 
 PCOD9408088
Probable space group: P N N A
;
_chemical_formula_sum "Si O2"
_cell_formula_units_Z 48
_cell_length_a 11.338579
_cell_length_b 7.322446
_cell_length_c 23.217917
_cell_angle_alpha 90.000000
_cell_angle_beta 90.000000
_cell_angle_gamma 90.000000
_cell_volume 1927.693852
_symmetry_space_group_name_H-M "P N N A"
_symmetry_group_IT_number 52
_symmetry_cell_setting 'orthorhombic'
loop_
_space_group_symop_operation_xyz
x,y,z
1/2-x,-y,z
x,1/2-y,1/2-z
1/2-x,1/2+y,1/2-z
-x,-y,-z
1/2+x,y,-z
-x,1/2+y,1/2+z
1/2+x,1/2-y,1/2+z
loop_
_atom_site_type_symbol
_atom_site_label
_atom_site_fract_x
_atom_site_fract_y
_atom_site_fract_z
Si Si1 0.750000 0.500000 0.724585
Si Si2 0.009115 0.784106 0.120888
Si Si3 0.247603 0.726427 0.436729
Si Si4 0.227235 0.280253 0.564866
Si Si5 0.816032 0.198237 0.185825
Si Si6 0.454979 0.250000 0.250000
Si Si7 0.430087 0.693610 0.353828
O O1 0.636984 0.582913 0.755023
O O2 0.685140 0.349745 0.684897
O O3 0.136131 0.715582 0.101404
O O4 0.980281 0.749017 0.188620
O O5 0.909443 0.736447 0.075797
O O6 0.020811 0.003227 0.120570
O O7 0.250000 0.500000 0.435784
O O8 0.232568 0.785023 0.502579
O O9 0.370298 0.792197 0.408016
O O10 0.250000 0.500000 0.562735
O O11 0.283820 0.211631 0.624377
O O12 0.777568 0.250000 0.250000
O O13 0.957279 0.243123 0.184125
O O14 0.750000 0.000000 0.180060
#
# Coordination Sequence:
#
# PCOD9408088 Si02
#       7
#     4   8   8   8   8   4   8
#     4  10  20  34  56  84 112 138 182 226 278 324
#     4  10  18  32  50  76 109 140 176 223 272 322
#     4   9  18  29  52  79 109 140 173 230 283 326
#     4  10  20  31  50  78 112 145 177 221 278 333
#     4  11  24  37  54  80 114 151 187 224 270 331
#     4  10  20  34  56  82 112 142 180 230 270 324
#     4  10  17  33  50  80 109 138 174 228 273 320
#
# _framework density 24.900219
#
# number of rings (size 3 to 8) (size 9 to 14) (size 15 to 20)
#    0.000    2.000    7.500    0.000    4.667    2.000 
#    0.000    0.000    0.000    0.000    2.167    2.333 
#    0.000    0.000    0.000    0.000    0.000    0.000 
#
# Total GULP energy -267324.162957 kJ/mol
# GULP energy per Si atom -5569.253395 kJ/mol
# Density = 2.484355 g / cm^3
# Si number density = 24.900219 Si / 1000 Ang^3
#
#
#
# Elastic Constant Matrix: (Units=GPa)
#
#
# Indices 1 2 3 4 5 6 
#
# 1 115.0420 -3.6174 57.6561 0.0000 0.0000 0.0000
# 2 -3.6174 52.3203 5.3823 0.0000 0.0000 0.0000
# 3 57.6561 5.3823 189.4956 0.0000 0.0000 0.0000
# 4 0.0000 0.0000 0.0000 7.1725 0.0000 0.0000
# 5 0.0000 0.0000 0.0000 0.0000 50.8869 0.0000
# 6 0.0000 0.0000 0.0000 0.0000 0.0000 4.0324
#
#
#
# Elastic Compliance Matrix: (Units=1/GPa)
#
#
# Indices 1 2 3 4 5 6 
#
# 1 0.010312 0.001039 -0.003167 0.000000 0.000000 0.000000
# 2 0.001039 0.019274 -0.000864 0.000000 0.000000 0.000000
# 3 -0.003167 -0.000864 0.006265 0.000000 0.000000 0.000000
# 4 0.000000 0.000000 0.000000 0.139422 0.000000 0.000000
# 5 0.000000 0.000000 0.000000 0.000000 0.019651 0.000000
# 6 0.000000 0.000000 0.000000 0.000000 0.000000 0.247990
#
#
# Mechanical properties :
#
#
# Convention : Reuss Voigt Hill
#
# Bulk Modulus (GPa) = 33.48090 52.85551 43.16821
# Shear Modulus (GPa) = 10.89671 32.24748 21.57210
#
# Velocity S-wave (km/s) = 2.09419 3.60261 2.94656
# Velocity P-wave (km/s) = 4.39577 6.21112 5.38056
#
# Compressibility (1/GPa) = 0.02986778
#
# Stress axis : x y z
#
# Youngs Moduli (GPa) = 96.97010 51.88414 159.60813
#
# Poissons Ratio (x) = -0.05390 0.50551
# Poissons Ratio (y) = -0.10073 0.13782
# Poissons Ratio (z) = 0.30712 0.04480
#
# Static dielectric constant tensor:
#      x y z
#    x 2.036540 0.000000 0.000000 
#    y 0.000000 2.027590 0.000000 
#    z 0.000000 0.000000 1.971070 
# 
# From -- ./inp_files/40275.got.cif
#   From: 2010.05.17/outbox.cif.g08.bks.cpg/sg52_21_cif.got.tgz:40275.got - 2010.06.03 12:15:38.
