data_PCOD9408334
_publ_section_title
;
Structure prediction by ZEFSAII (Michael W. Deem and Ramdas Pophale) SiO2 
 PCOD9408334
Probable space group: P N N A
;
_chemical_formula_sum "Si O2"
_cell_formula_units_Z 36
_cell_length_a 17.332365
_cell_length_b 18.181176
_cell_length_c 6.768202
_cell_angle_alpha 90.000000
_cell_angle_beta 90.000000
_cell_angle_gamma 90.000000
_cell_volume 2132.814620
_symmetry_space_group_name_H-M "P N N A"
_symmetry_group_IT_number 52
_symmetry_cell_setting 'orthorhombic'
loop_
_space_group_symop_operation_xyz
x,y,z
1/2-x,-y,z
x,1/2-y,1/2-z
1/2-x,1/2+y,1/2-z
-x,-y,-z
1/2+x,y,-z
-x,1/2+y,1/2+z
1/2+x,1/2-y,1/2+z
loop_
_atom_site_type_symbol
_atom_site_label
_atom_site_fract_x
_atom_site_fract_y
_atom_site_fract_z
Si Si1 0.228428 0.120143 0.033802
Si Si2 0.007789 0.456340 0.199389
Si Si3 0.873727 0.020342 0.012487
Si Si4 0.618492 0.322897 0.868917
Si Si5 0.813496 0.750000 0.250000
O O1 0.310515 0.080301 0.050186
O O2 0.230180 0.190719 0.889127
O O3 0.171289 0.056600 0.947788
O O4 0.191527 0.144049 0.244742
O O5 0.065679 0.501217 0.341419
O O6 0.049421 0.380007 0.151588
O O7 0.925221 0.451878 0.305922
O O8 0.000000 0.500000 0.000000
O O9 0.596851 0.250000 0.750000
O O10 0.638796 0.298767 0.091307
#
# Coordination Sequence:
#
# PCOD9408334 Si02
#       5
#     8   8   8   8   4
#     4   9  18  34  54  77 103 138 177 220 260 307
#     4  10  19  33  54  78 104 138 177 214 266 317
#     4   9  19  34  53  77 107 133 176 226 258 303
#     4   9  19  34  53  75 104 140 176 214 261 320
#     4  10  18  32  56  76 104 140 176 208 266 318
#
# _framework density 16.879103000000001
#
# number of rings (size 3 to 8) (size 9 to 14) (size 15 to 20)
#    0.000    2.667    0.000    1.333    0.000    3.556 
#    2.000    4.444    0.000    0.000    0.000    0.000 
#    0.000    0.000    0.000    0.000    0.000    0.000 
#
# Total GULP energy -200496.548026 kJ/mol
# GULP energy per Si atom -5569.348556 kJ/mol
# Density = 1.684069 g / cm^3
# Si number density = 16.879103 Si / 1000 Ang^3
#
#
#
# Elastic Constant Matrix: (Units=GPa)
#
#
# Indices 1 2 3 4 5 6 
#
# 1 95.8585 51.4062 35.6113 0.0000 0.0000 0.0000
# 2 51.4062 104.0255 42.2169 0.0000 0.0000 0.0000
# 3 35.6113 42.2169 77.6608 0.0000 0.0000 0.0000
# 4 0.0000 0.0000 0.0000 28.2395 0.0000 0.0000
# 5 0.0000 0.0000 0.0000 0.0000 11.2342 0.0000
# 6 0.0000 0.0000 0.0000 0.0000 0.0000 24.1252
#
#
#
# Elastic Compliance Matrix: (Units=1/GPa)
#
#
# Indices 1 2 3 4 5 6 
#
# 1 0.014956 -0.005912 -0.003644 0.000000 0.000000 0.000000
# 2 -0.005912 0.014671 -0.005264 0.000000 0.000000 0.000000
# 3 -0.003644 -0.005264 0.017409 0.000000 0.000000 0.000000
# 4 0.000000 0.000000 0.000000 0.035411 0.000000 0.000000
# 5 0.000000 0.000000 0.000000 0.000000 0.089014 0.000000
# 6 0.000000 0.000000 0.000000 0.000000 0.000000 0.041450
#
#
# Mechanical properties :
#
#
# Convention : Reuss Voigt Hill
#
# Bulk Modulus (GPa) = 57.48684 59.55707 58.52195
# Shear Modulus (GPa) = 20.13270 22.60715 21.36992
#
# Velocity S-wave (km/s) = 3.45738 3.66369 3.56203
# Velocity P-wave (km/s) = 7.07601 7.29781 7.18776
#
# Compressibility (1/GPa) = 0.01739529
#
# Stress axis : x y z
#
# Youngs Moduli (GPa) = 66.86123 68.16193 57.44028
#
# Poissons Ratio (x) = 0.40297 0.20934
# Poissons Ratio (y) = 0.39528 0.30238
# Poissons Ratio (z) = 0.24367 0.35883
#
# Static dielectric constant tensor:
#      x y z
#    x 1.562960 0.000000 0.000000 
#    y 0.000000 1.563790 0.000000 
#    z 0.000000 0.000000 1.556520 
# 
# From -- ./inp_files/2143.got.cif
#   From: 2010.05.17/outbox.cif.g08.bks.cpg/sg52_2_cif.got.tgz:2143.got - 2010.06.03 12:15:38.
