data_PCOD9408963
_publ_section_title
;
Structure prediction by ZEFSAII (Michael W. Deem and Ramdas Pophale) SiO2 
 PCOD9408963
Probable space group: P N N A
;
_chemical_formula_sum "Si O2"
_cell_formula_units_Z 48
_cell_length_a 16.889622
_cell_length_b 17.520732
_cell_length_c 9.030603
_cell_angle_alpha 90.000000
_cell_angle_beta 90.000000
_cell_angle_gamma 90.000000
_cell_volume 2672.322861
_symmetry_space_group_name_H-M "P N N A"
_symmetry_group_IT_number 52
_symmetry_cell_setting 'orthorhombic'
loop_
_space_group_symop_operation_xyz
x,y,z
1/2-x,-y,z
x,1/2-y,1/2-z
1/2-x,1/2+y,1/2-z
-x,-y,-z
1/2+x,y,-z
-x,1/2+y,1/2+z
1/2+x,1/2-y,1/2+z
loop_
_atom_site_type_symbol
_atom_site_label
_atom_site_fract_x
_atom_site_fract_y
_atom_site_fract_z
Si Si1 0.712114 0.915961 0.438095
Si Si2 0.200506 0.161920 0.301481
Si Si3 0.453276 0.080143 0.380383
Si Si4 0.029910 0.095827 0.331613
Si Si5 0.141903 0.830617 0.161912
Si Si6 0.376212 0.334665 0.687138
O O1 0.766687 0.856934 0.532517
O O2 0.629019 0.922823 0.526932
O O3 0.688378 0.884632 0.276780
O O4 0.750000 0.000000 0.434154
O O5 0.188980 0.250000 0.250000
O O6 0.117407 0.119637 0.284895
O O7 0.273373 0.131706 0.201842
O O8 0.513632 0.118548 0.496110
O O9 0.431426 0.125594 0.234056
O O10 0.479077 0.995455 0.336986
O O11 0.962253 0.132075 0.230360
O O12 0.143889 0.750000 0.250000
O O13 0.134713 0.827761 0.987439
O O14 0.371111 0.250000 0.750000
#
# Coordination Sequence:
#
# PCOD9408963 Si02
#       6
#     8   8   8   8   8   8
#     4  10  19  37  59  83 113 156 192 235 287 342
#     4  10  19  34  59  86 113 147 195 238 280 336
#     4   9  19  35  58  83 114 152 187 230 285 350
#     4  10  19  34  59  86 113 150 188 232 289 336
#     4  10  21  38  57  81 114 153 193 233 284 344
#     4  11  22  38  59  83 115 152 191 232 288 347
#
# _framework density 17.961901999999998
#
# number of rings (size 3 to 8) (size 9 to 14) (size 15 to 20)
#    0.000    2.000    1.667    4.500    0.000    0.667 
#    3.000    1.667    0.000    6.000    0.000    0.000 
#    0.000    0.000    0.000    0.000    0.000    0.000 
#
# Total GULP energy -267474.826986 kJ/mol
# GULP energy per Si atom -5572.392229 kJ/mol
# Density = 1.792102 g / cm^3
# Si number density = 17.961902 Si / 1000 Ang^3
#
#
#
# Elastic Constant Matrix: (Units=GPa)
#
#
# Indices 1 2 3 4 5 6 
#
# 1 64.8619 20.3817 40.2554 0.0000 0.0000 0.0000
# 2 20.3817 63.7964 46.1204 0.0000 0.0000 0.0000
# 3 40.2554 46.1204 168.6157 0.0000 0.0000 0.0000
# 4 0.0000 0.0000 0.0000 27.7379 0.0000 0.0000
# 5 0.0000 0.0000 0.0000 0.0000 14.3050 0.0000
# 6 0.0000 0.0000 0.0000 0.0000 0.0000 29.1358
#
#
#
# Elastic Compliance Matrix: (Units=1/GPa)
#
#
# Indices 1 2 3 4 5 6 
#
# 1 0.018679 -0.003420 -0.003524 0.000000 0.000000 0.000000
# 2 -0.003420 0.020165 -0.004699 0.000000 0.000000 0.000000
# 3 -0.003524 -0.004699 0.008057 0.000000 0.000000 0.000000
# 4 0.000000 0.000000 0.000000 0.036052 0.000000 0.000000
# 5 0.000000 0.000000 0.000000 0.000000 0.069906 0.000000
# 6 0.000000 0.000000 0.000000 0.000000 0.000000 0.034322
#
#
# Mechanical properties :
#
#
# Convention : Reuss Voigt Hill
#
# Bulk Modulus (GPa) = 42.34606 56.75433 49.55020
# Shear Modulus (GPa) = 22.90027 26.93684 24.91855
#
# Velocity S-wave (km/s) = 3.57450 3.87675 3.72869
# Velocity P-wave (km/s) = 6.37673 7.19059 6.79586
#
# Compressibility (1/GPa) = 0.02361495
#
# Stress axis : x y z
#
# Youngs Moduli (GPa) = 53.53554 49.59209 124.11173
#
# Poissons Ratio (x) = 0.16960 0.43737
# Poissons Ratio (y) = 0.18309 0.58320
# Poissons Ratio (z) = 0.18866 0.23303
#
# Static dielectric constant tensor:
#      x y z
#    x 1.631710 0.000000 0.000000 
#    y 0.000000 1.639580 0.000000 
#    z 0.000000 0.000000 1.627070 
# 
# From -- ./inp_files/12059.got.cif
#   From: 2010.05.17/outbox.cif.g08.bks.cpg/sg52_7_cif.got.tgz:12059.got - 2010.06.03 12:15:38.
