data_PCOD9408316
_publ_section_title
;
Structure prediction by ZEFSAII (Michael W. Deem and Ramdas Pophale) SiO2 
 PCOD9408316
Probable space group: P N N A
;
_chemical_formula_sum "Si O2"
_cell_formula_units_Z 32
_cell_length_a 15.317215
_cell_length_b 11.599312
_cell_length_c 7.095448
_cell_angle_alpha 90.000000
_cell_angle_beta 90.000000
_cell_angle_gamma 90.000000
_cell_volume 1260.642256
_symmetry_space_group_name_H-M "P N N A"
_symmetry_group_IT_number 52
_symmetry_cell_setting 'orthorhombic'
loop_
_space_group_symop_operation_xyz
x,y,z
1/2-x,-y,z
x,1/2-y,1/2-z
1/2-x,1/2+y,1/2-z
-x,-y,-z
1/2+x,y,-z
-x,1/2+y,1/2+z
1/2+x,1/2-y,1/2+z
loop_
_atom_site_type_symbol
_atom_site_label
_atom_site_fract_x
_atom_site_fract_y
_atom_site_fract_z
Si Si1 0.099030 0.271019 0.475912
Si Si2 0.652599 0.527510 0.555267
Si Si3 0.710677 0.766072 0.518686
Si Si4 0.049769 0.605585 0.088032
O O1 0.090584 0.250000 0.250000
O O2 0.115947 0.406124 0.519764
O O3 0.190055 0.210430 0.534865
O O4 0.015451 0.212479 0.565979
O O5 0.750000 0.500000 0.638896
O O6 0.675755 0.643355 0.439960
O O7 0.582099 0.567867 0.707089
O O8 0.711186 0.750000 0.750000
O O9 0.639364 0.862099 0.483326
O O10 0.000000 0.500000 0.000000
#
# Coordination Sequence:
#
# PCOD9408316 Si02
#       4
#     8   8   8   8
#     4  10  18  32  52  78 108 138 179 226 265 313
#     4   9  18  36  56  78 107 139 182 230 264 311
#     4   8  18  33  51  76 105 136 180 225 264 313
#     4  11  20  28  52  84 103 137 176 222 268 319
#
# _framework density 25.383887999999999
#
# number of rings (size 3 to 8) (size 9 to 14) (size 15 to 20)
#    0.000    2.500    2.500    1.500    0.000    1.000 
#    0.000    0.000    0.000    4.500    0.000    0.000 
#    0.000    0.000    0.000    0.000    0.000    0.000 
#
# Total GULP energy -178869.787119 kJ/mol
# GULP energy per Si atom -5589.680847 kJ/mol
# Density = 2.532611 g / cm^3
# Si number density = 25.383888 Si / 1000 Ang^3
#
#
#
# Elastic Constant Matrix: (Units=GPa)
#
#
# Indices 1 2 3 4 5 6 
#
# 1 173.9589 41.1767 36.2372 0.0000 0.0000 0.0000
# 2 41.1767 99.8149 -4.7497 0.0000 0.0000 0.0000
# 3 36.2372 -4.7497 76.4017 0.0000 0.0000 0.0000
# 4 0.0000 0.0000 0.0000 17.8778 0.0000 0.0000
# 5 0.0000 0.0000 0.0000 0.0000 18.8545 0.0000
# 6 0.0000 0.0000 0.0000 0.0000 0.0000 54.3857
#
#
#
# Elastic Compliance Matrix: (Units=1/GPa)
#
#
# Indices 1 2 3 4 5 6 
#
# 1 0.007256 -0.003166 -0.003638 0.000000 0.000000 0.000000
# 2 -0.003166 0.011430 0.002212 0.000000 0.000000 0.000000
# 3 -0.003638 0.002212 0.014952 0.000000 0.000000 0.000000
# 4 0.000000 0.000000 0.000000 0.055935 0.000000 0.000000
# 5 0.000000 0.000000 0.000000 0.000000 0.053038 0.000000
# 6 0.000000 0.000000 0.000000 0.000000 0.000000 0.018387
#
#
# Mechanical properties :
#
#
# Convention : Reuss Voigt Hill
#
# Bulk Modulus (GPa) = 40.89440 55.05599 47.97519
# Shear Modulus (GPa) = 28.03731 36.72434 32.38082
#
# Velocity S-wave (km/s) = 3.32705 3.80775 3.57549
# Velocity P-wave (km/s) = 5.55917 6.40846 5.99887
#
# Compressibility (1/GPa) = 0.02445323
#
# Stress axis : x y z
#
# Youngs Moduli (GPa) = 137.81947 87.48860 66.88120
#
# Poissons Ratio (x) = 0.27702 0.24333
# Poissons Ratio (y) = 0.43639 -0.14797
# Poissons Ratio (z) = 0.50143 -0.19356
#
# Static dielectric constant tensor:
#      x y z
#    x 1.966490 0.000000 0.000000 
#    y 0.000000 2.057480 0.000000 
#    z 0.000000 0.000000 2.114530 
# 
# From -- ./inp_files/19101.got.cif
#   From: 2010.05.17/outbox.cif.g08.bks.cpg/sg52_10_cif.got.tgz:19101.got - 2010.06.03 12:15:38.
