data_PCOD9408460
_publ_section_title
;
Structure prediction by ZEFSAII (Michael W. Deem and Ramdas Pophale) SiO2 
 PCOD9408460
Probable space group: P N N A
;
_chemical_formula_sum "Si O2"
_cell_formula_units_Z 56
_cell_length_a 22.813045
_cell_length_b 7.912633
_cell_length_c 14.040512
_cell_angle_alpha 90.000000
_cell_angle_beta 90.000000
_cell_angle_gamma 90.000000
_cell_volume 2534.470410
_symmetry_space_group_name_H-M "P N N A"
_symmetry_group_IT_number 52
_symmetry_cell_setting 'orthorhombic'
loop_
_space_group_symop_operation_xyz
x,y,z
1/2-x,-y,z
x,1/2-y,1/2-z
1/2-x,1/2+y,1/2-z
-x,-y,-z
1/2+x,y,-z
-x,1/2+y,1/2+z
1/2+x,1/2-y,1/2+z
loop_
_atom_site_type_symbol
_atom_site_label
_atom_site_fract_x
_atom_site_fract_y
_atom_site_fract_z
Si Si1 0.610415 0.509448 0.675343
Si Si2 0.279967 0.184507 0.143174
Si Si3 0.111699 0.209139 0.645555
Si Si4 0.980174 0.501589 0.391060
Si Si5 0.581010 0.532177 0.893924
Si Si6 0.045325 0.862655 0.593951
Si Si7 0.328868 0.778660 0.452881
O O1 0.651473 0.651516 0.626035
O O2 0.542258 0.508605 0.658526
O O3 0.608374 0.547378 0.787950
O O4 0.638683 0.340195 0.627782
O O5 0.272015 0.250000 0.250000
O O6 0.239328 0.286935 0.071635
O O7 0.250000 0.000000 0.140181
O O8 0.136076 0.250000 0.750000
O O9 0.056610 0.334235 0.633347
O O10 0.155438 0.267993 0.561032
O O11 0.085286 0.017947 0.633343
O O12 0.946642 0.326981 0.367415
O O13 0.000000 0.500000 0.500000
O O14 0.523052 0.410717 0.885900
O O15 0.637416 0.452203 0.943618
O O16 0.555675 0.650359 0.979010
#
# Coordination Sequence:
#
# PCOD9408460 Si02
#       7
#     8   8   8   8   8   8   8
#     4  11  21  34  60  91 127 171 209 263 324 399
#     4  10  22  38  59  91 122 164 215 259 334 399
#     4  11  24  40  62  94 128 169 226 272 325 407
#     4  12  22  38  60  92 140 169 209 262 330 399
#     4  10  18  34  59  87 126 172 215 253 321 403
#     4  10  22  38  57  92 133 180 210 262 326 394
#     4  10  19  38  58  84 128 164 211 272 332 382
#
# _framework density 22.095345999999999
#
# number of rings (size 3 to 8) (size 9 to 14) (size 15 to 20)
#    0.000    1.429    2.857    4.714    0.000    4.571 
#    0.000    0.000    0.000    0.000    0.000   21.000 
#    0.000    0.000    0.000    0.000    0.000    0.000 
#
# Total GULP energy -312046.091561 kJ/mol
# GULP energy per Si atom -5572.251635 kJ/mol
# Density = 2.204506 g / cm^3
# Si number density = 22.095346 Si / 1000 Ang^3
#
#
#
# Elastic Constant Matrix: (Units=GPa)
#
#
# Indices 1 2 3 4 5 6 
#
# 1 85.1013 26.6353 38.4081 0.0000 0.0000 0.0000
# 2 26.6353 95.6679 23.8265 0.0000 0.0000 0.0000
# 3 38.4081 23.8265 111.5912 0.0000 0.0000 0.0000
# 4 0.0000 0.0000 0.0000 16.9849 0.0000 0.0000
# 5 0.0000 0.0000 0.0000 0.0000 29.2132 0.0000
# 6 0.0000 0.0000 0.0000 0.0000 0.0000 27.3926
#
#
#
# Elastic Compliance Matrix: (Units=1/GPa)
#
#
# Indices 1 2 3 4 5 6 
#
# 1 0.014678 -0.002987 -0.004414 0.000000 0.000000 0.000000
# 2 -0.002987 0.011648 -0.001459 0.000000 0.000000 0.000000
# 3 -0.004414 -0.001459 0.010792 0.000000 0.000000 0.000000
# 4 0.000000 0.000000 0.000000 0.058876 0.000000 0.000000
# 5 0.000000 0.000000 0.000000 0.000000 0.034231 0.000000
# 6 0.000000 0.000000 0.000000 0.000000 0.000000 0.036506
#
#
# Mechanical properties :
#
#
# Convention : Reuss Voigt Hill
#
# Bulk Modulus (GPa) = 51.55314 52.23335 51.89325
# Shear Modulus (GPa) = 26.18942 28.28417 27.23680
#
# Velocity S-wave (km/s) = 3.44654 3.58173 3.51478
# Velocity P-wave (km/s) = 6.26266 6.38720 6.32524
#
# Compressibility (1/GPa) = 0.01939746
#
# Stress axis : x y z
#
# Youngs Moduli (GPa) = 68.13005 85.85286 92.66094
#
# Poissons Ratio (x) = 0.25646 0.40901
# Poissons Ratio (y) = 0.20352 0.13518
# Poissons Ratio (z) = 0.30073 0.12525
#
# Static dielectric constant tensor:
#      x y z
#    x 1.792230 0.000000 0.000000 
#    y 0.000000 1.760480 0.000000 
#    z 0.000000 0.000000 1.771240 
# 
# From -- ./inp_files/28764.got.cif
#   From: 2010.05.17/outbox.cif.g08.bks.cpg/sg52_15_cif.got.tgz:28764.got - 2010.06.03 12:15:38.
