data_PCOD9408679
_publ_section_title
;
Structure prediction by ZEFSAII (Michael W. Deem and Ramdas Pophale) SiO2 
 PCOD9408679
Probable space group: P N N A
;
_chemical_formula_sum "Si O2"
_cell_formula_units_Z 64
_cell_length_a 21.362505
_cell_length_b 4.972914
_cell_length_c 24.966683
_cell_angle_alpha 90.000000
_cell_angle_beta 90.000000
_cell_angle_gamma 90.000000
_cell_volume 2652.308110
_symmetry_space_group_name_H-M "P N N A"
_symmetry_group_IT_number 52
_symmetry_cell_setting 'orthorhombic'
loop_
_space_group_symop_operation_xyz
x,y,z
1/2-x,-y,z
x,1/2-y,1/2-z
1/2-x,1/2+y,1/2-z
-x,-y,-z
1/2+x,y,-z
-x,1/2+y,1/2+z
1/2+x,1/2-y,1/2+z
loop_
_atom_site_type_symbol
_atom_site_label
_atom_site_fract_x
_atom_site_fract_y
_atom_site_fract_z
Si Si1 0.602251 0.894457 0.325119
Si Si2 0.679251 0.921330 0.910929
Si Si3 0.538550 0.064453 0.668522
Si Si4 0.401263 0.917151 0.442849
Si Si5 0.114741 0.864159 0.550010
Si Si6 0.308975 0.655635 0.561087
Si Si7 0.383184 0.071736 0.198948
Si Si8 0.314243 0.621940 0.686346
O O1 0.530506 0.900281 0.308391
O O2 0.597233 0.946316 0.389471
O O3 0.634113 0.609226 0.316531
O O4 0.649670 0.105828 0.297747
O O5 0.652915 0.628456 0.925457
O O6 0.668728 0.940805 0.847046
O O7 0.750000 0.000000 0.922608
O O8 0.632654 0.129112 0.940731
O O9 0.547297 0.100812 0.604433
O O10 0.586634 0.273543 0.696109
O O11 0.560051 0.761256 0.678982
O O12 0.425318 0.035382 0.499490
O O13 0.133151 0.551941 0.553418
O O14 0.176011 0.050845 0.539879
O O15 0.250000 0.500000 0.538119
O O16 0.296364 0.689629 0.624460
O O17 0.360949 0.250000 0.250000
O O18 0.250000 0.500000 0.710529
#
# Coordination Sequence:
#
# PCOD9408679 Si02
#       8
#     8   8   8   8   8   8   8   8
#     4  10  19  32  51  75 107 145 184 226 268 315
#     4  10  21  37  55  79 109 142 182 230 285 337
#     4  10  21  37  56  79 108 139 175 223 277 331
#     4  10  21  34  49  72 106 145 184 225 267 318
#     4  10  19  29  44  68  97 141 188 220 262 310
#     4   9  17  27  40  61  91 128 177 227 260 295
#     4  10  21  40  62  83 108 138 175 229 291 347
#     4   9  17  30  47  71 104 138 174 218 262 303
#
# _framework density 24.129929000000001
#
# number of rings (size 3 to 8) (size 9 to 14) (size 15 to 20)
#    0.000    2.250    0.000    3.000    0.000    6.500 
#    0.000    3.750    0.000    9.000    0.000    0.000 
#    0.000   28.000    0.000    0.000    0.000    0.000 
#
# Total GULP energy -357217.915151 kJ/mol
# GULP energy per Si atom -5581.529924 kJ/mol
# Density = 2.407501 g / cm^3
# Si number density = 24.129929 Si / 1000 Ang^3
#
#
#
# Elastic Constant Matrix: (Units=GPa)
#
#
# Indices 1 2 3 4 5 6 
#
# 1 87.6227 1.5253 0.3324 0.0000 0.0000 0.0000
# 2 1.5253 85.4156 -5.7263 0.0000 0.0000 0.0000
# 3 0.3324 -5.7263 126.0838 0.0000 0.0000 0.0000
# 4 0.0000 0.0000 0.0000 35.2569 0.0000 0.0000
# 5 0.0000 0.0000 0.0000 0.0000 3.8416 0.0000
# 6 0.0000 0.0000 0.0000 0.0000 0.0000 11.7152
#
#
#
# Elastic Compliance Matrix: (Units=1/GPa)
#
#
# Indices 1 2 3 4 5 6 
#
# 1 0.011416 -0.000207 -0.000039 0.000000 0.000000 0.000000
# 2 -0.000207 0.011747 0.000534 0.000000 0.000000 0.000000
# 3 -0.000039 0.000534 0.007956 0.000000 0.000000 0.000000
# 4 0.000000 0.000000 0.000000 0.028363 0.000000 0.000000
# 5 0.000000 0.000000 0.000000 0.000000 0.260309 0.000000
# 6 0.000000 0.000000 0.000000 0.000000 0.000000 0.085359
#
#
# Mechanical properties :
#
#
# Convention : Reuss Voigt Hill
#
# Bulk Modulus (GPa) = 31.55073 32.37609 31.96341
# Shear Modulus (GPa) = 12.04415 30.36212 21.20313
#
# Velocity S-wave (km/s) = 2.23656 3.55107 2.96751
# Velocity P-wave (km/s) = 4.44672 5.50091 5.00167
#
# Compressibility (1/GPa) = 0.03169499
#
# Stress axis : x y z
#
# Youngs Moduli (GPa) = 87.59395 85.12846 125.69772
#
# Poissons Ratio (x) = 0.01758 0.00496
# Poissons Ratio (y) = 0.01809 -0.06713
# Poissons Ratio (z) = 0.00346 -0.04546
#
# Static dielectric constant tensor:
#      x y z
#    x 1.915760 0.000000 0.000000 
#    y 0.000000 1.860370 0.000000 
#    z 0.000000 0.000000 2.074560 
# 
# From -- ./inp_files/43301.got.cif
#   From: 2010.05.17/outbox.cif.g08.bks.cpg/sg52_22_cif.got.tgz:43301.got - 2010.06.03 12:15:38.
