data_PCOD9408928
_publ_section_title
;
Structure prediction by ZEFSAII (Michael W. Deem and Ramdas Pophale) SiO2 
 PCOD9408928
Probable space group: P N N A
;
_chemical_formula_sum "Si O2"
_cell_formula_units_Z 40
_cell_length_a 10.308940
_cell_length_b 9.146667
_cell_length_c 21.562033
_cell_angle_alpha 90.000000
_cell_angle_beta 90.000000
_cell_angle_gamma 90.000000
_cell_volume 2033.136731
_symmetry_space_group_name_H-M "P N N A"
_symmetry_group_IT_number 52
_symmetry_cell_setting 'orthorhombic'
loop_
_space_group_symop_operation_xyz
x,y,z
1/2-x,-y,z
x,1/2-y,1/2-z
1/2-x,1/2+y,1/2-z
-x,-y,-z
1/2+x,y,-z
-x,1/2+y,1/2+z
1/2+x,1/2-y,1/2+z
loop_
_atom_site_type_symbol
_atom_site_label
_atom_site_fract_x
_atom_site_fract_y
_atom_site_fract_z
Si Si1 0.250000 0.000000 0.915537
Si Si2 0.750000 0.000000 0.801243
Si Si3 0.041356 0.039556 0.104059
Si Si4 0.750000 0.000000 0.581387
Si Si5 0.464821 0.292770 0.116088
Si Si6 0.567102 0.750000 0.750000
Si Si7 0.634676 0.252184 0.496754
O O1 0.387503 0.025614 0.880820
O O2 0.229199 0.139882 0.959447
O O3 0.643822 0.087594 0.843546
O O4 0.837968 0.113774 0.763979
O O5 0.057200 0.139527 0.043430
O O6 0.084439 0.869458 0.095592
O O7 0.640161 0.919494 0.620097
O O8 0.803564 0.871424 0.538386
O O9 0.513488 0.272566 0.186606
O O10 0.557054 0.327173 0.058610
#
# Coordination Sequence:
#
# PCOD9408928 Si02
#       7
#     4   4   8   4   8   4   8
#     4  10  19  34  56  78 110 148 185 232 280 336
#     4  10  20  36  58  82 111 146 189 238 282 338
#     4  10  20  36  58  83 110 146 193 239 281 326
#     4  12  21  32  52  86 117 146 182 232 296 344
#     4  10  21  34  54  79 111 147 185 230 277 335
#     4  10  20  36  54  78 106 146 190 228 274 334
#     4  11  20  34  54  83 116 148 184 235 289 340
#
# _framework density 19.674032
#
# number of rings (size 3 to 8) (size 9 to 14) (size 15 to 20)
#    0.000    1.600    0.000    9.000    0.000    0.000 
#    0.000    0.000    0.000   21.600    0.000    0.000 
#    0.000    0.000    0.000    0.000    0.000    0.000 
#
# Total GULP energy -222754.537515 kJ/mol
# GULP energy per Si atom -5568.863438 kJ/mol
# Density = 1.962925 g / cm^3
# Si number density = 19.674032 Si / 1000 Ang^3
#
#
#
# Elastic Constant Matrix: (Units=GPa)
#
#
# Indices 1 2 3 4 5 6 
#
# 1 83.1593 16.9079 28.6583 0.0000 0.0000 0.0000
# 2 16.9079 41.1311 -0.1735 0.0000 0.0000 0.0000
# 3 28.6583 -0.1735 117.4309 0.0000 0.0000 0.0000
# 4 0.0000 0.0000 0.0000 20.1517 0.0000 0.0000
# 5 0.0000 0.0000 0.0000 0.0000 41.7260 0.0000
# 6 0.0000 0.0000 0.0000 0.0000 0.0000 29.4352
#
#
#
# Elastic Compliance Matrix: (Units=1/GPa)
#
#
# Indices 1 2 3 4 5 6 
#
# 1 0.014455 -0.005957 -0.003536 0.000000 0.000000 0.000000
# 2 -0.005957 0.026768 0.001493 0.000000 0.000000 0.000000
# 3 -0.003536 0.001493 0.009381 0.000000 0.000000 0.000000
# 4 0.000000 0.000000 0.000000 0.049623 0.000000 0.000000
# 5 0.000000 0.000000 0.000000 0.000000 0.023966 0.000000
# 6 0.000000 0.000000 0.000000 0.000000 0.000000 0.033973
#
#
# Mechanical properties :
#
#
# Convention : Reuss Voigt Hill
#
# Bulk Modulus (GPa) = 28.89906 36.94519 32.92213
# Shear Modulus (GPa) = 26.92510 31.35118 29.13814
#
# Velocity S-wave (km/s) = 3.70342 3.99624 3.85261
# Velocity P-wave (km/s) = 5.74525 6.33345 6.04651
#
# Compressibility (1/GPa) = 0.03460320
#
# Stress axis : x y z
#
# Youngs Moduli (GPa) = 69.18018 37.35870 106.59958
#
# Poissons Ratio (x) = 0.22254 0.37698
# Poissons Ratio (y) = 0.41210 -0.15919
# Poissons Ratio (z) = 0.24465 -0.05579
#
# Static dielectric constant tensor:
#      x y z
#    x 1.769180 0.000000 0.000000 
#    y 0.000000 1.698630 0.000000 
#    z 0.000000 0.000000 1.736180 
# 
# From -- ./inp_files/36701.got.cif
#   From: 2010.05.17/outbox.cif.g08.bks.cpg/sg52_19_cif.got.tgz:36701.got - 2010.06.03 12:15:38.
