data_PCOD9408073
_publ_section_title
;
Structure prediction by ZEFSAII (Michael W. Deem and Ramdas Pophale) SiO2 
 PCOD9408073
Probable space group: P N N A
;
_chemical_formula_sum "Si O2"
_cell_formula_units_Z 56
_cell_length_a 11.739428
_cell_length_b 8.566979
_cell_length_c 24.132686
_cell_angle_alpha 90.000000
_cell_angle_beta 90.000000
_cell_angle_gamma 90.000000
_cell_volume 2427.058817
_symmetry_space_group_name_H-M "P N N A"
_symmetry_group_IT_number 52
_symmetry_cell_setting 'orthorhombic'
loop_
_space_group_symop_operation_xyz
x,y,z
1/2-x,-y,z
x,1/2-y,1/2-z
1/2-x,1/2+y,1/2-z
-x,-y,-z
1/2+x,y,-z
-x,1/2+y,1/2+z
1/2+x,1/2-y,1/2+z
loop_
_atom_site_type_symbol
_atom_site_label
_atom_site_fract_x
_atom_site_fract_y
_atom_site_fract_z
Si Si1 0.914237 0.342894 0.928241
Si Si2 0.360799 0.397070 0.788458
Si Si3 0.814886 0.339917 0.083898
Si Si4 0.514145 0.830607 0.696388
Si Si5 0.061481 0.325631 0.028767
Si Si6 0.151536 0.392964 0.631771
Si Si7 0.559223 0.998464 0.940341
O O1 0.922528 0.354993 0.861838
O O2 0.879255 0.514952 0.950414
O O3 0.870792 0.164122 0.936931
O O4 0.035327 0.329569 0.962617
O O5 0.250000 0.500000 0.778307
O O6 0.364775 0.250000 0.750000
O O7 0.354919 0.352370 0.852793
O O8 0.469707 0.505526 0.781635
O O9 0.750000 0.500000 0.070124
O O10 0.929026 0.321442 0.049177
O O11 0.727024 0.196254 0.084925
O O12 0.569538 0.750000 0.750000
O O13 0.404156 0.728207 0.675263
O O14 0.113542 0.171198 0.057124
O O15 0.250000 0.500000 0.657657
O O16 0.042563 0.481227 0.605236
O O17 0.500000 0.000000 0.000000
#
# Coordination Sequence:
#
# PCOD9408073 Si02
#       7
#     8   8   8   8   8   8   8
#     4   9  19  33  48  66  87 120 165 201 237 281
#     4  11  22  31  41  58  88 126 165 191 226 269
#     4  11  19  31  45  67  95 120 161 198 238 279
#     4  11  22  33  44  64  93 126 163 202 230 272
#     4  10  17  32  51  64  88 124 155 202 244 284
#     4  11  20  30  46  65  92 122 159 191 234 271
#     4   9  18  31  48  67  87 122 163 189 231 286
#
# _framework density 23.073194999999998
#
# number of rings (size 3 to 8) (size 9 to 14) (size 15 to 20)
#    0.000    1.714    5.714    1.286    2.000    0.000 
#    0.000    0.000    0.000    0.000    0.000    0.000 
#    0.000    0.000   14.571    0.000    0.000    0.000 
#
# Total GULP energy -312188.105758 kJ/mol
# GULP energy per Si atom -5574.787603 kJ/mol
# Density = 2.302068 g / cm^3
# Si number density = 23.073195 Si / 1000 Ang^3
#
#
#
# Elastic Constant Matrix: (Units=GPa)
#
#
# Indices 1 2 3 4 5 6 
#
# 1 53.7566 7.5257 15.8261 0.0000 0.0000 0.0000
# 2 7.5257 172.5039 20.8752 0.0000 0.0000 0.0000
# 3 15.8261 20.8752 125.0056 0.0000 0.0000 0.0000
# 4 0.0000 0.0000 0.0000 33.4926 0.0000 0.0000
# 5 0.0000 0.0000 0.0000 0.0000 11.8452 0.0000
# 6 0.0000 0.0000 0.0000 0.0000 0.0000 -2.4349
#
#
#
# Elastic Compliance Matrix: (Units=1/GPa)
#
#
# Indices 1 2 3 4 5 6 
#
# 1 0.019375 -0.000560 -0.002360 0.000000 0.000000 0.000000
# 2 -0.000560 0.005933 -0.000920 0.000000 0.000000 0.000000
# 3 -0.002360 -0.000920 0.008452 0.000000 0.000000 0.000000
# 4 0.000000 0.000000 0.000000 0.029857 0.000000 0.000000
# 5 0.000000 0.000000 0.000000 0.000000 0.084423 0.000000
# 6 0.000000 0.000000 0.000000 0.000000 0.000000 -0.410700
#
#
# Mechanical properties :
#
#
# Convention : Reuss Voigt Hill
#
# Bulk Modulus (GPa) = 38.34086 48.85778 43.59932
# Shear Modulus (GPa) = -20.30142 29.04985 4.37421
#
# Velocity S-wave (km/s) = -2.96948 3.55213 1.37837
# Velocity P-wave (km/s) = 2.21270 6.16803 4.63361
#
# Compressibility (1/GPa) = 0.02608184
#
# Stress axis : x y z
#
# Youngs Moduli (GPa) = 51.61187 168.55718 118.31553
#
# Poissons Ratio (x) = 0.09435 0.27917
# Poissons Ratio (y) = 0.02889 0.10883
# Poissons Ratio (z) = 0.12178 0.15505
#
# Static dielectric constant tensor:
#      x y z
#    x 1.860760 0.000000 0.000000 
#    y 0.000000 2.057550 0.000000 
#    z 0.000000 0.000000 1.911800 
# 
# From -- ./inp_files/40873.got.cif
#   From: 2010.05.17/outbox.cif.g08.bks.cpg/sg52_21_cif.got.tgz:40873.got - 2010.06.03 12:15:38.
