data_PCOD9408820
_publ_section_title
;
Structure prediction by ZEFSAII (Michael W. Deem and Ramdas Pophale) SiO2 
 PCOD9408820
Probable space group: P N N A
;
_chemical_formula_sum "Si O2"
_cell_formula_units_Z 40
_cell_length_a 19.759033
_cell_length_b 7.488604
_cell_length_c 12.635790
_cell_angle_alpha 90.000000
_cell_angle_beta 90.000000
_cell_angle_gamma 90.000000
_cell_volume 1869.687186
_symmetry_space_group_name_H-M "P N N A"
_symmetry_group_IT_number 52
_symmetry_cell_setting 'orthorhombic'
loop_
_space_group_symop_operation_xyz
x,y,z
1/2-x,-y,z
x,1/2-y,1/2-z
1/2-x,1/2+y,1/2-z
-x,-y,-z
1/2+x,y,-z
-x,1/2+y,1/2+z
1/2+x,1/2-y,1/2+z
loop_
_atom_site_type_symbol
_atom_site_label
_atom_site_fract_x
_atom_site_fract_y
_atom_site_fract_z
Si Si1 0.915235 0.205571 0.868337
Si Si2 0.536472 0.201446 0.863907
Si Si3 0.820539 0.955363 0.285156
Si Si4 0.886293 0.398161 0.409564
Si Si5 0.564183 0.185826 0.420846
O O1 0.887733 0.250000 0.750000
O O2 0.987119 0.310635 0.878952
O O3 0.939593 0.000851 0.876732
O O4 0.870769 0.200669 0.977886
O O5 0.561086 0.250000 0.750000
O O6 0.455610 0.194171 0.872417
O O7 0.562338 0.335451 0.953420
O O8 0.814732 0.750000 0.250000
O O9 0.887308 0.946600 0.358000
O O10 0.750000 0.000000 0.340661
O O11 0.831431 0.085584 0.183822
O O12 0.907382 0.609950 0.414233
#
# Coordination Sequence:
#
# PCOD9408820 Si02
#       5
#     8   8   8   8   8
#     4   9  15  28  48  68  95 132 161 192 247 309
#     4   9  16  27  46  73  99 124 156 201 251 300
#     4  10  19  33  50  69  95 132 173 212 249 300
#     4   8  16  29  45  66  97 131 162 194 244 304
#     4   8  15  29  47  66  96 133 162 193 247 305
#
# _framework density 21.393954000000001
#
# number of rings (size 3 to 8) (size 9 to 14) (size 15 to 20)
#    0.000    3.200    0.000    5.400    0.000    0.800 
#    0.000   11.000    0.000    0.000    0.000   25.200 
#    0.000    0.000    0.000    1.600    0.000    0.000 
#
# Total GULP energy -222682.603730 kJ/mol
# GULP energy per Si atom -5567.065093 kJ/mol
# Density = 2.134526 g / cm^3
# Si number density = 21.393954 Si / 1000 Ang^3
#
#
#
# Elastic Constant Matrix: (Units=GPa)
#
#
# Indices 1 2 3 4 5 6 
#
# 1 50.8905 32.9065 35.9960 0.0000 0.0000 0.0000
# 2 32.9065 63.2231 30.5705 0.0000 0.0000 0.0000
# 3 35.9960 30.5705 150.9772 0.0000 0.0000 0.0000
# 4 0.0000 0.0000 0.0000 39.3865 0.0000 0.0000
# 5 0.0000 0.0000 0.0000 0.0000 9.9105 0.0000
# 6 0.0000 0.0000 0.0000 0.0000 0.0000 18.1347
#
#
#
# Elastic Compliance Matrix: (Units=1/GPa)
#
#
# Indices 1 2 3 4 5 6 
#
# 1 0.032466 -0.014583 -0.004788 0.000000 0.000000 0.000000
# 2 -0.014583 0.024084 -0.001400 0.000000 0.000000 0.000000
# 3 -0.004788 -0.001400 0.008048 0.000000 0.000000 0.000000
# 4 0.000000 0.000000 0.000000 0.025389 0.000000 0.000000
# 5 0.000000 0.000000 0.000000 0.000000 0.100903 0.000000
# 6 0.000000 0.000000 0.000000 0.000000 0.000000 0.055143
#
#
# Mechanical properties :
#
#
# Convention : Reuss Voigt Hill
#
# Bulk Modulus (GPa) = 43.36971 51.55964 47.46467
# Shear Modulus (GPa) = 16.93418 24.52753 20.73086
#
# Velocity S-wave (km/s) = 2.81649 3.38963 3.11626
# Velocity P-wave (km/s) = 5.55812 6.28266 5.93147
#
# Compressibility (1/GPa) = 0.02305757
#
# Stress axis : x y z
#
# Youngs Moduli (GPa) = 30.80144 41.52138 124.24767
#
# Poissons Ratio (x) = 0.60550 0.59487
# Poissons Ratio (y) = 0.44918 0.17392
# Poissons Ratio (z) = 0.14747 0.05812
#
# Static dielectric constant tensor:
#      x y z
#    x 1.741990 0.000000 0.000000 
#    y 0.000000 1.912560 0.000000 
#    z 0.000000 0.000000 1.971910 
# 
# From -- ./inp_files/20311.got.cif
#   From: 2010.05.17/outbox.cif.g08.bks.cpg/sg52_11_cif.got.tgz:20311.got - 2010.06.03 12:15:38.
