data_PCOD9408498
_publ_section_title
;
Structure prediction by ZEFSAII (Michael W. Deem and Ramdas Pophale) SiO2 
 PCOD9408498
Probable space group: P N N A
;
_chemical_formula_sum "Si O2"
_cell_formula_units_Z 48
_cell_length_a 9.426281
_cell_length_b 18.442490
_cell_length_c 14.244657
_cell_angle_alpha 90.000000
_cell_angle_beta 90.000000
_cell_angle_gamma 90.000000
_cell_volume 2476.349477
_symmetry_space_group_name_H-M "P N N A"
_symmetry_group_IT_number 52
_symmetry_cell_setting 'orthorhombic'
loop_
_space_group_symop_operation_xyz
x,y,z
1/2-x,-y,z
x,1/2-y,1/2-z
1/2-x,1/2+y,1/2-z
-x,-y,-z
1/2+x,y,-z
-x,1/2+y,1/2+z
1/2+x,1/2-y,1/2+z
loop_
_atom_site_type_symbol
_atom_site_label
_atom_site_fract_x
_atom_site_fract_y
_atom_site_fract_z
Si Si1 0.433642 0.838342 0.529663
Si Si2 0.834577 0.259261 0.461062
Si Si3 0.888245 0.404745 0.810454
Si Si4 0.060257 0.430216 0.143513
Si Si5 0.548728 0.670306 0.295015
Si Si6 0.272469 0.313062 0.330984
O O1 0.511953 0.778801 0.465284
O O2 0.281116 0.804606 0.553063
O O3 0.520375 0.852749 0.623815
O O4 0.450847 0.910644 0.466371
O O5 0.810441 0.287957 0.565625
O O6 0.841364 0.321288 0.381260
O O7 0.940840 0.485986 0.828072
O O8 0.721702 0.402515 0.838373
O O9 0.880877 0.374477 0.705388
O O10 0.948754 0.387599 0.209988
O O11 0.556454 0.750000 0.250000
O O12 0.389546 0.659564 0.334028
O O13 0.277786 0.250000 0.250000
#
# Coordination Sequence:
#
# PCOD9408498 Si02
#       6
#     8   8   8   8   8   8
#     4  12  20  37  58  89 120 147 190 246 296 342
#     4  12  21  35  59  87 116 150 193 245 289 336
#     4  10  21  36  59  88 117 160 192 235 296 356
#     4  10  20  37  60  86 121 154 195 236 295 359
#     4  10  19  36  58  79 111 154 194 237 286 344
#     4  10  18  35  56  79 115 149 196 238 280 351
#
# _framework density 19.383371
#
# number of rings (size 3 to 8) (size 9 to 14) (size 15 to 20)
#    0.000    1.333    6.667    1.500    0.000    0.000 
#    3.000    0.833    0.000    0.000    0.000    0.000 
#    0.000    0.000    0.000    0.000    0.000    0.000 
#
# Total GULP energy -267371.716586 kJ/mol
# GULP energy per Si atom -5570.244096 kJ/mol
# Density = 1.933925 g / cm^3
# Si number density = 19.383371 Si / 1000 Ang^3
#
#
#
# Elastic Constant Matrix: (Units=GPa)
#
#
# Indices 1 2 3 4 5 6 
#
# 1 41.7626 20.7573 29.2477 0.0000 0.0000 0.0000
# 2 20.7573 48.5686 29.7281 0.0000 0.0000 0.0000
# 3 29.2477 29.7281 116.4183 0.0000 0.0000 0.0000
# 4 0.0000 0.0000 0.0000 20.3453 0.0000 0.0000
# 5 0.0000 0.0000 0.0000 0.0000 17.4045 0.0000
# 6 0.0000 0.0000 0.0000 0.0000 0.0000 18.4599
#
#
#
# Elastic Compliance Matrix: (Units=1/GPa)
#
#
# Indices 1 2 3 4 5 6 
#
# 1 0.033217 -0.010772 -0.005594 0.000000 0.000000 0.000000
# 2 -0.010772 0.027897 -0.004417 0.000000 0.000000 0.000000
# 3 -0.005594 -0.004417 0.011123 0.000000 0.000000 0.000000
# 4 0.000000 0.000000 0.000000 0.049151 0.000000 0.000000
# 5 0.000000 0.000000 0.000000 0.000000 0.057457 0.000000
# 6 0.000000 0.000000 0.000000 0.000000 0.000000 0.054172
#
#
# Mechanical properties :
#
#
# Convention : Reuss Voigt Hill
#
# Bulk Modulus (GPa) = 32.60573 40.69063 36.64818
# Shear Modulus (GPa) = 17.55572 19.70968 18.63270
#
# Velocity S-wave (km/s) = 3.01277 3.19224 3.10380
# Velocity P-wave (km/s) = 5.38148 5.88433 5.63852
#
# Compressibility (1/GPa) = 0.03066945
#
# Stress axis : x y z
#
# Youngs Moduli (GPa) = 30.10520 35.84611 89.90224
#
# Poissons Ratio (x) = 0.38614 0.50294
# Poissons Ratio (y) = 0.32429 0.39714
# Poissons Ratio (z) = 0.16842 0.15835
#
# Static dielectric constant tensor:
#      x y z
#    x 1.685810 0.000000 0.000000 
#    y 0.000000 1.713430 0.000000 
#    z 0.000000 0.000000 1.737810 
# 
# From -- ./inp_files/24690.got.cif
#   From: 2010.05.17/outbox.cif.g08.bks.cpg/sg52_13_cif.got.tgz:24690.got - 2010.06.03 12:15:38.
