data_PCOD9408121
_publ_section_title
;
Structure prediction by ZEFSAII (Michael W. Deem and Ramdas Pophale) SiO2 
 PCOD9408121
Probable space group: P N N A
;
_chemical_formula_sum "Si O2"
_cell_formula_units_Z 56
_cell_length_a 21.247532
_cell_length_b 15.244917
_cell_length_c 9.231374
_cell_angle_alpha 90.000000
_cell_angle_beta 90.000000
_cell_angle_gamma 90.000000
_cell_volume 2990.197696
_symmetry_space_group_name_H-M "P N N A"
_symmetry_group_IT_number 52
_symmetry_cell_setting 'orthorhombic'
loop_
_space_group_symop_operation_xyz
x,y,z
1/2-x,-y,z
x,1/2-y,1/2-z
1/2-x,1/2+y,1/2-z
-x,-y,-z
1/2+x,y,-z
-x,1/2+y,1/2+z
1/2+x,1/2-y,1/2+z
loop_
_atom_site_type_symbol
_atom_site_label
_atom_site_fract_x
_atom_site_fract_y
_atom_site_fract_z
Si Si1 0.278556 0.330219 0.335911
Si Si2 0.295407 0.741423 0.585165
Si Si3 0.523488 0.273222 0.898574
Si Si4 0.155662 0.367813 0.138780
Si Si5 0.117238 0.971655 0.189469
Si Si6 0.915291 0.885921 0.055587
Si Si7 0.004487 0.648774 0.198570
O O1 0.310687 0.250000 0.250000
O O2 0.261657 0.294943 0.492568
O O3 0.211617 0.346284 0.253472
O O4 0.321433 0.414553 0.344362
O O5 0.279626 0.750000 0.750000
O O6 0.317318 0.833233 0.513212
O O7 0.352098 0.671632 0.569093
O O8 0.487140 0.250000 0.750000
O O9 0.590230 0.315277 0.849001
O O10 0.536795 0.179599 0.973438
O O11 0.499347 0.339415 0.024030
O O12 0.136371 0.465675 0.176979
O O13 0.062562 0.907377 0.243258
O O14 0.096736 0.031209 0.050316
O O15 0.944459 0.894700 0.217244
O O16 0.007399 0.750000 0.250000
#
# Coordination Sequence:
#
# PCOD9408121 Si02
#       7
#     8   8   8   8   8   8   8
#     4  10  21  37  62  84 114 164 201 236 298 372
#     4  10  19  36  64  89 113 152 204 250 294 354
#     4  10  17  36  59  83 113 153 206 247 290 352
#     4  10  19  34  61  90 111 150 202 249 291 349
#     4  12  21  35  60  89 125 152 203 247 309 369
#     4  10  19  34  59  86 115 153 199 253 291 347
#     4  10  23  37  57  85 120 165 201 244 304 366
#
# _framework density 18.727858000000001
#
# number of rings (size 3 to 8) (size 9 to 14) (size 15 to 20)
#    0.000    1.714    2.857    4.714    0.000    0.571 
#    0.000    0.000   22.000    6.857    0.000    0.000 
#    0.000    0.000    0.000    0.000    0.000    0.000 
#
# Total GULP energy -311875.229217 kJ/mol
# GULP energy per Si atom -5569.200522 kJ/mol
# Density = 1.868523 g / cm^3
# Si number density = 18.727858 Si / 1000 Ang^3
#
#
#
# Elastic Constant Matrix: (Units=GPa)
#
#
# Indices 1 2 3 4 5 6 
#
# 1 53.1859 42.7587 40.0914 0.0000 0.0000 0.0000
# 2 42.7587 82.7866 47.6443 0.0000 0.0000 0.0000
# 3 40.0914 47.6443 164.4456 0.0000 0.0000 0.0000
# 4 0.0000 0.0000 0.0000 22.2890 0.0000 0.0000
# 5 0.0000 0.0000 0.0000 0.0000 7.5462 0.0000
# 6 0.0000 0.0000 0.0000 0.0000 0.0000 36.6778
#
#
#
# Elastic Compliance Matrix: (Units=1/GPa)
#
#
# Indices 1 2 3 4 5 6 
#
# 1 0.034070 -0.015381 -0.003850 0.000000 0.000000 0.000000
# 2 -0.015381 0.021440 -0.002462 0.000000 0.000000 0.000000
# 3 -0.003850 -0.002462 0.007733 0.000000 0.000000 0.000000
# 4 0.000000 0.000000 0.000000 0.044865 0.000000 0.000000
# 5 0.000000 0.000000 0.000000 0.000000 0.132518 0.000000
# 6 0.000000 0.000000 0.000000 0.000000 0.000000 0.027264
#
#
# Mechanical properties :
#
#
# Convention : Reuss Voigt Hill
#
# Bulk Modulus (GPa) = 50.35971 62.37851 56.36911
# Shear Modulus (GPa) = 15.72848 24.63085 20.17966
#
# Velocity S-wave (km/s) = 2.90115 3.63050 3.28612
# Velocity P-wave (km/s) = 6.17826 7.13822 6.67552
#
# Compressibility (1/GPa) = 0.01985715
#
# Stress axis : x y z
#
# Youngs Moduli (GPa) = 29.35176 46.64102 129.31776
#
# Poissons Ratio (x) = 0.71739 0.49784
# Poissons Ratio (y) = 0.45146 0.31838
# Poissons Ratio (z) = 0.11300 0.11483
#
# Static dielectric constant tensor:
#      x y z
#    x 1.662320 0.000000 0.000000 
#    y 0.000000 1.743050 0.000000 
#    z 0.000000 0.000000 1.707290 
# 
# From -- ./inp_files/13450.got.cif
#   From: 2010.05.17/outbox.cif.g08.bks.cpg/sg52_7_cif.got.tgz:13450.got - 2010.06.03 12:15:38.
