data_PCOD9408111
_publ_section_title
;
Structure prediction by ZEFSAII (Michael W. Deem and Ramdas Pophale) SiO2 
 PCOD9408111
Probable space group: P N N A
;
_chemical_formula_sum "Si O2"
_cell_formula_units_Z 44
_cell_length_a 11.842792
_cell_length_b 16.794410
_cell_length_c 11.742643
_cell_angle_alpha 90.000000
_cell_angle_beta 90.000000
_cell_angle_gamma 90.000000
_cell_volume 2335.526023
_symmetry_space_group_name_H-M "P N N A"
_symmetry_group_IT_number 52
_symmetry_cell_setting 'orthorhombic'
loop_
_space_group_symop_operation_xyz
x,y,z
1/2-x,-y,z
x,1/2-y,1/2-z
1/2-x,1/2+y,1/2-z
-x,-y,-z
1/2+x,y,-z
-x,1/2+y,1/2+z
1/2+x,1/2-y,1/2+z
loop_
_atom_site_type_symbol
_atom_site_label
_atom_site_fract_x
_atom_site_fract_y
_atom_site_fract_z
Si Si1 0.384224 0.180853 0.338443
Si Si2 0.684850 0.757132 0.414726
Si Si3 0.358292 0.658198 0.206845
Si Si4 0.250000 0.000000 0.669272
Si Si5 0.613977 0.141958 0.439129
Si Si6 0.909665 0.377637 0.275002
O O1 0.414221 0.250000 0.250000
O O2 0.342891 0.222020 0.455738
O O3 0.495140 0.133672 0.375874
O O4 0.274033 0.134706 0.290809
O O5 0.645140 0.669572 0.380394
O O6 0.618697 0.817368 0.330501
O O7 0.816452 0.779682 0.398409
O O8 0.360489 0.750000 0.250000
O O9 0.455332 0.614871 0.279245
O O10 0.395113 0.649344 0.074948
O O11 0.191776 0.067144 0.592315
O O12 0.155488 0.957726 0.745849
#
# Coordination Sequence:
#
# PCOD9408111 Si02
#       6
#     8   8   8   4   8   8
#     4  10  20  31  54  89 108 131 184 242 276 309
#     4   9  18  33  57  76 101 148 181 224 272 319
#     4  10  18  34  56  79 107 144 179 220 281 334
#     4  10  24  32  52  82 114 146 182 228 278 324
#     4  10  20  36  51  85 111 141 187 230 271 322
#     4  10  17  35  54  75 106 142 188 215 266 336
#
# _framework density 18.839438999999999
#
# number of rings (size 3 to 8) (size 9 to 14) (size 15 to 20)
#    0.000    2.182    3.636    0.000    5.091    0.727 
#    0.000    0.000    0.000    1.091    0.000    0.000 
#    0.000    0.000    0.000    0.000    0.000    0.000 
#
# Total GULP energy -245102.893995 kJ/mol
# GULP energy per Si atom -5570.520318 kJ/mol
# Density = 1.879656 g / cm^3
# Si number density = 18.839439 Si / 1000 Ang^3
#
#
#
# Elastic Constant Matrix: (Units=GPa)
#
#
# Indices 1 2 3 4 5 6 
#
# 1 147.6088 38.2066 7.3612 0.0000 0.0000 0.0000
# 2 38.2066 43.5273 20.4358 0.0000 0.0000 0.0000
# 3 7.3612 20.4358 33.8761 0.0000 0.0000 0.0000
# 4 0.0000 0.0000 0.0000 6.9345 0.0000 0.0000
# 5 0.0000 0.0000 0.0000 0.0000 23.4974 0.0000
# 6 0.0000 0.0000 0.0000 0.0000 0.0000 15.8800
#
#
#
# Elastic Compliance Matrix: (Units=1/GPa)
#
#
# Indices 1 2 3 4 5 6 
#
# 1 0.009135 -0.009887 0.003979 0.000000 0.000000 0.000000
# 2 -0.009887 0.042752 -0.023642 0.000000 0.000000 0.000000
# 3 0.003979 -0.023642 0.042917 0.000000 0.000000 0.000000
# 4 0.000000 0.000000 0.000000 0.144206 0.000000 0.000000
# 5 0.000000 0.000000 0.000000 0.000000 0.042558 0.000000
# 6 0.000000 0.000000 0.000000 0.000000 0.000000 0.062972
#
#
# Mechanical properties :
#
#
# Convention : Reuss Voigt Hill
#
# Bulk Modulus (GPa) = 28.00728 39.66882 33.83805
# Shear Modulus (GPa) = 12.03250 19.86295 15.94772
#
# Velocity S-wave (km/s) = 2.52997 3.25056 2.91264
# Velocity P-wave (km/s) = 4.84075 5.93213 5.41401
#
# Compressibility (1/GPa) = 0.03570500
#
# Stress axis : x y z
#
# Youngs Moduli (GPa) = 109.46556 23.39068 23.30093
#
# Poissons Ratio (x) = 0.23126 -0.09272
# Poissons Ratio (y) = 1.08226 0.55088
# Poissons Ratio (z) = -0.43558 0.55300
#
# Static dielectric constant tensor:
#      x y z
#    x 1.747350 0.000000 0.000000 
#    y 0.000000 1.635950 0.000000 
#    z 0.000000 0.000000 1.648200 
# 
# From -- ./inp_files/18150.got.cif
#   From: 2010.05.17/outbox.cif.g08.bks.cpg/sg52_10_cif.got.tgz:18150.got - 2010.06.03 12:15:38.
