data_PCOD9408204
_publ_section_title
;
Structure prediction by ZEFSAII (Michael W. Deem and Ramdas Pophale) SiO2 
 PCOD9408204
Probable space group: P N N A
;
_chemical_formula_sum "Si O2"
_cell_formula_units_Z 44
_cell_length_a 12.423602
_cell_length_b 18.017663
_cell_length_c 7.050451
_cell_angle_alpha 90.000000
_cell_angle_beta 90.000000
_cell_angle_gamma 90.000000
_cell_volume 1578.203086
_symmetry_space_group_name_H-M "P N N A"
_symmetry_group_IT_number 52
_symmetry_cell_setting 'orthorhombic'
loop_
_space_group_symop_operation_xyz
x,y,z
1/2-x,-y,z
x,1/2-y,1/2-z
1/2-x,1/2+y,1/2-z
-x,-y,-z
1/2+x,y,-z
-x,1/2+y,1/2+z
1/2+x,1/2-y,1/2+z
loop_
_atom_site_type_symbol
_atom_site_label
_atom_site_fract_x
_atom_site_fract_y
_atom_site_fract_z
Si Si1 0.064208 0.854129 0.651530
Si Si2 0.702803 0.388345 0.291288
Si Si3 0.700814 0.580257 0.706119
Si Si4 0.983146 0.989384 0.230186
Si Si5 0.237259 0.250000 0.250000
Si Si6 0.548312 0.276141 0.486126
O O1 0.193172 0.861900 0.674635
O O2 0.030960 0.794632 0.491583
O O3 0.015030 0.824498 0.854663
O O4 0.007838 0.934171 0.656058
O O5 0.755026 0.414861 0.490388
O O6 0.633531 0.457474 0.220975
O O7 0.605991 0.328537 0.330721
O O8 0.750000 0.500000 0.775101
O O9 0.578952 0.566505 0.763790
O O10 0.714308 0.668127 0.747819
O O11 0.000000 0.000000 0.000000
O O12 0.156926 0.244419 0.425835
#
# Coordination Sequence:
#
# PCOD9408204 Si02
#       6
#     8   8   8   8   4   8
#     4  10  18  30  47  74 112 151 180 228 296 363
#     4  11  18  29  49  76 106 147 183 231 299 360
#     4  11  17  28  46  68 107 144 177 227 292 352
#     4  12  18  27  47  79 108 142 177 232 297 371
#     4   8  18  28  42  66 102 148 184 222 282 352
#     4   9  18  32  46  70 113 148 187 229 282 360
#
# _framework density 27.879809000000002
#
# number of rings (size 3 to 8) (size 9 to 14) (size 15 to 20)
#    0.000    1.818    5.455    2.727    0.000    0.000 
#    0.000    1.818    0.000    0.000    0.000    0.000 
#    0.000  529.455    0.000    0.000    0.000    0.000 
#
# Total GULP energy -245521.576105 kJ/mol
# GULP energy per Si atom -5580.035821 kJ/mol
# Density = 2.781635 g / cm^3
# Si number density = 27.879809 Si / 1000 Ang^3
#
#
#
# Elastic Constant Matrix: (Units=GPa)
#
#
# Indices 1 2 3 4 5 6 
#
# 1 197.0471 102.4887 23.2709 0.0000 0.0000 0.0000
# 2 102.4887 245.9554 22.6511 0.0000 0.0000 0.0000
# 3 23.2709 22.6511 74.9394 0.0000 0.0000 0.0000
# 4 0.0000 0.0000 0.0000 10.6029 0.0000 0.0000
# 5 0.0000 0.0000 0.0000 0.0000-1427.5903 0.0000
# 6 0.0000 0.0000 0.0000 0.0000 0.0000 76.0339
#
#
#
# Elastic Compliance Matrix: (Units=1/GPa)
#
#
# Indices 1 2 3 4 5 6 
#
# 1 0.006591 -0.002631 -0.001251 0.000000 0.000000 0.000000
# 2 -0.002631 0.005233 -0.000765 0.000000 0.000000 0.000000
# 3 -0.001251 -0.000765 0.013964 0.000000 0.000000 0.000000
# 4 0.000000 0.000000 0.000000 0.094314 0.000000 0.000000
# 5 0.000000 0.000000 0.000000 0.000000 -0.000700 0.000000
# 6 0.000000 0.000000 0.000000 0.000000 0.000000 0.013152
#
#
# Mechanical properties :
#
#
# Convention : Reuss Voigt Hill
#
# Bulk Modulus (GPa) = 60.63109 90.52926 75.58017
# Shear Modulus (GPa) = 33.93387 -243.55529 -104.81071
#
# Velocity S-wave (km/s) = 3.49255 -9.35674 -6.13803
# Velocity P-wave (km/s) = 6.16915 9.17550 4.80268
#
# Compressibility (1/GPa) = 0.01649319
#
# Stress axis : x y z
#
# Youngs Moduli (GPa) = 151.71424 191.10766 71.61370
#
# Poissons Ratio (x) = 0.50287 0.08962
# Poissons Ratio (y) = 0.39921 0.05475
# Poissons Ratio (z) = 0.18986 0.14610
#
# Static dielectric constant tensor:
#      x y z
#    x 2.126200 0.000000 0.000000 
#    y 0.000000 2.073710 0.000000 
#    z 0.000000 0.000000 2.137940 
# 
# From -- ./inp_files/18136.got.cif
#   From: 2010.05.17/outbox.cif.g08.bks.cpg/sg52_10_cif.got.tgz:18136.got - 2010.06.03 12:15:38.
