data_PCOD9408622
_publ_section_title
;
Structure prediction by ZEFSAII (Michael W. Deem and Ramdas Pophale) SiO2 
 PCOD9408622
Probable space group: P N N A
;
_chemical_formula_sum "Si O2"
_cell_formula_units_Z 60
_cell_length_a 13.579782
_cell_length_b 14.597425
_cell_length_c 16.632731
_cell_angle_alpha 90.000000
_cell_angle_beta 90.000000
_cell_angle_gamma 90.000000
_cell_volume 3297.103759
_symmetry_space_group_name_H-M "P N N A"
_symmetry_group_IT_number 52
_symmetry_cell_setting 'orthorhombic'
loop_
_space_group_symop_operation_xyz
x,y,z
1/2-x,-y,z
x,1/2-y,1/2-z
1/2-x,1/2+y,1/2-z
-x,-y,-z
1/2+x,y,-z
-x,1/2+y,1/2+z
1/2+x,1/2-y,1/2+z
loop_
_atom_site_type_symbol
_atom_site_label
_atom_site_fract_x
_atom_site_fract_y
_atom_site_fract_z
Si Si1 0.269557 0.814606 0.681978
Si Si2 0.209380 0.778921 0.977408
Si Si3 0.422944 0.542037 0.879877
Si Si4 0.057784 0.576465 0.551144
Si Si5 0.408647 0.753755 0.072736
Si Si6 0.559729 0.250000 0.750000
Si Si7 0.066239 0.618424 0.997613
Si Si8 0.909390 0.419041 0.266409
O O1 0.317445 0.750000 0.750000
O O2 0.215183 0.749078 0.617220
O O3 0.344352 0.877386 0.632089
O O4 0.192416 0.878556 0.730159
O O5 0.154392 0.875847 0.987585
O O6 0.142830 0.698335 0.013960
O O7 0.315702 0.772545 0.016911
O O8 0.389445 0.459484 0.939314
O O9 0.439033 0.500399 0.792501
O O10 0.522116 0.576324 0.921841
O O11 0.090504 0.548606 0.641358
O O12 0.000000 0.500000 0.500000
O O13 0.982642 0.661103 0.562423
O O14 0.381866 0.745178 0.166612
O O15 0.472415 0.665052 0.047111
O O16 0.487794 0.337381 0.743822
#
# Coordination Sequence:
#
# PCOD9408622 Si02
#       8
#     8   8   8   8   8   4   8   8
#     4  12  21  35  57  95 123 154 197 254 313 373
#     4  11  21  39  62  87 123 162 202 247 314 372
#     4  11  22  35  58  93 124 153 196 252 316 370
#     4  10  23  41  61  86 121 164 209 250 300 366
#     4  10  20  38  65  84 117 163 204 252 298 367
#     4  10  18  38  62  82 110 160 212 242 294 356
#     4  10  21  38  59  89 127 155 192 252 316 377
#     4  11  19  37  60  86 118 156 197 251 303 366
#
# _framework density 18.197790000000001
#
# number of rings (size 3 to 8) (size 9 to 14) (size 15 to 20)
#    0.000    1.333    6.000    1.200    0.000    1.600 
#    2.400    1.333    0.000    1.600    0.000    0.000 
#    0.000    0.000    0.000    0.000    0.000    0.000 
#
# Total GULP energy -334760.645740 kJ/mol
# GULP energy per Si atom -5579.344096 kJ/mol
# Density = 1.815637 g / cm^3
# Si number density = 18.197790 Si / 1000 Ang^3
#
#
#
# Elastic Constant Matrix: (Units=GPa)
#
#
# Indices 1 2 3 4 5 6 
#
# 1 59.8084 13.9166 30.3229 0.0000 0.0000 0.0000
# 2 13.9166 70.5605 24.9401 0.0000 0.0000 0.0000
# 3 30.3229 24.9401 81.2678 0.0000 0.0000 0.0000
# 4 0.0000 0.0000 0.0000 31.9890 0.0000 0.0000
# 5 0.0000 0.0000 0.0000 0.0000 25.5350 0.0000
# 6 0.0000 0.0000 0.0000 0.0000 0.0000 26.3179
#
#
#
# Elastic Compliance Matrix: (Units=1/GPa)
#
#
# Indices 1 2 3 4 5 6 
#
# 1 0.020766 -0.001522 -0.007281 0.000000 0.000000 0.000000
# 2 -0.001522 0.016008 -0.004345 0.000000 0.000000 0.000000
# 3 -0.007281 -0.004345 0.016355 0.000000 0.000000 0.000000
# 4 0.000000 0.000000 0.000000 0.031261 0.000000 0.000000
# 5 0.000000 0.000000 0.000000 0.000000 0.039162 0.000000
# 6 0.000000 0.000000 0.000000 0.000000 0.000000 0.037997
#
#
# Mechanical properties :
#
#
# Convention : Reuss Voigt Hill
#
# Bulk Modulus (GPa) = 37.26740 38.88844 38.07792
# Shear Modulus (GPa) = 25.40794 26.26550 25.83672
#
# Velocity S-wave (km/s) = 3.74064 3.80325 3.77207
# Velocity P-wave (km/s) = 6.25940 6.37985 6.31991
#
# Compressibility (1/GPa) = 0.02683310
#
# Stress axis : x y z
#
# Youngs Moduli (GPa) = 48.15626 62.46827 61.14302
#
# Poissons Ratio (x) = 0.09508 0.44519
# Poissons Ratio (y) = 0.07330 0.26565
# Poissons Ratio (z) = 0.35063 0.27141
#
# Static dielectric constant tensor:
#      x y z
#    x 1.610830 0.000000 0.000000 
#    y 0.000000 1.660030 0.000000 
#    z 0.000000 0.000000 1.643420 
# 
# From -- ./inp_files/32383.got.cif
#   From: 2010.05.17/outbox.cif.g08.bks.cpg/sg52_17_cif.got.tgz:32383.got - 2010.06.03 12:15:38.
