data_PCOD9408805
_publ_section_title
;
Structure prediction by ZEFSAII (Michael W. Deem and Ramdas Pophale) SiO2 
 PCOD9408805
Probable space group: P N N A
;
_chemical_formula_sum "Si O2"
_cell_formula_units_Z 48
_cell_length_a 9.889460
_cell_length_b 14.240948
_cell_length_c 18.606177
_cell_angle_alpha 90.000000
_cell_angle_beta 90.000000
_cell_angle_gamma 90.000000
_cell_volume 2620.406252
_symmetry_space_group_name_H-M "P N N A"
_symmetry_group_IT_number 52
_symmetry_cell_setting 'orthorhombic'
loop_
_space_group_symop_operation_xyz
x,y,z
1/2-x,-y,z
x,1/2-y,1/2-z
1/2-x,1/2+y,1/2-z
-x,-y,-z
1/2+x,y,-z
-x,1/2+y,1/2+z
1/2+x,1/2-y,1/2+z
loop_
_atom_site_type_symbol
_atom_site_label
_atom_site_fract_x
_atom_site_fract_y
_atom_site_fract_z
Si Si1 0.741478 0.740885 0.149726
Si Si2 0.404878 0.472734 0.238083
Si Si3 0.449088 0.202498 0.175528
Si Si4 0.844665 0.092525 0.229215
Si Si5 0.198060 0.099487 0.530834
Si Si6 0.903145 0.367863 0.913188
O O1 0.652745 0.833910 0.162828
O O2 0.711386 0.658849 0.207186
O O3 0.740251 0.687529 0.074302
O O4 0.892635 0.776877 0.165571
O O5 0.250000 0.500000 0.235550
O O6 0.427186 0.405418 0.306969
O O7 0.508610 0.557121 0.247919
O O8 0.433903 0.420455 0.162233
O O9 0.400550 0.250000 0.250000
O O10 0.386894 0.258742 0.109130
O O11 0.750000 0.000000 0.219247
O O12 0.266575 0.102018 0.452650
O O13 0.035879 0.110454 0.538043
O O14 0.250000 0.000000 0.563087
#
# Coordination Sequence:
#
# PCOD9408805 Si02
#       6
#     8   8   8   8   8   8
#     4  10  19  32  58  89 112 143 203 243 283 339
#     4  11  22  37  57  87 119 155 189 244 310 351
#     4   9  16  36  57  79 114 151 186 245 297 335
#     4  11  18  34  60  85 112 148 198 244 282 346
#     4  11  21  36  57  85 119 158 186 237 289 364
#     4  10  22  37  58  82 120 156 194 231 299 357
#
# _framework density 18.317769999999999
#
# number of rings (size 3 to 8) (size 9 to 14) (size 15 to 20)
#    0.000    1.667    3.333    4.500    0.000    1.333 
#   12.000    0.000    0.000    2.000    0.000    0.000 
#    0.000    0.000    0.000    0.000    0.000    0.000 
#
# Total GULP energy -267383.160864 kJ/mol
# GULP energy per Si atom -5570.482518 kJ/mol
# Density = 1.827608 g / cm^3
# Si number density = 18.317770 Si / 1000 Ang^3
#
#
#
# Elastic Constant Matrix: (Units=GPa)
#
#
# Indices 1 2 3 4 5 6 
#
# 1 81.4575 29.0218 21.3920 0.0000 0.0000 0.0000
# 2 29.0218 94.7742 32.2142 0.0000 0.0000 0.0000
# 3 21.3920 32.2142 47.0849 0.0000 0.0000 0.0000
# 4 0.0000 0.0000 0.0000 15.8745 0.0000 0.0000
# 5 0.0000 0.0000 0.0000 0.0000 35.2348 0.0000
# 6 0.0000 0.0000 0.0000 0.0000 0.0000 23.9103
#
#
#
# Elastic Compliance Matrix: (Units=1/GPa)
#
#
# Indices 1 2 3 4 5 6 
#
# 1 0.014515 -0.002871 -0.004630 0.000000 0.000000 0.000000
# 2 -0.002871 0.014317 -0.008491 0.000000 0.000000 0.000000
# 3 -0.004630 -0.008491 0.029151 0.000000 0.000000 0.000000
# 4 0.000000 0.000000 0.000000 0.062994 0.000000 0.000000
# 5 0.000000 0.000000 0.000000 0.000000 0.028381 0.000000
# 6 0.000000 0.000000 0.000000 0.000000 0.000000 0.041823
#
#
# Mechanical properties :
#
#
# Convention : Reuss Voigt Hill
#
# Bulk Modulus (GPa) = 38.46342 43.17474 40.81908
# Shear Modulus (GPa) = 21.56744 24.38317 22.97530
#
# Velocity S-wave (km/s) = 3.43506 3.65241 3.54540
# Velocity P-wave (km/s) = 6.06434 6.43489 6.25236
#
# Compressibility (1/GPa) = 0.02599873
#
# Stress axis : x y z
#
# Youngs Moduli (GPa) = 68.89316 69.84924 34.30415
#
# Poissons Ratio (x) = 0.20053 0.15884
# Poissons Ratio (y) = 0.19779 0.29126
# Poissons Ratio (z) = 0.31901 0.59306
#
# Static dielectric constant tensor:
#      x y z
#    x 1.632440 0.000000 0.000000 
#    y 0.000000 1.708320 0.000000 
#    z 0.000000 0.000000 1.680060 
# 
# From -- ./inp_files/35877.got.cif
#   From: 2010.05.17/outbox.cif.g08.bks.cpg/sg52_18_cif.got.tgz:35877.got - 2010.06.03 12:15:38.
