data_PCOD9408173
_publ_section_title
;
Structure prediction by ZEFSAII (Michael W. Deem and Ramdas Pophale) SiO2 
 PCOD9408173
Probable space group: P N N A
;
_chemical_formula_sum "Si O2"
_cell_formula_units_Z 32
_cell_length_a 21.542979
_cell_length_b 4.925451
_cell_length_c 13.238282
_cell_angle_alpha 90.000000
_cell_angle_beta 90.000000
_cell_angle_gamma 90.000000
_cell_volume 1404.699375
_symmetry_space_group_name_H-M "P N N A"
_symmetry_group_IT_number 52
_symmetry_cell_setting 'orthorhombic'
loop_
_space_group_symop_operation_xyz
x,y,z
1/2-x,-y,z
x,1/2-y,1/2-z
1/2-x,1/2+y,1/2-z
-x,-y,-z
1/2+x,y,-z
-x,1/2+y,1/2+z
1/2+x,1/2-y,1/2+z
loop_
_atom_site_type_symbol
_atom_site_label
_atom_site_fract_x
_atom_site_fract_y
_atom_site_fract_z
Si Si1 0.323946 0.480288 0.539869
Si Si2 0.571152 0.793931 0.564132
Si Si3 0.175407 0.468111 0.834230
Si Si4 0.503529 0.276274 0.638071
O O1 0.250000 0.500000 0.525342
O O2 0.362175 0.345782 0.449498
O O3 0.341924 0.788323 0.566587
O O4 0.338312 0.279700 0.635996
O O5 0.525673 0.580317 0.618893
O O6 0.543187 0.809912 0.450451
O O7 0.561977 0.074570 0.622060
O O8 0.250000 0.500000 0.820585
O O9 0.153788 0.250000 0.750000
O O10 0.477312 0.250000 0.750000
#
# Coordination Sequence:
#
# PCOD9408173 Si02
#       4
#     8   8   8   8
#     4  10  20  33  52  78 112 152 186 232 293 347
#     4  10  21  38  58  87 118 148 198 244 291 363
#     4  10  18  29  45  70 107 149 190 226 273 344
#     4  10  21  38  61  85 114 153 194 247 302 345
#
# _framework density 22.780674999999999
#
# number of rings (size 3 to 8) (size 9 to 14) (size 15 to 20)
#    0.000    2.000    0.000    5.250    0.000    2.000 
#    0.000    0.000    0.000    3.000    0.000    0.000 
#    0.000    0.000    0.000    0.000    0.000    0.000 
#
# Total GULP energy -178385.976588 kJ/mol
# GULP energy per Si atom -5574.561768 kJ/mol
# Density = 2.272882 g / cm^3
# Si number density = 22.780675 Si / 1000 Ang^3
#
#
#
# Elastic Constant Matrix: (Units=GPa)
#
#
# Indices 1 2 3 4 5 6 
#
# 1 67.4133 6.6977 7.4010 0.0000 0.0000 0.0000
# 2 6.6977 136.7409 6.9982 0.0000 0.0000 0.0000
# 3 7.4010 6.9982 63.4924 0.0000 0.0000 0.0000
# 4 0.0000 0.0000 0.0000 17.9216 0.0000 0.0000
# 5 0.0000 0.0000 0.0000 0.0000 13.6516 0.0000
# 6 0.0000 0.0000 0.0000 0.0000 0.0000 25.5603
#
#
#
# Elastic Compliance Matrix: (Units=1/GPa)
#
#
# Indices 1 2 3 4 5 6 
#
# 1 0.015084 -0.000653 -0.001686 0.000000 0.000000 0.000000
# 2 -0.000653 0.007383 -0.000738 0.000000 0.000000 0.000000
# 3 -0.001686 -0.000738 0.016028 0.000000 0.000000 0.000000
# 4 0.000000 0.000000 0.000000 0.055798 0.000000 0.000000
# 5 0.000000 0.000000 0.000000 0.000000 0.073251 0.000000
# 6 0.000000 0.000000 0.000000 0.000000 0.000000 0.039123
#
#
# Mechanical properties :
#
#
# Convention : Reuss Voigt Hill
#
# Bulk Modulus (GPa) = 30.92015 34.42672 32.67344
# Shear Modulus (GPa) = 22.36124 27.86334 25.11229
#
# Velocity S-wave (km/s) = 3.13643 3.50110 3.32377
# Velocity P-wave (km/s) = 5.16901 5.61147 5.39478
#
# Compressibility (1/GPa) = 0.03234137
#
# Stress axis : x y z
#
# Youngs Moduli (GPa) = 66.29612 135.44967 62.39161
#
# Poissons Ratio (x) = 0.08838 0.10521
# Poissons Ratio (y) = 0.04326 0.04603
# Poissons Ratio (z) = 0.11180 0.09992
#
# Static dielectric constant tensor:
#      x y z
#    x 1.902430 0.000000 0.000000 
#    y 0.000000 1.828180 0.000000 
#    z 0.000000 0.000000 1.912180 
# 
# From -- ./inp_files/21941.got.cif
#   From: 2010.05.17/outbox.cif.g08.bks.cpg/sg52_11_cif.got.tgz:21941.got - 2010.06.03 12:15:38.
