data_PCOD9408081
_publ_section_title
;
Structure prediction by ZEFSAII (Michael W. Deem and Ramdas Pophale) SiO2 
 PCOD9408081
Probable space group: P N N A
;
_chemical_formula_sum "Si O2"
_cell_formula_units_Z 48
_cell_length_a 12.257094
_cell_length_b 18.476968
_cell_length_c 11.339647
_cell_angle_alpha 90.000000
_cell_angle_beta 90.000000
_cell_angle_gamma 90.000000
_cell_volume 2568.134462
_symmetry_space_group_name_H-M "P N N A"
_symmetry_group_IT_number 52
_symmetry_cell_setting 'orthorhombic'
loop_
_space_group_symop_operation_xyz
x,y,z
1/2-x,-y,z
x,1/2-y,1/2-z
1/2-x,1/2+y,1/2-z
-x,-y,-z
1/2+x,y,-z
-x,1/2+y,1/2+z
1/2+x,1/2-y,1/2+z
loop_
_atom_site_type_symbol
_atom_site_label
_atom_site_fract_x
_atom_site_fract_y
_atom_site_fract_z
Si Si1 0.646751 0.547783 0.911592
Si Si2 0.598187 0.381837 0.328864
Si Si3 0.993286 0.534304 0.742190
Si Si4 0.628047 0.829633 0.779996
Si Si5 0.702167 0.079470 0.928646
Si Si6 0.208397 0.919387 0.680393
O O1 0.750000 0.500000 0.871402
O O2 0.548094 0.494268 0.871188
O O3 0.630869 0.619132 0.834583
O O4 0.676737 0.573750 0.042961
O O5 0.539505 0.460733 0.316195
O O6 0.497407 0.327264 0.322012
O O7 0.657438 0.383850 0.453654
O O8 0.689981 0.372409 0.226458
O O9 0.895123 0.565841 0.665294
O O10 0.093394 0.589756 0.753892
O O11 0.668561 0.750000 0.750000
O O12 0.704064 0.871183 0.872558
O O13 0.750000 0.000000 0.957075
O O14 0.250000 0.000000 0.711885
#
# Coordination Sequence:
#
# PCOD9408081 Si02
#       6
#     8   8   8   8   8   8
#     4  10  17  36  59  87 116 153 194 246 291 351
#     4  10  22  36  59  89 121 153 194 250 301 351
#     4  10  17  32  57  96 119 147 188 252 298 343
#     4  11  24  43  57  82 120 163 198 242 308 359
#     4  12  20  37  65  91 119 153 205 253 301 355
#     4   9  19  31  55  91 119 144 191 239 295 346
#
# _framework density 18.69061
#
# number of rings (size 3 to 8) (size 9 to 14) (size 15 to 20)
#    0.000    1.667    5.000    2.500    2.333    1.333 
#    3.000    0.000    0.000    1.000    0.000    0.000 
#    0.000    0.000    0.000    0.000    0.000    0.000 
#
# Total GULP energy -267389.059960 kJ/mol
# GULP energy per Si atom -5570.605416 kJ/mol
# Density = 1.864807 g / cm^3
# Si number density = 18.690610 Si / 1000 Ang^3
#
#
#
# Elastic Constant Matrix: (Units=GPa)
#
#
# Indices 1 2 3 4 5 6 
#
# 1 101.1158 12.7711 57.2948 0.0000 0.0000 0.0000
# 2 12.7711 48.9438 4.7953 0.0000 0.0000 0.0000
# 3 57.2948 4.7953 83.3774 0.0000 0.0000 0.0000
# 4 0.0000 0.0000 0.0000 2.0173 0.0000 0.0000
# 5 0.0000 0.0000 0.0000 0.0000 -9.4304 0.0000
# 6 0.0000 0.0000 0.0000 0.0000 0.0000 6.0550
#
#
#
# Elastic Compliance Matrix: (Units=1/GPa)
#
#
# Indices 1 2 3 4 5 6 
#
# 1 0.016695 -0.003251 -0.011285 0.000000 0.000000 0.000000
# 2 -0.003251 0.021180 0.001016 0.000000 0.000000 0.000000
# 3 -0.011285 0.001016 0.019690 0.000000 0.000000 0.000000
# 4 0.000000 0.000000 0.000000 0.495700 0.000000 0.000000
# 5 0.000000 0.000000 0.000000 0.000000 -0.106041 0.000000
# 6 0.000000 0.000000 0.000000 0.000000 0.000000 0.165152
#
#
# Mechanical properties :
#
#
# Convention : Reuss Voigt Hill
#
# Bulk Modulus (GPa) = 32.76038 42.57327 37.66682
# Shear Modulus (GPa) = 7.69714 10.30013 8.99863
#
# Velocity S-wave (km/s) = 2.03153 2.35007 2.19658
# Velocity P-wave (km/s) = 4.80298 5.49464 5.16041
#
# Compressibility (1/GPa) = 0.03052468
#
# Stress axis : x y z
#
# Youngs Moduli (GPa) = 59.89935 47.21380 50.78688
#
# Poissons Ratio (x) = 0.15347 0.57314
# Poissons Ratio (y) = 0.19470 -0.05158
# Poissons Ratio (z) = 0.67598 -0.04795
#
# Static dielectric constant tensor:
#      x y z
#    x 1.706100 0.000000 0.000000 
#    y 0.000000 1.620370 0.000000 
#    z 0.000000 0.000000 1.677910 
# 
# From -- ./inp_files/18189.got.cif
#   From: 2010.05.17/outbox.cif.g08.bks.cpg/sg52_10_cif.got.tgz:18189.got - 2010.06.03 12:15:38.
