data_PCOD9408315
_publ_section_title
;
Structure prediction by ZEFSAII (Michael W. Deem and Ramdas Pophale) SiO2 
 PCOD9408315
Probable space group: P N N A
;
_chemical_formula_sum "Si O2"
_cell_formula_units_Z 64
_cell_length_a 8.522147
_cell_length_b 21.873580
_cell_length_c 20.518514
_cell_angle_alpha 90.000000
_cell_angle_beta 90.000000
_cell_angle_gamma 90.000000
_cell_volume 3824.853408
_symmetry_space_group_name_H-M "P N N A"
_symmetry_group_IT_number 52
_symmetry_cell_setting 'orthorhombic'
loop_
_space_group_symop_operation_xyz
x,y,z
1/2-x,-y,z
x,1/2-y,1/2-z
1/2-x,1/2+y,1/2-z
-x,-y,-z
1/2+x,y,-z
-x,1/2+y,1/2+z
1/2+x,1/2-y,1/2+z
loop_
_atom_site_type_symbol
_atom_site_label
_atom_site_fract_x
_atom_site_fract_y
_atom_site_fract_z
Si Si1 0.601969 0.912556 0.039167
Si Si2 0.430532 0.717274 0.442034
Si Si3 0.913960 0.475699 0.600479
Si Si4 0.871837 0.622155 0.369150
Si Si5 0.478856 0.703890 0.188558
Si Si6 0.205229 0.176341 0.740556
Si Si7 0.429861 0.266480 0.426615
Si Si8 0.631340 0.808083 0.700090
O O1 0.511830 0.848829 0.050594
O O2 0.771330 0.903172 0.070893
O O3 0.514963 0.966561 0.077509
O O4 0.616379 0.934963 0.964824
O O5 0.473704 0.754789 0.376905
O O6 0.243735 0.709274 0.442680
O O7 0.486433 0.752607 0.506777
O O8 0.750000 0.500000 0.626343
O O9 0.008686 0.431768 0.648284
O O10 0.765004 0.643721 0.309530
O O11 0.967263 0.680917 0.393095
O O12 0.482836 0.750000 0.250000
O O13 0.643782 0.667730 0.194197
O O14 0.311882 0.668447 0.196369
O O15 0.192032 0.250000 0.750000
O O16 0.027669 0.156821 0.720773
O O17 0.407261 0.215426 0.372267
O O18 0.641668 0.750000 0.750000
#
# Coordination Sequence:
#
# PCOD9408315 Si02
#       8
#     8   8   8   8   8   8   8   8
#     4  11  21  33  49  63  90 128 171 217 256 291
#     4  11  22  31  49  72  96 129 171 214 252 297
#     4  11  23  36  45  64  93 130 169 217 261 291
#     4  12  21  34  50  68  90 126 173 212 260 296
#     4   9  19  32  47  69  93 122 160 207 252 306
#     4  10  18  32  52  69  90 118 155 215 247 307
#     4  11  21  31  45  72  97 125 166 214 249 296
#     4   9  17  32  47  65  97 121 153 206 245 306
#
# _framework density 16.732666999999999
#
# number of rings (size 3 to 8) (size 9 to 14) (size 15 to 20)
#    0.000    1.500    3.750    4.875    1.750    0.000 
#    2.250    0.000    0.000    0.000    0.000    0.000 
#    0.000    0.000    0.000    0.000    0.000   17.500 
#
# Total GULP energy -356770.386999 kJ/mol
# GULP energy per Si atom -5574.537297 kJ/mol
# Density = 1.669458 g / cm^3
# Si number density = 16.732667 Si / 1000 Ang^3
#
#
#
# Elastic Constant Matrix: (Units=GPa)
#
#
# Indices 1 2 3 4 5 6 
#
# 1 115.2402 12.0327 15.0865 0.0000 0.0000 0.0000
# 2 12.0327 17.5788 13.3986 0.0000 0.0000 0.0000
# 3 15.0865 13.3986 71.9836 0.0000 0.0000 0.0000
# 4 0.0000 0.0000 0.0000 5.2029 0.0000 0.0000
# 5 0.0000 0.0000 0.0000 0.0000 25.6700 0.0000
# 6 0.0000 0.0000 0.0000 0.0000 0.0000 18.8136
#
#
#
# Elastic Compliance Matrix: (Units=1/GPa)
#
#
# Indices 1 2 3 4 5 6 
#
# 1 0.009395 -0.005745 -0.000900 0.000000 0.000000 0.000000
# 2 -0.005745 0.069805 -0.011789 0.000000 0.000000 0.000000
# 3 -0.000900 -0.011789 0.016275 0.000000 0.000000 0.000000
# 4 0.000000 0.000000 0.000000 0.192201 0.000000 0.000000
# 5 0.000000 0.000000 0.000000 0.000000 0.038956 0.000000
# 6 0.000000 0.000000 0.000000 0.000000 0.000000 0.053153
#
#
# Mechanical properties :
#
#
# Convention : Reuss Voigt Hill
#
# Bulk Modulus (GPa) = 17.06278 31.75979 24.41129
# Shear Modulus (GPa) = 11.46294 20.88961 16.17628
#
# Velocity S-wave (km/s) = 2.62021 3.53715 3.11263
# Velocity P-wave (km/s) = 4.40153 5.97527 5.24773
#
# Compressibility (1/GPa) = 0.05860709
#
# Stress axis : x y z
#
# Youngs Moduli (GPa) = 106.43742 14.32568 61.44416
#
# Poissons Ratio (x) = 0.08230 0.05528
# Poissons Ratio (y) = 0.61151 0.72436
# Poissons Ratio (z) = 0.09576 0.16889
#
# Static dielectric constant tensor:
#      x y z
#    x 1.660030 0.000000 0.000000 
#    y 0.000000 1.547810 0.000000 
#    z 0.000000 0.000000 1.585960 
# 
# From -- ./inp_files/31680.got.cif
#   From: 2010.05.17/outbox.cif.g08.bks.cpg/sg52_16_cif.got.tgz:31680.got - 2010.06.03 12:15:38.
