data_PCOD9408157
_publ_section_title
;
Structure prediction by ZEFSAII (Michael W. Deem and Ramdas Pophale) SiO2 
 PCOD9408157
Probable space group: P N N A
;
_chemical_formula_sum "Si O2"
_cell_formula_units_Z 60
_cell_length_a 19.041167
_cell_length_b 12.682879
_cell_length_c 13.645213
_cell_angle_alpha 90.000000
_cell_angle_beta 90.000000
_cell_angle_gamma 90.000000
_cell_volume 3295.275508
_symmetry_space_group_name_H-M "P N N A"
_symmetry_group_IT_number 52
_symmetry_cell_setting 'orthorhombic'
loop_
_space_group_symop_operation_xyz
x,y,z
1/2-x,-y,z
x,1/2-y,1/2-z
1/2-x,1/2+y,1/2-z
-x,-y,-z
1/2+x,y,-z
-x,1/2+y,1/2+z
1/2+x,1/2-y,1/2+z
loop_
_atom_site_type_symbol
_atom_site_label
_atom_site_fract_x
_atom_site_fract_y
_atom_site_fract_z
Si Si1 0.396322 0.393397 0.499015
Si Si2 0.939025 0.917224 0.710637
Si Si3 0.017840 0.220227 0.100764
Si Si4 0.102622 0.369197 0.575857
Si Si5 0.475105 0.136741 0.207463
Si Si6 0.713535 0.343718 0.822874
Si Si7 0.250000 0.500000 0.316486
Si Si8 0.735296 0.167881 0.973391
O O1 0.441291 0.317259 0.568482
O O2 0.406553 0.510363 0.540871
O O3 0.429505 0.386457 0.390418
O O4 0.315263 0.361664 0.494475
O O5 0.952062 0.857665 0.814899
O O6 0.979906 0.839696 0.637331
O O7 0.857866 0.911002 0.676528
O O8 0.963412 0.037000 0.722158
O O9 0.066965 0.204026 0.006738
O O10 0.056424 0.357136 0.672760
O O11 0.184656 0.342427 0.566493
O O12 0.454323 0.250000 0.250000
O O13 0.694313 0.250000 0.750000
O O14 0.772343 0.410080 0.762994
O O15 0.731966 0.282693 0.922089
O O16 0.289829 0.577328 0.393576
#
# Coordination Sequence:
#
# PCOD9408157 Si02
#       8
#     8   8   8   8   8   8   4   8
#     4  11  20  35  55  86 115 143 189 241 281 336
#     4  11  17  33  58  83 111 142 191 228 285 337
#     4  10  18  31  58  84 106 146 188 233 277 336
#     4  11  18  38  56  83 113 154 194 231 283 347
#     4  11  24  37  59  85 115 146 195 250 288 329
#     4  10  19  29  49  80 117 145 174 218 286 350
#     4  10  18  28  46  82 112 140 176 220 272 342
#     4  11  20  32  56  81 113 152 185 227 286 344
#
# _framework density 18.207885000000001
#
# number of rings (size 3 to 8) (size 9 to 14) (size 15 to 20)
#    0.000    1.333    6.667    2.400    0.000    2.667 
#    0.000    2.667    5.867    0.000    0.000    0.000 
#    0.000    0.000    0.000    0.000    0.000    0.000 
#
# Total GULP energy -334074.431585 kJ/mol
# GULP energy per Si atom -5567.907193 kJ/mol
# Density = 1.816644 g / cm^3
# Si number density = 18.207885 Si / 1000 Ang^3
#
#
#
# Elastic Constant Matrix: (Units=GPa)
#
#
# Indices 1 2 3 4 5 6 
#
# 1 88.5903 22.0694 13.2910 0.0000 0.0000 0.0000
# 2 22.0694 119.3287 30.8617 0.0000 0.0000 0.0000
# 3 13.2910 30.8617 22.8209 0.0000 0.0000 0.0000
# 4 0.0000 0.0000 0.0000 26.1603 0.0000 0.0000
# 5 0.0000 0.0000 0.0000 0.0000 14.8056 0.0000
# 6 0.0000 0.0000 0.0000 0.0000 0.0000 12.8143
#
#
#
# Elastic Compliance Matrix: (Units=1/GPa)
#
#
# Indices 1 2 3 4 5 6 
#
# 1 0.012402 -0.000655 -0.006338 0.000000 0.000000 0.000000
# 2 -0.000655 0.012922 -0.017094 0.000000 0.000000 0.000000
# 3 -0.006338 -0.017094 0.070628 0.000000 0.000000 0.000000
# 4 0.000000 0.000000 0.000000 0.038226 0.000000 0.000000
# 5 0.000000 0.000000 0.000000 0.000000 0.067542 0.000000
# 6 0.000000 0.000000 0.000000 0.000000 0.000000 0.078038
#
#
# Mechanical properties :
#
#
# Convention : Reuss Voigt Hill
#
# Bulk Modulus (GPa) = 20.92967 40.35378 30.64173
# Shear Modulus (GPa) = 14.54095 21.72389 18.13242
#
# Velocity S-wave (km/s) = 2.82903 3.45788 3.15914
# Velocity P-wave (km/s) = 4.71073 6.17685 5.49293
#
# Compressibility (1/GPa) = 0.04777905
#
# Stress axis : x y z
#
# Youngs Moduli (GPa) = 80.63339 77.38565 14.15876
#
# Poissons Ratio (x) = 0.05066 0.08973
# Poissons Ratio (y) = 0.05278 0.24203
# Poissons Ratio (z) = 0.51103 1.32284
#
# Static dielectric constant tensor:
#      x y z
#    x 1.705060 0.000000 0.000000 
#    y 0.000000 1.650960 0.000000 
#    z 0.000000 0.000000 1.638900 
# 
# From -- ./inp_files/28918.got.cif
#   From: 2010.05.17/outbox.cif.g08.bks.cpg/sg52_15_cif.got.tgz:28918.got - 2010.06.03 12:15:38.
