data_PCOD9408839
_publ_section_title
;
Structure prediction by ZEFSAII (Michael W. Deem and Ramdas Pophale) SiO2 
 PCOD9408839
Probable space group: P N N A
;
_chemical_formula_sum "Si O2"
_cell_formula_units_Z 48
_cell_length_a 8.036294
_cell_length_b 17.778032
_cell_length_c 20.688533
_cell_angle_alpha 90.000000
_cell_angle_beta 90.000000
_cell_angle_gamma 90.000000
_cell_volume 2955.760198
_symmetry_space_group_name_H-M "P N N A"
_symmetry_group_IT_number 52
_symmetry_cell_setting 'orthorhombic'
loop_
_space_group_symop_operation_xyz
x,y,z
1/2-x,-y,z
x,1/2-y,1/2-z
1/2-x,1/2+y,1/2-z
-x,-y,-z
1/2+x,y,-z
-x,1/2+y,1/2+z
1/2+x,1/2-y,1/2+z
loop_
_atom_site_type_symbol
_atom_site_label
_atom_site_fract_x
_atom_site_fract_y
_atom_site_fract_z
Si Si1 0.937654 0.278959 0.927178
Si Si2 0.937448 0.810119 0.192174
Si Si3 0.437654 0.778959 0.427178
Si Si4 0.750000 0.087719 0.777893
Si Si5 0.062552 0.689881 0.692174
Si Si6 0.750000 0.587140 0.877765
O O1 0.750000 0.246443 0.923776
O O2 0.906816 0.365461 0.905104
O O3 0.045422 0.234975 0.874994
O O4 0.000000 0.275192 1.000000
O O5 0.963456 0.750000 0.250000
O O6 0.750000 0.840974 0.198538
O O7 0.084241 0.870597 0.197486
O O8 0.545422 0.734975 0.374994
O O9 0.406815 0.865461 0.405104
O O10 0.584241 0.129403 0.802514
O O11 0.750000 0.093546 0.699692
O O12 0.750000 0.000000 0.795307
O O13 0.036544 0.750000 0.750000
O O14 0.750000 0.500000 0.895926
#
# Coordination Sequence:
#
# PCOD9408839 Si02
#       6
#     8   8   8   8   8   8
#     4  10  19  33  54  78 111 144 195 226 277 322
#     4  11  20  35  59  83 110 144 189 238 274 324
#     4  10  19  33  54  78 111 144 195 226 277 322
#     4  11  20  38  60  82 116 148 179 232 287 333
#     4  11  20  35  59  83 110 144 189 238 274 324
#     4   9  19  33  53  77 119 156 180 222 280 335
#
# _framework density 16.239476
#
# number of rings (size 3 to 8) (size 9 to 14) (size 15 to 20)
#    1.000    0.667    5.000    1.500    0.000    1.333 
#    0.000    0.000    0.000    1.000    0.000    0.000 
#    0.000    0.000    0.000    0.000    0.000    0.000 
#
# Total GULP energy -267279.555900 kJ/mol
# GULP energy per Si atom -5568.324081 kJ/mol
# Density = 1.620251 g / cm^3
# Si number density = 16.239476 Si / 1000 Ang^3
#
#
#
# Elastic Constant Matrix: (Units=GPa)
#
#
# Indices 1 2 3 4 5 6 
#
# 1 120.2465 67.4337 24.3865 0.0000 0.0000 0.0000
# 2 67.4337 96.0841 51.7768 0.0000 0.0000 0.0000
# 3 24.3865 51.7768 106.9154 0.0000 0.0000 0.0000
# 4 0.0000 0.0000 0.0000 16.4227 0.0000 0.0000
# 5 0.0000 0.0000 0.0000 0.0000 30.0949 0.0000
# 6 0.0000 0.0000 0.0000 0.0000 0.0000 3.2374
#
#
#
# Elastic Compliance Matrix: (Units=1/GPa)
#
#
# Indices 1 2 3 4 5 6 
#
# 1 0.014062 -0.011015 0.002127 0.000000 0.000000 0.000000
# 2 -0.011015 0.022711 -0.008486 0.000000 0.000000 0.000000
# 3 0.002127 -0.008486 0.012978 0.000000 0.000000 0.000000
# 4 0.000000 0.000000 0.000000 0.060892 0.000000 0.000000
# 5 0.000000 0.000000 0.000000 0.000000 0.033228 0.000000
# 6 0.000000 0.000000 0.000000 0.000000 0.000000 0.308892
#
#
# Mechanical properties :
#
#
# Convention : Reuss Voigt Hill
#
# Bulk Modulus (GPa) = 66.65621 67.82667 67.24144
# Shear Modulus (GPa) = 10.15203 21.92759 16.03981
#
# Velocity S-wave (km/s) = 2.50300 3.67858 3.14619
# Velocity P-wave (km/s) = 7.03479 7.73950 7.39554
#
# Compressibility (1/GPa) = 0.01500235
#
# Stress axis : x y z
#
# Youngs Moduli (GPa) = 71.11247 44.03118 77.05562
#
# Poissons Ratio (x) = 0.48502 -0.16390
# Poissons Ratio (y) = 0.78333 0.65390
# Poissons Ratio (z) = -0.15126 0.37365
#
# Static dielectric constant tensor:
#      x y z
#    x 1.564650 0.000000 0.000000 
#    y 0.000000 1.523620 0.000000 
#    z 0.000000 0.000000 1.531360 
# 
# From -- ./inp_files/36105.got.cif
#   From: 2010.05.17/outbox.cif.g08.bks.cpg/sg52_19_cif.got.tgz:36105.got - 2010.06.03 12:15:38.
