data_PCOD9408910
_publ_section_title
;
Structure prediction by ZEFSAII (Michael W. Deem and Ramdas Pophale) SiO2 
 PCOD9408910
Probable space group: P N N A
;
_chemical_formula_sum "Si O2"
_cell_formula_units_Z 40
_cell_length_a 5.048068
_cell_length_b 12.896219
_cell_length_c 24.717286
_cell_angle_alpha 90.000000
_cell_angle_beta 90.000000
_cell_angle_gamma 90.000000
_cell_volume 1609.119800
_symmetry_space_group_name_H-M "P N N A"
_symmetry_group_IT_number 52
_symmetry_cell_setting 'orthorhombic'
loop_
_space_group_symop_operation_xyz
x,y,z
1/2-x,-y,z
x,1/2-y,1/2-z
1/2-x,1/2+y,1/2-z
-x,-y,-z
1/2+x,y,-z
-x,1/2+y,1/2+z
1/2+x,1/2-y,1/2+z
loop_
_atom_site_type_symbol
_atom_site_label
_atom_site_fract_x
_atom_site_fract_y
_atom_site_fract_z
Si Si1 0.989036 0.569019 0.937659
Si Si2 0.317781 0.172347 0.842506
Si Si3 0.894012 0.196425 0.032846
Si Si4 0.826360 0.139769 0.777830
Si Si5 0.948954 0.403811 0.180233
O O1 0.750000 0.500000 0.961732
O O2 0.250000 0.500000 0.929910
O O3 0.070410 0.677509 0.964383
O O4 0.895594 0.596266 0.876703
O O5 0.298047 0.164505 0.907270
O O6 0.616104 0.144397 0.826490
O O7 0.295812 0.294003 0.824518
O O8 0.102507 0.111076 0.806458
O O9 0.680838 0.162680 0.988174
O O10 0.874162 0.250000 0.750000
O O11 0.647259 0.092368 0.730074
O O12 0.750000 0.500000 0.184521
#
# Coordination Sequence:
#
# PCOD9408910 Si02
#       5
#     8   8   8   8   8
#     4  10  21  34  49  74 109 144 180 222 267 316
#     4  10  21  36  52  76 110 144 181 226 276 325
#     4  11  22  35  52  72  99 140 190 236 268 309
#     4  10  19  34  54  76 107 145 177 215 277 336
#     4   9  20  35  56  82 111 146 185 222 267 331
#
# _framework density 24.858311
#
# number of rings (size 3 to 8) (size 9 to 14) (size 15 to 20)
#    0.000    2.000    0.000    4.200    0.000   18.400 
#    0.000    0.000    0.000    0.000    0.000    0.000 
#    0.000   16.000    0.000    0.000    0.000    0.000 
#
# Total GULP energy -223510.788196 kJ/mol
# GULP energy per Si atom -5587.769705 kJ/mol
# Density = 2.480173 g / cm^3
# Si number density = 24.858311 Si / 1000 Ang^3
#
#
#
# Elastic Constant Matrix: (Units=GPa)
#
#
# Indices 1 2 3 4 5 6 
#
# 1 140.1928 6.2926 43.3139 0.0000 0.0000 0.0000
# 2 6.2926 20.6588 17.4736 0.0000 0.0000 0.0000
# 3 43.3139 17.4736 162.5881 0.0000 0.0000 0.0000
# 4 0.0000 0.0000 0.0000 43.4326 0.0000 0.0000
# 5 0.0000 0.0000 0.0000 0.0000 4.1731 0.0000
# 6 0.0000 0.0000 0.0000 0.0000 0.0000 25.6646
#
#
#
# Elastic Compliance Matrix: (Units=1/GPa)
#
#
# Indices 1 2 3 4 5 6 
#
# 1 0.007781 -0.000679 -0.002000 0.000000 0.000000 0.000000
# 2 -0.000679 0.053305 -0.005548 0.000000 0.000000 0.000000
# 3 -0.002000 -0.005548 0.007280 0.000000 0.000000 0.000000
# 4 0.000000 0.000000 0.000000 0.023024 0.000000 0.000000
# 5 0.000000 0.000000 0.000000 0.000000 0.239631 0.000000
# 6 0.000000 0.000000 0.000000 0.000000 0.000000 0.038964
#
#
# Mechanical properties :
#
#
# Convention : Reuss Voigt Hill
#
# Bulk Modulus (GPa) = 19.26315 50.84443 35.05379
# Shear Modulus (GPa) = 12.38412 31.74470 22.06441
#
# Velocity S-wave (km/s) = 2.23443 3.57743 2.98251
# Velocity P-wave (km/s) = 3.79775 6.12879 5.09828
#
# Compressibility (1/GPa) = 0.05191260
#
# Stress axis : x y z
#
# Youngs Moduli (GPa) = 128.51110 18.76007 137.37047
#
# Poissons Ratio (x) = 0.01273 0.27475
# Poissons Ratio (y) = 0.08720 0.76213
# Poissons Ratio (z) = 0.25703 0.10408
#
# Static dielectric constant tensor:
#      x y z
#    x 1.959850 0.000000 0.000000 
#    y 0.000000 2.025610 0.000000 
#    z 0.000000 0.000000 1.981760 
# 
# From -- ./inp_files/38658.got.cif
#   From: 2010.05.17/outbox.cif.g08.bks.cpg/sg52_20_cif.got.tgz:38658.got - 2010.06.03 12:15:38.
