data_PCOD9408188
_publ_section_title
;
Structure prediction by ZEFSAII (Michael W. Deem and Ramdas Pophale) SiO2 
 PCOD9408188
Probable space group: P N N A
;
_chemical_formula_sum "Si O2"
_cell_formula_units_Z 44
_cell_length_a 5.236980
_cell_length_b 20.406950
_cell_length_c 20.363877
_cell_angle_alpha 90.000000
_cell_angle_beta 90.000000
_cell_angle_gamma 90.000000
_cell_volume 2176.303602
_symmetry_space_group_name_H-M "P N N A"
_symmetry_group_IT_number 52
_symmetry_cell_setting 'orthorhombic'
loop_
_space_group_symop_operation_xyz
x,y,z
1/2-x,-y,z
x,1/2-y,1/2-z
1/2-x,1/2+y,1/2-z
-x,-y,-z
1/2+x,y,-z
-x,1/2+y,1/2+z
1/2+x,1/2-y,1/2+z
loop_
_atom_site_type_symbol
_atom_site_label
_atom_site_fract_x
_atom_site_fract_y
_atom_site_fract_z
Si Si1 0.991009 0.730879 0.458097
Si Si2 0.971689 0.424935 0.815872
Si Si3 0.438756 0.086974 0.044579
Si Si4 0.250000 0.500000 0.640077
Si Si5 0.970556 0.427574 0.240569
Si Si6 0.903363 0.374151 0.955129
O O1 0.695885 0.731120 0.481193
O O2 0.040270 0.660477 0.426164
O O3 0.061649 0.800174 0.426331
O O4 0.741872 0.395724 0.772816
O O5 0.999636 0.500403 0.793120
O O6 0.240689 0.392846 0.797112
O O7 0.918335 0.420803 0.892673
O O8 0.532746 0.034849 0.097406
O O9 0.159117 0.081035 0.012196
O O10 0.115734 0.554435 0.686242
O O11 0.139167 0.382037 0.005576
#
# Coordination Sequence:
#
# PCOD9408188 Si02
#       6
#     8   8   8   4   8   8
#     4   8  16  30  45  69 101 128 151 185 240 292
#     4   9  17  33  47  67  94 126 162 199 241 279
#     4  10  20  32  50  78 107 125 153 205 249 291
#     4  10  20  34  54  74  96 136 172 192 244 308
#     4   9  20  33  47  64  94 131 163 200 236 280
#     4  10  18  29  50  74  96 127 162 196 245 302
#
# _framework density 20.217769000000001
#
# number of rings (size 3 to 8) (size 9 to 14) (size 15 to 20)
#    0.000    2.909    0.000    1.636    0.000    5.818 
#    0.000   10.909    0.000    4.364    0.000   10.182 
#    0.000    0.000    0.000    0.000    0.000    0.000 
#
# Total GULP energy -245027.862607 kJ/mol
# GULP energy per Si atom -5568.815059 kJ/mol
# Density = 2.017175 g / cm^3
# Si number density = 20.217769 Si / 1000 Ang^3
#
#
#
# Elastic Constant Matrix: (Units=GPa)
#
#
# Indices 1 2 3 4 5 6 
#
# 1 142.2401 -4.2255 10.0108 0.0000 0.0000 0.0000
# 2 -4.2255 28.4963 16.8227 0.0000 0.0000 0.0000
# 3 10.0108 16.8227 54.6009 0.0000 0.0000 0.0000
# 4 0.0000 0.0000 0.0000 -6.1239 0.0000 0.0000
# 5 0.0000 0.0000 0.0000 0.0000 13.1472 0.0000
# 6 0.0000 0.0000 0.0000 0.0000 0.0000 14.4846
#
#
#
# Elastic Compliance Matrix: (Units=1/GPa)
#
#
# Indices 1 2 3 4 5 6 
#
# 1 0.007240 0.002270 -0.002027 0.000000 0.000000 0.000000
# 2 0.002270 0.043606 -0.013851 0.000000 0.000000 0.000000
# 3 -0.002027 -0.013851 0.022954 0.000000 0.000000 0.000000
# 4 0.000000 0.000000 0.000000 -0.163295 0.000000 0.000000
# 5 0.000000 0.000000 0.000000 0.000000 0.076062 0.000000
# 6 0.000000 0.000000 0.000000 0.000000 0.000000 0.069039
#
#
# Mechanical properties :
#
#
# Convention : Reuss Voigt Hill
#
# Bulk Modulus (GPa) = 21.46646 30.06148 25.76397
# Shear Modulus (GPa) = 50.83840 17.81686 34.32763
#
# Velocity S-wave (km/s) = 5.01996 2.97180 4.12502
# Velocity P-wave (km/s) = 6.65137 5.16494 5.95471
#
# Compressibility (1/GPa) = 0.04658429
#
# Stress axis : x y z
#
# Youngs Moduli (GPa) = 138.11265 22.93261 43.56544
#
# Poissons Ratio (x) = -0.05206 0.08831
# Poissons Ratio (y) = -0.31355 0.60344
# Poissons Ratio (z) = 0.27995 0.31765
#
# Static dielectric constant tensor:
#      x y z
#    x 1.838300 0.000000 0.000000 
#    y 0.000000 1.729800 0.000000 
#    z 0.000000 0.000000 1.696930 
# 
# From -- ./inp_files/30249.got.cif
#   From: 2010.05.17/outbox.cif.g08.bks.cpg/sg52_16_cif.got.tgz:30249.got - 2010.06.03 12:15:38.
