data_PCOD9408020
_publ_section_title
;
Structure prediction by ZEFSAII (Michael W. Deem and Ramdas Pophale) SiO2 
 PCOD9408020
Probable space group: P N N A
;
_chemical_formula_sum "Si O2"
_cell_formula_units_Z 28
_cell_length_a 8.747867
_cell_length_b 7.745698
_cell_length_c 16.125540
_cell_angle_alpha 90.000000
_cell_angle_beta 90.000000
_cell_angle_gamma 90.000000
_cell_volume 1092.639756
_symmetry_space_group_name_H-M "P N N A"
_symmetry_group_IT_number 52
_symmetry_cell_setting 'orthorhombic'
loop_
_space_group_symop_operation_xyz
x,y,z
1/2-x,-y,z
x,1/2-y,1/2-z
1/2-x,1/2+y,1/2-z
-x,-y,-z
1/2+x,y,-z
-x,1/2+y,1/2+z
1/2+x,1/2-y,1/2+z
loop_
_atom_site_type_symbol
_atom_site_label
_atom_site_fract_x
_atom_site_fract_y
_atom_site_fract_z
Si Si1 0.947195 0.597302 0.396793
Si Si2 0.258744 0.222199 0.462641
Si Si3 0.255829 0.250000 0.750000
Si Si4 0.040979 0.682148 0.888544
O O1 0.116067 0.674423 0.409094
O O2 0.849239 0.659602 0.477028
O O3 0.855057 0.670886 0.319086
O O4 0.953191 0.391770 0.388504
O O5 0.362699 0.125102 0.531265
O O6 0.134440 0.133939 0.402548
O O7 0.373285 0.368121 0.804485
#
# Coordination Sequence:
#
# PCOD9408020 Si02
#       4
#     8   8   4   8
#     4  10  17  29  46  68  90 114 142 179 219 259
#     4   9  16  28  49  68  87 110 144 184 222 255
#     4  10  20  26  38  66  96 120 140 170 220 260
#     4  10  17  29  46  68  90 114 142 179 219 259
#
# _framework density 25.626011999999999
#
# number of rings (size 3 to 8) (size 9 to 14) (size 15 to 20)
#    0.000    2.286    0.000    9.429    0.000    1.143 
#    0.000    0.000    0.000    0.000    0.000  128.000 
#    0.000    0.000    0.000    0.000    0.000    0.000 
#
# Total GULP energy -156672.088253 kJ/mol
# GULP energy per Si atom -5595.431723 kJ/mol
# Density = 2.556769 g / cm^3
# Si number density = 25.626012 Si / 1000 Ang^3
#
#
#
# Elastic Constant Matrix: (Units=GPa)
#
#
# Indices 1 2 3 4 5 6 
#
# 1 264.4920 48.8989 98.6082 0.0000 0.0000 0.0000
# 2 48.8989 62.0423 29.4368 0.0000 0.0000 0.0000
# 3 98.6082 29.4368 180.6372 0.0000 0.0000 0.0000
# 4 0.0000 0.0000 0.0000 36.2684 0.0000 0.0000
# 5 0.0000 0.0000 0.0000 0.0000 56.4481 0.0000
# 6 0.0000 0.0000 0.0000 0.0000 0.0000 48.3696
#
#
#
# Elastic Compliance Matrix: (Units=1/GPa)
#
#
# Indices 1 2 3 4 5 6 
#
# 1 0.005213 -0.002989 -0.002358 0.000000 0.000000 0.000000
# 2 -0.002989 0.019183 -0.001494 0.000000 0.000000 0.000000
# 3 -0.002358 -0.001494 0.007067 0.000000 0.000000 0.000000
# 4 0.000000 0.000000 0.000000 0.027572 0.000000 0.000000
# 5 0.000000 0.000000 0.000000 0.000000 0.017715 0.000000
# 6 0.000000 0.000000 0.000000 0.000000 0.000000 0.020674
#
#
# Mechanical properties :
#
#
# Convention : Reuss Voigt Hill
#
# Bulk Modulus (GPa) = 56.24726 95.67324 75.96025
# Shear Modulus (GPa) = 42.72226 50.23241 46.47733
#
# Velocity S-wave (km/s) = 4.08750 4.43223 4.26335
# Velocity P-wave (km/s) = 6.65385 7.97549 7.34446
#
# Compressibility (1/GPa) = 0.01777864
#
# Stress axis : x y z
#
# Youngs Moduli (GPa) = 191.83517 52.12907 141.50465
#
# Poissons Ratio (x) = 0.15584 0.33373
# Poissons Ratio (y) = 0.57349 0.21143
# Poissons Ratio (z) = 0.45243 0.07789
#
# Static dielectric constant tensor:
#      x y z
#    x 2.040940 0.000000 0.000000 
#    y 0.000000 2.294390 0.000000 
#    z 0.000000 0.000000 2.002090 
# 
# From -- ./inp_files/23984.got.cif
#   From: 2010.05.17/outbox.cif.g08.bks.cpg/sg52_12_cif.got.tgz:23984.got - 2010.06.03 12:15:38.
