data_PCOD9408509
_publ_section_title
;
Structure prediction by ZEFSAII (Michael W. Deem and Ramdas Pophale) SiO2 
 PCOD9408509
Probable space group: P N N A
;
_chemical_formula_sum "Si O2"
_cell_formula_units_Z 40
_cell_length_a 9.143313
_cell_length_b 19.408439
_cell_length_c 10.223045
_cell_angle_alpha 90.000000
_cell_angle_beta 90.000000
_cell_angle_gamma 90.000000
_cell_volume 1814.155319
_symmetry_space_group_name_H-M "P N N A"
_symmetry_group_IT_number 52
_symmetry_cell_setting 'orthorhombic'
loop_
_space_group_symop_operation_xyz
x,y,z
1/2-x,-y,z
x,1/2-y,1/2-z
1/2-x,1/2+y,1/2-z
-x,-y,-z
1/2+x,y,-z
-x,1/2+y,1/2+z
1/2+x,1/2-y,1/2+z
loop_
_atom_site_type_symbol
_atom_site_label
_atom_site_fract_x
_atom_site_fract_y
_atom_site_fract_z
Si Si1 0.092161 0.231182 0.391695
Si Si2 0.290321 0.284484 0.607258
Si Si3 0.818069 0.926704 0.185228
Si Si4 0.903064 0.092773 0.416722
Si Si5 0.899794 0.468059 0.806429
O O1 0.155101 0.250000 0.250000
O O2 0.963267 0.286512 0.415867
O O3 0.000911 0.160306 0.394163
O O4 0.212708 0.236503 0.501682
O O5 0.267012 0.250000 0.750000
O O6 0.226392 0.360916 0.601527
O O7 0.741771 0.911096 0.327135
O O8 0.991600 0.932249 0.204833
O O9 0.750000 0.000000 0.141628
O O10 0.866572 0.080458 0.568625
O O11 0.002396 0.030036 0.364867
O O12 0.750000 0.500000 0.754030
#
# Coordination Sequence:
#
# PCOD9408509 Si02
#       5
#     8   8   8   8   8
#     4  11  24  42  67  92 132 173 220 270 327 392
#     4  11  23  44  66  98 129 174 222 275 330 386
#     4  10  20  39  62  87 130 174 209 265 332 390
#     4  10  18  35  58  88 125 170 206 262 326 380
#     4  10  20  31  59  97 127 161 215 267 318 378
#
# _framework density 22.048829000000001
#
# number of rings (size 3 to 8) (size 9 to 14) (size 15 to 20)
#    0.000    1.600    4.000    4.200    2.800    0.800 
#    3.600    1.000    0.000    0.000    0.000    0.000 
#    0.000    0.000    0.000    0.000    0.000    0.000 
#
# Total GULP energy -223646.568496 kJ/mol
# GULP energy per Si atom -5591.164212 kJ/mol
# Density = 2.199864 g / cm^3
# Si number density = 22.048829 Si / 1000 Ang^3
#
#
#
# Elastic Constant Matrix: (Units=GPa)
#
#
# Indices 1 2 3 4 5 6 
#
# 1 67.8970 -20.3133 25.7873 0.0000 0.0000 0.0000
# 2 -20.3133 80.6071 -1.0043 0.0000 0.0000 0.0000
# 3 25.7873 -1.0043 52.2346 0.0000 0.0000 0.0000
# 4 0.0000 0.0000 0.0000 23.1409 0.0000 0.0000
# 5 0.0000 0.0000 0.0000 0.0000 17.1870 0.0000
# 6 0.0000 0.0000 0.0000 0.0000 0.0000 24.7939
#
#
#
# Elastic Compliance Matrix: (Units=1/GPa)
#
#
# Indices 1 2 3 4 5 6 
#
# 1 0.019884 0.004890 -0.009722 0.000000 0.000000 0.000000
# 2 0.004890 0.013611 -0.002152 0.000000 0.000000 0.000000
# 3 -0.009722 -0.002152 0.023903 0.000000 0.000000 0.000000
# 4 0.000000 0.000000 0.000000 0.043214 0.000000 0.000000
# 5 0.000000 0.000000 0.000000 0.000000 0.058184 0.000000
# 6 0.000000 0.000000 0.000000 0.000000 0.000000 0.040333
#
#
# Mechanical properties :
#
#
# Convention : Reuss Voigt Hill
#
# Bulk Modulus (GPa) = 23.02666 23.29757 23.16212
# Shear Modulus (GPa) = 21.97100 26.10895 24.03997
#
# Velocity S-wave (km/s) = 3.16012 3.44487 3.30556
# Velocity P-wave (km/s) = 4.87660 5.13927 5.00966
#
# Compressibility (1/GPa) = 0.04342792
#
# Stress axis : x y z
#
# Youngs Moduli (GPa) = 50.29284 73.46868 41.83632
#
# Poissons Ratio (x) = -0.35923 0.40674
# Poissons Ratio (y) = -0.24591 0.09004
# Poissons Ratio (z) = 0.48895 0.15812
#
# Static dielectric constant tensor:
#      x y z
#    x 1.780820 0.000000 0.000000 
#    y 0.000000 1.857980 0.000000 
#    z 0.000000 0.000000 1.784540 
# 
# From -- ./inp_files/16625.got.cif
#   From: 2010.05.17/outbox.cif.g08.bks.cpg/sg52_9_cif.got.tgz:16625.got - 2010.06.03 12:15:38.
