data_PCOD9408392
_publ_section_title
;
Structure prediction by ZEFSAII (Michael W. Deem and Ramdas Pophale) SiO2 
 PCOD9408392
Probable space group: P N N A
;
_chemical_formula_sum "Si O2"
_cell_formula_units_Z 44
_cell_length_a 14.587807
_cell_length_b 9.577787
_cell_length_c 15.660360
_cell_angle_alpha 90.000000
_cell_angle_beta 90.000000
_cell_angle_gamma 90.000000
_cell_volume 2188.048402
_symmetry_space_group_name_H-M "P N N A"
_symmetry_group_IT_number 52
_symmetry_cell_setting 'orthorhombic'
loop_
_space_group_symop_operation_xyz
x,y,z
1/2-x,-y,z
x,1/2-y,1/2-z
1/2-x,1/2+y,1/2-z
-x,-y,-z
1/2+x,y,-z
-x,1/2+y,1/2+z
1/2+x,1/2-y,1/2+z
loop_
_atom_site_type_symbol
_atom_site_label
_atom_site_fract_x
_atom_site_fract_y
_atom_site_fract_z
Si Si1 0.415228 0.994644 0.852300
Si Si2 0.884966 0.241253 0.438358
Si Si3 0.174229 0.208140 0.597089
Si Si4 0.359611 0.997093 0.445902
Si Si5 0.250000 0.000000 0.738137
Si Si6 0.013377 0.390951 0.201845
O O1 0.386809 0.841420 0.881042
O O2 0.429848 0.106169 0.928125
O O3 0.327227 0.058296 0.801189
O O4 0.490400 0.002124 0.778012
O O5 0.774790 0.253548 0.435639
O O6 0.926559 0.154573 0.357774
O O7 0.899343 0.144648 0.520865
O O8 0.129616 0.110866 0.524883
O O9 0.199881 0.113449 0.679028
O O10 0.412098 0.946645 0.363218
O O11 0.250000 0.000000 0.431884
O O12 0.042489 0.250000 0.250000
#
# Coordination Sequence:
#
# PCOD9408392 Si02
#       6
#     8   8   8   8   4   8
#     4  11  21  30  57  90 129 150 192 249 317 375
#     4  10  18  33  54  86 119 153 190 250 312 370
#     4  11  19  32  54  91 122 160 193 243 313 371
#     4  10  21  38  63  84 118 164 215 251 305 367
#     4  12  18  28  52  90 130 148 182 234 314 382
#     4  10  21  37  59  88 121 164 209 256 304 365
#
# _framework density 20.109244
#
# number of rings (size 3 to 8) (size 9 to 14) (size 15 to 20)
#    0.000    1.455    6.364    1.091    0.000    0.000 
#    0.000    3.636    0.000   17.455    0.000    0.000 
#    0.000    0.000    0.000    0.000    0.000    0.000 
#
# Total GULP energy -245589.921225 kJ/mol
# GULP energy per Si atom -5581.589119 kJ/mol
# Density = 2.006347 g / cm^3
# Si number density = 20.109244 Si / 1000 Ang^3
#
#
#
# Elastic Constant Matrix: (Units=GPa)
#
#
# Indices 1 2 3 4 5 6 
#
# 1 59.0638 47.6161 45.6043 0.0000 0.0000 0.0000
# 2 47.6161 127.7352 68.1546 0.0000 0.0000 0.0000
# 3 45.6043 68.1546 101.3860 0.0000 0.0000 0.0000
# 4 0.0000 0.0000 0.0000 30.6785 0.0000 0.0000
# 5 0.0000 0.0000 0.0000 0.0000 29.3386 0.0000
# 6 0.0000 0.0000 0.0000 0.0000 0.0000 13.1506
#
#
#
# Elastic Compliance Matrix: (Units=1/GPa)
#
#
# Indices 1 2 3 4 5 6 
#
# 1 0.028539 -0.005908 -0.008865 0.000000 0.000000 0.000000
# 2 -0.005908 0.013430 -0.006371 0.000000 0.000000 0.000000
# 3 -0.008865 -0.006371 0.018134 0.000000 0.000000 0.000000
# 4 0.000000 0.000000 0.000000 0.032596 0.000000 0.000000
# 5 0.000000 0.000000 0.000000 0.000000 0.034085 0.000000
# 6 0.000000 0.000000 0.000000 0.000000 0.000000 0.076042
#
#
# Mechanical properties :
#
#
# Convention : Reuss Voigt Hill
#
# Bulk Modulus (GPa) = 56.13473 67.88165 62.00819
# Shear Modulus (GPa) = 19.91612 23.08753 21.50183
#
# Velocity S-wave (km/s) = 3.15047 3.39205 3.27349
# Velocity P-wave (km/s) = 6.41946 7.01221 6.72237
#
# Compressibility (1/GPa) = 0.01781428
#
# Stress axis : x y z
#
# Youngs Moduli (GPa) = 35.03955 74.45865 55.14649
#
# Poissons Ratio (x) = 0.43993 0.48889
# Poissons Ratio (y) = 0.20703 0.35132
# Poissons Ratio (z) = 0.31064 0.47435
#
# Static dielectric constant tensor:
#      x y z
#    x 1.742790 0.000000 0.000000 
#    y 0.000000 1.764630 0.000000 
#    z 0.000000 0.000000 1.711180 
# 
# From -- ./inp_files/32948.got.cif
#   From: 2010.05.17/outbox.cif.g08.bks.cpg/sg52_17_cif.got.tgz:32948.got - 2010.06.03 12:15:38.
