data_PCOD9408126
_publ_section_title
;
Structure prediction by ZEFSAII (Michael W. Deem and Ramdas Pophale) SiO2 
 PCOD9408126
Probable space group: P N N A
;
_chemical_formula_sum "Si O2"
_cell_formula_units_Z 52
_cell_length_a 15.446652
_cell_length_b 7.768891
_cell_length_c 20.989742
_cell_angle_alpha 90.000000
_cell_angle_beta 90.000000
_cell_angle_gamma 90.000000
_cell_volume 2518.839475
_symmetry_space_group_name_H-M "P N N A"
_symmetry_group_IT_number 52
_symmetry_cell_setting 'orthorhombic'
loop_
_space_group_symop_operation_xyz
x,y,z
1/2-x,-y,z
x,1/2-y,1/2-z
1/2-x,1/2+y,1/2-z
-x,-y,-z
1/2+x,y,-z
-x,1/2+y,1/2+z
1/2+x,1/2-y,1/2+z
loop_
_atom_site_type_symbol
_atom_site_label
_atom_site_fract_x
_atom_site_fract_y
_atom_site_fract_z
Si Si1 0.483877 0.400208 0.699287
Si Si2 0.451996 0.807240 0.572978
Si Si3 0.888283 0.360279 0.015704
Si Si4 0.653312 0.530816 0.408594
Si Si5 0.448471 0.364654 0.201587
Si Si6 0.250000 0.000000 0.416995
Si Si7 0.155232 0.214094 0.321325
O O1 0.468014 0.250000 0.750000
O O2 0.412490 0.409240 0.645957
O O3 0.484871 0.566326 0.744613
O O4 0.579384 0.357327 0.669218
O O5 0.520077 0.808415 0.515175
O O6 0.386509 0.648834 0.566438
O O7 0.506549 0.792445 0.638518
O O8 0.405641 0.993547 0.569081
O O9 0.845221 0.186617 0.041149
O O10 0.829994 0.450595 0.962030
O O11 0.750000 0.500000 0.384719
O O12 0.391397 0.250000 0.250000
O O13 0.395954 0.532627 0.180845
O O14 0.226062 0.168037 0.374115
O O15 0.188695 0.250000 0.250000
#
# Coordination Sequence:
#
# PCOD9408126 Si02
#       7
#     8   8   8   8   8   4   8
#     4   9  20  40  66  91 131 172 212 273 338 394
#     4  11  23  44  73  92 131 187 217 271 342 400
#     4  11  25  43  67  97 138 177 228 268 327 404
#     4  12  25  44  64 102 133 171 232 281 322 393
#     4  10  17  37  66  96 119 168 221 259 326 405
#     4  12  22  42  68 100 132 180 220 274 338 388
#     4   9  21  39  66  96 132 171 213 269 337 396
#
# _framework density 20.64443
#
# number of rings (size 3 to 8) (size 9 to 14) (size 15 to 20)
#    0.000    1.846    3.077    3.231    2.154    0.615 
#    5.538    0.000    0.000    0.000    0.000    0.000 
#    0.000    0.000    0.000    0.000    0.000    0.000 
#
# Total GULP energy -289952.204752 kJ/mol
# GULP energy per Si atom -5576.003938 kJ/mol
# Density = 2.059744 g / cm^3
# Si number density = 20.644430 Si / 1000 Ang^3
#
#
#
# Elastic Constant Matrix: (Units=GPa)
#
#
# Indices 1 2 3 4 5 6 
#
# 1 81.8896 14.7686 14.9541 0.0000 0.0000 0.0000
# 2 14.7686 79.4961 14.8353 0.0000 0.0000 0.0000
# 3 14.9541 14.8353 60.8904 0.0000 0.0000 0.0000
# 4 0.0000 0.0000 0.0000 37.7669 0.0000 0.0000
# 5 0.0000 0.0000 0.0000 0.0000 12.7404 0.0000
# 6 0.0000 0.0000 0.0000 0.0000 0.0000 17.1664
#
#
#
# Elastic Compliance Matrix: (Units=1/GPa)
#
#
# Indices 1 2 3 4 5 6 
#
# 1 0.013057 -0.001914 -0.002740 0.000000 0.000000 0.000000
# 2 -0.001914 0.013459 -0.002809 0.000000 0.000000 0.000000
# 3 -0.002740 -0.002809 0.017780 0.000000 0.000000 0.000000
# 4 0.000000 0.000000 0.000000 0.026478 0.000000 0.000000
# 5 0.000000 0.000000 0.000000 0.000000 0.078490 0.000000
# 6 0.000000 0.000000 0.000000 0.000000 0.000000 0.058253
#
#
# Mechanical properties :
#
#
# Convention : Reuss Voigt Hill
#
# Bulk Modulus (GPa) = 34.04918 34.59911 34.32414
# Shear Modulus (GPa) = 21.52986 25.38263 23.45624
#
# Velocity S-wave (km/s) = 3.23288 3.51025 3.37442
# Velocity P-wave (km/s) = 5.51945 5.76412 5.64311
#
# Compressibility (1/GPa) = 0.02936929
#
# Stress axis : x y z
#
# Youngs Moduli (GPa) = 76.58589 74.29930 56.24188
#
# Poissons Ratio (x) = 0.14223 0.15412
# Poissons Ratio (y) = 0.14661 0.15798
# Poissons Ratio (z) = 0.20987 0.20871
#
# Static dielectric constant tensor:
#      x y z
#    x 1.731220 0.000000 0.000000 
#    y 0.000000 1.998920 0.000000 
#    z 0.000000 0.000000 1.746630 
# 
# From -- ./inp_files/37253.got.cif
#   From: 2010.05.17/outbox.cif.g08.bks.cpg/sg52_19_cif.got.tgz:37253.got - 2010.06.03 12:15:38.
