data_PCOD9408047
_publ_section_title
;
Structure prediction by ZEFSAII (Michael W. Deem and Ramdas Pophale) SiO2 
 PCOD9408047
Probable space group: P N N A
;
_chemical_formula_sum "Si O2"
_cell_formula_units_Z 64
_cell_length_a 25.263439
_cell_length_b 10.375610
_cell_length_c 12.190026
_cell_angle_alpha 90.000000
_cell_angle_beta 90.000000
_cell_angle_gamma 90.000000
_cell_volume 3195.293381
_symmetry_space_group_name_H-M "P N N A"
_symmetry_group_IT_number 52
_symmetry_cell_setting 'orthorhombic'
loop_
_space_group_symop_operation_xyz
x,y,z
1/2-x,-y,z
x,1/2-y,1/2-z
1/2-x,1/2+y,1/2-z
-x,-y,-z
1/2+x,y,-z
-x,1/2+y,1/2+z
1/2+x,1/2-y,1/2+z
loop_
_atom_site_type_symbol
_atom_site_label
_atom_site_fract_x
_atom_site_fract_y
_atom_site_fract_z
Si Si1 0.454379 0.895969 0.005695
Si Si2 0.276024 0.625444 0.430944
Si Si3 0.619234 0.098079 0.352497
Si Si4 0.649647 0.102300 0.125778
Si Si5 0.669742 0.786901 0.873622
Si Si6 0.002940 0.329998 0.855425
Si Si7 0.874861 0.931880 0.815644
Si Si8 0.397950 0.461495 0.082016
O O1 0.428658 0.884353 0.126420
O O2 0.404057 0.941900 0.933726
O O3 0.478053 0.766658 0.951622
O O4 0.500000 0.000000 0.000000
O O5 0.250000 0.500000 0.374451
O O6 0.300724 0.583756 0.546985
O O7 0.224956 0.714797 0.439993
O O8 0.326892 0.658623 0.357550
O O9 0.651490 0.046085 0.247964
O O10 0.640820 0.242898 0.368950
O O11 0.557799 0.107327 0.315022
O O12 0.617353 0.026900 0.467889
O O13 0.685306 0.750000 0.750000
O O14 0.630227 0.677440 0.913736
O O15 0.640220 0.925155 0.864624
O O16 0.981024 0.250000 0.750000
O O17 0.959835 0.429546 0.899322
O O18 0.879974 0.953889 0.686537
#
# Coordination Sequence:
#
# PCOD9408047 Si02
#       8
#     8   8   8   8   8   8   8   8
#     4  10  17  30  56  78 103 144 192 229 274 347
#     4   9  18  35  59  79 106 146 190 237 288 342
#     4  10  20  37  54  75 113 150 191 228 279 343
#     4   9  19  37  55  75 103 150 193 226 278 345
#     4   9  18  34  54  85 117 145 185 243 304 346
#     4  11  19  35  56  81 113 157 190 227 287 355
#     4   9  19  33  54  85 113 147 187 234 293 362
#     4  11  21  33  57  87 117 147 191 243 296 342
#
# _framework density 20.029458999999999
#
# number of rings (size 3 to 8) (size 9 to 14) (size 15 to 20)
#    0.000    2.250    2.500    3.000    0.000    1.000 
#    0.000    9.375    0.000   10.500    0.000    0.000 
#    0.000    0.000    0.000    0.000    0.000    0.000 
#
# Total GULP energy -356745.859197 kJ/mol
# GULP energy per Si atom -5574.154050 kJ/mol
# Density = 1.998387 g / cm^3
# Si number density = 20.029459 Si / 1000 Ang^3
#
#
#
# Elastic Constant Matrix: (Units=GPa)
#
#
# Indices 1 2 3 4 5 6 
#
# 1 82.9309 15.3648 22.4352 0.0000 0.0000 0.0000
# 2 15.3648 30.3528 29.5996 0.0000 0.0000 0.0000
# 3 22.4352 29.5996 140.1711 0.0000 0.0000 0.0000
# 4 0.0000 0.0000 0.0000 27.3602 0.0000 0.0000
# 5 0.0000 0.0000 0.0000 0.0000 22.9048 0.0000
# 6 0.0000 0.0000 0.0000 0.0000 0.0000 12.0600
#
#
#
# Elastic Compliance Matrix: (Units=1/GPa)
#
#
# Indices 1 2 3 4 5 6 
#
# 1 0.013395 -0.005906 -0.000897 0.000000 0.000000 0.000000
# 2 -0.005906 0.044094 -0.008366 0.000000 0.000000 0.000000
# 3 -0.000897 -0.008366 0.009044 0.000000 0.000000 0.000000
# 4 0.000000 0.000000 0.000000 0.036549 0.000000 0.000000
# 5 0.000000 0.000000 0.000000 0.000000 0.043659 0.000000
# 6 0.000000 0.000000 0.000000 0.000000 0.000000 0.082919
#
#
# Mechanical properties :
#
#
# Convention : Reuss Voigt Hill
#
# Bulk Modulus (GPa) = 27.62762 43.13933 35.38347
# Shear Modulus (GPa) = 18.37808 24.86869 21.62338
#
# Velocity S-wave (km/s) = 3.03240 3.52746 3.28926
# Velocity P-wave (km/s) = 5.10725 6.17862 5.66831
#
# Compressibility (1/GPa) = 0.03619567
#
# Stress axis : x y z
#
# Youngs Moduli (GPa) = 74.65429 22.67881 110.56715
#
# Poissons Ratio (x) = 0.13395 0.09915
# Poissons Ratio (y) = 0.44092 0.92499
# Poissons Ratio (z) = 0.06695 0.18973
#
# Static dielectric constant tensor:
#      x y z
#    x 1.725790 0.000000 0.000000 
#    y 0.000000 1.757160 0.000000 
#    z 0.000000 0.000000 1.761080 
# 
# From -- ./inp_files/22520.got.cif
#   From: 2010.05.17/outbox.cif.g08.bks.cpg/sg52_12_cif.got.tgz:22520.got - 2010.06.03 12:15:38.
