data_PCOD9408036
_publ_section_title
;
Structure prediction by ZEFSAII (Michael W. Deem and Ramdas Pophale) SiO2 
 PCOD9408036
Probable space group: P N N A
;
_chemical_formula_sum "Si O2"
_cell_formula_units_Z 60
_cell_length_a 5.692146
_cell_length_b 22.293304
_cell_length_c 17.656190
_cell_angle_alpha 90.000000
_cell_angle_beta 90.000000
_cell_angle_gamma 90.000000
_cell_volume 2240.512973
_symmetry_space_group_name_H-M "P N N A"
_symmetry_group_IT_number 52
_symmetry_cell_setting 'orthorhombic'
loop_
_space_group_symop_operation_xyz
x,y,z
1/2-x,-y,z
x,1/2-y,1/2-z
1/2-x,1/2+y,1/2-z
-x,-y,-z
1/2+x,y,-z
-x,1/2+y,1/2+z
1/2+x,1/2-y,1/2+z
loop_
_atom_site_type_symbol
_atom_site_label
_atom_site_fract_x
_atom_site_fract_y
_atom_site_fract_z
Si Si1 0.148677 0.606719 0.347843
Si Si2 0.377561 0.947944 0.330580
Si Si3 0.250000 0.000000 0.566737
Si Si4 0.152177 0.611074 0.629100
Si Si5 0.146122 0.688804 0.204816
Si Si6 0.365139 0.196633 0.014365
Si Si7 0.350988 0.338152 0.788919
Si Si8 0.231655 0.122445 0.475312
O O1 0.898152 0.576479 0.362114
O O2 0.159972 0.631395 0.262118
O O3 0.139464 0.665723 0.402873
O O4 0.401929 0.578409 0.363387
O O5 0.591887 0.908677 0.298404
O O6 0.255302 0.898211 0.386781
O O7 0.250000 0.000000 0.281597
O O8 0.515149 0.993180 0.385784
O O9 0.274920 0.939913 0.520288
O O10 0.144803 0.643029 0.547719
O O11 0.164188 0.662445 0.696467
O O12 0.101496 0.750000 0.250000
O O13 0.887439 0.679608 0.168997
O O14 0.419755 0.696940 0.181325
O O15 0.114980 0.227656 0.000600
O O16 0.475637 0.150067 0.505184
#
# Coordination Sequence:
#
# PCOD9408036 Si02
#       8
#     8   8   4   8   8   8   8   8
#     4   8  14  24  43  66  85 115 153 201 246 281
#     4  11  20  32  51  77 113 135 176 225 270 312
#     4  10  18  32  50  76 104 144 188 218 254 306
#     4   8  14  26  38  63  97 112 149 196 242 288
#     4  10  20  37  52  70 102 137 176 219 261 319
#     4   8  12  20  38  61  86 107 142 195 245 266
#     4  10  22  32  51  78 102 138 174 210 264 323
#     4  10  17  30  48  73 100 134 187 220 251 294
#
# _framework density 26.779584
#
# number of rings (size 3 to 8) (size 9 to 14) (size 15 to 20)
#    0.000    2.667    2.000    1.200    1.867    0.000 
#    0.000    0.000    0.000    0.000    0.000   56.000 
#    0.000   26.667    0.000    0.267    0.000    0.000 
#
# Total GULP energy -334344.012351 kJ/mol
# GULP energy per Si atom -5572.400206 kJ/mol
# Density = 2.671863 g / cm^3
# Si number density = 26.779584 Si / 1000 Ang^3
#
#
#
# Elastic Constant Matrix: (Units=GPa)
#
#
# Indices 1 2 3 4 5 6 
#
# 1 321.3745 23.5567 16.3688 0.0000 0.0000 0.0000
# 2 23.5567 24.1738 0.5684 0.0000 0.0000 0.0000
# 3 16.3688 0.5684 100.7463 0.0000 0.0000 0.0000
# 4 0.0000 0.0000 0.0000 11.7454 0.0000 0.0000
# 5 0.0000 0.0000 0.0000 0.0000 3.6077 0.0000
# 6 0.0000 0.0000 0.0000 0.0000 0.0000 3.1482
#
#
#
# Elastic Compliance Matrix: (Units=1/GPa)
#
#
# Indices 1 2 3 4 5 6 
#
# 1 0.003379 -0.003280 -0.000531 0.000000 0.000000 0.000000
# 2 -0.003280 0.044557 0.000282 0.000000 0.000000 0.000000
# 3 -0.000531 0.000282 0.010011 0.000000 0.000000 0.000000
# 4 0.000000 0.000000 0.000000 0.085140 0.000000 0.000000
# 5 0.000000 0.000000 0.000000 0.000000 0.277186 0.000000
# 6 0.000000 0.000000 0.000000 0.000000 0.000000 0.317642
#
#
# Mechanical properties :
#
#
# Convention : Reuss Voigt Hill
#
# Bulk Modulus (GPa) = 19.65093 58.58692 39.11893
# Shear Modulus (GPa) = 6.56223 30.75363 18.65793
#
# Velocity S-wave (km/s) = 1.56709 3.39248 2.64241
# Velocity P-wave (km/s) = 3.26011 6.10493 4.89380
#
# Compressibility (1/GPa) = 0.05088817
#
# Stress axis : x y z
#
# Youngs Moduli (GPa) = 295.93623 22.44312 99.89477
#
# Poissons Ratio (x) = 0.07362 0.05300
# Poissons Ratio (y) = 0.97078 -0.02813
# Poissons Ratio (z) = 0.15700 -0.00632
#
# Static dielectric constant tensor:
#      x y z
#    x 2.255190 0.000000 0.000000 
#    y 0.000000 2.094740 0.000000 
#    z 0.000000 0.000000 2.230390 
# 
# From -- ./inp_files/35271.got.cif
#   From: 2010.05.17/outbox.cif.g08.bks.cpg/sg52_18_cif.got.tgz:35271.got - 2010.06.03 12:15:38.
