data_PCOD9408949
_publ_section_title
;
Structure prediction by ZEFSAII (Michael W. Deem and Ramdas Pophale) SiO2 
 PCOD9408949
Probable space group: P N N A
;
_chemical_formula_sum "Si O2"
_cell_formula_units_Z 32
_cell_length_a 16.724070
_cell_length_b 11.076097
_cell_length_c 8.036729
_cell_angle_alpha 90.000000
_cell_angle_beta 90.000000
_cell_angle_gamma 90.000000
_cell_volume 1488.702958
_symmetry_space_group_name_H-M "P N N A"
_symmetry_group_IT_number 52
_symmetry_cell_setting 'orthorhombic'
loop_
_space_group_symop_operation_xyz
x,y,z
1/2-x,-y,z
x,1/2-y,1/2-z
1/2-x,1/2+y,1/2-z
-x,-y,-z
1/2+x,y,-z
-x,1/2+y,1/2+z
1/2+x,1/2-y,1/2+z
loop_
_atom_site_type_symbol
_atom_site_label
_atom_site_fract_x
_atom_site_fract_y
_atom_site_fract_z
Si Si1 0.782241 0.628025 0.953573
Si Si2 0.280916 0.122336 0.076230
Si Si3 0.533958 0.129565 0.449232
Si Si4 0.470445 0.122958 0.080841
O O1 0.750000 0.500000 0.020079
O O2 0.739441 0.751233 0.011747
O O3 0.765027 0.624235 0.754367
O O4 0.874964 0.637603 0.994613
O O5 0.375407 0.116865 0.110474
O O6 0.250000 0.000000 0.989511
O O7 0.519005 0.129535 0.252267
O O8 0.489606 0.251137 0.512694
O O9 0.500000 0.000000 0.500000
O O10 0.500000 0.000000 0.000000
#
# Coordination Sequence:
#
# PCOD9408949 Si02
#       4
#     8   8   8   8
#     4  10  19  34  58  86 116 158 204 250 302 364
#     4  10  19  36  61  87 115 158 206 252 307 368
#     4  11  22  39  62  92 126 164 209 258 308 371
#     4  11  24  42  63  95 129 163 208 262 314 373
#
# _framework density 21.495221999999998
#
# number of rings (size 3 to 8) (size 9 to 14) (size 15 to 20)
#    0.000    1.500    0.000    9.000    0.000    3.000 
#    0.000    6.250    0.000    0.000    0.000    0.000 
#    0.000    0.000    0.000    0.000    0.000    0.000 
#
# Total GULP energy -178610.165303 kJ/mol
# GULP energy per Si atom -5581.567666 kJ/mol
# Density = 2.144630 g / cm^3
# Si number density = 21.495222 Si / 1000 Ang^3
#
#
#
# Elastic Constant Matrix: (Units=GPa)
#
#
# Indices 1 2 3 4 5 6 
#
# 1 202.6142 63.5172 43.4514 0.0000 0.0000 0.0000
# 2 63.5172 256.4399 39.1348 0.0000 0.0000 0.0000
# 3 43.4514 39.1348 34.6793 0.0000 0.0000 0.0000
# 4 0.0000 0.0000 0.0000 18.5141 0.0000 0.0000
# 5 0.0000 0.0000 0.0000 0.0000 -105.5044 0.0000
# 6 0.0000 0.0000 0.0000 0.0000 0.0000 46.9451
#
#
#
# Elastic Compliance Matrix: (Units=1/GPa)
#
#
# Indices 1 2 3 4 5 6 
#
# 1 0.006794 -0.000464 -0.007990 0.000000 0.000000 0.000000
# 2 -0.000464 0.004742 -0.004771 0.000000 0.000000 0.000000
# 3 -0.007990 -0.004771 0.044230 0.000000 0.000000 0.000000
# 4 0.000000 0.000000 0.000000 0.054013 0.000000 0.000000
# 5 0.000000 0.000000 0.000000 0.000000 -0.009478 0.000000
# 6 0.000000 0.000000 0.000000 0.000000 0.000000 0.021301
#
#
# Mechanical properties :
#
#
# Convention : Reuss Voigt Hill
#
# Bulk Modulus (GPa) = 34.10818 87.32672 60.71745
# Shear Modulus (GPa) = 31.68083 15.16630 23.42357
#
# Velocity S-wave (km/s) = 3.84325 2.65913 3.30466
# Velocity P-wave (km/s) = 5.96626 7.08112 6.54746
#
# Compressibility (1/GPa) = 0.02931848
#
# Stress axis : x y z
#
# Youngs Moduli (GPa) = 147.18367 210.86146 22.60898
#
# Poissons Ratio (x) = 0.09775 0.18064
# Poissons Ratio (y) = 0.06823 0.10787
# Poissons Ratio (z) = 1.17595 1.00601
#
# Static dielectric constant tensor:
#      x y z
#    x 1.725640 0.000000 0.000000 
#    y 0.000000 1.938240 0.000000 
#    z 0.000000 0.000000 1.918050 
# 
# From -- ./inp_files/9516.got.cif
#   From: 2010.05.17/outbox.cif.g08.bks.cpg/sg52_5_cif.got.tgz:9516.got - 2010.06.03 12:15:38.
