data_PCOD9408975
_publ_section_title
;
Structure prediction by ZEFSAII (Michael W. Deem and Ramdas Pophale) SiO2 
 PCOD9408975
Probable space group: P N N A
;
_chemical_formula_sum "Si O2"
_cell_formula_units_Z 28
_cell_length_a 8.974528
_cell_length_b 12.088721
_cell_length_c 9.395770
_cell_angle_alpha 90.000000
_cell_angle_beta 90.000000
_cell_angle_gamma 90.000000
_cell_volume 1019.352397
_symmetry_space_group_name_H-M "P N N A"
_symmetry_group_IT_number 52
_symmetry_cell_setting 'orthorhombic'
loop_
_space_group_symop_operation_xyz
x,y,z
1/2-x,-y,z
x,1/2-y,1/2-z
1/2-x,1/2+y,1/2-z
-x,-y,-z
1/2+x,y,-z
-x,1/2+y,1/2+z
1/2+x,1/2-y,1/2+z
loop_
_atom_site_type_symbol
_atom_site_label
_atom_site_fract_x
_atom_site_fract_y
_atom_site_fract_z
Si Si1 0.369450 0.876356 0.263533
Si Si2 0.911026 0.250000 0.750000
Si Si3 0.833383 0.398283 0.366022
Si Si4 0.681833 0.173808 0.425558
O O1 0.430168 0.750000 0.250000
O O2 0.196880 0.855654 0.224414
O O3 0.495553 0.931335 0.167883
O O4 0.353021 0.896029 0.432772
O O5 0.022812 0.218346 0.625410
O O6 0.750000 0.500000 0.437605
O O7 0.783843 0.284094 0.442379
O O8 0.759271 0.384408 0.207995
#
# Coordination Sequence:
#
# PCOD9408975 Si02
#       4
#     8   4   8   8
#     4  10  19  34  62  81 111 156 188 229 292 341
#     4   8  18  30  58  80 102 146 190 228 280 332
#     4  10  21  38  60  85 117 151 192 238 290 339
#     4  10  19  38  58  81 117 150 191 240 284 342
#
# _framework density 27.468420999999999
#
# number of rings (size 3 to 8) (size 9 to 14) (size 15 to 20)
#    0.857    1.714    2.857    1.714    0.000    1.143 
#    0.000    7.143    0.000    0.000    0.000    0.000 
#    0.000    0.000    0.000    0.000    0.000    0.000 
#
# Total GULP energy -156216.926275 kJ/mol
# GULP energy per Si atom -5579.175938 kJ/mol
# Density = 2.740590 g / cm^3
# Si number density = 27.468421 Si / 1000 Ang^3
#
#
#
# Elastic Constant Matrix: (Units=GPa)
#
#
# Indices 1 2 3 4 5 6 
#
# 1 256.6666 49.3258 60.0679 0.0000 0.0000 0.0000
# 2 49.3258 64.8084 -16.6783 0.0000 0.0000 0.0000
# 3 60.0679 -16.6783 104.6731 0.0000 0.0000 0.0000
# 4 0.0000 0.0000 0.0000 6.8106 0.0000 0.0000
# 5 0.0000 0.0000 0.0000 0.0000 48.9289 0.0000
# 6 0.0000 0.0000 0.0000 0.0000 0.0000 37.0642
#
#
#
# Elastic Compliance Matrix: (Units=1/GPa)
#
#
# Indices 1 2 3 4 5 6 
#
# 1 0.006010 -0.005696 -0.004357 0.000000 0.000000 0.000000
# 2 -0.005696 0.021487 0.006692 0.000000 0.000000 0.000000
# 3 -0.004357 0.006692 0.013120 0.000000 0.000000 0.000000
# 4 0.000000 0.000000 0.000000 0.146830 0.000000 0.000000
# 5 0.000000 0.000000 0.000000 0.000000 0.020438 0.000000
# 6 0.000000 0.000000 0.000000 0.000000 0.000000 0.026980
#
#
# Mechanical properties :
#
#
# Convention : Reuss Voigt Hill
#
# Bulk Modulus (GPa) = 29.50069 67.95323 48.72696
# Shear Modulus (GPa) = 19.77188 40.78959 30.28074
#
# Velocity S-wave (km/s) = 2.68583 3.85770 3.32382
# Velocity P-wave (km/s) = 4.51458 6.68093 5.70159
#
# Compressibility (1/GPa) = 0.03389751
#
# Stress axis : x y z
#
# Youngs Moduli (GPa) = 166.38264 46.53929 76.21985
#
# Poissons Ratio (x) = 0.26507 0.33206
# Poissons Ratio (y) = 0.94764 -0.51008
# Poissons Ratio (z) = 0.72486 -0.31145
#
# Static dielectric constant tensor:
#      x y z
#    x 2.105310 0.000000 0.000000 
#    y 0.000000 2.216140 0.000000 
#    z 0.000000 0.000000 2.191090 
# 
# From -- ./inp_files/16377.got.cif
#   From: 2010.05.17/outbox.cif.g08.bks.cpg/sg52_9_cif.got.tgz:16377.got - 2010.06.03 12:15:38.
