data_PCOD9408887
_publ_section_title
;
Structure prediction by ZEFSAII (Michael W. Deem and Ramdas Pophale) SiO2 
 PCOD9408887
Probable space group: P N N A
;
_chemical_formula_sum "Si O2"
_cell_formula_units_Z 40
_cell_length_a 9.208863
_cell_length_b 8.600165
_cell_length_c 25.986106
_cell_angle_alpha 90.000000
_cell_angle_beta 90.000000
_cell_angle_gamma 90.000000
_cell_volume 2058.040899
_symmetry_space_group_name_H-M "P N N A"
_symmetry_group_IT_number 52
_symmetry_cell_setting 'orthorhombic'
loop_
_space_group_symop_operation_xyz
x,y,z
1/2-x,-y,z
x,1/2-y,1/2-z
1/2-x,1/2+y,1/2-z
-x,-y,-z
1/2+x,y,-z
-x,1/2+y,1/2+z
1/2+x,1/2-y,1/2+z
loop_
_atom_site_type_symbol
_atom_site_label
_atom_site_fract_x
_atom_site_fract_y
_atom_site_fract_z
Si Si1 0.647266 0.349576 0.386173
Si Si2 0.316787 0.165526 0.697785
Si Si3 0.353898 0.262717 0.090301
Si Si4 0.808007 0.173431 0.475074
Si Si5 0.951541 0.620094 0.891501
O O1 0.750000 0.500000 0.387676
O O2 0.696321 0.258624 0.335124
O O3 0.472796 0.358075 0.388475
O O4 0.692486 0.252853 0.437099
O O5 0.358978 0.250000 0.750000
O O6 0.448091 0.143248 0.657975
O O7 0.250000 0.000000 0.711221
O O8 0.191504 0.274282 0.112177
O O9 0.414233 0.437633 0.101661
O O10 0.335310 0.244020 0.028977
O O11 0.954653 0.164453 0.441702
O O12 0.750000 0.000000 0.486440
#
# Coordination Sequence:
#
# PCOD9408887 Si02
#       5
#     8   8   8   8   8
#     4  11  23  38  56  86 126 161 204 249 305 379
#     4  11  22  42  65  85 109 153 205 258 316 378
#     4  11  19  33  61  89 122 159 203 250 300 368
#     4  11  18  33  58  89 119 168 209 243 297 373
#     4  10  19  33  59  92 117 149 206 260 299 364
#
# _framework density 19.435960000000001
#
# number of rings (size 3 to 8) (size 9 to 14) (size 15 to 20)
#    0.000    1.200    6.000    3.600    0.000    0.800 
#    0.000    5.000    4.400    0.000    0.000    0.000 
#    0.000    0.000    0.000    0.000    0.000    0.000 
#
# Total GULP energy -223437.024421 kJ/mol
# GULP energy per Si atom -5585.925611 kJ/mol
# Density = 1.939172 g / cm^3
# Si number density = 19.435960 Si / 1000 Ang^3
#
#
#
# Elastic Constant Matrix: (Units=GPa)
#
#
# Indices 1 2 3 4 5 6 
#
# 1 124.4269 9.4747 11.7443 0.0000 0.0000 0.0000
# 2 9.4747 41.2755 3.3927 0.0000 0.0000 0.0000
# 3 11.7443 3.3927 95.0101 0.0000 0.0000 0.0000
# 4 0.0000 0.0000 0.0000 11.8126 0.0000 0.0000
# 5 0.0000 0.0000 0.0000 0.0000 -1.9400 0.0000
# 6 0.0000 0.0000 0.0000 0.0000 0.0000 28.4057
#
#
#
# Elastic Compliance Matrix: (Units=1/GPa)
#
#
# Indices 1 2 3 4 5 6 
#
# 1 0.008266 -0.001819 -0.000957 0.000000 0.000000 0.000000
# 2 -0.001819 0.024699 -0.000657 0.000000 0.000000 0.000000
# 3 -0.000957 -0.000657 0.010667 0.000000 0.000000 0.000000
# 4 0.000000 0.000000 0.000000 0.084655 0.000000 0.000000
# 5 0.000000 0.000000 0.000000 0.000000 -0.515463 0.000000
# 6 0.000000 0.000000 0.000000 0.000000 0.000000 0.035204
#
#
# Mechanical properties :
#
#
# Convention : Reuss Voigt Hill
#
# Bulk Modulus (GPa) = 27.19888 34.43730 30.81809
# Shear Modulus (GPa) = -15.02173 23.39572 4.18700
#
# Velocity S-wave (km/s) = -2.78309 3.47325 1.46933
# Velocity P-wave (km/s) = 1.92276 5.81734 4.33235
#
# Compressibility (1/GPa) = 0.03676622
#
# Stress axis : x y z
#
# Youngs Moduli (GPa) = 120.98273 40.48760 93.74767
#
# Poissons Ratio (x) = 0.07364 0.08970
# Poissons Ratio (y) = 0.22003 0.06161
# Poissons Ratio (z) = 0.11575 0.02661
#
# Static dielectric constant tensor:
#      x y z
#    x 1.730050 0.000000 0.000000 
#    y 0.000000 1.719460 0.000000 
#    z 0.000000 0.000000 1.628100 
# 
# From -- ./inp_files/39177.got.cif
#   From: 2010.05.17/outbox.cif.g08.bks.cpg/sg52_20_cif.got.tgz:39177.got - 2010.06.03 12:15:38.
