data_PCOD9408026
_publ_section_title
;
Structure prediction by ZEFSAII (Michael W. Deem and Ramdas Pophale) SiO2 
 PCOD9408026
Probable space group: P N N A
;
_chemical_formula_sum "Si O2"
_cell_formula_units_Z 44
_cell_length_a 7.782043
_cell_length_b 8.904621
_cell_length_c 28.846998
_cell_angle_alpha 90.000000
_cell_angle_beta 90.000000
_cell_angle_gamma 90.000000
_cell_volume 1998.985714
_symmetry_space_group_name_H-M "P N N A"
_symmetry_group_IT_number 52
_symmetry_cell_setting 'orthorhombic'
loop_
_space_group_symop_operation_xyz
x,y,z
1/2-x,-y,z
x,1/2-y,1/2-z
1/2-x,1/2+y,1/2-z
-x,-y,-z
1/2+x,y,-z
-x,1/2+y,1/2+z
1/2+x,1/2-y,1/2+z
loop_
_atom_site_type_symbol
_atom_site_label
_atom_site_fract_x
_atom_site_fract_y
_atom_site_fract_z
Si Si1 0.940483 0.929857 0.254855
Si Si2 0.449407 0.949319 0.846186
Si Si3 0.937544 0.911669 0.355263
Si Si4 0.047121 0.125776 0.066795
Si Si5 0.449010 0.462492 0.947616
Si Si6 0.250000 0.000000 0.994986
O O1 0.924482 0.750000 0.250000
O O2 0.017844 0.981500 0.205862
O O3 0.018000 0.961345 0.305716
O O4 0.750000 0.000000 0.255655
O O5 0.435882 0.769865 0.854131
O O6 0.250000 0.000000 0.849170
O O7 0.555451 0.043945 0.884046
O O8 0.750000 0.000000 0.355453
O O9 0.028070 0.948751 0.403946
O O10 0.975206 0.291483 0.067251
O O11 0.907863 0.028035 0.038529
O O12 0.211147 0.130484 0.032363
O O13 0.250000 0.500000 0.947655
O O14 0.500000 0.500000 0.000000
#
# Coordination Sequence:
#
# PCOD9408026 Si02
#       6
#     8   8   8   8   8   4
#     4   8  15  27  44  71 104 136 172 217 268 312
#     4  10  17  29  52  77 104 140 179 222 267 317
#     4   9  18  30  46  75 110 140 173 220 270 317
#     4  11  22  38  55  80 105 146 181 225 265 325
#     4  11  23  36  54  79 112 143 177 221 275 328
#     4  10  24  36  58  72 110 138 190 218 266 308
#
# _framework density 22.011164000000001
#
# number of rings (size 3 to 8) (size 9 to 14) (size 15 to 20)
#    0.000    2.182    0.909    3.273    5.091    1.455 
#    0.000    0.000    0.000    0.000    2.364    0.000 
#    0.000    0.000    0.000    0.000    0.000    0.000 
#
# Total GULP energy -244955.385978 kJ/mol
# GULP energy per Si atom -5567.167863 kJ/mol
# Density = 2.196107 g / cm^3
# Si number density = 22.011164 Si / 1000 Ang^3
#
#
#
# Elastic Constant Matrix: (Units=GPa)
#
#
# Indices 1 2 3 4 5 6 
#
# 1 26.6397 -1.8639 22.4530 0.0000 0.0000 0.0000
# 2 -1.8639 75.7082 60.6564 0.0000 0.0000 0.0000
# 3 22.4530 60.6564 279.9049 0.0000 0.0000 0.0000
# 4 0.0000 0.0000 0.0000 26.4972 0.0000 0.0000
# 5 0.0000 0.0000 0.0000 0.0000 9.6283 0.0000
# 6 0.0000 0.0000 0.0000 0.0000 0.0000 14.5848
#
#
#
# Elastic Compliance Matrix: (Units=1/GPa)
#
#
# Indices 1 2 3 4 5 6 
#
# 1 0.041468 0.004460 -0.004293 0.000000 0.000000 0.000000
# 2 0.004460 0.016463 -0.003925 0.000000 0.000000 0.000000
# 3 -0.004293 -0.003925 0.004768 0.000000 0.000000 0.000000
# 4 0.000000 0.000000 0.000000 0.037740 0.000000 0.000000
# 5 0.000000 0.000000 0.000000 0.000000 0.103861 0.000000
# 6 0.000000 0.000000 0.000000 0.000000 0.000000 0.068565
#
#
# Mechanical properties :
#
#
# Convention : Reuss Voigt Hill
#
# Bulk Modulus (GPa) = 18.12139 60.52709 39.32424
# Shear Modulus (GPa) = 16.73497 30.20921 23.47209
#
# Velocity S-wave (km/s) = 2.76034 3.70868 3.26908
# Velocity P-wave (km/s) = 4.29068 6.77474 5.67041
#
# Compressibility (1/GPa) = 0.05518341
#
# Stress axis : x y z
#
# Youngs Moduli (GPa) = 24.11473 60.74054 209.74546
#
# Poissons Ratio (x) = -0.27093 0.90045
# Poissons Ratio (y) = -0.10756 0.82335
# Poissons Ratio (z) = 0.10353 0.23844
#
# Static dielectric constant tensor:
#      x y z
#    x 1.927650 0.000000 0.000000 
#    y 0.000000 1.860930 0.000000 
#    z 0.000000 0.000000 1.926420 
# 
# From -- ./inp_files/44276.got.cif
#   From: 2010.05.17/outbox.cif.g08.bks.cpg/sg52_23_cif.got.tgz:44276.got - 2010.06.03 12:15:38.
