data_PCOD9408886
_publ_section_title
;
Structure prediction by ZEFSAII (Michael W. Deem and Ramdas Pophale) SiO2 
 PCOD9408886
Probable space group: P N N A
;
_chemical_formula_sum "Si O2"
_cell_formula_units_Z 56
_cell_length_a 19.323107
_cell_length_b 8.601414
_cell_length_c 15.482739
_cell_angle_alpha 90.000000
_cell_angle_beta 90.000000
_cell_angle_gamma 90.000000
_cell_volume 2573.324785
_symmetry_space_group_name_H-M "P N N A"
_symmetry_group_IT_number 52
_symmetry_cell_setting 'orthorhombic'
loop_
_space_group_symop_operation_xyz
x,y,z
1/2-x,-y,z
x,1/2-y,1/2-z
1/2-x,1/2+y,1/2-z
-x,-y,-z
1/2+x,y,-z
-x,1/2+y,1/2+z
1/2+x,1/2-y,1/2+z
loop_
_atom_site_type_symbol
_atom_site_label
_atom_site_fract_x
_atom_site_fract_y
_atom_site_fract_z
Si Si1 0.032010 0.080828 0.619707
Si Si2 0.945857 0.089121 0.207456
Si Si3 0.798039 0.882767 0.640152
Si Si4 0.896524 0.869551 0.853775
Si Si5 0.566311 0.417406 0.455639
Si Si6 0.888958 0.404315 0.970226
Si Si7 0.306281 0.383164 0.413887
O O1 0.049148 0.254858 0.590154
O O2 0.950216 0.070277 0.599714
O O3 0.074218 0.960176 0.558204
O O4 0.050529 0.038310 0.717038
O O5 0.920807 0.250000 0.250000
O O6 0.025155 0.115362 0.176173
O O7 0.907680 0.027256 0.121863
O O8 0.866023 0.796750 0.672368
O O9 0.746340 0.741639 0.624760
O O10 0.750000 0.000000 0.692940
O O11 0.826361 0.982973 0.558774
O O12 0.850651 0.024184 0.841232
O O13 0.890743 0.872652 0.959621
O O14 0.500000 0.500000 0.500000
O O15 0.860265 0.227421 0.966455
O O16 0.250000 0.500000 0.457697
#
# Coordination Sequence:
#
# PCOD9408886 Si02
#       7
#     8   8   8   8   8   8   8
#     4  11  22  35  58  88 123 164 196 247 317 375
#     4  11  24  35  55  87 126 162 199 238 307 378
#     4   9  17  33  57  89 113 149 207 257 287 353
#     4  10  19  37  57  83 121 156 195 253 299 359
#     4  10  21  36  56  81 120 158 196 242 309 368
#     4  10  19  33  59  88 119 149 204 251 307 365
#     4   9  19  33  59  85 114 154 207 253 299 354
#
# _framework density 21.761728999999999
#
# number of rings (size 3 to 8) (size 9 to 14) (size 15 to 20)
#    0.000    2.000    1.429    3.000    8.000    0.000 
#    0.000    0.000    0.000   32.571    0.000   15.000 
#    0.000    0.000    0.000    0.000    0.000    0.000 
#
# Total GULP energy -312073.613352 kJ/mol
# GULP energy per Si atom -5572.743096 kJ/mol
# Density = 2.171220 g / cm^3
# Si number density = 21.761729 Si / 1000 Ang^3
#
#
#
# Elastic Constant Matrix: (Units=GPa)
#
#
# Indices 1 2 3 4 5 6 
#
# 1 49.1990 19.1957 -7.3902 0.0000 0.0000 0.0000
# 2 19.1957 134.2285 25.3808 0.0000 0.0000 0.0000
# 3 -7.3902 25.3808 94.2178 0.0000 0.0000 0.0000
# 4 0.0000 0.0000 0.0000 20.1745 0.0000 0.0000
# 5 0.0000 0.0000 0.0000 0.0000 18.5556 0.0000
# 6 0.0000 0.0000 0.0000 0.0000 0.0000 42.6641
#
#
#
# Elastic Compliance Matrix: (Units=1/GPa)
#
#
# Indices 1 2 3 4 5 6 
#
# 1 0.022175 -0.003688 0.002733 0.000000 0.000000 0.000000
# 2 -0.003688 0.008463 -0.002569 0.000000 0.000000 0.000000
# 3 0.002733 -0.002569 0.011520 0.000000 0.000000 0.000000
# 4 0.000000 0.000000 0.000000 0.049567 0.000000 0.000000
# 5 0.000000 0.000000 0.000000 0.000000 0.053892 0.000000
# 6 0.000000 0.000000 0.000000 0.000000 0.000000 0.023439
#
#
# Mechanical properties :
#
#
# Convention : Reuss Voigt Hill
#
# Bulk Modulus (GPa) = 28.48200 39.11308 33.79754
# Shear Modulus (GPa) = 26.62283 32.30943 29.46613
#
# Velocity S-wave (km/s) = 3.50148 3.85735 3.68371
# Velocity P-wave (km/s) = 5.42804 6.15233 5.80150
#
# Compressibility (1/GPa) = 0.03510990
#
# Stress axis : x y z
#
# Youngs Moduli (GPa) = 45.09574 118.15897 86.80449
#
# Poissons Ratio (x) = 0.43576 -0.23722
# Poissons Ratio (y) = 0.16631 0.22301
# Poissons Ratio (z) = -0.12324 0.30356
#
# Static dielectric constant tensor:
#      x y z
#    x 1.893530 0.000000 0.000000 
#    y 0.000000 2.079020 0.000000 
#    z 0.000000 0.000000 1.848960 
# 
# From -- ./inp_files/28804.got.cif
#   From: 2010.05.17/outbox.cif.g08.bks.cpg/sg52_15_cif.got.tgz:28804.got - 2010.06.03 12:15:38.
