data_PCOD9408113
_publ_section_title
;
Structure prediction by ZEFSAII (Michael W. Deem and Ramdas Pophale) SiO2 
 PCOD9408113
Probable space group: P N N A
;
_chemical_formula_sum "Si O2"
_cell_formula_units_Z 40
_cell_length_a 9.713892
_cell_length_b 13.760581
_cell_length_c 14.571740
_cell_angle_alpha 90.000000
_cell_angle_beta 90.000000
_cell_angle_gamma 90.000000
_cell_volume 1947.786966
_symmetry_space_group_name_H-M "P N N A"
_symmetry_group_IT_number 52
_symmetry_cell_setting 'orthorhombic'
loop_
_space_group_symop_operation_xyz
x,y,z
1/2-x,-y,z
x,1/2-y,1/2-z
1/2-x,1/2+y,1/2-z
-x,-y,-z
1/2+x,y,-z
-x,1/2+y,1/2+z
1/2+x,1/2-y,1/2+z
loop_
_atom_site_type_symbol
_atom_site_label
_atom_site_fract_x
_atom_site_fract_y
_atom_site_fract_z
Si Si1 0.640447 0.652683 0.949932
Si Si2 0.250000 0.000000 0.982916
Si Si3 0.966284 0.503004 0.812745
Si Si4 0.420734 0.710998 0.089309
Si Si5 0.250000 0.000000 0.598356
Si Si6 0.015537 0.081359 0.116404
O O1 0.617352 0.580806 0.864457
O O2 0.758893 0.727426 0.925099
O O3 0.503195 0.698167 0.993167
O O4 0.703789 0.586193 0.031085
O O5 0.137607 0.941320 0.922087
O O6 0.359796 0.939438 0.044919
O O7 0.936363 0.607759 0.859473
O O8 0.952124 0.516037 0.704995
O O9 0.121976 0.475979 0.838573
O O10 0.480966 0.804363 0.139621
#
# Coordination Sequence:
#
# PCOD9408113 Si02
#       6
#     8   4   8   8   4   8
#     4  11  19  36  61  95 130 165 193 256 332 386
#     4  10  25  47  64  74 122 172 220 251 327 370
#     4  11  21  35  62  95 128 161 206 258 318 387
#     4  11  21  36  62  95 126 155 208 259 318 370
#     4  10  17  35  56  90 128 168 194 241 321 398
#     4  11  24  43  64  89 116 173 217 265 305 386
#
# _framework density 20.536128000000001
#
# number of rings (size 3 to 8) (size 9 to 14) (size 15 to 20)
#    0.000    1.200    4.000    3.600    2.800    0.000 
#    0.000    0.000    0.000    0.000    0.000    0.000 
#    0.000    0.000    0.000    0.000    0.000    0.000 
#
# Total GULP energy -223176.110468 kJ/mol
# GULP energy per Si atom -5579.402762 kJ/mol
# Density = 2.048939 g / cm^3
# Si number density = 20.536128 Si / 1000 Ang^3
#
#
#
# Elastic Constant Matrix: (Units=GPa)
#
#
# Indices 1 2 3 4 5 6 
#
# 1 152.8251 36.3872 38.8036 0.0000 0.0000 0.0000
# 2 36.3872 60.5298 25.2126 0.0000 0.0000 0.0000
# 3 38.8036 25.2126 90.3377 0.0000 0.0000 0.0000
# 4 0.0000 0.0000 0.0000 12.9069 0.0000 0.0000
# 5 0.0000 0.0000 0.0000 0.0000 15.3076 0.0000
# 6 0.0000 0.0000 0.0000 0.0000 0.0000 20.5068
#
#
#
# Elastic Compliance Matrix: (Units=1/GPa)
#
#
# Indices 1 2 3 4 5 6 
#
# 1 0.008068 -0.003855 -0.002390 0.000000 0.000000 0.000000
# 2 -0.003855 0.020536 -0.004076 0.000000 0.000000 0.000000
# 3 -0.002390 -0.004076 0.013234 0.000000 0.000000 0.000000
# 4 0.000000 0.000000 0.000000 0.077478 0.000000 0.000000
# 5 0.000000 0.000000 0.000000 0.000000 0.065327 0.000000
# 6 0.000000 0.000000 0.000000 0.000000 0.000000 0.048764
#
#
# Mechanical properties :
#
#
# Convention : Reuss Voigt Hill
#
# Bulk Modulus (GPa) = 47.17611 56.05548 51.61579
# Shear Modulus (GPa) = 19.14887 23.29688 21.22288
#
# Velocity S-wave (km/s) = 3.05691 3.37179 3.21821
# Velocity P-wave (km/s) = 5.95666 6.52027 6.24482
#
# Compressibility (1/GPa) = 0.02119717
#
# Stress axis : x y z
#
# Youngs Moduli (GPa) = 123.94691 48.69589 75.56562
#
# Poissons Ratio (x) = 0.18770 0.18058
# Poissons Ratio (y) = 0.47777 0.30798
# Poissons Ratio (z) = 0.29620 0.19847
#
# Static dielectric constant tensor:
#      x y z
#    x 1.753790 0.000000 0.000000 
#    y 0.000000 1.741980 0.000000 
#    z 0.000000 0.000000 1.736450 
# 
# From -- ./inp_files/24459.got.cif
#   From: 2010.05.17/outbox.cif.g08.bks.cpg/sg52_13_cif.got.tgz:24459.got - 2010.06.03 12:15:38.
