data_PCOD9408597
_publ_section_title
;
Structure prediction by ZEFSAII (Michael W. Deem and Ramdas Pophale) SiO2 
 PCOD9408597
Probable space group: P N N A
;
_chemical_formula_sum "Si O2"
_cell_formula_units_Z 56
_cell_length_a 14.161505
_cell_length_b 7.985511
_cell_length_c 21.052873
_cell_angle_alpha 90.000000
_cell_angle_beta 90.000000
_cell_angle_gamma 90.000000
_cell_volume 2380.803174
_symmetry_space_group_name_H-M "P N N A"
_symmetry_group_IT_number 52
_symmetry_cell_setting 'orthorhombic'
loop_
_space_group_symop_operation_xyz
x,y,z
1/2-x,-y,z
x,1/2-y,1/2-z
1/2-x,1/2+y,1/2-z
-x,-y,-z
1/2+x,y,-z
-x,1/2+y,1/2+z
1/2+x,1/2-y,1/2+z
loop_
_atom_site_type_symbol
_atom_site_label
_atom_site_fract_x
_atom_site_fract_y
_atom_site_fract_z
Si Si1 0.651861 0.231900 0.440271
Si Si2 0.679590 0.860869 0.703369
Si Si3 0.871485 0.335857 0.052068
Si Si4 0.955472 0.576576 0.711602
Si Si5 0.651519 0.103066 0.196134
Si Si6 0.852340 0.428838 0.920078
Si Si7 0.935982 0.785212 0.919742
O O1 0.766297 0.234775 0.443774
O O2 0.629579 0.323669 0.374363
O O3 0.608069 0.300372 0.508146
O O4 0.626656 0.033810 0.430662
O O5 0.740070 0.750000 0.750000
O O6 0.750000 0.000000 0.678549
O O7 0.601576 0.937110 0.748708
O O8 0.645476 0.796134 0.636636
O O9 0.950502 0.221324 0.082549
O O10 0.900847 0.342440 0.978702
O O11 0.951178 0.750000 0.750000
O O12 0.063244 0.515659 0.711281
O O13 0.910850 0.601223 0.640896
O O14 0.657144 0.250000 0.250000
O O15 0.750000 0.000000 0.195700
O O16 0.750000 0.500000 0.943825
O O17 0.906796 0.595690 0.900989
#
# Coordination Sequence:
#
# PCOD9408597 Si02
#       7
#     8   8   8   8   8   8   8
#     4  10  22  42  65 101 135 170 232 285 341 411
#     4  11  25  41  68  99 139 178 227 277 337 412
#     4  10  20  36  70  99 128 177 229 285 334 407
#     4  12  26  45  68 101 141 185 226 280 344 414
#     4  12  29  48  72  99 138 183 232 290 351 410
#     4  10  18  37  63  97 132 173 224 274 335 408
#     4  11  22  39  69  97 137 181 223 282 347 404
#
# _framework density 23.521474999999999
#
# number of rings (size 3 to 8) (size 9 to 14) (size 15 to 20)
#    0.000    1.143    4.286    3.857    6.000    4.000 
#    0.000    2.143    0.000    0.000    0.000    0.000 
#    0.000    0.000    0.000    0.000    0.000    0.000 
#
# Total GULP energy -312435.975504 kJ/mol
# GULP energy per Si atom -5579.213848 kJ/mol
# Density = 2.346794 g / cm^3
# Si number density = 23.521475 Si / 1000 Ang^3
#
#
#
# Elastic Constant Matrix: (Units=GPa)
#
#
# Indices 1 2 3 4 5 6 
#
# 1 112.6001 9.1568 18.7624 0.0000 0.0000 0.0000
# 2 9.1568 51.3873 50.0045 0.0000 0.0000 0.0000
# 3 18.7624 50.0045 128.4028 0.0000 0.0000 0.0000
# 4 0.0000 0.0000 0.0000 21.9700 0.0000 0.0000
# 5 0.0000 0.0000 0.0000 0.0000 18.4968 0.0000
# 6 0.0000 0.0000 0.0000 0.0000 0.0000 7.6491
#
#
#
# Elastic Compliance Matrix: (Units=1/GPa)
#
#
# Indices 1 2 3 4 5 6 
#
# 1 0.009112 -0.000528 -0.001126 0.000000 0.000000 0.000000
# 2 -0.000528 0.031365 -0.012137 0.000000 0.000000 0.000000
# 3 -0.001126 -0.012137 0.012679 0.000000 0.000000 0.000000
# 4 0.000000 0.000000 0.000000 0.045517 0.000000 0.000000
# 5 0.000000 0.000000 0.000000 0.000000 0.054063 0.000000
# 6 0.000000 0.000000 0.000000 0.000000 0.000000 0.130734
#
#
# Mechanical properties :
#
#
# Convention : Reuss Voigt Hill
#
# Bulk Modulus (GPa) = 39.10361 49.80416 44.45389
# Shear Modulus (GPa) = 15.64571 23.92098 19.78334
#
# Velocity S-wave (km/s) = 2.58188 3.19248 2.90328
# Velocity P-wave (km/s) = 5.05459 5.89992 5.49354
#
# Compressibility (1/GPa) = 0.02557309
#
# Stress axis : x y z
#
# Youngs Moduli (GPa) = 109.75126 31.88270 78.86925
#
# Poissons Ratio (x) = 0.01684 0.08878
# Poissons Ratio (y) = 0.05797 0.95727
# Poissons Ratio (z) = 0.12355 0.38697
#
# Static dielectric constant tensor:
#      x y z
#    x 1.948680 0.000000 0.000000 
#    y 0.000000 2.072170 0.000000 
#    z 0.000000 0.000000 2.079700 
# 
# From -- ./inp_files/37308.got.cif
#   From: 2010.05.17/outbox.cif.g08.bks.cpg/sg52_19_cif.got.tgz:37308.got - 2010.06.03 12:15:38.
