data_PCOD9408183
_publ_section_title
;
Structure prediction by ZEFSAII (Michael W. Deem and Ramdas Pophale) SiO2 
 PCOD9408183
Probable space group: P N N A
;
_chemical_formula_sum "Si O2"
_cell_formula_units_Z 56
_cell_length_a 5.535259
_cell_length_b 15.758119
_cell_length_c 27.883636
_cell_angle_alpha 90.000000
_cell_angle_beta 90.000000
_cell_angle_gamma 90.000000
_cell_volume 2432.157679
_symmetry_space_group_name_H-M "P N N A"
_symmetry_group_IT_number 52
_symmetry_cell_setting 'orthorhombic'
loop_
_space_group_symop_operation_xyz
x,y,z
1/2-x,-y,z
x,1/2-y,1/2-z
1/2-x,1/2+y,1/2-z
-x,-y,-z
1/2+x,y,-z
-x,1/2+y,1/2+z
1/2+x,1/2-y,1/2+z
loop_
_atom_site_type_symbol
_atom_site_label
_atom_site_fract_x
_atom_site_fract_y
_atom_site_fract_z
Si Si1 0.750000 0.650352 0.894711
Si Si2 0.750000 0.818949 0.847284
Si Si3 0.750000 0.906842 0.430988
Si Si4 0.250000 0.248493 0.006520
Si Si5 0.250000 0.351263 0.757467
Si Si6 0.250000 0.401524 0.646230
Si Si7 0.250000 0.598477 0.242951
O O1 0.750000 0.718847 0.852776
O O2 0.497140 0.601284 0.900468
O O3 0.002859 0.601284 0.900468
O O4 0.750000 0.711866 0.941153
O O5 0.500154 0.856304 0.868602
O O6 0.750000 0.844582 0.791200
O O7 0.999846 0.856304 0.868602
O O8 0.750000 0.829642 0.469668
O O9 0.750000 0.000000 0.454878
O O10 0.500000 0.200295 0.000000
O O11 0.250000 0.250000 0.750000
O O12 0.250000 0.393694 0.704475
O O13 0.495785 0.381921 0.781676
O O14 0.004215 0.381921 0.781676
O O15 0.250000 0.500000 0.633134
O O16 0.250000 0.500000 0.257206
#
# Coordination Sequence:
#
# PCOD9408183 Si02
#       7
#     8   8   8   8   8   8   8
#     4  10  19  29  44  70  94 121 159 193 237 284
#     4  10  18  30  48  71 100 125 149 194 240 277
#     4  10  19  31  46  66  93 123 159 203 241 274
#     4   8  16  27  41  61  91 115 148 192 236 275
#     4  10  18  29  48  77 102 124 152 188 237 280
#     4  10  19  33  52  75  99 122 152 193 235 272
#     4  10  19  33  51  74 100 124 154 195 235 270
#
# _framework density 23.024823999999999
#
# number of rings (size 3 to 8) (size 9 to 14) (size 15 to 20)
#    0.000    2.286    0.000    6.000    0.000    5.143 
#    0.000    0.000    0.000    0.000    0.000  104.000 
#    0.000  174.857    0.000    0.000    0.000    0.000 
#
# Total GULP energy -312667.590875 kJ/mol
# GULP energy per Si atom -5583.349837 kJ/mol
# Density = 2.297242 g / cm^3
# Si number density = 23.024824 Si / 1000 Ang^3
#
#
#
# Elastic Constant Matrix: (Units=GPa)
#
#
# Indices 1 2 3 4 5 6 
#
# 1 252.6519 19.1106 15.2643 0.0000 0.0000 0.0000
# 2 19.1106 56.0175 24.5075 0.0000 0.0000 0.0000
# 3 15.2643 24.5075 44.9355 0.0000 0.0000 0.0000
# 4 0.0000 0.0000 0.0000 10.4797 0.0000 0.0000
# 5 0.0000 0.0000 0.0000 0.0000 1.0563 0.0000
# 6 0.0000 0.0000 0.0000 0.0000 0.0000 34.7089
#
#
#
# Elastic Compliance Matrix: (Units=1/GPa)
#
#
# Indices 1 2 3 4 5 6 
#
# 1 0.004086 -0.001033 -0.000824 0.000000 0.000000 0.000000
# 2 -0.001033 0.023707 -0.012579 0.000000 0.000000 0.000000
# 3 -0.000824 -0.012579 0.029395 0.000000 0.000000 0.000000
# 4 0.000000 0.000000 0.000000 0.095423 0.000000 0.000000
# 5 0.000000 0.000000 0.000000 0.000000 0.946729 0.000000
# 6 0.000000 0.000000 0.000000 0.000000 0.000000 0.028811
#
#
# Mechanical properties :
#
#
# Convention : Reuss Voigt Hill
#
# Bulk Modulus (GPa) = 35.31716 52.37439 43.84577
# Shear Modulus (GPa) = 4.28647 28.89715 16.59181
#
# Velocity S-wave (km/s) = 1.36591 3.54650 2.68732
# Velocity P-wave (km/s) = 4.22607 6.29019 5.35846
#
# Compressibility (1/GPa) = 0.02831485
#
# Stress axis : x y z
#
# Youngs Moduli (GPa) = 244.73929 42.18124 34.01992
#
# Poissons Ratio (x) = 0.04358 0.02805
# Poissons Ratio (y) = 0.25288 0.42793
# Poissons Ratio (z) = 0.20178 0.53059
#
# Static dielectric constant tensor:
#      x y z
#    x 2.017070 0.000000 0.000000 
#    y 0.000000 1.802930 0.000000 
#    z 0.000000 0.000000 1.861790 
# 
# From -- ./inp_files/43800.got.cif
#   From: 2010.05.17/outbox.cif.g08.bks.cpg/sg52_22_cif.got.tgz:43800.got - 2010.06.03 12:15:38.
