data_PCOD9408140
_publ_section_title
;
Structure prediction by ZEFSAII (Michael W. Deem and Ramdas Pophale) SiO2 
 PCOD9408140
Probable space group: P N N A
;
_chemical_formula_sum "Si O2"
_cell_formula_units_Z 24
_cell_length_a 5.483720
_cell_length_b 7.119935
_cell_length_c 24.433212
_cell_angle_alpha 90.000000
_cell_angle_beta 90.000000
_cell_angle_gamma 90.000000
_cell_volume 953.963731
_symmetry_space_group_name_H-M "P N N A"
_symmetry_group_IT_number 52
_symmetry_cell_setting 'orthorhombic'
loop_
_space_group_symop_operation_xyz
x,y,z
1/2-x,-y,z
x,1/2-y,1/2-z
1/2-x,1/2+y,1/2-z
-x,-y,-z
1/2+x,y,-z
-x,1/2+y,1/2+z
1/2+x,1/2-y,1/2+z
loop_
_atom_site_type_symbol
_atom_site_label
_atom_site_fract_x
_atom_site_fract_y
_atom_site_fract_z
Si Si1 0.973248 0.720416 0.813460
Si Si2 0.694520 0.286253 0.018623
Si Si3 0.026682 0.291384 0.856184
O O1 0.917113 0.750000 0.750000
O O2 0.739897 0.793360 0.846771
O O3 0.999312 0.502139 0.831700
O O4 0.242140 0.797723 0.825816
O O5 0.750000 0.500000 0.998408
O O6 0.601077 0.295592 0.080578
O O7 0.467281 0.202276 0.984790
#
# Coordination Sequence:
#
# PCOD9408140 Si02
#       3
#     8   8   8
#     4  10  19  30  44  60  85 124 155 179 214 250
#     4  10  18  26  43  65  88 121 140 162 219 278
#     4  10  19  32  44  65  93 120 146 182 213 258
#
# _framework density 25.158187000000002
#
# number of rings (size 3 to 8) (size 9 to 14) (size 15 to 20)
#    0.000    2.000    3.333    3.000    9.333    0.000 
#    0.000    0.000    0.000    0.000    0.000    0.000 
#    0.000    0.000    0.000  696.000    0.000    0.000 
#
# Total GULP energy -134049.627332 kJ/mol
# GULP energy per Si atom -5585.401139 kJ/mol
# Density = 2.510093 g / cm^3
# Si number density = 25.158187 Si / 1000 Ang^3
#
#
#
# Elastic Constant Matrix: (Units=GPa)
#
#
# Indices 1 2 3 4 5 6 
#
# 1 312.6841 21.8441 65.2417 0.0000 0.0000 0.0000
# 2 21.8441 119.3208 13.7800 0.0000 0.0000 0.0000
# 3 65.2417 13.7800 156.8407 0.0000 0.0000 0.0000
# 4 0.0000 0.0000 0.0000 2.3887 0.0000 0.0000
# 5 0.0000 0.0000 0.0000 0.0000 59.7737 0.0000
# 6 0.0000 0.0000 0.0000 0.0000 0.0000 -30.0452
#
#
#
# Elastic Compliance Matrix: (Units=1/GPa)
#
#
# Indices 1 2 3 4 5 6 
#
# 1 0.003529 -0.000481 -0.001426 0.000000 0.000000 0.000000
# 2 -0.000481 0.008532 -0.000549 0.000000 0.000000 0.000000
# 3 -0.001426 -0.000549 0.007017 0.000000 0.000000 0.000000
# 4 0.000000 0.000000 0.000000 0.418641 0.000000 0.000000
# 5 0.000000 0.000000 0.000000 0.000000 0.016730 0.000000
# 6 0.000000 0.000000 0.000000 0.000000 0.000000 -0.033283
#
#
# Mechanical properties :
#
#
# Convention : Reuss Voigt Hill
#
# Bulk Modulus (GPa) = 70.59332 87.84190 79.21761
# Shear Modulus (GPa) = 11.60627 38.95544 25.28085
#
# Velocity S-wave (km/s) = 2.15019 3.93927 3.17342
# Velocity P-wave (km/s) = 5.85535 7.46204 6.70698
#
# Compressibility (1/GPa) = 0.01416565
#
# Stress axis : x y z
#
# Youngs Moduli (GPa) = 283.34734 117.20100 142.50597
#
# Poissons Ratio (x) = 0.05643 0.20318
# Poissons Ratio (y) = 0.13641 0.07829
# Poissons Ratio (z) = 0.40399 0.06439
#
# Static dielectric constant tensor:
#      x y z
#    x 2.078100 0.000000 0.000000 
#    y 0.000000 2.691450 0.000000 
#    z 0.000000 0.000000 1.924300 
# 
# From -- ./inp_files/29913.got.cif
#   From: 2010.05.17/outbox.cif.g08.bks.cpg/sg52_15_cif.got.tgz:29913.got - 2010.06.03 12:15:38.
