data_PCOD9408388
_publ_section_title
;
Structure prediction by ZEFSAII (Michael W. Deem and Ramdas Pophale) SiO2 
 PCOD9408388
Probable space group: P N N A
;
_chemical_formula_sum "Si O2"
_cell_formula_units_Z 40
_cell_length_a 8.017404
_cell_length_b 12.737766
_cell_length_c 15.492968
_cell_angle_alpha 90.000000
_cell_angle_beta 90.000000
_cell_angle_gamma 90.000000
_cell_volume 1582.201015
_symmetry_space_group_name_H-M "P N N A"
_symmetry_group_IT_number 52
_symmetry_cell_setting 'orthorhombic'
loop_
_space_group_symop_operation_xyz
x,y,z
1/2-x,-y,z
x,1/2-y,1/2-z
1/2-x,1/2+y,1/2-z
-x,-y,-z
1/2+x,y,-z
-x,1/2+y,1/2+z
1/2+x,1/2-y,1/2+z
loop_
_atom_site_type_symbol
_atom_site_label
_atom_site_fract_x
_atom_site_fract_y
_atom_site_fract_z
Si Si1 0.484616 0.311041 0.660699
Si Si2 0.181106 0.398020 0.570237
Si Si3 0.090109 0.629618 0.136084
Si Si4 0.380792 0.822357 0.482585
Si Si5 0.639159 0.877983 0.827901
O O1 0.483782 0.250000 0.750000
O O2 0.317155 0.376808 0.645460
O O3 0.485247 0.219851 0.587027
O O4 0.660049 0.376447 0.659223
O O5 0.250000 0.500000 0.522655
O O6 0.180406 0.292077 0.515334
O O7 0.997534 0.420883 0.605754
O O8 0.251829 0.615875 0.076389
O O9 0.096928 0.753690 0.159937
O O10 0.096270 0.581231 0.231122
O O11 0.941748 0.616454 0.067308
#
# Coordination Sequence:
#
# PCOD9408388 Si02
#       5
#     8   8   8   8   8
#     4  11  21  36  58  82 112 154 202 240 279 336
#     4  11  25  37  54  88 127 160 180 222 300 368
#     4   9  16  31  51  81 107 140 189 246 277 314
#     4  10  18  33  54  81 115 141 193 233 289 332
#     4   9  19  36  53  75 115 149 193 240 273 325
#
# _framework density 25.281237000000001
#
# number of rings (size 3 to 8) (size 9 to 14) (size 15 to 20)
#    0.000    2.000    6.000    0.000    5.600    1.600 
#    0.000    0.000    0.000    0.000    0.000    5.600 
#    0.000    0.000    0.000    0.000    0.000    0.000 
#
# Total GULP energy -223265.559690 kJ/mol
# GULP energy per Si atom -5581.638992 kJ/mol
# Density = 2.522370 g / cm^3
# Si number density = 25.281237 Si / 1000 Ang^3
#
#
#
# Elastic Constant Matrix: (Units=GPa)
#
#
# Indices 1 2 3 4 5 6 
#
# 1 99.7568 20.9624 74.3793 0.0000 0.0000 0.0000
# 2 20.9624 57.3100 17.4607 0.0000 0.0000 0.0000
# 3 74.3793 17.4607 167.0413 0.0000 0.0000 0.0000
# 4 0.0000 0.0000 0.0000 15.4925 0.0000 0.0000
# 5 0.0000 0.0000 0.0000 0.0000 58.4290 0.0000
# 6 0.0000 0.0000 0.0000 0.0000 0.0000 -12.0472
#
#
#
# Elastic Compliance Matrix: (Units=1/GPa)
#
#
# Indices 1 2 3 4 5 6 
#
# 1 0.015747 -0.003743 -0.006621 0.000000 0.000000 0.000000
# 2 -0.003743 0.018913 -0.000310 0.000000 0.000000 0.000000
# 3 -0.006621 -0.000310 0.008967 0.000000 0.000000 0.000000
# 4 0.000000 0.000000 0.000000 0.064547 0.000000 0.000000
# 5 0.000000 0.000000 0.000000 0.000000 0.017115 0.000000
# 6 0.000000 0.000000 0.000000 0.000000 0.000000 -0.083007
#
#
# Mechanical properties :
#
#
# Convention : Reuss Voigt Hill
#
# Bulk Modulus (GPa) = 44.88483 61.07921 52.98202
# Shear Modulus (GPa) = 70.36666 26.46189 48.41427
#
# Velocity S-wave (km/s) = 5.28147 3.23879 4.38085
# Velocity P-wave (km/s) = 7.41517 6.18051 6.82581
#
# Compressibility (1/GPa) = 0.02227924
#
# Stress axis : x y z
#
# Youngs Moduli (GPa) = 63.50317 52.87499 111.52033
#
# Poissons Ratio (x) = 0.19790 0.73833
# Poissons Ratio (y) = 0.23768 0.03461
# Poissons Ratio (z) = 0.42043 0.01641
#
# Static dielectric constant tensor:
#      x y z
#    x 2.048390 0.000000 0.000000 
#    y 0.000000 2.069040 0.000000 
#    z 0.000000 0.000000 2.018650 
# 
# From -- ./inp_files/24558.got.cif
#   From: 2010.05.17/outbox.cif.g08.bks.cpg/sg52_13_cif.got.tgz:24558.got - 2010.06.03 12:15:38.
