data_PCOD9408670
_publ_section_title
;
Structure prediction by ZEFSAII (Michael W. Deem and Ramdas Pophale) SiO2 
 PCOD9408670
Probable space group: P N N A
;
_chemical_formula_sum "Si O2"
_cell_formula_units_Z 56
_cell_length_a 15.404992
_cell_length_b 17.493974
_cell_length_c 8.791031
_cell_angle_alpha 90.000000
_cell_angle_beta 90.000000
_cell_angle_gamma 90.000000
_cell_volume 2369.134763
_symmetry_space_group_name_H-M "P N N A"
_symmetry_group_IT_number 52
_symmetry_cell_setting 'orthorhombic'
loop_
_space_group_symop_operation_xyz
x,y,z
1/2-x,-y,z
x,1/2-y,1/2-z
1/2-x,1/2+y,1/2-z
-x,-y,-z
1/2+x,y,-z
-x,1/2+y,1/2+z
1/2+x,1/2-y,1/2+z
loop_
_atom_site_type_symbol
_atom_site_label
_atom_site_fract_x
_atom_site_fract_y
_atom_site_fract_z
Si Si1 0.481866 0.931028 0.821978
Si Si2 0.900232 0.881646 0.496573
Si Si3 0.302367 0.125469 0.528475
Si Si4 0.587586 0.221757 0.074087
Si Si5 0.711338 0.785064 0.077168
Si Si6 0.657217 0.506262 0.765312
Si Si7 0.336960 0.052478 0.841929
O O1 0.456421 0.915193 0.642583
O O2 0.466128 0.855618 0.922398
O O3 0.579106 0.958794 0.825651
O O4 0.415698 0.996286 0.870604
O O5 0.801101 0.872170 0.433557
O O6 0.935833 0.796068 0.525359
O O7 0.883636 0.933366 0.644738
O O8 0.326710 0.212514 0.486754
O O9 0.317001 0.067757 0.393111
O O10 0.348397 0.087209 0.671355
O O11 0.584537 0.250000 0.250000
O O12 0.687594 0.203054 0.037985
O O13 0.706754 0.750000 0.250000
O O14 0.671145 0.868367 0.066337
O O15 0.750000 0.500000 0.680474
O O16 0.250000 0.000000 0.839966
#
# Coordination Sequence:
#
# PCOD9408670 Si02
#       7
#     8   8   8   8   8   8   8
#     4  11  17  23  39  62  89 115 140 174 218 272
#     4   9  15  25  38  56  84 117 139 178 213 263
#     4   9  15  25  36  53  86 124 138 163 213 270
#     4   8  14  23  36  56  83 112 138 175 216 260
#     4   8  14  22  35  54  82 118 137 165 216 268
#     4  10  19  28  38  58  92 124 148 173 220 277
#     4  11  14  21  36  60  88 110 133 168 221 272
#
# _framework density 23.637319999999999
#
# number of rings (size 3 to 8) (size 9 to 14) (size 15 to 20)
#    0.000    2.571    4.286    2.571    0.000    0.000 
#    0.000    0.000    0.000    0.000    0.000    9.000 
#    0.000   12.571    0.000    0.000    0.000    0.000 
#
# Total GULP energy -312753.871879 kJ/mol
# GULP energy per Si atom -5584.890569 kJ/mol
# Density = 2.358352 g / cm^3
# Si number density = 23.637320 Si / 1000 Ang^3
#
#
#
# Elastic Constant Matrix: (Units=GPa)
#
#
# Indices 1 2 3 4 5 6 
#
# 1 132.6248 78.2857 22.5183 0.0000 0.0000 0.0000
# 2 78.2857 217.9677 29.9656 0.0000 0.0000 0.0000
# 3 22.5183 29.9656 32.1490 0.0000 0.0000 0.0000
# 4 0.0000 0.0000 0.0000 -12.6722 0.0000 0.0000
# 5 0.0000 0.0000 0.0000 0.0000 109.8220 0.0000
# 6 0.0000 0.0000 0.0000 0.0000 0.0000 20.3644
#
#
#
# Elastic Compliance Matrix: (Units=1/GPa)
#
#
# Indices 1 2 3 4 5 6 
#
# 1 0.010042 -0.003028 -0.004212 0.000000 0.000000 0.000000
# 2 -0.003028 0.006175 -0.003635 0.000000 0.000000 0.000000
# 3 -0.004212 -0.003635 0.037443 0.000000 0.000000 0.000000
# 4 0.000000 0.000000 0.000000 -0.078913 0.000000 0.000000
# 5 0.000000 0.000000 0.000000 0.000000 0.009106 0.000000
# 6 0.000000 0.000000 0.000000 0.000000 0.000000 0.049105
#
#
# Mechanical properties :
#
#
# Convention : Reuss Voigt Hill
#
# Bulk Modulus (GPa) = 31.33653 71.58674 51.46163
# Shear Modulus (GPa) = 76.51688 40.30098 58.40893
#
# Velocity S-wave (km/s) = 5.69574 4.13361 4.97636
# Velocity P-wave (km/s) = 7.51940 7.28928 7.40523
#
# Compressibility (1/GPa) = 0.03191164
#
# Stress axis : x y z
#
# Youngs Moduli (GPa) = 99.57714 161.94259 26.70705
#
# Poissons Ratio (x) = 0.49033 0.11249
# Poissons Ratio (y) = 0.30150 0.09708
# Poissons Ratio (z) = 0.41941 0.58864
#
# Static dielectric constant tensor:
#      x y z
#    x 1.937580 0.000000 0.000000 
#    y 0.000000 1.945360 0.000000 
#    z 0.000000 0.000000 1.902160 
# 
# From -- ./inp_files/27471.got.cif
#   From: 2010.05.17/outbox.cif.g08.bks.cpg/sg52_14_cif.got.tgz:27471.got - 2010.06.03 12:15:38.
