data_PCOD9408937
_publ_section_title
;
Structure prediction by ZEFSAII (Michael W. Deem and Ramdas Pophale) SiO2 
 PCOD9408937
Probable space group: P N N A
;
_chemical_formula_sum "Si O2"
_cell_formula_units_Z 48
_cell_length_a 18.113874
_cell_length_b 15.363267
_cell_length_c 8.537624
_cell_angle_alpha 90.000000
_cell_angle_beta 90.000000
_cell_angle_gamma 90.000000
_cell_volume 2375.920721
_symmetry_space_group_name_H-M "P N N A"
_symmetry_group_IT_number 52
_symmetry_cell_setting 'orthorhombic'
loop_
_space_group_symop_operation_xyz
x,y,z
1/2-x,-y,z
x,1/2-y,1/2-z
1/2-x,1/2+y,1/2-z
-x,-y,-z
1/2+x,y,-z
-x,1/2+y,1/2+z
1/2+x,1/2-y,1/2+z
loop_
_atom_site_type_symbol
_atom_site_label
_atom_site_fract_x
_atom_site_fract_y
_atom_site_fract_z
Si Si1 0.807956 0.842700 0.833569
Si Si2 0.083433 0.524076 0.671619
Si Si3 0.347384 0.155085 0.302873
Si Si4 0.284332 0.095061 0.623431
Si Si5 0.580894 0.008943 0.802201
Si Si6 0.644076 0.339061 0.306000
O O1 0.818783 0.750000 0.750000
O O2 0.721891 0.865708 0.812204
O O3 0.857664 0.919506 0.762151
O O4 0.832992 0.835563 0.012668
O O5 0.148056 0.576474 0.757658
O O6 0.090179 0.521948 0.483261
O O7 0.094088 0.423320 0.719382
O O8 0.000227 0.549646 0.713771
O O9 0.374407 0.250000 0.250000
O O10 0.312164 0.149584 0.475329
O O11 0.406275 0.078203 0.295416
O O12 0.218729 0.145559 0.708567
O O13 0.250000 0.000000 0.577848
O O14 0.608262 0.250000 0.250000
#
# Coordination Sequence:
#
# PCOD9408937 Si02
#       6
#     8   8   8   8   8   8
#     4  10  20  35  57  83 107 142 185 223 274 326
#     4   9  21  37  56  79 108 149 185 217 278 331
#     4  11  22  35  55  83 111 142 184 229 275 324
#     4  10  20  36  56  81 108 142 185 228 276 328
#     4  10  20  39  57  77 114 149 179 226 273 328
#     4  10  19  34  57  81 109 139 178 230 273 324
#
# _framework density 20.202694000000001
#
# number of rings (size 3 to 8) (size 9 to 14) (size 15 to 20)
#    0.000    2.000    0.000    4.500    0.000    5.333 
#    0.000    5.833    0.000    0.000    0.000    0.000 
#    0.000    0.000    0.000    0.000    0.000    0.000 
#
# Total GULP energy -268078.794169 kJ/mol
# GULP energy per Si atom -5584.974879 kJ/mol
# Density = 2.015671 g / cm^3
# Si number density = 20.202694 Si / 1000 Ang^3
#
#
#
# Elastic Constant Matrix: (Units=GPa)
#
#
# Indices 1 2 3 4 5 6 
#
# 1 41.5034 -1.4634 -9.2996 0.0000 0.0000 0.0000
# 2 -1.4634 58.9910 0.3553 0.0000 0.0000 0.0000
# 3 -9.2996 0.3553 41.8040 0.0000 0.0000 0.0000
# 4 0.0000 0.0000 0.0000 29.2775 0.0000 0.0000
# 5 0.0000 0.0000 0.0000 0.0000 6.8226 0.0000
# 6 0.0000 0.0000 0.0000 0.0000 0.0000 8.5946
#
#
#
# Elastic Compliance Matrix: (Units=1/GPa)
#
#
# Indices 1 2 3 4 5 6 
#
# 1 0.025379 0.000596 0.005641 0.000000 0.000000 0.000000
# 2 0.000596 0.016967 -0.000012 0.000000 0.000000 0.000000
# 3 0.005641 -0.000012 0.025176 0.000000 0.000000 0.000000
# 4 0.000000 0.000000 0.000000 0.034156 0.000000 0.000000
# 5 0.000000 0.000000 0.000000 0.000000 0.146571 0.000000
# 6 0.000000 0.000000 0.000000 0.000000 0.000000 0.116352
#
#
# Mechanical properties :
#
#
# Convention : Reuss Voigt Hill
#
# Bulk Modulus (GPa) = 12.50449 13.49812 13.00131
# Shear Modulus (GPa) = 13.19928 19.11937 16.15933
#
# Velocity S-wave (km/s) = 2.55883 3.07966 2.83125
# Velocity P-wave (km/s) = 3.86434 4.39791 4.13973
#
# Compressibility (1/GPa) = 0.07997125
#
# Stress axis : x y z
#
# Youngs Moduli (GPa) = 39.40217 58.93940 39.72029
#
# Poissons Ratio (x) = -0.03510 -0.22405
# Poissons Ratio (y) = -0.02347 0.00046
# Poissons Ratio (z) = -0.22226 0.00069
#
# Static dielectric constant tensor:
#      x y z
#    x 1.704610 0.000000 0.000000 
#    y 0.000000 1.714290 0.000000 
#    z 0.000000 0.000000 1.714620 
# 
# From -- ./inp_files/12087.got.cif
#   From: 2010.05.17/outbox.cif.g08.bks.cpg/sg52_7_cif.got.tgz:12087.got - 2010.06.03 12:15:38.
