data_PCOD9408786
_publ_section_title
;
Structure prediction by ZEFSAII (Michael W. Deem and Ramdas Pophale) SiO2 
 PCOD9408786
Probable space group: P N N A
;
_chemical_formula_sum "Si O2"
_cell_formula_units_Z 64
_cell_length_a 20.518083
_cell_length_b 27.691330
_cell_length_c 5.766905
_cell_angle_alpha 90.000000
_cell_angle_beta 90.000000
_cell_angle_gamma 90.000000
_cell_volume 3276.599757
_symmetry_space_group_name_H-M "P N N A"
_symmetry_group_IT_number 52
_symmetry_cell_setting 'orthorhombic'
loop_
_space_group_symop_operation_xyz
x,y,z
1/2-x,-y,z
x,1/2-y,1/2-z
1/2-x,1/2+y,1/2-z
-x,-y,-z
1/2+x,y,-z
-x,1/2+y,1/2+z
1/2+x,1/2-y,1/2+z
loop_
_atom_site_type_symbol
_atom_site_label
_atom_site_fract_x
_atom_site_fract_y
_atom_site_fract_z
Si Si1 0.877689 0.275244 0.002225
Si Si2 0.501151 0.958377 0.697196
Si Si3 0.390791 0.508419 0.506198
Si Si4 0.305941 0.061069 0.672982
Si Si5 0.232510 0.241614 0.002925
Si Si6 0.403467 0.118802 0.381085
Si Si7 0.714574 0.049167 0.711165
Si Si8 0.290137 0.135235 0.042460
O O1 0.896130 0.250000 0.750000
O O2 0.902978 0.330135 0.011608
O O3 0.895081 0.250000 0.250000
O O4 0.798260 0.274580 0.997441
O O5 0.430773 0.958819 0.815460
O O6 0.525880 0.905532 0.625774
O O7 0.500000 0.000000 0.500000
O O8 0.555442 0.974183 0.887353
O O9 0.339630 0.475825 0.650232
O O10 0.357170 0.539811 0.304373
O O11 0.359901 0.074198 0.481285
O O12 0.236568 0.049258 0.556280
O O13 0.295121 0.111774 0.793963
O O14 0.200600 0.250000 0.750000
O O15 0.197009 0.250000 0.250000
O O16 0.259930 0.187471 0.022063
O O17 0.362409 0.133294 0.151769
O O18 0.744661 0.097798 0.815745
O O19 0.750000 0.000000 0.795525
#
# Coordination Sequence:
#
# PCOD9408786 Si02
#       8
#     8   8   8   8   8   8   8   8
#     4  10  19  32  54  84 126 159 196 263 319 393
#     4  11  23  39  61  83 123 173 205 268 304 383
#     4  11  23  41  55  86 125 161 221 258 308 373
#     4  11  21  34  59  77 123 162 205 258 310 382
#     4  10  19  33  52  83 124 154 192 255 322 389
#     4  11  20  35  56  88 118 165 209 242 330 385
#     4  11  24  36  55  86 117 163 210 259 312 371
#     4  11  21  35  57  86 120 165 195 254 322 390
#
# _framework density 19.532444000000002
#
# number of rings (size 3 to 8) (size 9 to 14) (size 15 to 20)
#    0.000    1.250    6.250    2.250    3.500    0.000 
#    0.000    0.000    0.000    0.000    0.000    0.875 
#    0.000    0.000    0.000    0.000    0.000    0.000 
#
# Total GULP energy -356386.138640 kJ/mol
# GULP energy per Si atom -5568.533416 kJ/mol
# Density = 1.948799 g / cm^3
# Si number density = 19.532444 Si / 1000 Ang^3
#
#
#
# Elastic Constant Matrix: (Units=GPa)
#
#
# Indices 1 2 3 4 5 6 
#
# 1 46.3235 21.7361 26.1639 0.0000 0.0000 0.0000
# 2 21.7361 84.7456 29.8074 0.0000 0.0000 0.0000
# 3 26.1639 29.8074 114.3898 0.0000 0.0000 0.0000
# 4 0.0000 0.0000 0.0000 39.6784 0.0000 0.0000
# 5 0.0000 0.0000 0.0000 0.0000 24.0200 0.0000
# 6 0.0000 0.0000 0.0000 0.0000 0.0000 17.0955
#
#
#
# Elastic Compliance Matrix: (Units=1/GPa)
#
#
# Indices 1 2 3 4 5 6 
#
# 1 0.026704 -0.005175 -0.004759 0.000000 0.000000 0.000000
# 2 -0.005175 0.013994 -0.002463 0.000000 0.000000 0.000000
# 3 -0.004759 -0.002463 0.010472 0.000000 0.000000 0.000000
# 4 0.000000 0.000000 0.000000 0.025203 0.000000 0.000000
# 5 0.000000 0.000000 0.000000 0.000000 0.041632 0.000000
# 6 0.000000 0.000000 0.000000 0.000000 0.000000 0.058495
#
#
# Mechanical properties :
#
#
# Convention : Reuss Voigt Hill
#
# Bulk Modulus (GPa) = 37.91426 44.54150 41.22788
# Shear Modulus (GPa) = 23.79985 27.34221 25.57103
#
# Velocity S-wave (km/s) = 3.49446 3.74550 3.62215
# Velocity P-wave (km/s) = 5.97785 6.44658 6.21663
#
# Compressibility (1/GPa) = 0.02637530
#
# Stress axis : x y z
#
# Youngs Moduli (GPa) = 37.44795 71.46127 95.48967
#
# Poissons Ratio (x) = 0.36982 0.45446
# Poissons Ratio (y) = 0.19380 0.23516
# Poissons Ratio (z) = 0.17823 0.17599
#
# Static dielectric constant tensor:
#      x y z
#    x 1.714760 0.000000 0.000000 
#    y 0.000000 1.717110 0.000000 
#    z 0.000000 0.000000 1.846770 
# 
# From -- ./inp_files/4626.got.cif
#   From: 2010.05.17/outbox.cif.g08.bks.cpg/sg52_3_cif.got.tgz:4626.got - 2010.06.03 12:15:38.
