data_PCOD9408925
_publ_section_title
;
Structure prediction by ZEFSAII (Michael W. Deem and Ramdas Pophale) SiO2 
 PCOD9408925
Probable space group: P N N A
;
_chemical_formula_sum "Si O2"
_cell_formula_units_Z 60
_cell_length_a 18.384869
_cell_length_b 23.923333
_cell_length_c 5.829962
_cell_angle_alpha 90.000000
_cell_angle_beta 90.000000
_cell_angle_gamma 90.000000
_cell_volume 2564.176698
_symmetry_space_group_name_H-M "P N N A"
_symmetry_group_IT_number 52
_symmetry_cell_setting 'orthorhombic'
loop_
_space_group_symop_operation_xyz
x,y,z
1/2-x,-y,z
x,1/2-y,1/2-z
1/2-x,1/2+y,1/2-z
-x,-y,-z
1/2+x,y,-z
-x,1/2+y,1/2+z
1/2+x,1/2-y,1/2+z
loop_
_atom_site_type_symbol
_atom_site_label
_atom_site_fract_x
_atom_site_fract_y
_atom_site_fract_z
Si Si1 0.042315 0.334089 0.995385
Si Si2 0.750000 0.000000 0.393344
Si Si3 0.113135 0.966346 0.348749
Si Si4 0.860759 0.886106 0.871568
Si Si5 0.840444 0.761959 0.007701
Si Si6 0.790155 0.089695 0.023961
Si Si7 0.086035 0.872632 0.731810
Si Si8 0.485424 0.574343 0.617955
O O1 0.967214 0.325421 0.134698
O O2 0.096170 0.374971 0.138866
O O3 0.020006 0.370492 0.776795
O O4 0.088738 0.278046 0.976099
O O5 0.673250 0.005928 0.531416
O O6 0.741758 0.946149 0.231936
O O7 0.155992 0.947761 0.123275
O O8 0.106614 0.914225 0.524433
O O9 0.029003 0.972967 0.261376
O O10 0.775665 0.896015 0.857232
O O11 0.863019 0.826470 0.001915
O O12 0.904389 0.932555 0.017780
O O13 0.799862 0.750000 0.250000
O O14 0.808409 0.750000 0.750000
O O15 0.839692 0.138934 0.130465
O O16 0.034244 0.907335 0.903383
#
# Coordination Sequence:
#
# PCOD9408925 Si02
#       8
#     8   4   8   8   8   8   8   8
#     4   9  17  31  55  83 111 151 194 235 292 353
#     4  10  20  36  56  80 108 154 202 248 300 374
#     4   9  18  34  56  79 107 149 193 240 295 355
#     4  10  20  32  54  89 115 151 199 243 307 365
#     4  10  19  34  55  89 117 158 196 247 296 363
#     4  10  20  35  56  82 115 154 198 250 304 364
#     4   8  17  32  54  81 106 147 199 237 281 351
#     4   9  16  32  55  81 111 143 191 238 284 356
#
# _framework density 23.399325000000001
#
# number of rings (size 3 to 8) (size 9 to 14) (size 15 to 20)
#    0.000    2.667    1.333    0.400    0.000    2.133 
#    0.000    0.667    0.000   38.400   34.667    0.000 
#    0.000    0.000    0.000    0.000    0.000    0.000 
#
# Total GULP energy -334250.958173 kJ/mol
# GULP energy per Si atom -5570.849303 kJ/mol
# Density = 2.334607 g / cm^3
# Si number density = 23.399325 Si / 1000 Ang^3
#
#
#
# Elastic Constant Matrix: (Units=GPa)
#
#
# Indices 1 2 3 4 5 6 
#
# 1 93.4929 10.6472 0.3130 0.0000 0.0000 0.0000
# 2 10.6472 52.6317 6.5113 0.0000 0.0000 0.0000
# 3 0.3130 6.5113 68.5721 0.0000 0.0000 0.0000
# 4 0.0000 0.0000 0.0000 20.9798 0.0000 0.0000
# 5 0.0000 0.0000 0.0000 0.0000 3.8577 0.0000
# 6 0.0000 0.0000 0.0000 0.0000 0.0000 16.9789
#
#
#
# Elastic Compliance Matrix: (Units=1/GPa)
#
#
# Indices 1 2 3 4 5 6 
#
# 1 0.010950 -0.002235 0.000162 0.000000 0.000000 0.000000
# 2 -0.002235 0.019682 -0.001859 0.000000 0.000000 0.000000
# 3 0.000162 -0.001859 0.014759 0.000000 0.000000 0.000000
# 4 0.000000 0.000000 0.000000 0.047665 0.000000 0.000000
# 5 0.000000 0.000000 0.000000 0.000000 0.259222 0.000000
# 6 0.000000 0.000000 0.000000 0.000000 0.000000 0.058897
#
#
# Mechanical properties :
#
#
# Convention : Reuss Voigt Hill
#
# Bulk Modulus (GPa) = 26.64700 27.73776 27.19238
# Shear Modulus (GPa) = 11.58623 21.51164 16.54893
#
# Velocity S-wave (km/s) = 2.22762 3.03533 2.66228
# Velocity P-wave (km/s) = 4.24606 4.91570 4.59310
#
# Compressibility (1/GPa) = 0.03752767
#
# Stress axis : x y z
#
# Youngs Moduli (GPa) = 91.32411 50.80766 67.75558
#
# Poissons Ratio (x) = 0.11357 -0.01099
# Poissons Ratio (y) = 0.20413 0.12594
# Poissons Ratio (z) = -0.01482 0.09444
#
# Static dielectric constant tensor:
#      x y z
#    x 1.923630 0.000000 0.000000 
#    y 0.000000 1.896510 0.000000 
#    z 0.000000 0.000000 1.960490 
# 
# From -- ./inp_files/3591.got.cif
#   From: 2010.05.17/outbox.cif.g08.bks.cpg/sg52_2_cif.got.tgz:3591.got - 2010.06.03 12:15:38.
