data_PCOD9408897
_publ_section_title
;
Structure prediction by ZEFSAII (Michael W. Deem and Ramdas Pophale) SiO2 
 PCOD9408897
Probable space group: P N N A
;
_chemical_formula_sum "Si O2"
_cell_formula_units_Z 60
_cell_length_a 8.865757
_cell_length_b 26.888284
_cell_length_c 14.542729
_cell_angle_alpha 90.000000
_cell_angle_beta 90.000000
_cell_angle_gamma 90.000000
_cell_volume 3466.768338
_symmetry_space_group_name_H-M "P N N A"
_symmetry_group_IT_number 52
_symmetry_cell_setting 'orthorhombic'
loop_
_space_group_symop_operation_xyz
x,y,z
1/2-x,-y,z
x,1/2-y,1/2-z
1/2-x,1/2+y,1/2-z
-x,-y,-z
1/2+x,y,-z
-x,1/2+y,1/2+z
1/2+x,1/2-y,1/2+z
loop_
_atom_site_type_symbol
_atom_site_label
_atom_site_fract_x
_atom_site_fract_y
_atom_site_fract_z
Si Si1 0.577643 0.860437 0.760515
Si Si2 0.984959 0.433574 0.584466
Si Si3 0.752272 0.792880 0.886918
Si Si4 0.952121 0.341335 0.456549
Si Si5 0.735070 0.711979 0.110063
Si Si6 0.754926 0.321828 0.303997
Si Si7 0.910546 0.193931 0.584508
Si Si8 0.250000 0.000000 0.973910
O O1 0.562253 0.911697 0.816352
O O2 0.713941 0.829325 0.803885
O O3 0.422568 0.832501 0.792251
O O4 0.595302 0.854487 0.650899
O O5 0.130901 0.468453 0.585130
O O6 0.017300 0.387751 0.513742
O O7 0.848032 0.463699 0.538562
O O8 0.694933 0.737139 0.870685
O O9 0.920636 0.804047 0.919155
O O10 0.649155 0.812506 0.970211
O O11 0.846746 0.357830 0.371371
O O12 0.689392 0.680003 0.199383
O O13 0.720723 0.768457 0.147172
O O14 0.913125 0.707986 0.087762
O O15 0.645105 0.694354 0.020526
#
# Coordination Sequence:
#
# PCOD9408897 Si02
#       8
#     8   8   8   8   8   8   8   4
#     4  10  20  34  51  70 104 135 183 213 264 307
#     4  10  20  34  54  81 103 136 162 220 272 340
#     4  11  19  29  45  71  99 143 178 217 239 297
#     4  11  20  31  51  74 107 139 184 213 259 307
#     4  10  21  32  47  65 101 142 187 215 254 270
#     4  10  19  34  47  68  99 144 181 223 243 301
#     4  11  20  33  47  68 100 144 184 220 243 293
#     4  10  20  36  56  76 110 128 166 212 296 350
#
# _framework density 17.307185
#
# number of rings (size 3 to 8) (size 9 to 14) (size 15 to 20)
#    0.000    1.600    2.667    5.200    0.000    1.067 
#    2.400    0.000    0.000    0.000    0.000    0.000 
#    0.000   36.267    0.000    0.000    0.000    0.000 
#
# Total GULP energy -334436.133861 kJ/mol
# GULP energy per Si atom -5573.935564 kJ/mol
# Density = 1.726779 g / cm^3
# Si number density = 17.307185 Si / 1000 Ang^3
#
#
#
# Elastic Constant Matrix: (Units=GPa)
#
#
# Indices 1 2 3 4 5 6 
#
# 1 68.6096 12.3117 30.1000 0.0000 0.0000 0.0000
# 2 12.3117 49.3887 29.0805 0.0000 0.0000 0.0000
# 3 30.1000 29.0805 121.6527 0.0000 0.0000 0.0000
# 4 0.0000 0.0000 0.0000 19.9673 0.0000 0.0000
# 5 0.0000 0.0000 0.0000 0.0000 20.1761 0.0000
# 6 0.0000 0.0000 0.0000 0.0000 0.0000 20.4569
#
#
#
# Elastic Compliance Matrix: (Units=1/GPa)
#
#
# Indices 1 2 3 4 5 6 
#
# 1 0.016517 -0.001991 -0.003611 0.000000 0.000000 0.000000
# 2 -0.001991 0.023804 -0.005198 0.000000 0.000000 0.000000
# 3 -0.003611 -0.005198 0.010356 0.000000 0.000000 0.000000
# 4 0.000000 0.000000 0.000000 0.050082 0.000000 0.000000
# 5 0.000000 0.000000 0.000000 0.000000 0.049564 0.000000
# 6 0.000000 0.000000 0.000000 0.000000 0.000000 0.048883
#
#
# Mechanical properties :
#
#
# Convention : Reuss Voigt Hill
#
# Bulk Modulus (GPa) = 34.39054 42.51507 38.45280
# Shear Modulus (GPa) = 21.69222 23.33064 22.51143
#
# Velocity S-wave (km/s) = 3.54413 3.67554 3.61043
# Velocity P-wave (km/s) = 6.05488 6.52925 6.29654
#
# Compressibility (1/GPa) = 0.02907776
#
# Stress axis : x y z
#
# Youngs Moduli (GPa) = 60.54521 42.00913 96.56293
#
# Poissons Ratio (x) = 0.08365 0.34865
# Poissons Ratio (y) = 0.12057 0.50190
# Poissons Ratio (z) = 0.21861 0.21835
#
# Static dielectric constant tensor:
#      x y z
#    x 1.622050 0.000000 0.000000 
#    y 0.000000 1.619270 0.000000 
#    z 0.000000 0.000000 1.641100 
# 
# From -- ./inp_files/25193.got.cif
#   From: 2010.05.17/outbox.cif.g08.bks.cpg/sg52_13_cif.got.tgz:25193.got - 2010.06.03 12:15:38.
