data_PCOD9408258
_publ_section_title
;
Structure prediction by ZEFSAII (Michael W. Deem and Ramdas Pophale) SiO2 
 PCOD9408258
Probable space group: P N N A
;
_chemical_formula_sum "Si O2"
_cell_formula_units_Z 56
_cell_length_a 13.046084
_cell_length_b 21.434599
_cell_length_c 12.029873
_cell_angle_alpha 90.000000
_cell_angle_beta 90.000000
_cell_angle_gamma 90.000000
_cell_volume 3364.004562
_symmetry_space_group_name_H-M "P N N A"
_symmetry_group_IT_number 52
_symmetry_cell_setting 'orthorhombic'
loop_
_space_group_symop_operation_xyz
x,y,z
1/2-x,-y,z
x,1/2-y,1/2-z
1/2-x,1/2+y,1/2-z
-x,-y,-z
1/2+x,y,-z
-x,1/2+y,1/2+z
1/2+x,1/2-y,1/2+z
loop_
_atom_site_type_symbol
_atom_site_label
_atom_site_fract_x
_atom_site_fract_y
_atom_site_fract_z
Si Si1 0.548905 0.682052 0.691003
Si Si2 0.750000 0.500000 0.199581
Si Si3 0.808433 0.142037 0.621846
Si Si4 0.579047 0.552458 0.035690
Si Si5 0.657343 0.370143 0.219098
Si Si6 0.411594 0.650955 0.036080
Si Si7 0.195602 0.750000 0.750000
Si Si8 0.576701 0.751391 0.478887
O O1 0.531782 0.750000 0.750000
O O2 0.643162 0.652222 0.757834
O O3 0.446472 0.643653 0.714424
O O4 0.571305 0.693423 0.562343
O O5 0.657461 0.526122 0.124521
O O6 0.706395 0.436385 0.253836
O O7 0.854372 0.079909 0.565966
O O8 0.686859 0.145169 0.613218
O O9 0.853195 0.197645 0.543983
O O10 0.505777 0.608303 0.076349
O O11 0.500000 0.500000 0.000000
O O12 0.734075 0.311645 0.234105
O O13 0.624603 0.370425 0.087745
O O14 0.462804 0.718931 0.027847
O O15 0.125920 0.741279 0.640757
#
# Coordination Sequence:
#
# PCOD9408258 Si02
#       8
#     8   4   8   8   8   8   4   8
#     4  10  18  34  54  78 110 155 188 226 285 357
#     4  12  22  32  54  88 116 152 198 232 292 350
#     4  10  18  31  50  77 114 147 178 226 279 345
#     4  11  17  28  46  77 115 149 179 224 280 343
#     4  12  19  35  59  82 114 151 191 236 285 355
#     4  11  18  33  50  79 117 148 180 230 285 348
#     4  12  22  38  58  82 116 144 194 256 288 336
#     4  10  21  34  53  79 109 148 195 235 288 339
#
# _framework density 16.646826000000001
#
# number of rings (size 3 to 8) (size 9 to 14) (size 15 to 20)
#    0.000    1.143    9.286    0.857    0.000    0.000 
#    3.857    0.000    0.000    0.857    0.000    3.000 
#    0.000    0.000    0.000    0.000    0.000    0.000 
#
# Total GULP energy -312242.969905 kJ/mol
# GULP energy per Si atom -5575.767320 kJ/mol
# Density = 1.660894 g / cm^3
# Si number density = 16.646826 Si / 1000 Ang^3
#
#
#
# Elastic Constant Matrix: (Units=GPa)
#
#
# Indices 1 2 3 4 5 6 
#
# 1 115.7721 29.1078 39.9351 0.0000 0.0000 0.0000
# 2 29.1078 71.3143 24.7300 0.0000 0.0000 0.0000
# 3 39.9351 24.7300 87.3879 0.0000 0.0000 0.0000
# 4 0.0000 0.0000 0.0000 17.3445 0.0000 0.0000
# 5 0.0000 0.0000 0.0000 0.0000 8.5575 0.0000
# 6 0.0000 0.0000 0.0000 0.0000 0.0000 26.5139
#
#
#
# Elastic Compliance Matrix: (Units=1/GPa)
#
#
# Indices 1 2 3 4 5 6 
#
# 1 0.010800 -0.002990 -0.004089 0.000000 0.000000 0.000000
# 2 -0.002990 0.016376 -0.003268 0.000000 0.000000 0.000000
# 3 -0.004089 -0.003268 0.014237 0.000000 0.000000 0.000000
# 4 0.000000 0.000000 0.000000 0.057655 0.000000 0.000000
# 5 0.000000 0.000000 0.000000 0.000000 0.116857 0.000000
# 6 0.000000 0.000000 0.000000 0.000000 0.000000 0.037716
#
#
# Mechanical properties :
#
#
# Convention : Reuss Voigt Hill
#
# Bulk Modulus (GPa) = 48.26631 51.33554 49.80092
# Shear Modulus (GPa) = 17.77831 22.52994 20.15413
#
# Velocity S-wave (km/s) = 3.27153 3.68286 3.48327
# Velocity P-wave (km/s) = 6.58238 6.99926 6.79402
#
# Compressibility (1/GPa) = 0.02071839
#
# Stress axis : x y z
#
# Youngs Moduli (GPa) = 92.59237 61.06466 70.24073
#
# Poissons Ratio (x) = 0.18259 0.28723
# Poissons Ratio (y) = 0.27686 0.22954
# Poissons Ratio (z) = 0.37864 0.19955
#
# Static dielectric constant tensor:
#      x y z
#    x 1.572550 0.000000 0.000000 
#    y 0.000000 1.623370 0.000000 
#    z 0.000000 0.000000 1.550360 
# 
# From -- ./inp_files/18383.got.cif
#   From: 2010.05.17/outbox.cif.g08.bks.cpg/sg52_10_cif.got.tgz:18383.got - 2010.06.03 12:15:38.
