data_PCOD9408847
_publ_section_title
;
Structure prediction by ZEFSAII (Michael W. Deem and Ramdas Pophale) SiO2 
 PCOD9408847
Probable space group: P N N A
;
_chemical_formula_sum "Si O2"
_cell_formula_units_Z 64
_cell_length_a 25.154399
_cell_length_b 14.991445
_cell_length_c 8.437505
_cell_angle_alpha 90.000000
_cell_angle_beta 90.000000
_cell_angle_gamma 90.000000
_cell_volume 3181.789794
_symmetry_space_group_name_H-M "P N N A"
_symmetry_group_IT_number 52
_symmetry_cell_setting 'orthorhombic'
loop_
_space_group_symop_operation_xyz
x,y,z
1/2-x,-y,z
x,1/2-y,1/2-z
1/2-x,1/2+y,1/2-z
-x,-y,-z
1/2+x,y,-z
-x,1/2+y,1/2+z
1/2+x,1/2-y,1/2+z
loop_
_atom_site_type_symbol
_atom_site_label
_atom_site_fract_x
_atom_site_fract_y
_atom_site_fract_z
Si Si1 0.756038 0.161756 0.138413
Si Si2 0.751324 0.401911 0.034900
Si Si3 0.139662 0.406295 0.075162
Si Si4 0.058838 0.758379 0.939294
Si Si5 0.649521 0.391698 0.543231
Si Si6 0.138609 0.885260 0.411866
Si Si7 0.437815 0.753145 0.442741
Si Si8 0.860560 0.099205 0.965804
O O1 0.754018 0.250000 0.250000
O O2 0.759402 0.090206 0.279079
O O3 0.704244 0.145540 0.030798
O O4 0.809131 0.148619 0.037137
O O5 0.750000 0.500000 0.956426
O O6 0.692858 0.365965 0.002674
O O7 0.802560 0.354067 0.964606
O O8 0.149468 0.395609 0.264198
O O9 0.132566 0.510941 0.034438
O O10 0.090108 0.347239 0.021113
O O11 0.058923 0.750000 0.750000
O O12 0.998256 0.754246 0.998625
O O13 0.094680 0.680392 0.016816
O O14 0.086912 0.852061 0.973979
O O15 0.600735 0.326396 0.500227
O O16 0.642020 0.494525 0.492626
O O17 0.138289 0.888473 0.222985
O O18 0.439005 0.750000 0.250000
#
# Coordination Sequence:
#
# PCOD9408847 Si02
#       8
#     8   8   8   8   8   8   8   8
#     4  12  23  35  56  88 122 153 187 233 294 352
#     4  10  19  33  54  83 116 145 181 229 283 344
#     4   9  19  38  63  87 115 155 198 242 294 357
#     4  11  23  39  58  82 114 153 197 247 299 349
#     4  10  21  39  61  85 116 155 196 238 292 355
#     4  10  21  37  60  88 117 155 199 242 294 355
#     4   9  20  39  60  82 112 151 197 246 296 350
#     4  11  22  38  60  85 117 156 196 240 291 353
#
# _framework density 20.114464999999999
#
# number of rings (size 3 to 8) (size 9 to 14) (size 15 to 20)
#    0.000    1.750    0.000    4.875    0.000    4.000 
#    0.000    7.500    0.000    0.000    0.000    0.000 
#    0.000    0.000    0.000    0.000    0.000    0.000 
#
# Total GULP energy -357204.398527 kJ/mol
# GULP energy per Si atom -5581.318727 kJ/mol
# Density = 2.006868 g / cm^3
# Si number density = 20.114465 Si / 1000 Ang^3
#
#
#
# Elastic Constant Matrix: (Units=GPa)
#
#
# Indices 1 2 3 4 5 6 
#
# 1 153.4448 36.3278 20.5353 0.0000 0.0000 0.0000
# 2 36.3278 110.0538 16.0394 0.0000 0.0000 0.0000
# 3 20.5353 16.0394 40.2341 0.0000 0.0000 0.0000
# 4 0.0000 0.0000 0.0000 23.9162 0.0000 0.0000
# 5 0.0000 0.0000 0.0000 0.0000 28.3136 0.0000
# 6 0.0000 0.0000 0.0000 0.0000 0.0000 -15.9228
#
#
#
# Elastic Compliance Matrix: (Units=1/GPa)
#
#
# Indices 1 2 3 4 5 6 
#
# 1 0.007390 -0.002006 -0.002972 0.000000 0.000000 0.000000
# 2 -0.002006 0.010192 -0.003039 0.000000 0.000000 0.000000
# 3 -0.002972 -0.003039 0.027583 0.000000 0.000000 0.000000
# 4 0.000000 0.000000 0.000000 0.041813 0.000000 0.000000
# 5 0.000000 0.000000 0.000000 0.000000 0.035319 0.000000
# 6 0.000000 0.000000 0.000000 0.000000 0.000000 -0.062803
#
#
# Mechanical properties :
#
#
# Convention : Reuss Voigt Hill
#
# Bulk Modulus (GPa) = 34.32873 49.94862 42.13867
# Shear Modulus (GPa) = 58.66018 22.65007 40.65513
#
# Velocity S-wave (km/s) = 5.40615 3.35932 4.50064
# Velocity P-wave (km/s) = 7.48815 6.31924 6.92839
#
# Compressibility (1/GPa) = 0.02913012
#
# Stress axis : x y z
#
# Youngs Moduli (GPa) = 135.32387 98.12019 36.25434
#
# Poissons Ratio (x) = 0.19684 0.10774
# Poissons Ratio (y) = 0.27148 0.11018
# Poissons Ratio (z) = 0.40217 0.29818
#
# Static dielectric constant tensor:
#      x y z
#    x 1.697910 0.000000 0.000000 
#    y 0.000000 1.822980 0.000000 
#    z 0.000000 0.000000 1.502570 
# 
# From -- ./inp_files/14478.got.cif
#   From: 2010.05.17/outbox.cif.g08.bks.cpg/sg52_8_cif.got.tgz:14478.got - 2010.06.03 12:15:38.
