data_PCOD9408002
_publ_section_title
;
Structure prediction by ZEFSAII (Michael W. Deem and Ramdas Pophale) SiO2 
 PCOD9408002
Probable space group: P N N A
;
_chemical_formula_sum "Si O2"
_cell_formula_units_Z 40
_cell_length_a 7.826452
_cell_length_b 6.951353
_cell_length_c 26.532982
_cell_angle_alpha 90.000000
_cell_angle_beta 90.000000
_cell_angle_gamma 90.000000
_cell_volume 1443.511778
_symmetry_space_group_name_H-M "P N N A"
_symmetry_group_IT_number 52
_symmetry_cell_setting 'orthorhombic'
loop_
_space_group_symop_operation_xyz
x,y,z
1/2-x,-y,z
x,1/2-y,1/2-z
1/2-x,1/2+y,1/2-z
-x,-y,-z
1/2+x,y,-z
-x,1/2+y,1/2+z
1/2+x,1/2-y,1/2+z
loop_
_atom_site_type_symbol
_atom_site_label
_atom_site_fract_x
_atom_site_fract_y
_atom_site_fract_z
Si Si1 0.954364 0.949615 0.817324
Si Si2 0.443086 0.580904 0.895505
Si Si3 0.955645 0.998705 0.708107
Si Si4 0.003404 0.170159 0.077754
Si Si5 0.816340 0.279215 0.980790
O O1 0.012971 0.046093 0.765000
O O2 0.993679 0.725084 0.803837
O O3 0.027750 0.964347 0.874284
O O4 0.750000 0.000000 0.822583
O O5 0.250000 0.500000 0.898595
O O6 0.477808 0.634381 0.837250
O O7 0.546099 0.381550 0.900004
O O8 0.523167 0.703374 0.941526
O O9 0.750000 0.000000 0.708691
O O10 0.170050 0.155240 0.044328
O O11 0.861754 0.195085 0.035241
O O12 0.750000 0.500000 0.988461
#
# Coordination Sequence:
#
# PCOD9408002 Si02
#       5
#     8   8   8   8   8
#     4   9  18  32  52  75 103 139 176 212 258 316
#     4  10  17  27  48  79 106 128 163 222 275 307
#     4   9  17  32  55  78  99 132 178 220 258 309
#     4  10  18  30  48  70 102 138 171 213 261 314
#     4  10  18  29  48  77 103 131 173 220 264 308
#
# _framework density 27.710201000000001
#
# number of rings (size 3 to 8) (size 9 to 14) (size 15 to 20)
#    0.000    2.400    0.000    7.200    0.000    0.000 
#    0.000    1.000    0.000   43.200    0.000    0.000 
#    0.000    0.000    0.000    0.000    0.000    0.000 
#
# Total GULP energy -223320.039733 kJ/mol
# GULP energy per Si atom -5583.000993 kJ/mol
# Density = 2.764713 g / cm^3
# Si number density = 27.710201 Si / 1000 Ang^3
#
#
#
# Elastic Constant Matrix: (Units=GPa)
#
#
# Indices 1 2 3 4 5 6 
#
# 1 89.8715 -9.5636 66.1755 0.0000 0.0000 0.0000
# 2 -9.5636 73.4804 47.6522 0.0000 0.0000 0.0000
# 3 66.1755 47.6522 345.1363 0.0000 0.0000 0.0000
# 4 0.0000 0.0000 0.0000 50.1860 0.0000 0.0000
# 5 0.0000 0.0000 0.0000 0.0000 29.1459 0.0000
# 6 0.0000 0.0000 0.0000 0.0000 0.0000 8.8167
#
#
#
# Elastic Compliance Matrix: (Units=1/GPa)
#
#
# Indices 1 2 3 4 5 6 
#
# 1 0.013897 0.003885 -0.003201 0.000000 0.000000 0.000000
# 2 0.003885 0.016033 -0.002958 0.000000 0.000000 0.000000
# 3 -0.003201 -0.002958 0.003920 0.000000 0.000000 0.000000
# 4 0.000000 0.000000 0.000000 0.019926 0.000000 0.000000
# 5 0.000000 0.000000 0.000000 0.000000 0.034310 0.000000
# 6 0.000000 0.000000 0.000000 0.000000 0.000000 0.113421
#
#
# Mechanical properties :
#
#
# Convention : Reuss Voigt Hill
#
# Bulk Modulus (GPa) = 34.12911 79.66848 56.89880
# Shear Modulus (GPa) = 23.16703 44.57801 33.87252
#
# Velocity S-wave (km/s) = 2.89458 4.01524 3.50005
# Velocity P-wave (km/s) = 4.84919 7.09290 6.07552
#
# Compressibility (1/GPa) = 0.02930050
#
# Stress axis : x y z
#
# Youngs Moduli (GPa) = 71.95609 62.37041 255.12636
#
# Poissons Ratio (x) = -0.24228 0.81665
# Poissons Ratio (y) = -0.27952 0.75479
# Poissons Ratio (z) = 0.23033 0.18452
#
# Static dielectric constant tensor:
#      x y z
#    x 2.267850 0.000000 0.000000 
#    y 0.000000 2.293830 0.000000 
#    z 0.000000 0.000000 2.230200 
# 
# From -- ./inp_files/42095.got.cif
#   From: 2010.05.17/outbox.cif.g08.bks.cpg/sg52_22_cif.got.tgz:42095.got - 2010.06.03 12:15:38.
