data_PCOD9408090
_publ_section_title
;
Structure prediction by ZEFSAII (Michael W. Deem and Ramdas Pophale) SiO2 
 PCOD9408090
Probable space group: P N N A
;
_chemical_formula_sum "Si O2"
_cell_formula_units_Z 56
_cell_length_a 17.588714
_cell_length_b 8.220665
_cell_length_c 22.808469
_cell_angle_alpha 90.000000
_cell_angle_beta 90.000000
_cell_angle_gamma 90.000000
_cell_volume 3297.897644
_symmetry_space_group_name_H-M "P N N A"
_symmetry_group_IT_number 52
_symmetry_cell_setting 'orthorhombic'
loop_
_space_group_symop_operation_xyz
x,y,z
1/2-x,-y,z
x,1/2-y,1/2-z
1/2-x,1/2+y,1/2-z
-x,-y,-z
1/2+x,y,-z
-x,1/2+y,1/2+z
1/2+x,1/2-y,1/2+z
loop_
_atom_site_type_symbol
_atom_site_label
_atom_site_fract_x
_atom_site_fract_y
_atom_site_fract_z
Si Si1 0.499562 0.648151 0.954597
Si Si2 0.791657 0.827107 0.531220
Si Si3 0.859736 0.331972 0.539382
Si Si4 0.063126 0.328295 0.439204
Si Si5 0.357933 0.744225 0.902116
Si Si6 0.898204 0.373068 0.403424
Si Si7 0.230093 0.807468 0.816036
O O1 0.583615 0.694632 0.935386
O O2 0.434183 0.635271 0.906139
O O3 0.500000 0.500000 0.000000
O O4 0.471237 0.798673 0.995550
O O5 0.727721 0.700839 0.552108
O O6 0.870521 0.806063 0.566582
O O7 0.814523 0.786665 0.463810
O O8 0.750000 0.000000 0.533388
O O9 0.892633 0.502349 0.560989
O O10 0.868880 0.324857 0.468454
O O11 0.987687 0.330602 0.399966
O O12 0.299343 0.717542 0.849507
O O13 0.384263 0.932811 0.898227
O O14 0.845548 0.289010 0.355128
O O15 0.220996 0.750000 0.750000
O O16 0.250000 0.000000 0.816486
#
# Coordination Sequence:
#
# PCOD9408090 Si02
#       7
#     8   8   8   8   8   8   8
#     4  10  18  28  43  71 100 127 165 210 250 302
#     4  11  21  28  43  75 109 133 160 202 255 304
#     4  11  16  29  48  70  96 132 172 198 236 311
#     4  10  19  30  47  69  97 129 179 200 239 315
#     4  10  18  33  50  66  97 136 176 205 252 302
#     4  10  17  33  52  68  89 134 180 212 241 294
#     4  10  22  37  55  72  97 130 178 225 256 300
#
# _framework density 16.980513999999999
#
# number of rings (size 3 to 8) (size 9 to 14) (size 15 to 20)
#    0.000    1.714    5.714    3.000    0.000    0.571 
#    5.143    0.000    0.000    0.000    0.000    0.000 
#    0.000    3.429    0.000    0.000    0.000    0.000 
#
# Total GULP energy -312085.502203 kJ/mol
# GULP energy per Si atom -5572.955396 kJ/mol
# Density = 1.694187 g / cm^3
# Si number density = 16.980514 Si / 1000 Ang^3
#
#
#
# Elastic Constant Matrix: (Units=GPa)
#
#
# Indices 1 2 3 4 5 6 
#
# 1 156.5165 30.3179 49.7023 0.0000 0.0000 0.0000
# 2 30.3179 48.9507 11.7171 0.0000 0.0000 0.0000
# 3 49.7023 11.7171 63.8428 0.0000 0.0000 0.0000
# 4 0.0000 0.0000 0.0000 15.6004 0.0000 0.0000
# 5 0.0000 0.0000 0.0000 0.0000 16.4730 0.0000
# 6 0.0000 0.0000 0.0000 0.0000 0.0000 27.9894
#
#
#
# Elastic Compliance Matrix: (Units=1/GPa)
#
#
# Indices 1 2 3 4 5 6 
#
# 1 0.009240 -0.004185 -0.006426 0.000000 0.000000 0.000000
# 2 -0.004185 0.023263 -0.001011 0.000000 0.000000 0.000000
# 3 -0.006426 -0.001011 0.020851 0.000000 0.000000 0.000000
# 4 0.000000 0.000000 0.000000 0.064101 0.000000 0.000000
# 5 0.000000 0.000000 0.000000 0.000000 0.060705 0.000000
# 6 0.000000 0.000000 0.000000 0.000000 0.000000 0.035728
#
#
# Mechanical properties :
#
#
# Convention : Reuss Voigt Hill
#
# Bulk Modulus (GPa) = 33.21079 50.30939 41.76009
# Shear Modulus (GPa) = 20.22906 23.85073 22.03990
#
# Velocity S-wave (km/s) = 3.45528 3.75186 3.60662
# Velocity P-wave (km/s) = 5.95980 6.96137 6.47996
#
# Compressibility (1/GPa) = 0.03011070
#
# Stress axis : x y z
#
# Youngs Moduli (GPa) = 108.22284 42.98709 47.95828
#
# Poissons Ratio (x) = 0.17990 0.30816
# Poissons Ratio (y) = 0.45290 0.04851
# Poissons Ratio (z) = 0.69539 0.04348
#
# Static dielectric constant tensor:
#      x y z
#    x 1.646290 0.000000 0.000000 
#    y 0.000000 1.675160 0.000000 
#    z 0.000000 0.000000 1.523470 
# 
# From -- ./inp_files/37636.got.cif
#   From: 2010.05.17/outbox.cif.g08.bks.cpg/sg52_19_cif.got.tgz:37636.got - 2010.06.03 12:15:38.
