data_PCOD9408526
_publ_section_title
;
Structure prediction by ZEFSAII (Michael W. Deem and Ramdas Pophale) SiO2 
 PCOD9408526
Probable space group: P N N A
;
_chemical_formula_sum "Si O2"
_cell_formula_units_Z 44
_cell_length_a 15.201787
_cell_length_b 14.350804
_cell_length_c 7.672140
_cell_angle_alpha 90.000000
_cell_angle_beta 90.000000
_cell_angle_gamma 90.000000
_cell_volume 1673.737688
_symmetry_space_group_name_H-M "P N N A"
_symmetry_group_IT_number 52
_symmetry_cell_setting 'orthorhombic'
loop_
_space_group_symop_operation_xyz
x,y,z
1/2-x,-y,z
x,1/2-y,1/2-z
1/2-x,1/2+y,1/2-z
-x,-y,-z
1/2+x,y,-z
-x,1/2+y,1/2+z
1/2+x,1/2-y,1/2+z
loop_
_atom_site_type_symbol
_atom_site_label
_atom_site_fract_x
_atom_site_fract_y
_atom_site_fract_z
Si Si1 0.316062 0.610489 0.588195
Si Si2 0.275923 0.896562 0.324013
Si Si3 0.906661 0.377906 0.741478
Si Si4 0.460792 0.571701 0.137467
Si Si5 0.943844 0.750000 0.250000
Si Si6 0.373898 0.101740 0.847701
O O1 0.287746 0.605345 0.386269
O O2 0.384540 0.691524 0.620052
O O3 0.359314 0.511519 0.641822
O O4 0.226168 0.630847 0.695087
O O5 0.181619 0.847636 0.343416
O O6 0.370883 0.872051 0.402799
O O7 0.250000 0.000000 0.387811
O O8 0.920979 0.489569 0.736601
O O9 0.898710 0.357322 0.536534
O O10 0.989137 0.326506 0.825661
O O11 0.543456 0.621594 0.224735
O O12 0.500000 0.500000 0.000000
#
# Coordination Sequence:
#
# PCOD9408526 Si02
#       6
#     8   8   8   8   4   8
#     4  10  18  35  63  94 115 159 212 266 298 373
#     4   9  17  37  63  84 114 160 220 254 293 379
#     4  10  20  38  61  90 117 162 211 257 305 382
#     4  11  20  34  59  94 117 154 206 267 306 361
#     4  12  22  32  60  98 124 142 198 274 324 350
#     4  10  18  39  66  85 115 168 224 247 296 383
#
# _framework density 26.288468999999999
#
# number of rings (size 3 to 8) (size 9 to 14) (size 15 to 20)
#    0.000    1.818    7.273    1.636    0.000    0.000 
#    9.818    7.273    0.000    3.273    0.000    0.000 
#    0.000    0.000    0.000    0.000    0.000    0.000 
#
# Total GULP energy -245710.810627 kJ/mol
# GULP energy per Si atom -5584.336605 kJ/mol
# Density = 2.622864 g / cm^3
# Si number density = 26.288469 Si / 1000 Ang^3
#
#
#
# Elastic Constant Matrix: (Units=GPa)
#
#
# Indices 1 2 3 4 5 6 
#
# 1 266.3538 28.2444 49.9460 0.0000 0.0000 0.0000
# 2 28.2444 90.1613 -5.2369 0.0000 0.0000 0.0000
# 3 49.9460 -5.2369 47.4910 0.0000 0.0000 0.0000
# 4 0.0000 0.0000 0.0000 14.6171 0.0000 0.0000
# 5 0.0000 0.0000 0.0000 0.0000 15.1427 0.0000
# 6 0.0000 0.0000 0.0000 0.0000 0.0000 27.8933
#
#
#
# Elastic Compliance Matrix: (Units=1/GPa)
#
#
# Indices 1 2 3 4 5 6 
#
# 1 0.004972 -0.001873 -0.005436 0.000000 0.000000 0.000000
# 2 -0.001873 0.011869 0.003279 0.000000 0.000000 0.000000
# 3 -0.005436 0.003279 0.027135 0.000000 0.000000 0.000000
# 4 0.000000 0.000000 0.000000 0.068413 0.000000 0.000000
# 5 0.000000 0.000000 0.000000 0.000000 0.066039 0.000000
# 6 0.000000 0.000000 0.000000 0.000000 0.000000 0.035851
#
#
# Mechanical properties :
#
#
# Convention : Reuss Voigt Hill
#
# Bulk Modulus (GPa) = 27.84321 61.10146 44.47233
# Shear Modulus (GPa) = 21.33913 33.60078 27.46995
#
# Velocity S-wave (km/s) = 2.85218 3.57901 3.23606
# Velocity P-wave (km/s) = 4.63260 6.35391 5.56027
#
# Compressibility (1/GPa) = 0.03591540
#
# Stress axis : x y z
#
# Youngs Moduli (GPa) = 201.10914 84.25611 36.85236
#
# Poissons Ratio (x) = 0.15785 0.20033
# Poissons Ratio (y) = 0.37676 -0.12084
# Poissons Ratio (z) = 1.09324 -0.27628
#
# Static dielectric constant tensor:
#      x y z
#    x 2.132830 0.000000 0.000000 
#    y 0.000000 2.246790 0.000000 
#    z 0.000000 0.000000 2.103840 
# 
# From -- ./inp_files/10343.got.cif
#   From: 2010.05.17/outbox.cif.g08.bks.cpg/sg52_6_cif.got.tgz:10343.got - 2010.06.03 12:15:38.
