data_PCOD9408603
_publ_section_title
;
Structure prediction by ZEFSAII (Michael W. Deem and Ramdas Pophale) SiO2 
 PCOD9408603
Probable space group: P N N A
;
_chemical_formula_sum "Si O2"
_cell_formula_units_Z 64
_cell_length_a 19.731505
_cell_length_b 20.436230
_cell_length_c 8.501324
_cell_angle_alpha 90.000000
_cell_angle_beta 90.000000
_cell_angle_gamma 90.000000
_cell_volume 3428.053269
_symmetry_space_group_name_H-M "P N N A"
_symmetry_group_IT_number 52
_symmetry_cell_setting 'orthorhombic'
loop_
_space_group_symop_operation_xyz
x,y,z
1/2-x,-y,z
x,1/2-y,1/2-z
1/2-x,1/2+y,1/2-z
-x,-y,-z
1/2+x,y,-z
-x,1/2+y,1/2+z
1/2+x,1/2-y,1/2+z
loop_
_atom_site_type_symbol
_atom_site_label
_atom_site_fract_x
_atom_site_fract_y
_atom_site_fract_z
Si Si1 0.027539 0.058271 0.290149
Si Si2 0.060389 0.674982 0.302388
Si Si3 0.709402 0.677578 0.302923
Si Si4 0.198090 0.609061 0.356754
Si Si5 0.554263 0.818339 0.179057
Si Si6 0.455132 0.571587 0.837883
Si Si7 0.169996 0.454300 0.377440
Si Si8 0.699140 0.438062 0.257206
O O1 0.031694 0.065290 0.477270
O O2 0.099616 0.057002 0.206310
O O3 0.988370 0.120844 0.232029
O O4 0.987356 0.991716 0.253145
O O5 0.060144 0.750000 0.250000
O O6 0.133966 0.640910 0.266451
O O7 0.055149 0.678745 0.490932
O O8 0.997631 0.633406 0.230328
O O9 0.731433 0.750000 0.250000
O O10 0.708946 0.655226 0.488331
O O11 0.630693 0.672911 0.257747
O O12 0.755954 0.624853 0.218192
O O13 0.177449 0.533421 0.390661
O O14 0.272527 0.590139 0.289048
O O15 0.528610 0.750000 0.250000
O O16 0.373948 0.566069 0.822946
O O17 0.178699 0.434377 0.558533
O O18 0.750000 0.500000 0.233409
#
# Coordination Sequence:
#
# PCOD9408603 Si02
#       8
#     8   8   8   8   8   8   8   8
#     4  11  23  40  57  89 122 163 200 256 303 367
#     4  11  22  39  63  90 123 161 204 251 302 366
#     4   9  18  34  58  87 117 153 197 247 299 360
#     4   9  18  36  60  91 116 154 202 246 303 364
#     4  10  21  39  63  87 121 161 201 244 306 369
#     4  11  25  38  57  89 126 157 206 253 312 355
#     4  10  18  37  66  87 118 153 204 254 300 365
#     4  11  20  37  60  90 117 154 202 260 298 370
#
# _framework density 18.669487
#
# number of rings (size 3 to 8) (size 9 to 14) (size 15 to 20)
#    0.000    1.750    3.750    2.250    1.750    1.500 
#    2.250    8.125    0.000    0.000    0.000    0.000 
#    0.000    0.000    0.000    0.000    0.000    0.000 
#
# Total GULP energy -356297.561553 kJ/mol
# GULP energy per Si atom -5567.149399 kJ/mol
# Density = 1.862699 g / cm^3
# Si number density = 18.669487 Si / 1000 Ang^3
#
#
#
# Elastic Constant Matrix: (Units=GPa)
#
#
# Indices 1 2 3 4 5 6 
#
# 1 101.5566 87.3293 33.7518 0.0000 0.0000 0.0000
# 2 87.3293 156.4594 50.3687 0.0000 0.0000 0.0000
# 3 33.7518 50.3687 26.1106 0.0000 0.0000 0.0000
# 4 0.0000 0.0000 0.0000 17.7712 0.0000 0.0000
# 5 0.0000 0.0000 0.0000 0.0000 15.0574 0.0000
# 6 0.0000 0.0000 0.0000 0.0000 0.0000 18.9834
#
#
#
# Elastic Compliance Matrix: (Units=1/GPa)
#
#
# Indices 1 2 3 4 5 6 
#
# 1 0.020161 -0.007555 -0.011487 0.000000 0.000000 0.000000
# 2 -0.007555 0.019696 -0.028228 0.000000 0.000000 0.000000
# 3 -0.011487 -0.028228 0.107600 0.000000 0.000000 0.000000
# 4 0.000000 0.000000 0.000000 0.056271 0.000000 0.000000
# 5 0.000000 0.000000 0.000000 0.000000 0.066412 0.000000
# 6 0.000000 0.000000 0.000000 0.000000 0.000000 0.052678
#
#
# Mechanical properties :
#
#
# Convention : Reuss Voigt Hill
#
# Bulk Modulus (GPa) = 18.89747 69.66957 44.28352
# Shear Modulus (GPa) = 11.49432 17.87418 14.68425
#
# Velocity S-wave (km/s) = 2.48397 3.09755 2.80757
# Velocity P-wave (km/s) = 4.28613 7.08459 5.85501
#
# Compressibility (1/GPa) = 0.05291713
#
# Stress axis : x y z
#
# Youngs Moduli (GPa) = 49.60062 50.77205 9.29365
#
# Poissons Ratio (x) = 0.38359 0.10675
# Poissons Ratio (y) = 0.37474 0.26234
# Poissons Ratio (z) = 0.56975 1.43320
#
# Static dielectric constant tensor:
#      x y z
#    x 1.679390 0.000000 0.000000 
#    y 0.000000 1.640390 0.000000 
#    z 0.000000 0.000000 1.644060 
# 
# From -- ./inp_files/13608.got.cif
#   From: 2010.05.17/outbox.cif.g08.bks.cpg/sg52_7_cif.got.tgz:13608.got - 2010.06.03 12:15:38.
