data_PCOD9408353
_publ_section_title
;
Structure prediction by ZEFSAII (Michael W. Deem and Ramdas Pophale) SiO2 
 PCOD9408353
Probable space group: P N N A
;
_chemical_formula_sum "Si O2"
_cell_formula_units_Z 48
_cell_length_a 13.536770
_cell_length_b 11.767981
_cell_length_c 14.490348
_cell_angle_alpha 90.000000
_cell_angle_beta 90.000000
_cell_angle_gamma 90.000000
_cell_volume 2308.318988
_symmetry_space_group_name_H-M "P N N A"
_symmetry_group_IT_number 52
_symmetry_cell_setting 'orthorhombic'
loop_
_space_group_symop_operation_xyz
x,y,z
1/2-x,-y,z
x,1/2-y,1/2-z
1/2-x,1/2+y,1/2-z
-x,-y,-z
1/2+x,y,-z
-x,1/2+y,1/2+z
1/2+x,1/2-y,1/2+z
loop_
_atom_site_type_symbol
_atom_site_label
_atom_site_fract_x
_atom_site_fract_y
_atom_site_fract_z
Si Si1 0.331806 0.589687 0.232494
Si Si2 0.963144 0.022494 0.875580
Si Si3 0.657029 0.920581 0.502366
Si Si4 0.782453 0.183634 0.912745
Si Si5 0.094867 0.156839 0.978116
Si Si6 0.963577 0.627094 0.925809
O O1 0.250000 0.500000 0.194094
O O2 0.420247 0.517628 0.279155
O O3 0.270625 0.651076 0.315381
O O4 0.393827 0.664482 0.159586
O O5 0.880396 0.109111 0.913736
O O6 0.963103 0.912154 0.941054
O O7 0.063125 0.093487 0.885390
O O8 0.691592 0.814043 0.564456
O O9 0.582396 0.876557 0.421624
O O10 0.750000 0.000000 0.474831
O O11 0.582415 0.003010 0.557131
O O12 0.707986 0.146705 0.993239
O O13 0.063464 0.287233 0.990695
#
# Coordination Sequence:
#
# PCOD9408353 Si02
#       6
#     8   8   8   8   8   8
#     4   9  20  37  58  91 124 151 197 269 329 360
#     4   9  19  35  53  88 116 153 191 250 316 364
#     4  11  22  38  58  84 120 166 208 240 304 379
#     4  10  19  36  58  84 119 153 199 257 309 363
#     4  10  18  32  58  82 116 151 200 243 301 376
#     4  11  22  36  58  87 121 160 206 252 307 379
#
# _framework density 20.794353000000001
#
# number of rings (size 3 to 8) (size 9 to 14) (size 15 to 20)
#    0.000    2.000    3.333    2.000    0.000    2.667 
#    6.000    0.000    0.000    6.000    0.000    0.000 
#    0.000    0.000    0.000    0.000    0.000    0.000 
#
# Total GULP energy -267348.643572 kJ/mol
# GULP energy per Si atom -5569.763408 kJ/mol
# Density = 2.074702 g / cm^3
# Si number density = 20.794353 Si / 1000 Ang^3
#
#
#
# Elastic Constant Matrix: (Units=GPa)
#
#
# Indices 1 2 3 4 5 6 
#
# 1 95.0455 21.2269 31.5252 0.0000 0.0000 0.0000
# 2 21.2269 102.3084 15.3864 0.0000 0.0000 0.0000
# 3 31.5252 15.3864 38.2045 0.0000 0.0000 0.0000
# 4 0.0000 0.0000 0.0000 27.4136 0.0000 0.0000
# 5 0.0000 0.0000 0.0000 0.0000 34.5152 0.0000
# 6 0.0000 0.0000 0.0000 0.0000 0.0000 40.4981
#
#
#
# Elastic Compliance Matrix: (Units=1/GPa)
#
#
# Indices 1 2 3 4 5 6 
#
# 1 0.014647 -0.001300 -0.011562 0.000000 0.000000 0.000000
# 2 -0.001300 0.010520 -0.003164 0.000000 0.000000 0.000000
# 3 -0.011562 -0.003164 0.036990 0.000000 0.000000 0.000000
# 4 0.000000 0.000000 0.000000 0.036478 0.000000 0.000000
# 5 0.000000 0.000000 0.000000 0.000000 0.028973 0.000000
# 6 0.000000 0.000000 0.000000 0.000000 0.000000 0.024693
#
#
# Mechanical properties :
#
#
# Convention : Reuss Voigt Hill
#
# Bulk Modulus (GPa) = 33.21837 41.31504 37.26670
# Shear Modulus (GPa) = 25.72175 31.64670 28.68422
#
# Velocity S-wave (km/s) = 3.52086 3.90537 3.71809
# Velocity P-wave (km/s) = 5.70421 6.34409 6.03264
#
# Compressibility (1/GPa) = 0.03010383
#
# Stress axis : x y z
#
# Youngs Moduli (GPa) = 68.27473 95.05753 27.03417
#
# Poissons Ratio (x) = 0.12357 0.31258
# Poissons Ratio (y) = 0.08876 0.08554
# Poissons Ratio (z) = 0.78942 0.30077
#
# Static dielectric constant tensor:
#      x y z
#    x 1.793120 0.000000 0.000000 
#    y 0.000000 1.848070 0.000000 
#    z 0.000000 0.000000 1.826260 
# 
# From -- ./inp_files/27177.got.cif
#   From: 2010.05.17/outbox.cif.g08.bks.cpg/sg52_14_cif.got.tgz:27177.got - 2010.06.03 12:15:38.
