data_PCOD9408608
_publ_section_title
;
Structure prediction by ZEFSAII (Michael W. Deem and Ramdas Pophale) SiO2 
 PCOD9408608
Probable space group: P N N A
;
_chemical_formula_sum "Si O2"
_cell_formula_units_Z 40
_cell_length_a 24.182546
_cell_length_b 9.762570
_cell_length_c 7.635250
_cell_angle_alpha 90.000000
_cell_angle_beta 90.000000
_cell_angle_gamma 90.000000
_cell_volume 1802.558819
_symmetry_space_group_name_H-M "P N N A"
_symmetry_group_IT_number 52
_symmetry_cell_setting 'orthorhombic'
loop_
_space_group_symop_operation_xyz
x,y,z
1/2-x,-y,z
x,1/2-y,1/2-z
1/2-x,1/2+y,1/2-z
-x,-y,-z
1/2+x,y,-z
-x,1/2+y,1/2+z
1/2+x,1/2-y,1/2+z
loop_
_atom_site_type_symbol
_atom_site_label
_atom_site_fract_x
_atom_site_fract_y
_atom_site_fract_z
Si Si1 0.959772 0.750000 0.250000
Si Si2 0.512886 0.478398 0.792542
Si Si3 0.615011 0.388312 0.949673
Si Si4 0.351682 0.297096 0.057053
Si Si5 0.923753 0.250000 0.250000
Si Si6 0.766804 0.660133 0.073659
O O1 0.000104 0.623317 0.297858
O O2 0.919969 0.805823 0.404129
O O3 0.573465 0.408781 0.784328
O O4 0.465611 0.375105 0.743660
O O5 0.500000 0.500000 0.000000
O O6 0.627770 0.548888 0.986247
O O7 0.677232 0.330319 0.958150
O O8 0.366929 0.250000 0.250000
O O9 0.383473 0.215576 0.909847
O O10 0.286405 0.285759 0.029905
O O11 0.750000 0.500000 0.113538
O O12 0.773961 0.750000 0.250000
#
# Coordination Sequence:
#
# PCOD9408608 Si02
#       6
#     4   8   8   8   4   8
#     4  10  18  37  70 100 133 188 230 300 360 430
#     4  10  22  39  67 101 140 181 245 293 355 449
#     4  10  21  42  70  98 148 187 237 313 362 435
#     4  11  24  43  73 107 145 187 253 312 367 462
#     4  12  22  45  76 104 139 202 242 288 402 434
#     4  10  21  41  73 102 136 191 242 300 377 441
#
# _framework density 22.190678999999999
#
# number of rings (size 3 to 8) (size 9 to 14) (size 15 to 20)
#    0.000    1.600    6.000    0.000    1.400    0.000 
#    1.800   12.000    0.000    0.000    0.000    0.000 
#    0.000    0.000    0.000    0.000    0.000    0.000 
#
# Total GULP energy -222954.230153 kJ/mol
# GULP energy per Si atom -5573.855754 kJ/mol
# Density = 2.214017 g / cm^3
# Si number density = 22.190679 Si / 1000 Ang^3
#
#
#
# Elastic Constant Matrix: (Units=GPa)
#
#
# Indices 1 2 3 4 5 6 
#
# 1 227.4209 54.7504 60.2272 0.0000 0.0000 0.0000
# 2 54.7504 99.2541 28.6165 0.0000 0.0000 0.0000
# 3 60.2272 28.6165 82.7483 0.0000 0.0000 0.0000
# 4 0.0000 0.0000 0.0000 23.3522 0.0000 0.0000
# 5 0.0000 0.0000 0.0000 0.0000 575.8109 0.0000
# 6 0.0000 0.0000 0.0000 0.0000 0.0000 51.0637
#
#
#
# Elastic Compliance Matrix: (Units=1/GPa)
#
#
# Indices 1 2 3 4 5 6 
#
# 1 0.005858 -0.002224 -0.003495 0.000000 0.000000 0.000000
# 2 -0.002224 0.012035 -0.002544 0.000000 0.000000 0.000000
# 3 -0.003495 -0.002544 0.015508 0.000000 0.000000 0.000000
# 4 0.000000 0.000000 0.000000 0.042823 0.000000 0.000000
# 5 0.000000 0.000000 0.000000 0.000000 0.001737 0.000000
# 6 0.000000 0.000000 0.000000 0.000000 0.000000 0.019583
#
#
# Mechanical properties :
#
#
# Convention : Reuss Voigt Hill
#
# Bulk Modulus (GPa) = 59.25130 77.40128 68.32629
# Shear Modulus (GPa) = 41.77346 147.76731 94.77038
#
# Velocity S-wave (km/s) = 4.34346 8.16911 6.54217
# Velocity P-wave (km/s) = 7.20508 11.13261 9.37678
#
# Compressibility (1/GPa) = 0.01687727
#
# Stress axis : x y z
#
# Youngs Moduli (GPa) = 170.70780 83.08977 64.48311
#
# Poissons Ratio (x) = 0.18478 0.22534
# Poissons Ratio (y) = 0.37962 0.16401
# Poissons Ratio (z) = 0.59655 0.21134
#
# Static dielectric constant tensor:
#      x y z
#    x 1.845070 0.000000 0.000000 
#    y 0.000000 1.853820 0.000000 
#    z 0.000000 0.000000 1.833950 
# 
# From -- ./inp_files/14045.got.cif
#   From: 2010.05.17/outbox.cif.g08.bks.cpg/sg52_8_cif.got.tgz:14045.got - 2010.06.03 12:15:38.
