data_PCOD9408467
_publ_section_title
;
Structure prediction by ZEFSAII (Michael W. Deem and Ramdas Pophale) SiO2 
 PCOD9408467
Probable space group: P N N A
;
_chemical_formula_sum "Si O2"
_cell_formula_units_Z 36
_cell_length_a 14.133837
_cell_length_b 19.805351
_cell_length_c 6.497565
_cell_angle_alpha 90.000000
_cell_angle_beta 90.000000
_cell_angle_gamma 90.000000
_cell_volume 1818.834799
_symmetry_space_group_name_H-M "P N N A"
_symmetry_group_IT_number 52
_symmetry_cell_setting 'orthorhombic'
loop_
_space_group_symop_operation_xyz
x,y,z
1/2-x,-y,z
x,1/2-y,1/2-z
1/2-x,1/2+y,1/2-z
-x,-y,-z
1/2+x,y,-z
-x,1/2+y,1/2+z
1/2+x,1/2-y,1/2+z
loop_
_atom_site_type_symbol
_atom_site_label
_atom_site_fract_x
_atom_site_fract_y
_atom_site_fract_z
Si Si1 0.750000 0.000000 0.642788
Si Si2 0.140489 0.323616 0.239624
Si Si3 0.205026 0.885564 0.026381
Si Si4 0.992539 0.918199 0.007556
Si Si5 0.345136 0.906148 0.651032
O O1 0.669337 0.028551 0.492568
O O2 0.784290 0.058278 0.794603
O O3 0.095261 0.250000 0.250000
O O4 0.236563 0.323531 0.376252
O O5 0.076094 0.382842 0.339999
O O6 0.162061 0.344290 0.006420
O O7 0.094306 0.883602 0.985127
O O8 0.262278 0.906102 0.821605
O O9 0.942437 0.903997 0.225486
O O10 0.000000 0.000000 0.000000
#
# Coordination Sequence:
#
# PCOD9408467 Si02
#       5
#     4   8   8   8   8
#     4  10  18  34  60  90 124 162 206 248 324 372
#     4  10  24  44  59  88 127 168 215 261 324 393
#     4  10  21  37  58  91 121 163 208 254 315 387
#     4  11  22  38  63  98 126 159 218 267 318 389
#     4  10  21  38  63  85 132 166 197 270 315 365
#
# _framework density 19.792891999999998
#
# number of rings (size 3 to 8) (size 9 to 14) (size 15 to 20)
#    0.000    1.778    0.000    6.000    0.000   10.667 
#    8.000    0.000    0.000    0.000    0.000    0.000 
#    0.000    0.000    0.000    0.000    0.000    0.000 
#
# Total GULP energy -200755.837987 kJ/mol
# GULP energy per Si atom -5576.551055 kJ/mol
# Density = 1.974784 g / cm^3
# Si number density = 19.792892 Si / 1000 Ang^3
#
#
#
# Elastic Constant Matrix: (Units=GPa)
#
#
# Indices 1 2 3 4 5 6 
#
# 1 124.0880 14.6720 36.6030 0.0000 0.0000 0.0000
# 2 14.6720 81.8277 35.9510 0.0000 0.0000 0.0000
# 3 36.6030 35.9510 132.0425 0.0000 0.0000 0.0000
# 4 0.0000 0.0000 0.0000 15.0491 0.0000 0.0000
# 5 0.0000 0.0000 0.0000 0.0000 18.8783 0.0000
# 6 0.0000 0.0000 0.0000 0.0000 0.0000 20.0760
#
#
#
# Elastic Compliance Matrix: (Units=1/GPa)
#
#
# Indices 1 2 3 4 5 6 
#
# 1 0.008800 -0.000575 -0.002283 0.000000 0.000000 0.000000
# 2 -0.000575 0.013919 -0.003630 0.000000 0.000000 0.000000
# 3 -0.002283 -0.003630 0.009195 0.000000 0.000000 0.000000
# 4 0.000000 0.000000 0.000000 0.066449 0.000000 0.000000
# 5 0.000000 0.000000 0.000000 0.000000 0.052971 0.000000
# 6 0.000000 0.000000 0.000000 0.000000 0.000000 0.049811
#
#
# Mechanical properties :
#
#
# Convention : Reuss Voigt Hill
#
# Bulk Modulus (GPa) = 52.80570 56.93446 54.87008
# Shear Modulus (GPa) = 22.68262 27.51616 25.09939
#
# Velocity S-wave (km/s) = 3.38893 3.73259 3.56490
# Velocity P-wave (km/s) = 6.48461 6.88504 6.68783
#
# Compressibility (1/GPa) = 0.01893735
#
# Stress axis : x y z
#
# Youngs Moduli (GPa) = 113.63394 71.84502 108.75967
#
# Poissons Ratio (x) = 0.04130 0.24829
# Poissons Ratio (y) = 0.06533 0.39483
# Poissons Ratio (z) = 0.25942 0.26082
#
# Static dielectric constant tensor:
#      x y z
#    x 1.724530 0.000000 0.000000 
#    y 0.000000 1.751100 0.000000 
#    z 0.000000 0.000000 1.694160 
# 
# From -- ./inp_files/2136.got.cif
#   From: 2010.05.17/outbox.cif.g08.bks.cpg/sg52_2_cif.got.tgz:2136.got - 2010.06.03 12:15:38.
