data_PCOD9408944
_publ_section_title
;
Structure prediction by ZEFSAII (Michael W. Deem and Ramdas Pophale) SiO2 
 PCOD9408944
Probable space group: P N N A
;
_chemical_formula_sum "Si O2"
_cell_formula_units_Z 56
_cell_length_a 5.424837
_cell_length_b 30.372572
_cell_length_c 16.151154
_cell_angle_alpha 90.000000
_cell_angle_beta 90.000000
_cell_angle_gamma 90.000000
_cell_volume 2661.165116
_symmetry_space_group_name_H-M "P N N A"
_symmetry_group_IT_number 52
_symmetry_cell_setting 'orthorhombic'
loop_
_space_group_symop_operation_xyz
x,y,z
1/2-x,-y,z
x,1/2-y,1/2-z
1/2-x,1/2+y,1/2-z
-x,-y,-z
1/2+x,y,-z
-x,1/2+y,1/2+z
1/2+x,1/2-y,1/2+z
loop_
_atom_site_type_symbol
_atom_site_label
_atom_site_fract_x
_atom_site_fract_y
_atom_site_fract_z
Si Si1 0.281043 0.797685 0.286246
Si Si2 0.719497 0.629292 0.019943
Si Si3 0.619546 0.334982 0.475629
Si Si4 0.213888 0.579262 0.812420
Si Si5 0.208397 0.160356 0.783039
Si Si6 0.282933 0.451593 0.113288
Si Si7 0.573876 0.236125 0.536550
O O1 0.223793 0.750000 0.250000
O O2 0.538620 0.816229 0.248333
O O3 0.321753 0.786649 0.381837
O O4 0.041845 0.827518 0.267599
O O5 0.722065 0.585912 0.958764
O O6 0.472469 0.652944 0.995753
O O7 0.705039 0.615504 0.114028
O O8 0.361489 0.358812 0.491070
O O9 0.651782 0.327104 0.377824
O O10 0.592247 0.290275 0.531537
O O11 0.246084 0.608061 0.730490
O O12 0.458415 0.552216 0.837884
O O13 0.951526 0.555764 0.826292
O O14 0.250000 0.500000 0.075151
O O15 0.282591 0.227638 0.532832
#
# Coordination Sequence:
#
# PCOD9408944 Si02
#       7
#     8   8   8   8   8   8   8
#     4  12  23  38  60  83 108 150 200 242 296 348
#     4   8  16  29  47  71 105 144 183 221 256 308
#     4  10  20  37  59  80 105 138 182 238 291 336
#     4  10  21  35  51  81 116 146 185 227 275 333
#     4  12  24  40  60  83 118 153 182 241 309 347
#     4  10  19  34  58  82 112 153 190 223 262 323
#     4  10  19  35  52  76 104 134 186 244 278 327
#
# _framework density 21.043415
#
# number of rings (size 3 to 8) (size 9 to 14) (size 15 to 20)
#    0.000    1.714    0.000    6.857    0.000    5.143 
#    0.000   12.857    0.000    0.000    0.000    0.000 
#    0.000   11.429    0.000    0.000    0.000    0.000 
#
# Total GULP energy -312488.671369 kJ/mol
# GULP energy per Si atom -5580.154846 kJ/mol
# Density = 2.099552 g / cm^3
# Si number density = 21.043415 Si / 1000 Ang^3
#
#
#
# Elastic Constant Matrix: (Units=GPa)
#
#
# Indices 1 2 3 4 5 6 
#
# 1 168.9837 6.9218 20.1081 0.0000 0.0000 0.0000
# 2 6.9218 42.4254 6.3991 0.0000 0.0000 0.0000
# 3 20.1081 6.3991 85.2338 0.0000 0.0000 0.0000
# 4 0.0000 0.0000 0.0000 16.9411 0.0000 0.0000
# 5 0.0000 0.0000 0.0000 0.0000 33.8014 0.0000
# 6 0.0000 0.0000 0.0000 0.0000 0.0000 20.3202
#
#
#
# Elastic Compliance Matrix: (Units=1/GPa)
#
#
# Indices 1 2 3 4 5 6 
#
# 1 0.006115 -0.000789 -0.001383 0.000000 0.000000 0.000000
# 2 -0.000789 0.023943 -0.001611 0.000000 0.000000 0.000000
# 3 -0.001383 -0.001611 0.012180 0.000000 0.000000 0.000000
# 4 0.000000 0.000000 0.000000 0.059028 0.000000 0.000000
# 5 0.000000 0.000000 0.000000 0.000000 0.029585 0.000000
# 6 0.000000 0.000000 0.000000 0.000000 0.000000 0.049212
#
#
# Mechanical properties :
#
#
# Convention : Reuss Voigt Hill
#
# Bulk Modulus (GPa) = 28.84374 40.38899 34.61636
# Shear Modulus (GPa) = 25.10222 31.76014 28.43118
#
# Velocity S-wave (km/s) = 3.45755 3.88914 3.67968
# Velocity P-wave (km/s) = 5.44758 6.27711 5.87700
#
# Compressibility (1/GPa) = 0.03466957
#
# Stress axis : x y z
#
# Youngs Moduli (GPa) = 163.54161 41.76667 82.10344
#
# Poissons Ratio (x) = 0.03295 0.11357
# Poissons Ratio (y) = 0.12903 0.13230
# Poissons Ratio (z) = 0.22623 0.06730
#
# Static dielectric constant tensor:
#      x y z
#    x 1.856640 0.000000 0.000000 
#    y 0.000000 1.868570 0.000000 
#    z 0.000000 0.000000 1.889990 
# 
# From -- ./inp_files/23758.got.cif
#   From: 2010.05.17/outbox.cif.g08.bks.cpg/sg52_12_cif.got.tgz:23758.got - 2010.06.03 12:15:38.
