data_PCOD9408543
_publ_section_title
;
Structure prediction by ZEFSAII (Michael W. Deem and Ramdas Pophale) SiO2 
 PCOD9408543
Probable space group: P N N A
;
_chemical_formula_sum "Si O2"
_cell_formula_units_Z 64
_cell_length_a 30.563614
_cell_length_b 11.123588
_cell_length_c 7.418211
_cell_angle_alpha 90.000000
_cell_angle_beta 90.000000
_cell_angle_gamma 90.000000
_cell_volume 2522.021492
_symmetry_space_group_name_H-M "P N N A"
_symmetry_group_IT_number 52
_symmetry_cell_setting 'orthorhombic'
loop_
_space_group_symop_operation_xyz
x,y,z
1/2-x,-y,z
x,1/2-y,1/2-z
1/2-x,1/2+y,1/2-z
-x,-y,-z
1/2+x,y,-z
-x,1/2+y,1/2+z
1/2+x,1/2-y,1/2+z
loop_
_atom_site_type_symbol
_atom_site_label
_atom_site_fract_x
_atom_site_fract_y
_atom_site_fract_z
Si Si1 0.257992 0.305613 0.047034
Si Si2 0.125270 0.436739 0.651750
Si Si3 0.417892 0.467486 0.295003
Si Si4 0.207947 0.931659 0.898046
Si Si5 0.966369 0.887069 0.490307
Si Si6 0.675611 0.980637 0.714128
Si Si7 0.159750 0.312248 0.982603
Si Si8 0.994558 0.626362 0.397152
O O1 0.250152 0.250000 0.250000
O O2 0.283135 0.205933 0.934507
O O3 0.290661 0.417028 0.078796
O O4 0.211856 0.322235 0.946807
O O5 0.092268 0.484525 0.498476
O O6 0.161286 0.540804 0.686368
O O7 0.146610 0.323355 0.547342
O O8 0.039604 0.384987 0.769927
O O9 0.434446 0.571321 0.154015
O O10 0.371106 0.414889 0.231156
O O11 0.456850 0.371462 0.310162
O O12 0.200897 0.984236 0.099289
O O13 0.250000 0.000000 0.820331
O O14 0.874407 0.882144 0.353543
O O15 0.982934 0.747329 0.509633
O O16 0.000000 0.000000 0.500000
O O17 0.660481 0.114444 0.665802
O O18 0.000000 0.500000 0.500000
#
# Coordination Sequence:
#
# PCOD9408543 Si02
#       8
#     8   8   8   8   8   8   8   8
#     4  10  20  37  61  90 127 186 251 293 345 426
#     4  10  24  39  59  99 132 190 231 307 369 399
#     4  10  23  44  68 103 147 176 239 299 364 447
#     4  10  18  36  58  84 125 173 238 284 345 419
#     4   9  21  44  70 111 143 192 237 283 366 462
#     4  10  22  36  59  95 125 180 229 293 353 402
#     4  11  22  39  59  89 140 181 246 295 351 426
#     4  10  22  42  74 109 145 188 235 295 373 453
#
# _framework density 25.376467999999999
#
# number of rings (size 3 to 8) (size 9 to 14) (size 15 to 20)
#    0.000    2.000    1.250    1.875    1.750    6.000 
#   22.500    2.500    0.000    0.000    0.000    0.000 
#    0.000    0.000    0.000    0.000    0.000    0.000 
#
# Total GULP energy -356561.867512 kJ/mol
# GULP energy per Si atom -5571.279180 kJ/mol
# Density = 2.531871 g / cm^3
# Si number density = 25.376468 Si / 1000 Ang^3
#
#
#
# Elastic Constant Matrix: (Units=GPa)
#
#
# Indices 1 2 3 4 5 6 
#
# 1 139.7655 16.6779 32.4990 0.0000 0.0000 0.0000
# 2 16.6779 95.6357 30.4617 0.0000 0.0000 0.0000
# 3 32.4990 30.4617 121.7508 0.0000 0.0000 0.0000
# 4 0.0000 0.0000 0.0000 41.5573 0.0000 0.0000
# 5 0.0000 0.0000 0.0000 0.0000 -2.7797 0.0000
# 6 0.0000 0.0000 0.0000 0.0000 0.0000 8.2317
#
#
#
# Elastic Compliance Matrix: (Units=1/GPa)
#
#
# Indices 1 2 3 4 5 6 
#
# 1 0.007677 -0.000745 -0.001863 0.000000 0.000000 0.000000
# 2 -0.000745 0.011434 -0.002662 0.000000 0.000000 0.000000
# 3 -0.001863 -0.002662 0.009377 0.000000 0.000000 0.000000
# 4 0.000000 0.000000 0.000000 0.024063 0.000000 0.000000
# 5 0.000000 0.000000 0.000000 0.000000 -0.359755 0.000000
# 6 0.000000 0.000000 0.000000 0.000000 0.000000 0.121481
#
#
# Mechanical properties :
#
#
# Convention : Reuss Voigt Hill
#
# Bulk Modulus (GPa) = 55.71700 57.38101 56.54901
# Shear Modulus (GPa) = -29.55069 27.90275 -0.82397
#
# Velocity S-wave (km/s) = -3.41617 3.31955 -0.57044
# Velocity P-wave (km/s) = 2.53842 6.11175 4.67959
#
# Compressibility (1/GPa) = 0.01794784
#
# Stress axis : x y z
#
# Youngs Moduli (GPa) = 130.26053 87.45702 106.64748
#
# Poissons Ratio (x) = 0.06520 0.19865
# Poissons Ratio (y) = 0.09711 0.28388
# Poissons Ratio (z) = 0.24263 0.23279
#
# Static dielectric constant tensor:
#      x y z
#    x 2.523610 0.000000 0.000000 
#    y 0.000000 2.042600 0.000000 
#    z 0.000000 0.000000 2.501430 
# 
# From -- ./inp_files/22946.got.cif
#   From: 2010.05.17/outbox.cif.g08.bks.cpg/sg52_12_cif.got.tgz:22946.got - 2010.06.03 12:15:38.
