data_PCOD9408089
_publ_section_title
;
Structure prediction by ZEFSAII (Michael W. Deem and Ramdas Pophale) SiO2 
 PCOD9408089
Probable space group: P N N A
;
_chemical_formula_sum "Si O2"
_cell_formula_units_Z 48
_cell_length_a 8.838765
_cell_length_b 19.131789
_cell_length_c 15.573309
_cell_angle_alpha 90.000000
_cell_angle_beta 90.000000
_cell_angle_gamma 90.000000
_cell_volume 2633.468152
_symmetry_space_group_name_H-M "P N N A"
_symmetry_group_IT_number 52
_symmetry_cell_setting 'orthorhombic'
loop_
_space_group_symop_operation_xyz
x,y,z
1/2-x,-y,z
x,1/2-y,1/2-z
1/2-x,1/2+y,1/2-z
-x,-y,-z
1/2+x,y,-z
-x,1/2+y,1/2+z
1/2+x,1/2-y,1/2+z
loop_
_atom_site_type_symbol
_atom_site_label
_atom_site_fract_x
_atom_site_fract_y
_atom_site_fract_z
Si Si1 0.649366 0.100987 0.441585
Si Si2 0.837851 0.436159 0.887579
Si Si3 0.407830 0.755694 0.006623
Si Si4 0.789586 0.805163 0.674119
Si Si5 0.867093 0.349349 0.199092
Si Si6 0.313517 0.197954 0.879327
O O1 0.738259 0.079789 0.527265
O O2 0.509474 0.052334 0.415944
O O3 0.576187 0.178134 0.463721
O O4 0.770885 0.102428 0.364359
O O5 0.750000 0.500000 0.844419
O O6 0.831637 0.366517 0.830018
O O7 0.293780 0.737712 0.085185
O O8 0.549365 0.791025 0.053603
O O9 0.336367 0.806215 0.935845
O O10 0.774336 0.750000 0.750000
O O11 0.953052 0.844050 0.682481
O O12 0.810951 0.273307 0.167058
O O13 0.838446 0.355282 0.301029
#
# Coordination Sequence:
#
# PCOD9408089 Si02
#       6
#     8   8   8   8   8   8
#     4  10  19  32  50  73 103 145 180 210 256 320
#     4  11  22  35  52  76 109 149 183 214 258 319
#     4   9  15  26  44  67  96 133 171 208 255 317
#     4  10  17  33  51  71 104 142 178 220 273 314
#     4   9  16  30  47  68  99 140 174 217 263 320
#     4   9  15  26  41  65  99 134 164 208 266 307
#
# _framework density 18.226915999999999
#
# number of rings (size 3 to 8) (size 9 to 14) (size 15 to 20)
#    0.000    2.333    3.333    5.500    0.000    0.000 
#    9.000    0.000    0.000    0.000    0.000    0.000 
#    0.000    6.667    0.000    0.000    0.000    0.000 
#
# Total GULP energy -267276.508996 kJ/mol
# GULP energy per Si atom -5568.260604 kJ/mol
# Density = 1.818543 g / cm^3
# Si number density = 18.226916 Si / 1000 Ang^3
#
#
#
# Elastic Constant Matrix: (Units=GPa)
#
#
# Indices 1 2 3 4 5 6 
#
# 1 36.0041 15.3337 30.7056 0.0000 0.0000 0.0000
# 2 15.3337 27.2320 10.4977 0.0000 0.0000 0.0000
# 3 30.7056 10.4977 87.9778 0.0000 0.0000 0.0000
# 4 0.0000 0.0000 0.0000 16.4940 0.0000 0.0000
# 5 0.0000 0.0000 0.0000 0.0000 5.5122 0.0000
# 6 0.0000 0.0000 0.0000 0.0000 0.0000 11.2759
#
#
#
# Elastic Compliance Matrix: (Units=1/GPa)
#
#
# Indices 1 2 3 4 5 6 
#
# 1 0.049887 -0.022409 -0.014737 0.000000 0.000000 0.000000
# 2 -0.022409 0.048558 0.002027 0.000000 0.000000 0.000000
# 3 -0.014737 0.002027 0.016268 0.000000 0.000000 0.000000
# 4 0.000000 0.000000 0.000000 0.060628 0.000000 0.000000
# 5 0.000000 0.000000 0.000000 0.000000 0.181415 0.000000
# 6 0.000000 0.000000 0.000000 0.000000 0.000000 0.088685
#
#
# Mechanical properties :
#
#
# Convention : Reuss Voigt Hill
#
# Bulk Modulus (GPa) = 22.48483 29.36533 25.92508
# Shear Modulus (GPa) = 9.42500 12.96823 11.19661
#
# Velocity S-wave (km/s) = 2.27643 2.67027 2.48118
# Velocity P-wave (km/s) = 4.39003 5.06488 4.73948
#
# Compressibility (1/GPa) = 0.04447443
#
# Stress axis : x y z
#
# Youngs Moduli (GPa) = 20.04530 20.59387 61.46958
#
# Poissons Ratio (x) = 0.46149 0.90590
# Poissons Ratio (y) = 0.44920 -0.12460
# Poissons Ratio (z) = 0.29542 -0.04175
#
# Static dielectric constant tensor:
#      x y z
#    x 1.682770 0.000000 0.000000 
#    y 0.000000 1.666630 0.000000 
#    z 0.000000 0.000000 1.657940 
# 
# From -- ./inp_files/24846.got.cif
#   From: 2010.05.17/outbox.cif.g08.bks.cpg/sg52_13_cif.got.tgz:24846.got - 2010.06.03 12:15:38.
