data_PCOD9408779
_publ_section_title
;
Structure prediction by ZEFSAII (Michael W. Deem and Ramdas Pophale) SiO2 
 PCOD9408779
Probable space group: P N N A
;
_chemical_formula_sum "Si O2"
_cell_formula_units_Z 52
_cell_length_a 13.792453
_cell_length_b 8.766571
_cell_length_c 22.047828
_cell_angle_alpha 90.000000
_cell_angle_beta 90.000000
_cell_angle_gamma 90.000000
_cell_volume 2665.858411
_symmetry_space_group_name_H-M "P N N A"
_symmetry_group_IT_number 52
_symmetry_cell_setting 'orthorhombic'
loop_
_space_group_symop_operation_xyz
x,y,z
1/2-x,-y,z
x,1/2-y,1/2-z
1/2-x,1/2+y,1/2-z
-x,-y,-z
1/2+x,y,-z
-x,1/2+y,1/2+z
1/2+x,1/2-y,1/2+z
loop_
_atom_site_type_symbol
_atom_site_label
_atom_site_fract_x
_atom_site_fract_y
_atom_site_fract_z
Si Si1 0.250000 0.000000 0.830206
Si Si2 0.896725 0.871380 0.944511
Si Si3 0.089684 0.459933 0.573839
Si Si4 0.116005 0.250000 0.250000
Si Si5 0.488814 0.298044 0.154884
Si Si6 0.640070 0.522553 0.680497
Si Si7 0.148490 0.250000 0.750000
Si Si8 0.648800 0.422358 0.872878
O O1 0.160174 0.973256 0.875394
O O2 0.215572 0.136574 0.787655
O O3 0.878266 0.700336 0.923574
O O4 0.856659 0.975963 0.890049
O O5 0.859826 0.909174 0.011441
O O6 0.010434 0.913447 0.943472
O O7 0.035913 0.311068 0.602862
O O8 0.072671 0.399978 0.283612
O O9 0.162802 0.329408 0.190545
O O10 0.406531 0.187963 0.184360
O O11 0.575018 0.329437 0.202299
O O12 0.434462 0.450532 0.134543
O O13 0.750000 0.500000 0.703939
O O14 0.750000 0.500000 0.887741
#
# Coordination Sequence:
#
# PCOD9408779 Si02
#       8
#     4   8   8   4   8   8   4   8
#     4  10  22  40  66  86 116 148 208 250 306 350
#     4   9  20  37  58  85 117 151 204 238 302 356
#     4   9  20  40  61  87 111 157 200 255 293 357
#     4  10  20  31  47  76 118 152 198 230 273 347
#     4  10  20  36  58  83 122 153 194 245 312 349
#     4  10  19  32  53  84 119 161 195 237 288 361
#     4  10  22  39  59  86 112 154 196 256 297 357
#     4  11  22  36  56  88 123 162 193 241 299 370
#
# _framework density 19.505911000000001
#
# number of rings (size 3 to 8) (size 9 to 14) (size 15 to 20)
#    0.000    2.154    0.000    3.231    1.077    4.308 
#    2.769    5.385    6.769    0.000    0.000    0.000 
#    0.000    0.000    0.000    0.000    0.000    0.000 
#
# Total GULP energy -289745.780039 kJ/mol
# GULP energy per Si atom -5572.034232 kJ/mol
# Density = 1.946151 g / cm^3
# Si number density = 19.505911 Si / 1000 Ang^3
#
#
#
# Elastic Constant Matrix: (Units=GPa)
#
#
# Indices 1 2 3 4 5 6 
#
# 1 82.5864 52.3073 41.3948 0.0000 0.0000 0.0000
# 2 52.3073 100.1623 46.6010 0.0000 0.0000 0.0000
# 3 41.3948 46.6010 119.7309 0.0000 0.0000 0.0000
# 4 0.0000 0.0000 0.0000 21.3896 0.0000 0.0000
# 5 0.0000 0.0000 0.0000 0.0000 71.0095 0.0000
# 6 0.0000 0.0000 0.0000 0.0000 0.0000 27.7687
#
#
#
# Elastic Compliance Matrix: (Units=1/GPa)
#
#
# Indices 1 2 3 4 5 6 
#
# 1 0.019120 -0.008437 -0.003326 0.000000 0.000000 0.000000
# 2 -0.008437 0.015915 -0.003277 0.000000 0.000000 0.000000
# 3 -0.003326 -0.003277 0.010778 0.000000 0.000000 0.000000
# 4 0.000000 0.000000 0.000000 0.046752 0.000000 0.000000
# 5 0.000000 0.000000 0.000000 0.000000 0.014083 0.000000
# 6 0.000000 0.000000 0.000000 0.000000 0.000000 0.036012
#
#
# Mechanical properties :
#
#
# Convention : Reuss Voigt Hill
#
# Bulk Modulus (GPa) = 63.57125 64.78731 64.17928
# Shear Modulus (GPa) = 28.09256 34.84532 31.46894
#
# Velocity S-wave (km/s) = 3.79912 4.23117 4.02095
# Velocity P-wave (km/s) = 7.20458 7.56020 7.38453
#
# Compressibility (1/GPa) = 0.01573038
#
# Stress axis : x y z
#
# Youngs Moduli (GPa) = 52.30234 62.83525 92.78458
#
# Poissons Ratio (x) = 0.53015 0.30864
# Poissons Ratio (y) = 0.44128 0.30408
# Poissons Ratio (z) = 0.17398 0.20593
#
# Static dielectric constant tensor:
#      x y z
#    x 1.736490 0.000000 0.000000 
#    y 0.000000 1.703790 0.000000 
#    z 0.000000 0.000000 1.712240 
# 
# From -- ./inp_files/40623.got.cif
#   From: 2010.05.17/outbox.cif.g08.bks.cpg/sg52_21_cif.got.tgz:40623.got - 2010.06.03 12:15:38.
