data_PCOD9408777
_publ_section_title
;
Structure prediction by ZEFSAII (Michael W. Deem and Ramdas Pophale) SiO2 
 PCOD9408777
Probable space group: P N N A
;
_chemical_formula_sum "Si O2"
_cell_formula_units_Z 56
_cell_length_a 12.721886
_cell_length_b 18.916997
_cell_length_c 13.873479
_cell_angle_alpha 90.000000
_cell_angle_beta 90.000000
_cell_angle_gamma 90.000000
_cell_volume 3338.789782
_symmetry_space_group_name_H-M "P N N A"
_symmetry_group_IT_number 52
_symmetry_cell_setting 'orthorhombic'
loop_
_space_group_symop_operation_xyz
x,y,z
1/2-x,-y,z
x,1/2-y,1/2-z
1/2-x,1/2+y,1/2-z
-x,-y,-z
1/2+x,y,-z
-x,1/2+y,1/2+z
1/2+x,1/2-y,1/2+z
loop_
_atom_site_type_symbol
_atom_site_label
_atom_site_fract_x
_atom_site_fract_y
_atom_site_fract_z
Si Si1 0.718108 0.575938 0.793411
Si Si2 0.350790 0.322076 0.498575
Si Si3 0.605686 0.421867 0.624839
Si Si4 0.225768 0.277691 0.143205
Si Si5 0.198399 0.424066 0.591357
Si Si6 0.028170 0.576823 0.346458
Si Si7 0.995786 0.228297 0.147800
O O1 0.750000 0.500000 0.836897
O O2 0.798894 0.579394 0.701771
O O3 0.737020 0.642022 0.862340
O O4 0.601710 0.583680 0.747964
O O5 0.272771 0.277351 0.432045
O O6 0.289128 0.365736 0.580943
O O7 0.417106 0.375836 0.430546
O O8 0.424100 0.267370 0.554707
O O9 0.653952 0.424058 0.518310
O O10 0.539366 0.493578 0.630973
O O11 0.537300 0.352749 0.645860
O O12 0.255904 0.250000 0.250000
O O13 0.100290 0.274890 0.138231
O O14 0.250000 0.500000 0.613401
O O15 0.096061 0.406888 0.655866
O O16 0.946430 0.250000 0.250000
#
# Coordination Sequence:
#
# PCOD9408777 Si02
#       7
#     8   8   8   8   8   8   8
#     4  10  19  32  53  80 102 128 175 225 260 305
#     4  12  20  31  52  77 111 140 177 218 265 318
#     4  11  16  29  48  77 109 133 172 208 253 324
#     4  11  18  34  55  80 104 135 178 224 260 310
#     4  12  19  28  44  76 115 144 166 197 266 343
#     4  11  19  28  48  79 108 140 165 209 268 320
#     4  11  21  34  52  75 105 148 177 216 261 311
#
# _framework density 16.772544
#
# number of rings (size 3 to 8) (size 9 to 14) (size 15 to 20)
#    0.000    0.857   10.000    1.714    0.000    0.000 
#    0.000    0.000    6.286    0.857    0.000    1.000 
#    0.000    0.000    0.000    0.000    0.000    0.000 
#
# Total GULP energy -312210.089568 kJ/mol
# GULP energy per Si atom -5575.180171 kJ/mol
# Density = 1.673437 g / cm^3
# Si number density = 16.772544 Si / 1000 Ang^3
#
#
#
# Elastic Constant Matrix: (Units=GPa)
#
#
# Indices 1 2 3 4 5 6 
#
# 1 64.0045 21.0351 12.6231 0.0000 0.0000 0.0000
# 2 21.0351 74.2449 9.0129 0.0000 0.0000 0.0000
# 3 12.6231 9.0129 21.8173 0.0000 0.0000 0.0000
# 4 0.0000 0.0000 0.0000 13.9842 0.0000 0.0000
# 5 0.0000 0.0000 0.0000 0.0000 12.6672 0.0000
# 6 0.0000 0.0000 0.0000 0.0000 0.0000 17.5982
#
#
#
# Elastic Compliance Matrix: (Units=1/GPa)
#
#
# Indices 1 2 3 4 5 6 
#
# 1 0.018814 -0.004221 -0.009142 0.000000 0.000000 0.000000
# 2 -0.004221 0.015127 -0.003807 0.000000 0.000000 0.000000
# 3 -0.009142 -0.003807 0.052697 0.000000 0.000000 0.000000
# 4 0.000000 0.000000 0.000000 0.071509 0.000000 0.000000
# 5 0.000000 0.000000 0.000000 0.000000 0.078944 0.000000
# 6 0.000000 0.000000 0.000000 0.000000 0.000000 0.056824
#
#
# Mechanical properties :
#
#
# Convention : Reuss Voigt Hill
#
# Bulk Modulus (GPa) = 19.12081 27.26769 23.19425
# Shear Modulus (GPa) = 14.46391 16.67628 15.57009
#
# Velocity S-wave (km/s) = 2.93978 3.15661 3.05012
# Velocity P-wave (km/s) = 4.79039 5.43859 5.12475
#
# Compressibility (1/GPa) = 0.05229903
#
# Stress axis : x y z
#
# Youngs Moduli (GPa) = 53.15191 66.10748 18.97626
#
# Poissons Ratio (x) = 0.27901 0.17348
# Poissons Ratio (y) = 0.22433 0.07224
# Poissons Ratio (z) = 0.48591 0.25168
#
# Static dielectric constant tensor:
#      x y z
#    x 1.631370 0.000000 0.000000 
#    y 0.000000 1.596770 0.000000 
#    z 0.000000 0.000000 1.550900 
# 
# From -- ./inp_files/18341.got.cif
#   From: 2010.05.17/outbox.cif.g08.bks.cpg/sg52_10_cif.got.tgz:18341.got - 2010.06.03 12:15:38.
