data_PCOD9408049
_publ_section_title
;
Structure prediction by ZEFSAII (Michael W. Deem and Ramdas Pophale) SiO2 
 PCOD9408049
Probable space group: P N N A
;
_chemical_formula_sum "Si O2"
_cell_formula_units_Z 64
_cell_length_a 9.933206
_cell_length_b 15.556010
_cell_length_c 22.129047
_cell_angle_alpha 90.000000
_cell_angle_beta 90.000000
_cell_angle_gamma 90.000000
_cell_volume 3419.403619
_symmetry_space_group_name_H-M "P N N A"
_symmetry_group_IT_number 52
_symmetry_cell_setting 'orthorhombic'
loop_
_space_group_symop_operation_xyz
x,y,z
1/2-x,-y,z
x,1/2-y,1/2-z
1/2-x,1/2+y,1/2-z
-x,-y,-z
1/2+x,y,-z
-x,1/2+y,1/2+z
1/2+x,1/2-y,1/2+z
loop_
_atom_site_type_symbol
_atom_site_label
_atom_site_fract_x
_atom_site_fract_y
_atom_site_fract_z
Si Si1 0.808242 0.767750 0.121015
Si Si2 0.788042 0.280478 0.994883
Si Si3 0.463362 0.840891 0.427629
Si Si4 0.866225 0.344414 0.278928
Si Si5 0.595568 0.493341 0.556874
Si Si6 0.328292 0.415339 0.847130
Si Si7 0.900060 0.328105 0.616696
Si Si8 0.390005 0.831695 0.143596
O O1 0.783139 0.773404 0.048896
O O2 0.725408 0.837028 0.160874
O O3 0.752978 0.671874 0.135278
O O4 0.964847 0.780056 0.135848
O O5 0.917210 0.326478 0.024026
O O6 0.677600 0.343705 0.964061
O O7 0.844318 0.216557 0.944289
O O8 0.527047 0.909429 0.380999
O O9 0.444378 0.756033 0.386114
O O10 0.849756 0.250000 0.250000
O O11 0.837174 0.410508 0.225527
O O12 0.019041 0.353674 0.299744
O O13 0.750000 0.500000 0.536435
O O14 0.500000 0.500000 0.500000
O O15 0.567109 0.573428 0.601156
O O16 0.586704 0.405207 0.593718
O O17 0.250000 0.500000 0.866575
O O18 0.767943 0.325216 0.658414
#
# Coordination Sequence:
#
# PCOD9408049 Si02
#       8
#     8   8   8   8   8   8   8   8
#     4  10  20  35  60  86 114 148 197 233 289 360
#     4  10  17  30  56  83 116 149 185 226 282 355
#     4  10  18  33  58  82 112 152 186 228 292 356
#     4  10  19  37  61  80 102 148 202 240 281 346
#     4  10  22  31  46  81 124 158 183 223 270 338
#     4  10  22  40  62  84 111 145 204 261 292 332
#     4  10  21  32  52  83 122 153 185 226 286 343
#     4  10  19  35  55  81 115 154 195 229 278 347
#
# _framework density 18.716715000000001
#
# number of rings (size 3 to 8) (size 9 to 14) (size 15 to 20)
#    0.000    2.000    5.000    0.750    3.500    1.000 
#    0.000    4.375    0.000    2.250    0.000    0.000 
#    0.000    0.000    0.000    0.000    0.000    0.000 
#
# Total GULP energy -356620.557913 kJ/mol
# GULP energy per Si atom -5572.196217 kJ/mol
# Density = 1.867411 g / cm^3
# Si number density = 18.716715 Si / 1000 Ang^3
#
#
#
# Elastic Constant Matrix: (Units=GPa)
#
#
# Indices 1 2 3 4 5 6 
#
# 1 75.9816 -3.2942 7.4312 0.0000 0.0000 0.0000
# 2 -3.2942 15.4138 -7.8306 0.0000 0.0000 0.0000
# 3 7.4312 -7.8306 33.4636 0.0000 0.0000 0.0000
# 4 0.0000 0.0000 0.0000 5.5784 0.0000 0.0000
# 5 0.0000 0.0000 0.0000 0.0000 18.0734 0.0000
# 6 0.0000 0.0000 0.0000 0.0000 0.0000 25.1783
#
#
#
# Elastic Compliance Matrix: (Units=1/GPa)
#
#
# Indices 1 2 3 4 5 6 
#
# 1 0.013486 0.001544 -0.002633 0.000000 0.000000 0.000000
# 2 0.001544 0.073807 0.016928 0.000000 0.000000 0.000000
# 3 -0.002633 0.016928 0.034429 0.000000 0.000000 0.000000
# 4 0.000000 0.000000 0.000000 0.179263 0.000000 0.000000
# 5 0.000000 0.000000 0.000000 0.000000 0.055330 0.000000
# 6 0.000000 0.000000 0.000000 0.000000 0.000000 0.039717
#
#
# Mechanical properties :
#
#
# Convention : Reuss Voigt Hill
#
# Bulk Modulus (GPa) = 6.51890 13.05243 9.78566
# Shear Modulus (GPa) = 12.03409 18.33619 15.18514
#
# Velocity S-wave (km/s) = 2.53842 3.13336 2.85145
# Velocity P-wave (km/s) = 3.47590 4.48101 4.01007
#
# Compressibility (1/GPa) = 0.15340010
#
# Stress axis : x y z
#
# Youngs Moduli (GPa) = 74.15332 13.54887 29.04501
#
# Poissons Ratio (x) = -0.02092 0.07649
# Poissons Ratio (y) = -0.11451 -0.49168
# Poissons Ratio (z) = 0.19527 -0.22936
#
# Static dielectric constant tensor:
#      x y z
#    x 1.676760 0.000000 0.000000 
#    y 0.000000 1.652470 0.000000 
#    z 0.000000 0.000000 1.683860 
# 
# From -- ./inp_files/39755.got.cif
#   From: 2010.05.17/outbox.cif.g08.bks.cpg/sg52_20_cif.got.tgz:39755.got - 2010.06.03 12:15:38.
