data_PCOD9408489
_publ_section_title
;
Structure prediction by ZEFSAII (Michael W. Deem and Ramdas Pophale) SiO2 
 PCOD9408489
Probable space group: P N N A
;
_chemical_formula_sum "Si O2"
_cell_formula_units_Z 60
_cell_length_a 19.960394
_cell_length_b 5.980835
_cell_length_c 24.556863
_cell_angle_alpha 90.000000
_cell_angle_beta 90.000000
_cell_angle_gamma 90.000000
_cell_volume 2931.593960
_symmetry_space_group_name_H-M "P N N A"
_symmetry_group_IT_number 52
_symmetry_cell_setting 'orthorhombic'
loop_
_space_group_symop_operation_xyz
x,y,z
1/2-x,-y,z
x,1/2-y,1/2-z
1/2-x,1/2+y,1/2-z
-x,-y,-z
1/2+x,y,-z
-x,1/2+y,1/2+z
1/2+x,1/2-y,1/2+z
loop_
_atom_site_type_symbol
_atom_site_label
_atom_site_fract_x
_atom_site_fract_y
_atom_site_fract_z
Si Si1 0.387118 0.970577 0.157948
Si Si2 0.532759 0.401422 0.891956
Si Si3 0.589206 0.205352 0.495602
Si Si4 0.184603 0.857807 0.550012
Si Si5 0.082951 0.964220 0.902939
Si Si6 0.981524 0.709534 0.312303
Si Si7 0.250000 0.500000 0.276736
Si Si8 0.178367 0.568922 0.444402
O O1 0.404142 0.724210 0.135603
O O2 0.320064 0.979388 0.191675
O O3 0.452664 0.051203 0.189369
O O4 0.372985 0.122441 0.104007
O O5 0.551468 0.427206 0.956113
O O6 0.507463 0.589354 0.850793
O O7 0.472887 0.223270 0.895406
O O8 0.557093 0.385250 0.454178
O O9 0.645653 0.357736 0.524884
O O10 0.624421 0.031943 0.455768
O O11 0.154570 0.650467 0.584453
O O12 0.192597 0.757189 0.489139
O O13 0.250000 0.000000 0.566594
O O14 0.078443 0.103224 0.847510
O O15 0.962438 0.750000 0.250000
O O16 0.244453 0.750000 0.250000
O O17 0.250000 0.500000 0.420555
#
# Coordination Sequence:
#
# PCOD9408489 Si02
#       8
#     8   8   8   8   8   8   4   8
#     4  10  23  39  60  86 122 174 231 288 329 387
#     4  10  22  40  62  90 125 174 211 271 329 394
#     4  10  20  36  60  88 130 163 204 247 325 400
#     4  11  21  34  59  91 131 164 198 251 326 409
#     4  10  23  38  60  91 126 161 210 266 329 407
#     4  11  24  42  63  87 124 169 229 284 335 393
#     4  12  28  44  62  90 128 182 244 308 354 398
#     4  10  18  35  52  86 124 164 211 255 314 391
#
# _framework density 20.466681000000001
#
# number of rings (size 3 to 8) (size 9 to 14) (size 15 to 20)
#    0.000    1.600    2.000    2.400    3.733    5.867 
#    1.200    0.000    0.000    0.000    0.000    0.000 
#   56.000    0.000    0.000    0.000    0.000    0.000 
#
# Total GULP energy -334370.686189 kJ/mol
# GULP energy per Si atom -5572.844770 kJ/mol
# Density = 2.042010 g / cm^3
# Si number density = 20.466681 Si / 1000 Ang^3
#
#
#
# Elastic Constant Matrix: (Units=GPa)
#
#
# Indices 1 2 3 4 5 6 
#
# 1 53.6774 35.1388 51.0583 0.0000 0.0000 0.0000
# 2 35.1388 81.4256 55.8640 0.0000 0.0000 0.0000
# 3 51.0583 55.8640 125.4434 0.0000 0.0000 0.0000
# 4 0.0000 0.0000 0.0000 22.9767 0.0000 0.0000
# 5 0.0000 0.0000 0.0000 0.0000 30.7265 0.0000
# 6 0.0000 0.0000 0.0000 0.0000 0.0000 26.0886
#
#
#
# Elastic Compliance Matrix: (Units=1/GPa)
#
#
# Indices 1 2 3 4 5 6 
#
# 1 0.033139 -0.007267 -0.010252 0.000000 0.000000 0.000000
# 2 -0.007267 0.019278 -0.005627 0.000000 0.000000 0.000000
# 3 -0.010252 -0.005627 0.014650 0.000000 0.000000 0.000000
# 4 0.000000 0.000000 0.000000 0.043522 0.000000 0.000000
# 5 0.000000 0.000000 0.000000 0.000000 0.032545 0.000000
# 6 0.000000 0.000000 0.000000 0.000000 0.000000 0.038331
#
#
# Mechanical properties :
#
#
# Convention : Reuss Voigt Hill
#
# Bulk Modulus (GPa) = 48.13586 60.51872 54.32729
# Shear Modulus (GPa) = 21.30531 23.85739 22.58135
#
# Velocity S-wave (km/s) = 3.22992 3.41789 3.32523
# Velocity P-wave (km/s) = 6.12209 6.72381 6.42999
#
# Compressibility (1/GPa) = 0.02077453
#
# Stress axis : x y z
#
# Youngs Moduli (GPa) = 30.17599 51.87271 68.25745
#
# Poissons Ratio (x) = 0.37698 0.69977
# Poissons Ratio (y) = 0.21930 0.38409
# Poissons Ratio (z) = 0.30936 0.29189
#
# Static dielectric constant tensor:
#      x y z
#    x 1.732620 0.000000 0.000000 
#    y 0.000000 1.852330 0.000000 
#    z 0.000000 0.000000 1.750540 
# 
# From -- ./inp_files/41048.got.cif
#   From: 2010.05.17/outbox.cif.g08.bks.cpg/sg52_21_cif.got.tgz:41048.got - 2010.06.03 12:15:38.
