data_PCOD9408657
_publ_section_title
;
Structure prediction by ZEFSAII (Michael W. Deem and Ramdas Pophale) SiO2 
 PCOD9408657
Probable space group: P N N A
;
_chemical_formula_sum "Si O2"
_cell_formula_units_Z 64
_cell_length_a 14.323477
_cell_length_b 8.214182
_cell_length_c 25.537849
_cell_angle_alpha 90.000000
_cell_angle_beta 90.000000
_cell_angle_gamma 90.000000
_cell_volume 3004.672146
_symmetry_space_group_name_H-M "P N N A"
_symmetry_group_IT_number 52
_symmetry_cell_setting 'orthorhombic'
loop_
_space_group_symop_operation_xyz
x,y,z
1/2-x,-y,z
x,1/2-y,1/2-z
1/2-x,1/2+y,1/2-z
-x,-y,-z
1/2+x,y,-z
-x,1/2+y,1/2+z
1/2+x,1/2-y,1/2+z
loop_
_atom_site_type_symbol
_atom_site_label
_atom_site_fract_x
_atom_site_fract_y
_atom_site_fract_z
Si Si1 0.144037 0.950232 0.640906
Si Si2 0.803709 0.350215 0.615138
Si Si3 0.916137 0.120620 0.984558
Si Si4 0.878243 0.673427 0.864655
Si Si5 0.495166 0.929567 0.272205
Si Si6 0.975342 0.027542 0.842445
Si Si7 0.001074 0.945159 0.440448
Si Si8 0.349180 0.088685 0.899157
O O1 0.144054 0.755451 0.633299
O O2 0.076400 0.988819 0.689317
O O3 0.250000 0.000000 0.648273
O O4 0.096280 0.034152 0.590139
O O5 0.750000 0.500000 0.642294
O O6 0.835448 0.416401 0.557831
O O7 0.728929 0.206040 0.619128
O O8 0.900884 0.332191 0.645005
O O9 0.869422 0.145027 0.041116
O O10 0.964181 0.265075 0.952207
O O11 0.000000 0.000000 0.000000
O O12 0.902761 0.593240 0.808397
O O13 0.928615 0.560938 0.907783
O O14 0.929749 0.851623 0.860624
O O15 0.519032 0.750000 0.250000
O O16 0.487532 0.030598 0.219509
O O17 0.071168 0.028660 0.874898
O O18 0.000000 0.000000 0.500000
O O19 0.250000 0.000000 0.896418
#
# Coordination Sequence:
#
# PCOD9408657 Si02
#       8
#     8   8   8   8   8   8   8   8
#     4  11  24  41  65 101 131 178 234 281 347 420
#     4  10  22  38  67  94 132 172 228 281 343 412
#     4  12  25  41  65  98 135 178 222 281 347 416
#     4   9  19  38  67  97 127 177 229 276 348 415
#     4   9  17  38  69  90 133 179 221 287 355 411
#     4  10  18  40  68  97 131 178 228 290 350 409
#     4  11  22  42  69  89 134 177 218 277 340 410
#     4  12  24  41  64 101 133 180 232 283 347 424
#
# _framework density 21.300162
#
# number of rings (size 3 to 8) (size 9 to 14) (size 15 to 20)
#    0.000    1.500    6.250    0.375    3.500    2.000 
#    0.000    0.000   41.250    0.000    0.000    0.000 
#    0.000    0.000    0.000    0.000    0.000    0.000 
#
# Total GULP energy -356769.960280 kJ/mol
# GULP energy per Si atom -5574.530629 kJ/mol
# Density = 2.125168 g / cm^3
# Si number density = 21.300162 Si / 1000 Ang^3
#
#
#
# Elastic Constant Matrix: (Units=GPa)
#
#
# Indices 1 2 3 4 5 6 
#
# 1 172.3847 46.4924 74.4147 0.0000 0.0000 0.0000
# 2 46.4924 54.8913 19.2760 0.0000 0.0000 0.0000
# 3 74.4147 19.2760 174.3555 0.0000 0.0000 0.0000
# 4 0.0000 0.0000 0.0000 28.4877 0.0000 0.0000
# 5 0.0000 0.0000 0.0000 0.0000 17.9222 0.0000
# 6 0.0000 0.0000 0.0000 0.0000 0.0000 39.0585
#
#
#
# Elastic Compliance Matrix: (Units=1/GPa)
#
#
# Indices 1 2 3 4 5 6 
#
# 1 0.008860 -0.006426 -0.003071 0.000000 0.000000 0.000000
# 2 -0.006426 0.023614 0.000132 0.000000 0.000000 0.000000
# 3 -0.003071 0.000132 0.007031 0.000000 0.000000 0.000000
# 4 0.000000 0.000000 0.000000 0.035103 0.000000 0.000000
# 5 0.000000 0.000000 0.000000 0.000000 0.055797 0.000000
# 6 0.000000 0.000000 0.000000 0.000000 0.000000 0.025603
#
#
# Mechanical properties :
#
#
# Convention : Reuss Voigt Hill
#
# Bulk Modulus (GPa) = 48.13328 75.77752 61.95540
# Shear Modulus (GPa) = 27.52364 34.52355 31.02360
#
# Velocity S-wave (km/s) = 3.59859 4.03030 3.82055
# Velocity P-wave (km/s) = 6.31768 7.57040 6.97224
#
# Compressibility (1/GPa) = 0.02077565
#
# Stress axis : x y z
#
# Youngs Moduli (GPa) = 112.87174 42.34783 142.21737
#
# Poissons Ratio (x) = 0.27211 0.43673
# Poissons Ratio (y) = 0.72527 -0.01874
# Poissons Ratio (z) = 0.34662 -0.00558
#
# Static dielectric constant tensor:
#      x y z
#    x 1.739330 0.000000 0.000000 
#    y 0.000000 1.913860 0.000000 
#    z 0.000000 0.000000 1.817610 
# 
# From -- ./inp_files/40669.got.cif
#   From: 2010.05.17/outbox.cif.g08.bks.cpg/sg52_21_cif.got.tgz:40669.got - 2010.06.03 12:15:38.
