data_PCOD9408031
_publ_section_title
;
Structure prediction by ZEFSAII (Michael W. Deem and Ramdas Pophale) SiO2 
 PCOD9408031
Probable space group: P N N A
;
_chemical_formula_sum "Si O2"
_cell_formula_units_Z 48
_cell_length_a 16.510739
_cell_length_b 30.349128
_cell_length_c 4.929189
_cell_angle_alpha 90.000000
_cell_angle_beta 90.000000
_cell_angle_gamma 90.000000
_cell_volume 2469.950218
_symmetry_space_group_name_H-M "P N N A"
_symmetry_group_IT_number 52
_symmetry_cell_setting 'orthorhombic'
loop_
_space_group_symop_operation_xyz
x,y,z
1/2-x,-y,z
x,1/2-y,1/2-z
1/2-x,1/2+y,1/2-z
-x,-y,-z
1/2+x,y,-z
-x,1/2+y,1/2+z
1/2+x,1/2-y,1/2+z
loop_
_atom_site_type_symbol
_atom_site_label
_atom_site_fract_x
_atom_site_fract_y
_atom_site_fract_z
Si Si1 0.638848 0.391746 0.197418
Si Si2 0.250259 0.296110 0.182298
Si Si3 0.081025 0.015183 0.853000
Si Si4 0.136437 0.296566 0.682548
Si Si5 0.245349 0.609367 0.303295
Si Si6 0.167590 0.979398 0.357001
O O1 0.584697 0.434006 0.262301
O O2 0.598328 0.344095 0.252763
O O3 0.717104 0.393864 0.397502
O O4 0.676805 0.393910 0.897994
O O5 0.293047 0.250000 0.250000
O O6 0.170489 0.296226 0.377932
O O7 0.291667 0.342261 0.250568
O O8 0.216069 0.296239 0.878301
O O9 0.100818 0.986417 0.587246
O O10 0.147767 0.006623 0.085787
O O11 0.000000 0.000000 0.000000
O O12 0.093954 0.250000 0.750000
O O13 0.184923 0.570380 0.229414
O O14 0.250000 0.000000 0.476415
#
# Coordination Sequence:
#
# PCOD9408031 Si02
#       6
#     8   8   8   8   8   8
#     4  10  17  30  46  69  97 128 162 204 255 297
#     4   8  14  24  38  64  97 120 145 195 255 293
#     4  12  24  36  50  74 106 140 171 218 265 309
#     4   8  14  23  39  62  91 120 151 194 244 294
#     4  10  18  28  50  72  93 128 169 207 245 299
#     4  12  21  36  55  74 100 135 182 213 254 309
#
# _framework density 19.433589999999999
#
# number of rings (size 3 to 8) (size 9 to 14) (size 15 to 20)
#    0.000    2.000    3.333    2.000    0.000    0.000 
#    0.000    0.000    0.000    0.000    0.000    1.167 
#    0.000    2.667    0.000    0.000    0.000    0.000 
#
# Total GULP energy -267585.186979 kJ/mol
# GULP energy per Si atom -5574.691395 kJ/mol
# Density = 1.938936 g / cm^3
# Si number density = 19.433590 Si / 1000 Ang^3
#
#
#
# Elastic Constant Matrix: (Units=GPa)
#
#
# Indices 1 2 3 4 5 6 
#
# 1 19.8904 20.3841 0.0735 0.0000 0.0000 0.0000
# 2 20.3841 186.3388 -0.5318 0.0000 0.0000 0.0000
# 3 0.0735 -0.5318 79.0081 0.0000 0.0000 0.0000
# 4 0.0000 0.0000 0.0000 30.4420 0.0000 0.0000
# 5 0.0000 0.0000 0.0000 0.0000 13.2656 0.0000
# 6 0.0000 0.0000 0.0000 0.0000 0.0000 8.6270
#
#
#
# Elastic Compliance Matrix: (Units=1/GPa)
#
#
# Indices 1 2 3 4 5 6 
#
# 1 0.056624 -0.006195 -0.000094 0.000000 0.000000 0.000000
# 2 -0.006195 0.006044 0.000046 0.000000 0.000000 0.000000
# 3 -0.000094 0.000046 0.012657 0.000000 0.000000 0.000000
# 4 0.000000 0.000000 0.000000 0.032849 0.000000 0.000000
# 5 0.000000 0.000000 0.000000 0.000000 0.075383 0.000000
# 6 0.000000 0.000000 0.000000 0.000000 0.000000 0.115916
#
#
# Mechanical properties :
#
#
# Convention : Reuss Voigt Hill
#
# Bulk Modulus (GPa) = 15.91321 36.12101 26.01711
# Shear Modulus (GPa) = 15.01926 28.15434 21.58680
#
# Velocity S-wave (km/s) = 2.78304 3.81037 3.33648
# Velocity P-wave (km/s) = 4.30504 6.16326 5.31597
#
# Compressibility (1/GPa) = 0.06284086
#
# Stress axis : x y z
#
# Youngs Moduli (GPa) = 17.66030 165.44402 79.00563
#
# Poissons Ratio (x) = 1.02485 0.00746
# Poissons Ratio (y) = 0.10940 -0.00367
# Poissons Ratio (z) = 0.00167 -0.00768
#
# Static dielectric constant tensor:
#      x y z
#    x 1.712980 0.000000 0.000000 
#    y 0.000000 1.804450 0.000000 
#    z 0.000000 0.000000 1.681910 
# 
# From -- ./inp_files/2571.got.cif
#   From: 2010.05.17/outbox.cif.g08.bks.cpg/sg52_2_cif.got.tgz:2571.got - 2010.06.03 12:15:38.
