data_PCOD9408640
_publ_section_title
;
Structure prediction by ZEFSAII (Michael W. Deem and Ramdas Pophale) SiO2 
 PCOD9408640
Probable space group: P N N A
;
_chemical_formula_sum "Si O2"
_cell_formula_units_Z 64
_cell_length_a 19.469526
_cell_length_b 17.637582
_cell_length_c 8.093558
_cell_angle_alpha 90.000000
_cell_angle_beta 90.000000
_cell_angle_gamma 90.000000
_cell_volume 2779.290274
_symmetry_space_group_name_H-M "P N N A"
_symmetry_group_IT_number 52
_symmetry_cell_setting 'orthorhombic'
loop_
_space_group_symop_operation_xyz
x,y,z
1/2-x,-y,z
x,1/2-y,1/2-z
1/2-x,1/2+y,1/2-z
-x,-y,-z
1/2+x,y,-z
-x,1/2+y,1/2+z
1/2+x,1/2-y,1/2+z
loop_
_atom_site_type_symbol
_atom_site_label
_atom_site_fract_x
_atom_site_fract_y
_atom_site_fract_z
Si Si1 0.931757 0.582472 0.325552
Si Si2 0.595332 0.401797 0.940880
Si Si3 0.952888 0.183942 0.862213
Si Si4 0.347254 0.192411 0.898085
Si Si5 0.762537 0.586604 0.867394
Si Si6 0.721927 0.082110 0.028521
Si Si7 0.387029 0.418407 0.092449
Si Si8 0.034698 0.910236 0.752936
O O1 0.854549 0.587518 0.397477
O O2 0.961097 0.496297 0.320766
O O3 0.979949 0.639112 0.430027
O O4 0.930553 0.603143 0.129128
O O5 0.672347 0.369345 0.938579
O O6 0.610398 0.490053 0.893603
O O7 0.540013 0.378955 0.802397
O O8 0.984709 0.250000 0.750000
O O9 0.920608 0.117027 0.752822
O O10 0.887207 0.226498 0.944808
O O11 0.339380 0.250000 0.750000
O O12 0.277625 0.145781 0.921781
O O13 0.411668 0.136483 0.860970
O O14 0.750000 0.500000 0.929371
O O15 0.775853 0.582871 0.671113
O O16 0.688515 0.617924 0.914247
O O17 0.750000 0.000000 0.084078
O O18 0.428417 0.407122 0.926034
#
# Coordination Sequence:
#
# PCOD9408640 Si02
#       8
#     8   8   8   8   8   8   8   8
#     4  11  23  39  70 103 133 173 221 289 336 392
#     4  10  20  35  63 103 132 165 217 279 335 393
#     4  12  25  45  67  92 132 185 230 274 345 406
#     4  12  28  45  68  98 138 181 225 274 335 416
#     4   9  20  34  59  95 137 167 212 271 332 397
#     4  11  23  42  66 103 137 174 225 280 343 399
#     4  10  18  39  63  92 129 174 220 275 332 396
#     4  11  21  39  69 102 134 169 225 277 333 399
#
# _framework density 23.027462
#
# number of rings (size 3 to 8) (size 9 to 14) (size 15 to 20)
#    0.000    1.250    5.000    1.500    3.500    1.500 
#    0.000    0.000    0.000    1.500    0.000    0.000 
#    0.000    0.000    0.000    0.000    0.000    0.000 
#
# Total GULP energy -356833.556384 kJ/mol
# GULP energy per Si atom -5575.524318 kJ/mol
# Density = 2.297505 g / cm^3
# Si number density = 23.027462 Si / 1000 Ang^3
#
#
#
# Elastic Constant Matrix: (Units=GPa)
#
#
# Indices 1 2 3 4 5 6 
#
# 1 122.6053 10.8091 7.4608 0.0000 0.0000 0.0000
# 2 10.8091 40.3502 0.8465 0.0000 0.0000 0.0000
# 3 7.4608 0.8465 44.3323 0.0000 0.0000 0.0000
# 4 0.0000 0.0000 0.0000 8.2792 0.0000 0.0000
# 5 0.0000 0.0000 0.0000 0.0000 36.7244 0.0000
# 6 0.0000 0.0000 0.0000 0.0000 0.0000 19.4063
#
#
#
# Elastic Compliance Matrix: (Units=1/GPa)
#
#
# Indices 1 2 3 4 5 6 
#
# 1 0.008437 -0.002231 -0.001377 0.000000 0.000000 0.000000
# 2 -0.002231 0.025383 -0.000109 0.000000 0.000000 0.000000
# 3 -0.001377 -0.000109 0.022791 0.000000 0.000000 0.000000
# 4 0.000000 0.000000 0.000000 0.120785 0.000000 0.000000
# 5 0.000000 0.000000 0.000000 0.000000 0.027230 0.000000
# 6 0.000000 0.000000 0.000000 0.000000 0.000000 0.051530
#
#
# Mechanical properties :
#
#
# Convention : Reuss Voigt Hill
#
# Bulk Modulus (GPa) = 20.33537 27.28004 23.80770
# Shear Modulus (GPa) = 17.85827 25.42673 21.64250
#
# Velocity S-wave (km/s) = 2.78784 3.32654 3.06903
# Velocity P-wave (km/s) = 4.38324 5.16013 4.78747
#
# Compressibility (1/GPa) = 0.04917541
#
# Stress axis : x y z
#
# Youngs Moduli (GPa) = 118.52882 39.39645 43.87740
#
# Poissons Ratio (x) = 0.08790 0.06043
# Poissons Ratio (y) = 0.26446 0.00479
# Poissons Ratio (z) = 0.16324 0.00430
#
# Static dielectric constant tensor:
#      x y z
#    x 2.124700 0.000000 0.000000 
#    y 0.000000 1.963210 0.000000 
#    z 0.000000 0.000000 3.928840 
# 
# From -- ./inp_files/13597.got.cif
#   From: 2010.05.17/outbox.cif.g08.bks.cpg/sg52_7_cif.got.tgz:13597.got - 2010.06.03 12:15:38.
