data_PCOD9408919
_publ_section_title
;
Structure prediction by ZEFSAII (Michael W. Deem and Ramdas Pophale) SiO2 
 PCOD9408919
Probable space group: P N N A
;
_chemical_formula_sum "Si O2"
_cell_formula_units_Z 32
_cell_length_a 13.889728
_cell_length_b 6.952728
_cell_length_c 17.993212
_cell_angle_alpha 90.000000
_cell_angle_beta 90.000000
_cell_angle_gamma 90.000000
_cell_volume 1737.631487
_symmetry_space_group_name_H-M "P N N A"
_symmetry_group_IT_number 52
_symmetry_cell_setting 'orthorhombic'
loop_
_space_group_symop_operation_xyz
x,y,z
1/2-x,-y,z
x,1/2-y,1/2-z
1/2-x,1/2+y,1/2-z
-x,-y,-z
1/2+x,y,-z
-x,1/2+y,1/2+z
1/2+x,1/2-y,1/2+z
loop_
_atom_site_type_symbol
_atom_site_label
_atom_site_fract_x
_atom_site_fract_y
_atom_site_fract_z
Si Si1 0.643247 0.919497 0.997435
Si Si2 0.141109 0.574090 0.884353
Si Si3 0.523341 0.192614 0.092536
Si Si4 0.355177 0.533447 0.720300
O O1 0.634231 0.758217 0.062489
O O2 0.750000 0.000000 0.985939
O O3 0.582025 0.102975 0.023887
O O4 0.588524 0.829988 0.926474
O O5 0.250000 0.500000 0.896092
O O6 0.062356 0.409412 0.900775
O O7 0.132481 0.594204 0.794712
O O8 0.558329 0.062484 0.162443
O O9 0.250000 0.500000 0.683271
O O10 0.344314 0.750000 0.750000
#
# Coordination Sequence:
#
# PCOD9408919 Si02
#       4
#     8   8   8   8
#     4  11  21  34  53  79 114 144 183 227 278 341
#     4  10  19  34  55  81 108 142 181 236 289 332
#     4  10  21  34  51  81 110 146 181 226 285 335
#     4   9  19  31  52  82 105 137 176 229 285 331
#
# _framework density 18.415873999999999
#
# number of rings (size 3 to 8) (size 9 to 14) (size 15 to 20)
#    0.000    2.000    2.500    1.500    7.000    0.000 
#    0.000    0.000    0.000    0.000   39.000    0.000 
#    0.000    0.000    0.000    0.000    0.000    0.000 
#
# Total GULP energy -178213.596153 kJ/mol
# GULP energy per Si atom -5569.174880 kJ/mol
# Density = 1.837396 g / cm^3
# Si number density = 18.415874 Si / 1000 Ang^3
#
#
#
# Elastic Constant Matrix: (Units=GPa)
#
#
# Indices 1 2 3 4 5 6 
#
# 1 119.5413 52.6613 55.6946 0.0000 0.0000 0.0000
# 2 52.6613 69.8859 50.4153 0.0000 0.0000 0.0000
# 3 55.6946 50.4153 81.6380 0.0000 0.0000 0.0000
# 4 0.0000 0.0000 0.0000 28.8818 0.0000 0.0000
# 5 0.0000 0.0000 0.0000 0.0000 29.7024 0.0000
# 6 0.0000 0.0000 0.0000 0.0000 0.0000 25.9933
#
#
#
# Elastic Compliance Matrix: (Units=1/GPa)
#
#
# Indices 1 2 3 4 5 6 
#
# 1 0.013711 -0.006463 -0.005362 0.000000 0.000000 0.000000
# 2 -0.006463 0.028852 -0.013408 0.000000 0.000000 0.000000
# 3 -0.005362 -0.013408 0.024188 0.000000 0.000000 0.000000
# 4 0.000000 0.000000 0.000000 0.034624 0.000000 0.000000
# 5 0.000000 0.000000 0.000000 0.000000 0.033667 0.000000
# 6 0.000000 0.000000 0.000000 0.000000 0.000000 0.038471
#
#
# Mechanical properties :
#
#
# Convention : Reuss Voigt Hill
#
# Bulk Modulus (GPa) = 61.41396 65.40085 63.40740
# Shear Modulus (GPa) = 21.79524 24.40177 23.09850
#
# Velocity S-wave (km/s) = 3.44394 3.64406 3.54541
# Velocity P-wave (km/s) = 7.01677 7.30041 7.15999
#
# Compressibility (1/GPa) = 0.01628294
#
# Stress axis : x y z
#
# Youngs Moduli (GPa) = 72.93459 34.66000 41.34342
#
# Poissons Ratio (x) = 0.22401 0.22170
# Poissons Ratio (y) = 0.47139 0.55433
# Poissons Ratio (z) = 0.39111 0.46472
#
# Static dielectric constant tensor:
#      x y z
#    x 1.644170 0.000000 0.000000 
#    y 0.000000 1.709880 0.000000 
#    z 0.000000 0.000000 1.722250 
# 
# From -- ./inp_files/36560.got.cif
#   From: 2010.05.17/outbox.cif.g08.bks.cpg/sg52_19_cif.got.tgz:36560.got - 2010.06.03 12:15:38.
