data_PCOD9408225
_publ_section_title
;
Structure prediction by ZEFSAII (Michael W. Deem and Ramdas Pophale) SiO2 
 PCOD9408225
Probable space group: P N N A
;
_chemical_formula_sum "Si O2"
_cell_formula_units_Z 56
_cell_length_a 21.896242
_cell_length_b 11.208500
_cell_length_c 11.225503
_cell_angle_alpha 90.000000
_cell_angle_beta 90.000000
_cell_angle_gamma 90.000000
_cell_volume 2755.008168
_symmetry_space_group_name_H-M "P N N A"
_symmetry_group_IT_number 52
_symmetry_cell_setting 'orthorhombic'
loop_
_space_group_symop_operation_xyz
x,y,z
1/2-x,-y,z
x,1/2-y,1/2-z
1/2-x,1/2+y,1/2-z
-x,-y,-z
1/2+x,y,-z
-x,1/2+y,1/2+z
1/2+x,1/2-y,1/2+z
loop_
_atom_site_type_symbol
_atom_site_label
_atom_site_fract_x
_atom_site_fract_y
_atom_site_fract_z
Si Si1 0.412947 0.886292 0.779209
Si Si2 0.096244 0.750000 0.250000
Si Si3 0.196237 0.584210 0.132952
Si Si4 0.469031 0.044583 0.124976
Si Si5 0.705179 0.750000 0.250000
Si Si6 0.235646 0.821756 0.001536
Si Si7 0.822157 0.020649 0.379605
Si Si8 0.146650 0.039326 0.030252
O O1 0.427129 0.750000 0.750000
O O2 0.475921 0.961952 0.781013
O O3 0.382210 0.911328 0.907694
O O4 0.364125 0.927077 0.683767
O O5 0.142372 0.645652 0.206534
O O6 0.055794 0.818559 0.148529
O O7 0.250000 0.500000 0.186194
O O8 0.227007 0.697483 0.067134
O O9 0.167657 0.516027 0.020245
O O10 0.500000 0.000000 0.000000
O O11 0.407467 0.966633 0.125784
O O12 0.743684 0.803945 0.140617
O O13 0.666190 0.852014 0.315804
O O14 0.294642 0.882250 0.057325
O O15 0.176459 0.907482 0.012339
O O16 0.750000 0.000000 0.359824
#
# Coordination Sequence:
#
# PCOD9408225 Si02
#       8
#     8   4   8   8   4   8   8   8
#     4  11  22  35  62  94 126 171 213 258 321 381
#     4  12  22  46  69  84 127 178 220 272 332 388
#     4  10  24  39  63  96 131 163 206 268 334 392
#     4  10  23  42  63  93 122 170 231 264 305 385
#     4  10  18  30  51  86 133 162 194 248 330 400
#     4  10  19  34  58  94 129 165 205 264 332 386
#     4  10  21  34  55  94 134 155 199 265 326 383
#     4  10  20  34  59  93 126 169 217 260 315 386
#
# _framework density 20.326619999999998
#
# number of rings (size 3 to 8) (size 9 to 14) (size 15 to 20)
#    0.000    1.714    3.571    0.857    8.000    1.143 
#    0.000    0.714    0.000    3.429    0.000    0.000 
#    0.000    0.000    0.000    0.000    0.000    0.000 
#
# Total GULP energy -311861.261769 kJ/mol
# GULP energy per Si atom -5568.951103 kJ/mol
# Density = 2.028036 g / cm^3
# Si number density = 20.326620 Si / 1000 Ang^3
#
#
#
# Elastic Constant Matrix: (Units=GPa)
#
#
# Indices 1 2 3 4 5 6 
#
# 1 108.0148 20.8674 44.6919 0.0000 0.0000 0.0000
# 2 20.8674 57.1782 27.7815 0.0000 0.0000 0.0000
# 3 44.6919 27.7815 73.0905 0.0000 0.0000 0.0000
# 4 0.0000 0.0000 0.0000 18.7388 0.0000 0.0000
# 5 0.0000 0.0000 0.0000 0.0000 5.0308 0.0000
# 6 0.0000 0.0000 0.0000 0.0000 0.0000 20.6829
#
#
#
# Elastic Compliance Matrix: (Units=1/GPa)
#
#
# Indices 1 2 3 4 5 6 
#
# 1 0.012443 -0.001036 -0.007215 0.000000 0.000000 0.000000
# 2 -0.001036 0.021537 -0.007553 0.000000 0.000000 0.000000
# 3 -0.007215 -0.007553 0.020964 0.000000 0.000000 0.000000
# 4 0.000000 0.000000 0.000000 0.053365 0.000000 0.000000
# 5 0.000000 0.000000 0.000000 0.000000 0.198775 0.000000
# 6 0.000000 0.000000 0.000000 0.000000 0.000000 0.048349
#
#
# Mechanical properties :
#
#
# Convention : Reuss Voigt Hill
#
# Bulk Modulus (GPa) = 42.84960 47.21834 45.03397
# Shear Modulus (GPa) = 12.66400 18.55333 15.60867
#
# Velocity S-wave (km/s) = 2.49876 3.02447 2.77409
# Velocity P-wave (km/s) = 5.42691 5.95624 5.69772
#
# Compressibility (1/GPa) = 0.02333744
#
# Stress axis : x y z
#
# Youngs Moduli (GPa) = 80.36459 46.43188 47.70053
#
# Poissons Ratio (x) = 0.04809 0.34416
# Poissons Ratio (y) = 0.08323 0.36028
# Poissons Ratio (z) = 0.57982 0.35069
#
# Static dielectric constant tensor:
#      x y z
#    x 1.751940 0.000000 0.000000 
#    y 0.000000 1.791560 0.000000 
#    z 0.000000 0.000000 1.779610 
# 
# From -- ./inp_files/21734.got.cif
#   From: 2010.05.17/outbox.cif.g08.bks.cpg/sg52_11_cif.got.tgz:21734.got - 2010.06.03 12:15:38.
