data_PCOD9408205
_publ_section_title
;
Structure prediction by ZEFSAII (Michael W. Deem and Ramdas Pophale) SiO2 
 PCOD9408205
Probable space group: P N N A
;
_chemical_formula_sum "Si O2"
_cell_formula_units_Z 60
_cell_length_a 9.358942
_cell_length_b 16.330909
_cell_length_c 25.784557
_cell_angle_alpha 90.000000
_cell_angle_beta 90.000000
_cell_angle_gamma 90.000000
_cell_volume 3940.912469
_symmetry_space_group_name_H-M "P N N A"
_symmetry_group_IT_number 52
_symmetry_cell_setting 'orthorhombic'
loop_
_space_group_symop_operation_xyz
x,y,z
1/2-x,-y,z
x,1/2-y,1/2-z
1/2-x,1/2+y,1/2-z
-x,-y,-z
1/2+x,y,-z
-x,1/2+y,1/2+z
1/2+x,1/2-y,1/2+z
loop_
_atom_site_type_symbol
_atom_site_label
_atom_site_fract_x
_atom_site_fract_y
_atom_site_fract_z
Si Si1 0.225995 0.095748 0.208860
Si Si2 0.492214 0.328855 0.778646
Si Si3 0.579595 0.628679 0.806219
Si Si4 0.779104 0.749663 0.643092
Si Si5 0.728552 0.403136 0.162661
Si Si6 0.750000 0.000000 0.626645
Si Si7 0.390509 0.859525 0.444256
Si Si8 0.273720 0.401540 0.953188
O O1 0.345917 0.127517 0.249921
O O2 0.227764 0.154692 0.158730
O O3 0.075846 0.111883 0.239006
O O4 0.250000 0.000000 0.198971
O O5 0.429127 0.250000 0.750000
O O6 0.612728 0.291726 0.816010
O O7 0.372200 0.369462 0.812648
O O8 0.631872 0.705292 0.841109
O O9 0.410324 0.622247 0.805346
O O10 0.641529 0.549407 0.836745
O O11 0.841476 0.779009 0.587990
O O12 0.750000 0.500000 0.161838
O O13 0.711975 0.376782 0.102829
O O14 0.832431 0.935041 0.590924
O O15 0.309747 0.862413 0.498923
O O16 0.559164 0.875743 0.452470
O O17 0.250000 0.500000 0.958407
#
# Coordination Sequence:
#
# PCOD9408205 Si02
#       8
#     8   8   8   8   8   4   8   8
#     4  10  18  33  55  73  91 127 170 204 246 301
#     4   9  18  34  49  67  99 134 158 192 251 301
#     4  10  19  29  49  72 102 130 167 194 240 283
#     4   9  20  34  49  68  99 132 162 206 247 290
#     4  11  21  30  46  74 104 134 166 199 236 289
#     4  10  18  30  48  66 102 142 158 196 238 280
#     4  11  21  33  47  69 104 132 170 201 239 292
#     4  11  22  31  48  71 101 135 171 200 238 291
#
# _framework density 15.2249
#
# number of rings (size 3 to 8) (size 9 to 14) (size 15 to 20)
#    0.000    1.867    2.667    4.000    5.600    1.067 
#    0.000    0.000    0.000    0.000    0.000    0.933 
#    0.000    0.000    0.000    0.000    0.000    0.000 
#
# Total GULP energy -334553.551620 kJ/mol
# GULP energy per Si atom -5575.892527 kJ/mol
# Density = 1.519025 g / cm^3
# Si number density = 15.224900 Si / 1000 Ang^3
#
#
#
# Elastic Constant Matrix: (Units=GPa)
#
#
# Indices 1 2 3 4 5 6 
#
# 1 55.0205 24.0018 14.5319 0.0000 0.0000 0.0000
# 2 24.0018 85.7175 39.8142 0.0000 0.0000 0.0000
# 3 14.5319 39.8142 75.5887 0.0000 0.0000 0.0000
# 4 0.0000 0.0000 0.0000 16.4651 0.0000 0.0000
# 5 0.0000 0.0000 0.0000 0.0000 46.3719 0.0000
# 6 0.0000 0.0000 0.0000 0.0000 0.0000 12.1927
#
#
#
# Elastic Compliance Matrix: (Units=1/GPa)
#
#
# Indices 1 2 3 4 5 6 
#
# 1 0.020790 -0.005249 -0.001232 0.000000 0.000000 0.000000
# 2 -0.005249 0.016770 -0.007824 0.000000 0.000000 0.000000
# 3 -0.001232 -0.007824 0.017587 0.000000 0.000000 0.000000
# 4 0.000000 0.000000 0.000000 0.060734 0.000000 0.000000
# 5 0.000000 0.000000 0.000000 0.000000 0.021565 0.000000
# 6 0.000000 0.000000 0.000000 0.000000 0.000000 0.082016
#
#
# Mechanical properties :
#
#
# Convention : Reuss Voigt Hill
#
# Bulk Modulus (GPa) = 37.68281 41.44694 39.56488
# Shear Modulus (GPa) = 19.46132 24.20454 21.83293
#
# Velocity S-wave (km/s) = 3.57915 3.99155 3.79096
# Velocity P-wave (km/s) = 6.47186 6.96603 6.72348
#
# Compressibility (1/GPa) = 0.02653730
#
# Stress axis : x y z
#
# Youngs Moduli (GPa) = 48.09927 59.62949 56.85865
#
# Poissons Ratio (x) = 0.31301 0.07005
# Poissons Ratio (y) = 0.25249 0.44487
# Poissons Ratio (z) = 0.05926 0.46655
#
# Static dielectric constant tensor:
#      x y z
#    x 1.516600 0.000000 0.000000 
#    y 0.000000 1.522190 0.000000 
#    z 0.000000 0.000000 1.517080 
# 
# From -- ./inp_files/42400.got.cif
#   From: 2010.05.17/outbox.cif.g08.bks.cpg/sg52_22_cif.got.tgz:42400.got - 2010.06.03 12:15:38.
