data_PCOD9408331
_publ_section_title
;
Structure prediction by ZEFSAII (Michael W. Deem and Ramdas Pophale) SiO2 
 PCOD9408331
Probable space group: P N N A
;
_chemical_formula_sum "Si O2"
_cell_formula_units_Z 56
_cell_length_a 22.791465
_cell_length_b 20.178038
_cell_length_c 6.826343
_cell_angle_alpha 90.000000
_cell_angle_beta 90.000000
_cell_angle_gamma 90.000000
_cell_volume 3139.346723
_symmetry_space_group_name_H-M "P N N A"
_symmetry_group_IT_number 52
_symmetry_cell_setting 'orthorhombic'
loop_
_space_group_symop_operation_xyz
x,y,z
1/2-x,-y,z
x,1/2-y,1/2-z
1/2-x,1/2+y,1/2-z
-x,-y,-z
1/2+x,y,-z
-x,1/2+y,1/2+z
1/2+x,1/2-y,1/2+z
loop_
_atom_site_type_symbol
_atom_site_label
_atom_site_fract_x
_atom_site_fract_y
_atom_site_fract_z
Si Si1 0.235196 0.430041 0.522908
Si Si2 0.235463 0.322200 0.187973
Si Si3 0.413627 0.029900 0.370895
Si Si4 0.466252 0.590489 0.872738
Si Si5 0.102321 0.435694 0.483841
Si Si6 0.901429 0.819722 0.660691
Si Si7 0.790036 0.064818 0.435867
O O1 0.250000 0.500000 0.420313
O O2 0.238257 0.368617 0.379074
O O3 0.166741 0.433859 0.582938
O O4 0.279561 0.426506 0.703888
O O5 0.257921 0.250000 0.250000
O O6 0.168114 0.313898 0.115898
O O7 0.268233 0.366629 0.029473
O O8 0.463450 0.086139 0.374757
O O9 0.354091 0.050315 0.478889
O O10 0.440712 0.968863 0.493465
O O11 0.403059 0.001249 0.151652
O O12 0.444295 0.574512 0.654642
O O13 0.438023 0.655257 0.973467
O O14 0.096031 0.375282 0.330666
O O15 0.921533 0.750000 0.750000
O O16 0.750000 0.000000 0.482659
#
# Coordination Sequence:
#
# PCOD9408331 Si02
#       7
#     8   8   8   8   8   8   8
#     4  10  19  31  54  83 105 137 178 223 275 329
#     4  10  20  34  53  77 109 142 176 226 279 328
#     4  10  21  33  53  80 110 138 174 229 282 327
#     4  10  19  34  53  78 108 139 181 223 279 331
#     4  10  18  32  54  81 107 135 178 226 275 329
#     4   9  19  34  53  77 106 141 181 229 271 317
#     4  11  20  34  55  78 108 140 180 227 278 333
#
# _framework density 17.838104999999999
#
# number of rings (size 3 to 8) (size 9 to 14) (size 15 to 20)
#    0.000    2.000    0.000    6.857    0.000    1.143 
#    0.000    4.286    6.286    0.000    0.000    0.000 
#    0.000    0.000    0.000    0.000    0.000    0.000 
#
# Total GULP energy -312158.332695 kJ/mol
# GULP energy per Si atom -5574.255941 kJ/mol
# Density = 1.779750 g / cm^3
# Si number density = 17.838105 Si / 1000 Ang^3
#
#
#
# Elastic Constant Matrix: (Units=GPa)
#
#
# Indices 1 2 3 4 5 6 
#
# 1 85.0520 23.6338 29.0525 0.0000 0.0000 0.0000
# 2 23.6338 101.1231 14.8103 0.0000 0.0000 0.0000
# 3 29.0525 14.8103 78.6253 0.0000 0.0000 0.0000
# 4 0.0000 0.0000 0.0000 45.4437 0.0000 0.0000
# 5 0.0000 0.0000 0.0000 0.0000 18.7718 0.0000
# 6 0.0000 0.0000 0.0000 0.0000 0.0000 19.6734
#
#
#
# Elastic Compliance Matrix: (Units=1/GPa)
#
#
# Indices 1 2 3 4 5 6 
#
# 1 0.014092 -0.002603 -0.004717 0.000000 0.000000 0.000000
# 2 -0.002603 0.010650 -0.001044 0.000000 0.000000 0.000000
# 3 -0.004717 -0.001044 0.014658 0.000000 0.000000 0.000000
# 4 0.000000 0.000000 0.000000 0.022005 0.000000 0.000000
# 5 0.000000 0.000000 0.000000 0.000000 0.053272 0.000000
# 6 0.000000 0.000000 0.000000 0.000000 0.000000 0.050830
#
#
# Mechanical properties :
#
#
# Convention : Reuss Voigt Hill
#
# Bulk Modulus (GPa) = 44.10630 44.42153 44.26392
# Shear Modulus (GPa) = 26.34459 29.93136 28.13797
#
# Velocity S-wave (km/s) = 3.84718 4.10072 3.97597
# Velocity P-wave (km/s) = 6.67188 6.88316 6.77834
#
# Compressibility (1/GPa) = 0.02267250
#
# Stress axis : x y z
#
# Youngs Moduli (GPa) = 70.96273 93.89516 68.22134
#
# Poissons Ratio (x) = 0.24438 0.32179
# Poissons Ratio (y) = 0.18469 0.07125
# Poissons Ratio (z) = 0.33472 0.09807
#
# Static dielectric constant tensor:
#      x y z
#    x 1.622040 0.000000 0.000000 
#    y 0.000000 1.601550 0.000000 
#    z 0.000000 0.000000 1.635960 
# 
# From -- ./inp_files/5237.got.cif
#   From: 2010.05.17/outbox.cif.g08.bks.cpg/sg52_3_cif.got.tgz:5237.got - 2010.06.03 12:15:38.
