data_PCOD9408550
_publ_section_title
;
Structure prediction by ZEFSAII (Michael W. Deem and Ramdas Pophale) SiO2 
 PCOD9408550
Probable space group: P N N A
;
_chemical_formula_sum "Si O2"
_cell_formula_units_Z 32
_cell_length_a 13.306792
_cell_length_b 7.623269
_cell_length_c 12.752448
_cell_angle_alpha 90.000000
_cell_angle_beta 90.000000
_cell_angle_gamma 90.000000
_cell_volume 1293.624329
_symmetry_space_group_name_H-M "P N N A"
_symmetry_group_IT_number 52
_symmetry_cell_setting 'orthorhombic'
loop_
_space_group_symop_operation_xyz
x,y,z
1/2-x,-y,z
x,1/2-y,1/2-z
1/2-x,1/2+y,1/2-z
-x,-y,-z
1/2+x,y,-z
-x,1/2+y,1/2+z
1/2+x,1/2-y,1/2+z
loop_
_atom_site_type_symbol
_atom_site_label
_atom_site_fract_x
_atom_site_fract_y
_atom_site_fract_z
Si Si1 0.127379 0.696414 0.476603
Si Si2 0.432392 0.014067 0.323695
Si Si3 0.846612 0.401730 0.168992
Si Si4 0.414312 0.848329 0.093635
O O1 0.116601 0.810803 0.370422
O O2 0.187240 0.808820 0.561476
O O3 0.150161 0.490959 0.467029
O O4 0.016217 0.686542 0.529900
O O5 0.552579 0.015480 0.349439
O O6 0.430101 0.955995 0.202364
O O7 0.379206 0.846563 0.379219
O O8 0.750000 0.500000 0.213077
O O9 0.877207 0.250000 0.250000
#
# Coordination Sequence:
#
# PCOD9408550 Si02
#       4
#     8   8   8   8
#     4  10  19  34  58  84 112 151 191 241 287 335
#     4  10  18  36  59  88 112 146 192 245 291 334
#     4  11  22  39  51  82 125 153 185 228 293 366
#     4   9  17  31  56  85 115 135 191 243 280 338
#
# _framework density 24.736701
#
# number of rings (size 3 to 8) (size 9 to 14) (size 15 to 20)
#    0.000    2.000    5.000    3.750    0.000    2.000 
#    4.500    0.000    0.000    0.000   26.000    0.000 
#    0.000    0.000    0.000    0.000    0.000    0.000 
#
# Total GULP energy -178497.740515 kJ/mol
# GULP energy per Si atom -5578.054391 kJ/mol
# Density = 2.468040 g / cm^3
# Si number density = 24.736701 Si / 1000 Ang^3
#
#
#
# Elastic Constant Matrix: (Units=GPa)
#
#
# Indices 1 2 3 4 5 6 
#
# 1 59.2619 -0.0258 -2.3069 0.0000 0.0000 0.0000
# 2 -0.0258 108.9522 -8.8634 0.0000 0.0000 0.0000
# 3 -2.3069 -8.8634 70.1431 0.0000 0.0000 0.0000
# 4 0.0000 0.0000 0.0000 31.5652 0.0000 0.0000
# 5 0.0000 0.0000 0.0000 0.0000 -11.1292 0.0000
# 6 0.0000 0.0000 0.0000 0.0000 0.0000 -12.6708
#
#
#
# Elastic Compliance Matrix: (Units=1/GPa)
#
#
# Indices 1 2 3 4 5 6 
#
# 1 0.016896 0.000050 0.000562 0.000000 0.000000 0.000000
# 2 0.000050 0.009274 0.001173 0.000000 0.000000 0.000000
# 3 0.000562 0.001173 0.014423 0.000000 0.000000 0.000000
# 4 0.000000 0.000000 0.000000 0.031680 0.000000 0.000000
# 5 0.000000 0.000000 0.000000 0.000000 -0.089854 0.000000
# 6 0.000000 0.000000 0.000000 0.000000 0.000000 -0.078922
#
#
# Mechanical properties :
#
#
# Convention : Reuss Voigt Hill
#
# Bulk Modulus (GPa) = 22.64303 23.99609 23.31956
# Shear Modulus (GPa) = -58.58166 18.18994 -20.19586
#
# Velocity S-wave (km/s) = -4.87170 2.71466 -2.86043
# Velocity P-wave (km/s) = 4.74038 4.42126 1.20906
#
# Compressibility (1/GPa) = 0.04416371
#
# Stress axis : x y z
#
# Youngs Moduli (GPa) = 59.18510 107.83051 69.33203
#
# Poissons Ratio (x) = -0.00536 -0.03896
# Poissons Ratio (y) = -0.00294 -0.08136
# Poissons Ratio (z) = -0.03326 -0.12654
#
# Static dielectric constant tensor:
#      x y z
#    x 1.915890 0.000000 0.000000 
#    y 0.000000 1.931970 0.000000 
#    z 0.000000 0.000000 2.149200 
# 
# From -- ./inp_files/19003.got.cif
#   From: 2010.05.17/outbox.cif.g08.bks.cpg/sg52_10_cif.got.tgz:19003.got - 2010.06.03 12:15:38.
