data_PCOD9408496
_publ_section_title
;
Structure prediction by ZEFSAII (Michael W. Deem and Ramdas Pophale) SiO2 
 PCOD9408496
Probable space group: P N N A
;
_chemical_formula_sum "Si O2"
_cell_formula_units_Z 48
_cell_length_a 12.463755
_cell_length_b 10.462763
_cell_length_c 19.809618
_cell_angle_alpha 90.000000
_cell_angle_beta 90.000000
_cell_angle_gamma 90.000000
_cell_volume 2583.279468
_symmetry_space_group_name_H-M "P N N A"
_symmetry_group_IT_number 52
_symmetry_cell_setting 'orthorhombic'
loop_
_space_group_symop_operation_xyz
x,y,z
1/2-x,-y,z
x,1/2-y,1/2-z
1/2-x,1/2+y,1/2-z
-x,-y,-z
1/2+x,y,-z
-x,1/2+y,1/2+z
1/2+x,1/2-y,1/2+z
loop_
_atom_site_type_symbol
_atom_site_label
_atom_site_fract_x
_atom_site_fract_y
_atom_site_fract_z
Si Si1 0.494561 0.606672 0.344270
Si Si2 0.194884 0.640011 0.570109
Si Si3 0.889557 0.732379 0.131487
Si Si4 0.870644 0.947628 0.249704
Si Si5 0.262438 0.849768 0.193522
Si Si6 0.408561 0.361024 0.422728
O O1 0.598786 0.668481 0.377834
O O2 0.539989 0.546856 0.275008
O O3 0.385110 0.677697 0.327355
O O4 0.459175 0.496152 0.398008
O O5 0.250000 0.500000 0.581855
O O6 0.288222 0.742263 0.583467
O O7 0.141488 0.636177 0.496620
O O8 0.880388 0.838535 0.191712
O O9 0.890472 0.604367 0.175334
O O10 0.996530 0.760284 0.089437
O O11 0.750000 0.000000 0.246246
O O12 0.227553 0.750000 0.250000
O O13 0.186671 0.834940 0.129285
O O14 0.250000 0.000000 0.214234
#
# Coordination Sequence:
#
# PCOD9408496 Si02
#       6
#     8   8   8   8   8   8
#     4  10  19  34  53  87 111 144 181 242 296 347
#     4  12  19  34  55  85 114 142 183 238 304 351
#     4  10  21  32  56  82 107 151 181 233 293 348
#     4  10  18  35  55  83 112 138 191 234 291 341
#     4  10  23  38  57  85 118 158 199 239 288 351
#     4  10  22  33  55  78 118 150 183 234 295 359
#
# _framework density 18.581032
#
# number of rings (size 3 to 8) (size 9 to 14) (size 15 to 20)
#    0.000    1.667    5.000    2.000    9.333    1.333 
#    0.000    0.000    0.000    2.000    0.000    0.000 
#    0.000    0.000    0.000    0.000    0.000    0.000 
#
# Total GULP energy -267715.736027 kJ/mol
# GULP energy per Si atom -5577.411167 kJ/mol
# Density = 1.853874 g / cm^3
# Si number density = 18.581032 Si / 1000 Ang^3
#
#
#
# Elastic Constant Matrix: (Units=GPa)
#
#
# Indices 1 2 3 4 5 6 
#
# 1 115.6444 15.3063 16.6107 0.0000 0.0000 0.0000
# 2 15.3063 16.9768 23.2625 0.0000 0.0000 0.0000
# 3 16.6107 23.2625 67.1476 0.0000 0.0000 0.0000
# 4 0.0000 0.0000 0.0000 11.0488 0.0000 0.0000
# 5 0.0000 0.0000 0.0000 0.0000 149.7951 0.0000
# 6 0.0000 0.0000 0.0000 0.0000 0.0000 6.7718
#
#
#
# Elastic Compliance Matrix: (Units=1/GPa)
#
#
# Indices 1 2 3 4 5 6 
#
# 1 0.009871 -0.010573 0.001221 0.000000 0.000000 0.000000
# 2 -0.010573 0.123461 -0.040156 0.000000 0.000000 0.000000
# 3 0.001221 -0.040156 0.028502 0.000000 0.000000 0.000000
# 4 0.000000 0.000000 0.000000 0.090508 0.000000 0.000000
# 5 0.000000 0.000000 0.000000 0.000000 0.006676 0.000000
# 6 0.000000 0.000000 0.000000 0.000000 0.000000 0.147671
#
#
# Mechanical properties :
#
#
# Convention : Reuss Voigt Hill
#
# Bulk Modulus (GPa) = 15.91904 34.45865 25.18884
# Shear Modulus (GPa) = 9.49409 43.16243 26.32826
#
# Velocity S-wave (km/s) = 2.26289 4.82491 3.76831
# Velocity P-wave (km/s) = 3.92600 7.04450 5.70256
#
# Compressibility (1/GPa) = 0.06281787
#
# Stress axis : x y z
#
# Youngs Moduli (GPa) = 101.30460 8.09976 35.08511
#
# Poissons Ratio (x) = 0.08564 -0.04284
# Poissons Ratio (y) = 1.07109 1.40888
# Poissons Ratio (z) = -0.12369 0.32525
#
# Static dielectric constant tensor:
#      x y z
#    x 1.647220 0.000000 0.000000 
#    y 0.000000 1.686400 0.000000 
#    z 0.000000 0.000000 1.627440 
# 
# From -- ./inp_files/32216.got.cif
#   From: 2010.05.17/outbox.cif.g08.bks.cpg/sg52_17_cif.got.tgz:32216.got - 2010.06.03 12:15:38.
