data_PCOD9408833
_publ_section_title
;
Structure prediction by ZEFSAII (Michael W. Deem and Ramdas Pophale) SiO2 
 PCOD9408833
Probable space group: P N N A
;
_chemical_formula_sum "Si O2"
_cell_formula_units_Z 48
_cell_length_a 8.686247
_cell_length_b 30.700744
_cell_length_c 9.187452
_cell_angle_alpha 90.000000
_cell_angle_beta 90.000000
_cell_angle_gamma 90.000000
_cell_volume 2450.056830
_symmetry_space_group_name_H-M "P N N A"
_symmetry_group_IT_number 52
_symmetry_cell_setting 'orthorhombic'
loop_
_space_group_symop_operation_xyz
x,y,z
1/2-x,-y,z
x,1/2-y,1/2-z
1/2-x,1/2+y,1/2-z
-x,-y,-z
1/2+x,y,-z
-x,1/2+y,1/2+z
1/2+x,1/2-y,1/2+z
loop_
_atom_site_type_symbol
_atom_site_label
_atom_site_fract_x
_atom_site_fract_y
_atom_site_fract_z
Si Si1 0.289265 0.371521 0.197543
Si Si2 0.860299 0.635025 0.106484
Si Si3 0.605455 0.334225 0.543606
Si Si4 0.665235 0.076952 0.134185
Si Si5 0.151160 0.957231 0.119243
Si Si6 0.301412 0.297443 0.692995
O O1 0.459151 0.359360 0.141031
O O2 0.227118 0.340973 0.326251
O O3 0.300109 0.419396 0.268366
O O4 0.174234 0.370566 0.062087
O O5 0.806329 0.593551 0.203387
O O6 0.763401 0.674775 0.172532
O O7 0.602131 0.379748 0.452141
O O8 0.444373 0.321733 0.616152
O O9 0.667263 0.298667 0.429337
O O10 0.532350 0.040691 0.131526
O O11 0.807394 0.060109 0.041878
O O12 0.250000 0.000000 0.146840
O O13 0.343286 0.250000 0.750000
#
# Coordination Sequence:
#
# PCOD9408833 Si02
#       6
#     8   8   8   8   8   8
#     4  10  21  37  59  79 110 150 185 222 272 336
#     4  10  20  37  56  81 108 145 187 221 273 335
#     4  10  20  39  59  79 110 149 183 219 270 332
#     4   9  18  34  56  76 104 142 182 220 267 331
#     4  10  19  33  53  81 108 139 182 230 272 317
#     4  11  23  38  59  86 112 141 183 232 273 317
#
# _framework density 19.591381999999999
#
# number of rings (size 3 to 8) (size 9 to 14) (size 15 to 20)
#    0.000    2.000    0.000    6.500    0.000    4.000 
#    0.000    5.833    0.000    0.000    0.000    0.000 
#    0.000    0.000    0.000    0.000    0.000    0.000 
#
# Total GULP energy -268035.834894 kJ/mol
# GULP energy per Si atom -5584.079894 kJ/mol
# Density = 1.954679 g / cm^3
# Si number density = 19.591382 Si / 1000 Ang^3
#
#
#
# Elastic Constant Matrix: (Units=GPa)
#
#
# Indices 1 2 3 4 5 6 
#
# 1 36.9302 1.3113 6.0698 0.0000 0.0000 0.0000
# 2 1.3113 39.5577 2.2084 0.0000 0.0000 0.0000
# 3 6.0698 2.2084 101.6487 0.0000 0.0000 0.0000
# 4 0.0000 0.0000 0.0000 11.8246 0.0000 0.0000
# 5 0.0000 0.0000 0.0000 0.0000 36.1112 0.0000
# 6 0.0000 0.0000 0.0000 0.0000 0.0000 19.2141
#
#
#
# Elastic Compliance Matrix: (Units=1/GPa)
#
#
# Indices 1 2 3 4 5 6 
#
# 1 0.027373 -0.000817 -0.001617 0.000000 0.000000 0.000000
# 2 -0.000817 0.025335 -0.000502 0.000000 0.000000 0.000000
# 3 -0.001617 -0.000502 0.009945 0.000000 0.000000 0.000000
# 4 0.000000 0.000000 0.000000 0.084570 0.000000 0.000000
# 5 0.000000 0.000000 0.000000 0.000000 0.027692 0.000000
# 6 0.000000 0.000000 0.000000 0.000000 0.000000 0.052045
#
#
# Mechanical properties :
#
#
# Convention : Reuss Voigt Hill
#
# Bulk Modulus (GPa) = 17.61131 21.92396 19.76763
# Shear Modulus (GPa) = 19.86034 24.66645 22.26340
#
# Velocity S-wave (km/s) = 3.18736 3.55215 3.37469
# Velocity P-wave (km/s) = 4.74916 5.29515 5.02957
#
# Compressibility (1/GPa) = 0.05678170
#
# Stress axis : x y z
#
# Youngs Moduli (GPa) = 36.53258 39.47169 100.55056
#
# Poissons Ratio (x) = 0.03225 0.16257
# Poissons Ratio (y) = 0.02985 0.05044
# Poissons Ratio (z) = 0.05907 0.01980
#
# Static dielectric constant tensor:
#      x y z
#    x 1.712710 0.000000 0.000000 
#    y 0.000000 1.696850 0.000000 
#    z 0.000000 0.000000 1.665110 
# 
# From -- ./inp_files/7679.got.cif
#   From: 2010.05.17/outbox.cif.g08.bks.cpg/sg52_4_cif.got.tgz:7679.got - 2010.06.03 12:15:38.
