data_PCOD9408732
_publ_section_title
;
Structure prediction by ZEFSAII (Michael W. Deem and Ramdas Pophale) SiO2 
 PCOD9408732
Probable space group: P N N A
;
_chemical_formula_sum "Si O2"
_cell_formula_units_Z 64
_cell_length_a 22.870332
_cell_length_b 8.734996
_cell_length_c 18.231330
_cell_angle_alpha 90.000000
_cell_angle_beta 90.000000
_cell_angle_gamma 90.000000
_cell_volume 3642.113970
_symmetry_space_group_name_H-M "P N N A"
_symmetry_group_IT_number 52
_symmetry_cell_setting 'orthorhombic'
loop_
_space_group_symop_operation_xyz
x,y,z
1/2-x,-y,z
x,1/2-y,1/2-z
1/2-x,1/2+y,1/2-z
-x,-y,-z
1/2+x,y,-z
-x,1/2+y,1/2+z
1/2+x,1/2-y,1/2+z
loop_
_atom_site_type_symbol
_atom_site_label
_atom_site_fract_x
_atom_site_fract_y
_atom_site_fract_z
Si Si1 0.092192 0.932533 0.981762
Si Si2 0.468276 0.615129 0.398266
Si Si3 0.186677 0.925010 0.725507
Si Si4 0.132727 0.132714 0.852459
Si Si5 0.989857 0.597175 0.273310
Si Si6 0.591303 0.589825 0.990993
Si Si7 0.317238 0.948248 0.581085
Si Si8 0.495243 0.541702 0.118443
O O1 0.113012 0.764359 0.003924
O O2 0.028994 0.903412 0.943624
O O3 0.129772 0.018743 0.921103
O O4 0.081094 0.046207 0.049353
O O5 0.475433 0.513085 0.326602
O O6 0.465329 0.791957 0.377684
O O7 0.188005 0.750000 0.750000
O O8 0.250000 0.000000 0.715778
O O9 0.159240 0.037088 0.785384
O O10 0.159650 0.935720 0.644578
O O11 0.066671 0.157488 0.820683
O O12 0.167774 0.283362 0.880276
O O13 0.023008 0.750000 0.250000
O O14 0.979072 0.508223 0.196929
O O15 0.644166 0.474333 0.008729
O O16 0.545661 0.553444 0.057014
O O17 0.554094 0.567990 0.916823
O O18 0.250000 0.000000 0.566678
#
# Coordination Sequence:
#
# PCOD9408732 Si02
#       8
#     8   8   8   8   8   8   8   8
#     4   9  18  31  48  69  96 133 169 210 259 309
#     4   9  18  31  45  69 102 132 166 207 259 318
#     4  11  21  33  47  65  91 125 169 217 257 295
#     4  11  21  33  50  70  98 136 178 218 258 306
#     4  11  20  30  47  71 101 132 166 206 256 311
#     4  10  19  33  51  73 101 132 173 216 262 315
#     4  11  22  36  51  71 102 141 182 220 260 309
#     4  10  19  31  51  74 101 135 168 213 267 317
#
# _framework density 17.572212
#
# number of rings (size 3 to 8) (size 9 to 14) (size 15 to 20)
#    0.000    1.750    0.000    6.750    0.000    6.000 
#    0.000    0.000    0.000    0.000    0.000    0.000 
#    0.000   13.000    0.000    0.000    0.000    0.250 
#
# Total GULP energy -356552.998078 kJ/mol
# GULP energy per Si atom -5571.140595 kJ/mol
# Density = 1.753222 g / cm^3
# Si number density = 17.572212 Si / 1000 Ang^3
#
#
#
# Elastic Constant Matrix: (Units=GPa)
#
#
# Indices 1 2 3 4 5 6 
#
# 1 45.4454 7.3193 15.2397 0.0000 0.0000 0.0000
# 2 7.3193 81.4919 5.4265 0.0000 0.0000 0.0000
# 3 15.2397 5.4265 52.5084 0.0000 0.0000 0.0000
# 4 0.0000 0.0000 0.0000 36.1331 0.0000 0.0000
# 5 0.0000 0.0000 0.0000 0.0000 21.1603 0.0000
# 6 0.0000 0.0000 0.0000 0.0000 0.0000 19.2513
#
#
#
# Elastic Compliance Matrix: (Units=1/GPa)
#
#
# Indices 1 2 3 4 5 6 
#
# 1 0.024622 -0.001748 -0.006965 0.000000 0.000000 0.000000
# 2 -0.001748 0.012480 -0.000783 0.000000 0.000000 0.000000
# 3 -0.006965 -0.000783 0.021147 0.000000 0.000000 0.000000
# 4 0.000000 0.000000 0.000000 0.027675 0.000000 0.000000
# 5 0.000000 0.000000 0.000000 0.000000 0.047258 0.000000
# 6 0.000000 0.000000 0.000000 0.000000 0.000000 0.051945
#
#
# Mechanical properties :
#
#
# Convention : Reuss Voigt Hill
#
# Bulk Modulus (GPa) = 25.47266 26.15741 25.81503
# Shear Modulus (GPa) = 23.01977 25.40626 24.21302
#
# Velocity S-wave (km/s) = 3.62333 3.80652 3.71605
# Velocity P-wave (km/s) = 5.65970 5.85128 5.75628
#
# Compressibility (1/GPa) = 0.03925778
#
# Stress axis : x y z
#
# Youngs Moduli (GPa) = 40.61456 80.12670 47.28792
#
# Poissons Ratio (x) = 0.14003 0.32938
# Poissons Ratio (y) = 0.07098 0.03701
# Poissons Ratio (z) = 0.28290 0.06270
#
# Static dielectric constant tensor:
#      x y z
#    x 1.626890 0.000000 0.000000 
#    y 0.000000 1.646000 0.000000 
#    z 0.000000 0.000000 1.614880 
# 
# From -- ./inp_files/34379.got.cif
#   From: 2010.05.17/outbox.cif.g08.bks.cpg/sg52_18_cif.got.tgz:34379.got - 2010.06.03 12:15:38.
