data_PCOD9408235
_publ_section_title
;
Structure prediction by ZEFSAII (Michael W. Deem and Ramdas Pophale) SiO2 
 PCOD9408235
Probable space group: P N N A
;
_chemical_formula_sum "Si O2"
_cell_formula_units_Z 36
_cell_length_a 11.015341
_cell_length_b 16.769692
_cell_length_c 11.372440
_cell_angle_alpha 90.000000
_cell_angle_beta 90.000000
_cell_angle_gamma 90.000000
_cell_volume 2100.761195
_symmetry_space_group_name_H-M "P N N A"
_symmetry_group_IT_number 52
_symmetry_cell_setting 'orthorhombic'
loop_
_space_group_symop_operation_xyz
x,y,z
1/2-x,-y,z
x,1/2-y,1/2-z
1/2-x,1/2+y,1/2-z
-x,-y,-z
1/2+x,y,-z
-x,1/2+y,1/2+z
1/2+x,1/2-y,1/2+z
loop_
_atom_site_type_symbol
_atom_site_label
_atom_site_fract_x
_atom_site_fract_y
_atom_site_fract_z
Si Si1 0.985439 0.999478 0.360280
Si Si2 0.816058 0.916665 0.796057
Si Si3 0.568653 0.841574 0.766635
Si Si4 0.250000 0.000000 0.786446
Si Si5 0.928605 0.919048 0.034118
O O1 0.858341 0.026893 0.301174
O O2 0.006919 0.908197 0.316802
O O3 0.000000 0.000000 0.500000
O O4 0.088521 0.054781 0.301221
O O5 0.711808 0.857863 0.753378
O O6 0.750000 0.000000 0.832667
O O7 0.880375 0.884472 0.912469
O O8 0.537104 0.750000 0.750000
O O9 0.524193 0.865802 0.896399
O O10 0.181884 0.060526 0.876315
O O11 0.000000 0.000000 0.000000
#
# Coordination Sequence:
#
# PCOD9408235 Si02
#       5
#     8   8   8   4   8
#     4  10  22  36  59  82 113 155 200 223 284 361
#     4  10  18  34  60  83 108 151 195 233 275 348
#     4  10  22  38  55  84 120 148 185 249 300 325
#     4  10  18  30  56  86 108 134 192 250 264 324
#     4  11  16  34  61  86 107 143 200 238 280 341
#
# _framework density 17.136645999999999
#
# number of rings (size 3 to 8) (size 9 to 14) (size 15 to 20)
#    0.000    1.778    7.778    0.000    4.667    0.000 
#    4.000    0.000    0.000    5.333    0.000    0.000 
#    0.000    0.000    0.000    0.000    0.000    0.000 
#
# Total GULP energy -200444.687111 kJ/mol
# GULP energy per Si atom -5567.907975 kJ/mol
# Density = 1.709764 g / cm^3
# Si number density = 17.136646 Si / 1000 Ang^3
#
#
#
# Elastic Constant Matrix: (Units=GPa)
#
#
# Indices 1 2 3 4 5 6 
#
# 1 103.1994 19.4547 46.3343 0.0000 0.0000 0.0000
# 2 19.4547 66.1166 20.8952 0.0000 0.0000 0.0000
# 3 46.3343 20.8952 139.1584 0.0000 0.0000 0.0000
# 4 0.0000 0.0000 0.0000 17.3547 0.0000 0.0000
# 5 0.0000 0.0000 0.0000 0.0000 26.7941 0.0000
# 6 0.0000 0.0000 0.0000 0.0000 0.0000 7.8331
#
#
#
# Elastic Compliance Matrix: (Units=1/GPa)
#
#
# Indices 1 2 3 4 5 6 
#
# 1 0.011724 -0.002327 -0.003554 0.000000 0.000000 0.000000
# 2 -0.002327 0.016340 -0.001679 0.000000 0.000000 0.000000
# 3 -0.003554 -0.001679 0.008622 0.000000 0.000000 0.000000
# 4 0.000000 0.000000 0.000000 0.057621 0.000000 0.000000
# 5 0.000000 0.000000 0.000000 0.000000 0.037322 0.000000
# 6 0.000000 0.000000 0.000000 0.000000 0.000000 0.127663
#
#
# Mechanical properties :
#
#
# Convention : Reuss Voigt Hill
#
# Bulk Modulus (GPa) = 46.36862 53.53809 49.95336
# Shear Modulus (GPa) = 17.75567 25.18241 21.46904
#
# Velocity S-wave (km/s) = 3.22238 3.83757 3.54335
# Velocity P-wave (km/s) = 6.40015 7.13762 6.77892
#
# Compressibility (1/GPa) = 0.02156631
#
# Stress axis : x y z
#
# Youngs Moduli (GPa) = 85.29192 61.19967 115.98732
#
# Poissons Ratio (x) = 0.14238 0.41227
# Poissons Ratio (y) = 0.19844 0.19473
# Poissons Ratio (z) = 0.30316 0.10275
#
# Static dielectric constant tensor:
#      x y z
#    x 1.630460 0.000000 0.000000 
#    y 0.000000 1.561090 0.000000 
#    z 0.000000 0.000000 1.601980 
# 
# From -- ./inp_files/18102.got.cif
#   From: 2010.05.17/outbox.cif.g08.bks.cpg/sg52_10_cif.got.tgz:18102.got - 2010.06.03 12:15:38.
