data_PCOD9408295
_publ_section_title
;
Structure prediction by ZEFSAII (Michael W. Deem and Ramdas Pophale) SiO2 
 PCOD9408295
Probable space group: P N N A
;
_chemical_formula_sum "Si O2"
_cell_formula_units_Z 64
_cell_length_a 22.875740
_cell_length_b 12.410411
_cell_length_c 13.297827
_cell_angle_alpha 90.000000
_cell_angle_beta 90.000000
_cell_angle_gamma 90.000000
_cell_volume 3775.217651
_symmetry_space_group_name_H-M "P N N A"
_symmetry_group_IT_number 52
_symmetry_cell_setting 'orthorhombic'
loop_
_space_group_symop_operation_xyz
x,y,z
1/2-x,-y,z
x,1/2-y,1/2-z
1/2-x,1/2+y,1/2-z
-x,-y,-z
1/2+x,y,-z
-x,1/2+y,1/2+z
1/2+x,1/2-y,1/2+z
loop_
_atom_site_type_symbol
_atom_site_label
_atom_site_fract_x
_atom_site_fract_y
_atom_site_fract_z
Si Si1 0.480029 0.589584 0.417609
Si Si2 0.536204 0.968368 0.278377
Si Si3 0.692458 0.169718 0.343686
Si Si4 0.839035 0.501844 0.314621
Si Si5 0.316194 0.271264 0.635788
Si Si6 0.890703 0.811839 0.054191
Si Si7 0.999647 0.300608 0.849365
Si Si8 0.436999 0.292407 0.946442
O O1 0.500000 0.500000 0.500000
O O2 0.484941 0.547203 0.303818
O O3 0.418375 0.641955 0.451660
O O4 0.527310 0.684619 0.422083
O O5 0.541162 0.881914 0.367379
O O6 0.596640 0.962178 0.217098
O O7 0.530088 0.086930 0.323706
O O8 0.677470 0.250000 0.250000
O O9 0.686652 0.055042 0.287826
O O10 0.757325 0.202846 0.376754
O O11 0.648016 0.203474 0.432433
O O12 0.805171 0.400228 0.361738
O O13 0.851980 0.593948 0.396473
O O14 0.336402 0.250000 0.750000
O O15 0.368666 0.233001 0.565995
O O16 0.949367 0.783050 0.117399
O O17 0.971545 0.250000 0.750000
O O18 0.955608 0.319667 0.940452
#
# Coordination Sequence:
#
# PCOD9408295 Si02
#       8
#     8   8   8   8   8   8   8   8
#     4  11  19  31  52  74 103 143 173 212 264 317
#     4  12  19  33  51  74 112 139 170 218 271 324
#     4   9  20  31  48  70 102 143 177 214 257 315
#     4  11  18  32  51  71 107 141 174 214 261 316
#     4  11  20  33  48  72 109 138 173 216 268 315
#     4  10  18  32  49  75 100 136 180 211 252 316
#     4  11  20  34  54  75 104 139 178 217 266 328
#     4  11  22  33  49  79 108 135 172 225 273 318
#
# _framework density 16.952665
#
# number of rings (size 3 to 8) (size 9 to 14) (size 15 to 20)
#    0.000    1.250    6.250    1.875    0.000    4.500 
#    0.000    0.000    0.000    0.000    0.000    3.500 
#    0.000    0.000    0.000    0.000    0.000    0.000 
#
# Total GULP energy -356683.143031 kJ/mol
# GULP energy per Si atom -5573.174110 kJ/mol
# Density = 1.691408 g / cm^3
# Si number density = 16.952665 Si / 1000 Ang^3
#
#
#
# Elastic Constant Matrix: (Units=GPa)
#
#
# Indices 1 2 3 4 5 6 
#
# 1 76.7506 17.3146 20.6157 0.0000 0.0000 0.0000
# 2 17.3146 80.7530 26.2561 0.0000 0.0000 0.0000
# 3 20.6157 26.2561 56.6145 0.0000 0.0000 0.0000
# 4 0.0000 0.0000 0.0000 20.6505 0.0000 0.0000
# 5 0.0000 0.0000 0.0000 0.0000 22.2306 0.0000
# 6 0.0000 0.0000 0.0000 0.0000 0.0000 20.1403
#
#
#
# Elastic Compliance Matrix: (Units=1/GPa)
#
#
# Indices 1 2 3 4 5 6 
#
# 1 0.014627 -0.001654 -0.004559 0.000000 0.000000 0.000000
# 2 -0.001654 0.014769 -0.006247 0.000000 0.000000 0.000000
# 3 -0.004559 -0.006247 0.022221 0.000000 0.000000 0.000000
# 4 0.000000 0.000000 0.000000 0.048425 0.000000 0.000000
# 5 0.000000 0.000000 0.000000 0.000000 0.044983 0.000000
# 6 0.000000 0.000000 0.000000 0.000000 0.000000 0.049652
#
#
# Mechanical properties :
#
#
# Convention : Reuss Voigt Hill
#
# Bulk Modulus (GPa) = 37.45842 38.05452 37.75647
# Shear Modulus (GPa) = 21.88217 22.59972 22.24094
#
# Velocity S-wave (km/s) = 3.59664 3.65514 3.62601
# Velocity P-wave (km/s) = 6.27627 6.34898 6.31273
#
# Compressibility (1/GPa) = 0.02669627
#
# Stress axis : x y z
#
# Youngs Moduli (GPa) = 68.36689 67.70799 45.00277
#
# Poissons Ratio (x) = 0.11198 0.20518
# Poissons Ratio (y) = 0.11307 0.28115
# Poissons Ratio (z) = 0.31170 0.42299
#
# Static dielectric constant tensor:
#      x y z
#    x 1.594820 0.000000 0.000000 
#    y 0.000000 1.664640 0.000000 
#    z 0.000000 0.000000 1.599930 
# 
# From -- ./inp_files/22503.got.cif
#   From: 2010.05.17/outbox.cif.g08.bks.cpg/sg52_12_cif.got.tgz:22503.got - 2010.06.03 12:15:38.
