data_PCOD9408927
_publ_section_title
;
Structure prediction by ZEFSAII (Michael W. Deem and Ramdas Pophale) SiO2 
 PCOD9408927
Probable space group: P N N A
;
_chemical_formula_sum "Si O2"
_cell_formula_units_Z 64
_cell_length_a 14.536366
_cell_length_b 8.704690
_cell_length_c 29.190218
_cell_angle_alpha 90.000000
_cell_angle_beta 90.000000
_cell_angle_gamma 90.000000
_cell_volume 3693.571384
_symmetry_space_group_name_H-M "P N N A"
_symmetry_group_IT_number 52
_symmetry_cell_setting 'orthorhombic'
loop_
_space_group_symop_operation_xyz
x,y,z
1/2-x,-y,z
x,1/2-y,1/2-z
1/2-x,1/2+y,1/2-z
-x,-y,-z
1/2+x,y,-z
-x,1/2+y,1/2+z
1/2+x,1/2-y,1/2+z
loop_
_atom_site_type_symbol
_atom_site_label
_atom_site_fract_x
_atom_site_fract_y
_atom_site_fract_z
Si Si1 0.400366 0.814191 0.625010
Si Si2 0.750000 0.815648 0.800669
Si Si3 0.250000 0.813327 0.551517
Si Si4 0.900367 0.185809 0.374990
Si Si5 0.250000 0.815165 0.699220
Si Si6 0.395551 0.184270 0.123385
Si Si7 0.250000 0.815120 0.446366
Si Si8 0.604449 0.184271 0.876615
O O1 0.339621 0.767504 0.580800
O O2 0.339367 0.769898 0.669306
O O3 0.500722 0.742539 0.624889
O O4 0.407756 1.000000 0.624679
O O5 0.750000 0.750000 0.750000
O O6 0.661339 0.769564 0.830961
O O7 0.838660 0.769564 0.830961
O O8 0.750000 0.000000 0.797773
O O9 0.160378 0.767505 0.580800
O O10 0.250000 0.762412 0.499113
O O11 0.250000 0.000000 0.551344
O O12 0.839367 0.230101 0.330694
O O13 0.000722 0.257461 0.375111
O O14 0.250000 0.750000 0.750000
O O15 0.250000 0.000000 0.701306
O O16 0.338635 0.253762 0.080977
O O17 0.392657 1.000000 0.120246
O O18 0.338634 0.753761 0.419023
O O19 0.250000 0.000000 0.445318
#
# Coordination Sequence:
#
# PCOD9408927 Si02
#       8
#     8   8   8   8   8   8   8   8
#     4   9  18  35  55  75 100 135 174 210 248 298
#     4   9  20  36  52  70  98 131 165 205 248 293
#     4   8  17  34  55  77 101 129 172 218 247 283
#     4   9  18  35  55  75 100 135 174 210 248 298
#     4   9  19  34  53  76 104 135 171 213 255 299
#     4  10  21  36  51  75 108 135 162 207 258 304
#     4  10  19  34  56  77  98 133 173 210 250 297
#     4  10  21  36  51  75 108 135 162 207 258 304
#
# _framework density 17.327403
#
# number of rings (size 3 to 8) (size 9 to 14) (size 15 to 20)
#    0.000    2.750    0.000    3.375    0.000    6.000 
#    0.000   14.375    0.000    0.000    0.000    0.000 
#    0.000    0.000    0.000    0.000    0.000    0.000 
#
# Total GULP energy -356914.164100 kJ/mol
# GULP energy per Si atom -5576.783814 kJ/mol
# Density = 1.728797 g / cm^3
# Si number density = 17.327403 Si / 1000 Ang^3
#
#
#
# Elastic Constant Matrix: (Units=GPa)
#
#
# Indices 1 2 3 4 5 6 
#
# 1 194.6235 45.7941 109.1405 0.0000 0.0000 0.0000
# 2 45.7941 34.1375 43.2106 0.0000 0.0000 0.0000
# 3 109.1405 43.2106 201.5691 0.0000 0.0000 0.0000
# 4 0.0000 0.0000 0.0000 26.8913 0.0000 0.0000
# 5 0.0000 0.0000 0.0000 0.0000 5.9920 0.0000
# 6 0.0000 0.0000 0.0000 0.0000 0.0000 20.7528
#
#
#
# Elastic Compliance Matrix: (Units=1/GPa)
#
#
# Indices 1 2 3 4 5 6 
#
# 1 0.008668 -0.007805 -0.003020 0.000000 0.000000 0.000000
# 2 -0.007805 0.047230 -0.005899 0.000000 0.000000 0.000000
# 3 -0.003020 -0.005899 0.007861 0.000000 0.000000 0.000000
# 4 0.000000 0.000000 0.000000 0.037187 0.000000 0.000000
# 5 0.000000 0.000000 0.000000 0.000000 0.166889 0.000000
# 6 0.000000 0.000000 0.000000 0.000000 0.000000 0.048186
#
#
# Mechanical properties :
#
#
# Convention : Reuss Voigt Hill
#
# Bulk Modulus (GPa) = 32.99119 91.84672 62.41896
# Shear Modulus (GPa) = 13.90537 26.20621 20.05579
#
# Velocity S-wave (km/s) = 2.83593 3.89320 3.40584
# Velocity P-wave (km/s) = 5.45935 8.56335 7.18107
#
# Compressibility (1/GPa) = 0.03031112
#
# Stress axis : x y z
#
# Youngs Moduli (GPa) = 115.36157 21.17294 127.21138
#
# Poissons Ratio (x) = 0.16526 0.38422
# Poissons Ratio (y) = 0.90042 0.75037
# Poissons Ratio (z) = 0.34843 0.12489
#
# Static dielectric constant tensor:
#      x y z
#    x 1.563300 0.000000 0.000000 
#    y 0.000000 1.589080 0.000000 
#    z 0.000000 0.000000 1.578310 
# 
# From -- ./inp_files/45076.got.cif
#   From: 2010.05.17/outbox.cif.g08.bks.cpg/sg52_23_cif.got.tgz:45076.got - 2010.06.03 12:15:38.
