data_PCOD9408332
_publ_section_title
;
Structure prediction by ZEFSAII (Michael W. Deem and Ramdas Pophale) SiO2 
 PCOD9408332
Probable space group: P N N A
;
_chemical_formula_sum "Si O2"
_cell_formula_units_Z 64
_cell_length_a 9.939618
_cell_length_b 11.271135
_cell_length_c 30.951421
_cell_angle_alpha 90.000000
_cell_angle_beta 90.000000
_cell_angle_gamma 90.000000
_cell_volume 3467.511723
_symmetry_space_group_name_H-M "P N N A"
_symmetry_group_IT_number 52
_symmetry_cell_setting 'orthorhombic'
loop_
_space_group_symop_operation_xyz
x,y,z
1/2-x,-y,z
x,1/2-y,1/2-z
1/2-x,1/2+y,1/2-z
-x,-y,-z
1/2+x,y,-z
-x,1/2+y,1/2+z
1/2+x,1/2-y,1/2+z
loop_
_atom_site_type_symbol
_atom_site_label
_atom_site_fract_x
_atom_site_fract_y
_atom_site_fract_z
Si Si1 0.863806 0.338806 0.586942
Si Si2 0.811600 0.876897 0.465229
Si Si3 0.582889 0.322689 0.127125
Si Si4 0.691262 0.874137 0.142598
Si Si5 0.909515 0.872374 0.274904
Si Si6 0.391943 0.122371 0.757904
Si Si7 0.052756 0.766084 0.991915
Si Si8 0.938076 0.890542 0.912393
O O1 0.893534 0.319066 0.536518
O O2 0.916388 0.470706 0.596867
O O3 0.705736 0.331020 0.594976
O O4 0.947157 0.243017 0.613198
O O5 0.865690 0.890923 0.415878
O O6 0.683514 0.788671 0.468190
O O7 0.935318 0.827043 0.494019
O O8 0.750000 0.000000 0.481489
O O9 0.695724 0.223096 0.135429
O O10 0.561886 0.379830 0.174028
O O11 0.654592 0.885172 0.192700
O O12 0.555681 0.843325 0.117739
O O13 0.750000 0.000000 0.126818
O O14 0.954127 0.750000 0.250000
O O15 0.746847 0.871107 0.269521
O O16 0.958687 0.996099 0.253632
O O17 0.462446 0.250000 0.750000
O O18 0.984777 0.863040 0.961055
#
# Coordination Sequence:
#
# PCOD9408332 Si02
#       8
#     8   8   8   8   8   8   8   8
#     4  10  23  38  55  85 116 156 190 238 297 363
#     4  11  24  37  58  80 110 152 200 246 294 356
#     4  11  21  35  57  87 117 148 198 245 288 363
#     4  12  19  33  57  91 116 147 191 242 301 340
#     4  10  18  32  54  84 120 153 183 241 302 348
#     4  10  19  31  55  90 124 148 187 250 296 351
#     4  11  21  41  56  78 116 147 197 241 296 347
#     4  11  22  36  59  83 120 151 187 240 300 356
#
# _framework density 18.457039999999999
#
# number of rings (size 3 to 8) (size 9 to 14) (size 15 to 20)
#    0.000    1.250    7.500    0.750    1.750    0.000 
#    2.250    0.000    0.000    0.750    0.000    0.000 
#    0.000    0.000    0.000    0.000    0.000    0.000 
#
# Total GULP energy -356828.831041 kJ/mol
# GULP energy per Si atom -5575.450485 kJ/mol
# Density = 1.841503 g / cm^3
# Si number density = 18.457040 Si / 1000 Ang^3
#
#
#
# Elastic Constant Matrix: (Units=GPa)
#
#
# Indices 1 2 3 4 5 6 
#
# 1 86.6197 9.2623 15.8195 0.0000 0.0000 0.0000
# 2 9.2623 60.6187 -8.8634 0.0000 0.0000 0.0000
# 3 15.8195 -8.8634 78.5524 0.0000 0.0000 0.0000
# 4 0.0000 0.0000 0.0000 12.6973 0.0000 0.0000
# 5 0.0000 0.0000 0.0000 0.0000 16.7634 0.0000
# 6 0.0000 0.0000 0.0000 0.0000 0.0000 13.6890
#
#
#
# Elastic Compliance Matrix: (Units=1/GPa)
#
#
# Indices 1 2 3 4 5 6 
#
# 1 0.012287 -0.002277 -0.002731 0.000000 0.000000 0.000000
# 2 -0.002277 0.017195 0.002399 0.000000 0.000000 0.000000
# 3 -0.002731 0.002399 0.013551 0.000000 0.000000 0.000000
# 4 0.000000 0.000000 0.000000 0.078757 0.000000 0.000000
# 5 0.000000 0.000000 0.000000 0.000000 0.059654 0.000000
# 6 0.000000 0.000000 0.000000 0.000000 0.000000 0.073051
#
#
# Mechanical properties :
#
#
# Convention : Reuss Voigt Hill
#
# Bulk Modulus (GPa) = 26.44491 28.69194 27.56843
# Shear Modulus (GPa) = 18.36081 22.60143 20.48112
#
# Velocity S-wave (km/s) = 3.15744 3.50314 3.33478
# Velocity P-wave (km/s) = 5.25847 5.65170 5.45863
#
# Compressibility (1/GPa) = 0.03781446
#
# Stress axis : x y z
#
# Youngs Moduli (GPa) = 81.38681 58.15586 73.79489
#
# Poissons Ratio (x) = 0.13241 0.20156
# Poissons Ratio (y) = 0.18530 -0.17701
# Poissons Ratio (z) = 0.22230 -0.13950
#
# Static dielectric constant tensor:
#      x y z
#    x 1.610380 0.000000 0.000000 
#    y 0.000000 1.699680 0.000000 
#    z 0.000000 0.000000 1.647810 
# 
# From -- ./inp_files/44621.got.cif
#   From: 2010.05.17/outbox.cif.g08.bks.cpg/sg52_23_cif.got.tgz:44621.got - 2010.06.03 12:15:38.
