data_PCOD9408718
_publ_section_title
;
Structure prediction by ZEFSAII (Michael W. Deem and Ramdas Pophale) SiO2 
 PCOD9408718
Probable space group: P N N A
;
_chemical_formula_sum "Si O2"
_cell_formula_units_Z 40
_cell_length_a 5.087680
_cell_length_b 13.718762
_cell_length_c 24.898684
_cell_angle_alpha 90.000000
_cell_angle_beta 90.000000
_cell_angle_gamma 90.000000
_cell_volume 1737.845257
_symmetry_space_group_name_H-M "P N N A"
_symmetry_group_IT_number 52
_symmetry_cell_setting 'orthorhombic'
loop_
_space_group_symop_operation_xyz
x,y,z
1/2-x,-y,z
x,1/2-y,1/2-z
1/2-x,1/2+y,1/2-z
-x,-y,-z
1/2+x,y,-z
-x,1/2+y,1/2+z
1/2+x,1/2-y,1/2+z
loop_
_atom_site_type_symbol
_atom_site_label
_atom_site_fract_x
_atom_site_fract_y
_atom_site_fract_z
Si Si1 0.629613 0.402379 0.441012
Si Si2 0.994547 0.546775 0.940361
Si Si3 0.572186 0.304484 0.694393
Si Si4 0.639020 0.268641 0.574136
Si Si5 0.063031 0.418243 0.680415
O O1 0.750000 0.500000 0.470404
O O2 0.388710 0.325525 0.452754
O O3 0.532538 0.441954 0.382962
O O4 0.888521 0.337954 0.432568
O O5 0.750000 0.500000 0.910466
O O6 0.942543 0.661538 0.946173
O O7 0.250000 0.500000 0.913761
O O8 0.000000 0.500000 0.000000
O O9 0.596301 0.250000 0.750000
O O10 0.678041 0.257804 0.638596
O O11 0.264633 0.327355 0.684959
O O12 0.774442 0.394662 0.700476
O O13 0.250000 0.500000 0.705937
#
# Coordination Sequence:
#
# PCOD9408718 Si02
#       5
#     8   8   8   8   8
#     4   9  17  30  52  82 109 136 172 218 272 336
#     4  10  21  38  59  83 106 141 193 240 280 328
#     4  10  19  31  47  70 103 139 173 214 272 327
#     4  10  19  33  54  79 109 141 181 232 276 326
#     4   9  17  30  47  66  94 133 178 216 253 317
#
# _framework density 23.017009999999999
#
# number of rings (size 3 to 8) (size 9 to 14) (size 15 to 20)
#    0.000    2.400    0.000    3.000    0.000    4.800 
#    0.000    3.000    0.000    0.000    0.000   56.000 
#    0.000    0.000    0.000    0.000    0.000    0.000 
#
# Total GULP energy -222681.519531 kJ/mol
# GULP energy per Si atom -5567.037988 kJ/mol
# Density = 2.296462 g / cm^3
# Si number density = 23.017010 Si / 1000 Ang^3
#
#
#
# Elastic Constant Matrix: (Units=GPa)
#
#
# Indices 1 2 3 4 5 6 
#
# 1 204.2265 54.3598 -3.8236 0.0000 0.0000 0.0000
# 2 54.3598 176.4797 23.9473 0.0000 0.0000 0.0000
# 3 -3.8236 23.9473 95.1478 0.0000 0.0000 0.0000
# 4 0.0000 0.0000 0.0000 19.2884 0.0000 0.0000
# 5 0.0000 0.0000 0.0000 0.0000 36.9209 0.0000
# 6 0.0000 0.0000 0.0000 0.0000 0.0000 39.2329
#
#
#
# Elastic Compliance Matrix: (Units=1/GPa)
#
#
# Indices 1 2 3 4 5 6 
#
# 1 0.005373 -0.001744 0.000655 0.000000 0.000000 0.000000
# 2 -0.001744 0.006433 -0.001689 0.000000 0.000000 0.000000
# 3 0.000655 -0.001689 0.010961 0.000000 0.000000 0.000000
# 4 0.000000 0.000000 0.000000 0.051845 0.000000 0.000000
# 5 0.000000 0.000000 0.000000 0.000000 0.027085 0.000000
# 6 0.000000 0.000000 0.000000 0.000000 0.000000 0.025489
#
#
# Mechanical properties :
#
#
# Convention : Reuss Voigt Hill
#
# Bulk Modulus (GPa) = 58.10301 69.42457 63.76379
# Shear Modulus (GPa) = 36.10666 45.84647 40.97657
#
# Velocity S-wave (km/s) = 3.96497 4.46786 4.22391
# Velocity P-wave (km/s) = 6.80144 7.53946 7.17994
#
# Compressibility (1/GPa) = 0.01721081
#
# Stress axis : x y z
#
# Youngs Moduli (GPa) = 186.11742 155.45521 91.22921
#
# Poissons Ratio (x) = 0.27109 -0.05974
# Poissons Ratio (y) = 0.32456 0.15410
# Poissons Ratio (z) = -0.12187 0.26258
#
# Static dielectric constant tensor:
#      x y z
#    x 1.812800 0.000000 0.000000 
#    y 0.000000 1.970580 0.000000 
#    z 0.000000 0.000000 1.801780 
# 
# From -- ./inp_files/43670.got.cif
#   From: 2010.05.17/outbox.cif.g08.bks.cpg/sg52_22_cif.got.tgz:43670.got - 2010.06.03 12:15:38.
