data_PCOD9408348
_publ_section_title
;
Structure prediction by ZEFSAII (Michael W. Deem and Ramdas Pophale) SiO2 
 PCOD9408348
Probable space group: P N N A
;
_chemical_formula_sum "Si O2"
_cell_formula_units_Z 60
_cell_length_a 21.617315
_cell_length_b 5.552471
_cell_length_c 22.383160
_cell_angle_alpha 90.000000
_cell_angle_beta 90.000000
_cell_angle_gamma 90.000000
_cell_volume 2686.639831
_symmetry_space_group_name_H-M "P N N A"
_symmetry_group_IT_number 52
_symmetry_cell_setting 'orthorhombic'
loop_
_space_group_symop_operation_xyz
x,y,z
1/2-x,-y,z
x,1/2-y,1/2-z
1/2-x,1/2+y,1/2-z
-x,-y,-z
1/2+x,y,-z
-x,1/2+y,1/2+z
1/2+x,1/2-y,1/2+z
loop_
_atom_site_type_symbol
_atom_site_label
_atom_site_fract_x
_atom_site_fract_y
_atom_site_fract_z
Si Si1 0.110914 0.643772 0.406299
Si Si2 0.790218 0.250000 0.250000
Si Si3 0.545399 0.500355 0.231593
Si Si4 0.404086 0.997496 0.221293
Si Si5 0.503748 0.451732 0.098554
Si Si6 0.819479 0.405859 0.993607
Si Si7 0.564824 0.232667 0.993072
Si Si8 0.289069 0.248435 0.882897
O O1 0.113092 0.480613 0.348354
O O2 0.063724 0.849763 0.385375
O O3 0.172808 0.745957 0.434341
O O4 0.080078 0.520205 0.463922
O O5 0.750000 0.500000 0.249658
O O6 0.818577 0.243591 0.182870
O O7 0.577489 0.250000 0.250000
O O8 0.478861 0.496775 0.267047
O O9 0.534722 0.510023 0.160848
O O10 0.575066 0.750000 0.250000
O O11 0.381171 0.250000 0.250000
O O12 0.381558 0.750000 0.250000
O O13 0.488235 0.659060 0.050827
O O14 0.542432 0.256632 0.060841
O O15 0.750000 0.500000 0.994381
O O16 0.872579 0.608376 0.989122
O O17 0.829614 0.270394 0.057006
O O18 0.250000 0.500000 0.883081
O O19 0.250000 0.000000 0.889356
#
# Coordination Sequence:
#
# PCOD9408348 Si02
#       8
#     8   4   8   8   8   8   8   8
#     4  11  21  36  62  94 126 166 214 268 327 396
#     4   8  14  28  52  84 104 140 192 250 302 356
#     4  10  18  32  57  86 122 162 197 246 302 376
#     4  10  19  33  58  92 122 159 209 254 309 388
#     4  10  20  37  57  94 126 159 207 256 321 389
#     4  10  24  39  59  90 123 169 219 270 322 377
#     4  10  22  37  60  86 126 163 204 260 322 384
#     4   9  18  33  58  85 114 148 203 260 308 364
#
# _framework density 22.332730000000002
#
# number of rings (size 3 to 8) (size 9 to 14) (size 15 to 20)
#    0.000    2.133    2.667    2.000    5.600    0.000 
#    0.000    0.000    1.467    0.000    5.200    0.000 
#    0.000    0.000    0.000    0.000    0.000    0.000 
#
# Total GULP energy -334545.199870 kJ/mol
# GULP energy per Si atom -5575.753331 kJ/mol
# Density = 2.228190 g / cm^3
# Si number density = 22.332730 Si / 1000 Ang^3
#
#
#
# Elastic Constant Matrix: (Units=GPa)
#
#
# Indices 1 2 3 4 5 6 
#
# 1 54.6131 21.6496 49.0919 0.0000 0.0000 0.0000
# 2 21.6496 123.3225 35.1498 0.0000 0.0000 0.0000
# 3 49.0919 35.1498 162.3837 0.0000 0.0000 0.0000
# 4 0.0000 0.0000 0.0000 38.3364 0.0000 0.0000
# 5 0.0000 0.0000 0.0000 0.0000 31.7924 0.0000
# 6 0.0000 0.0000 0.0000 0.0000 0.0000 1.2657
#
#
#
# Elastic Compliance Matrix: (Units=1/GPa)
#
#
# Indices 1 2 3 4 5 6 
#
# 1 0.025825 -0.002460 -0.007275 0.000000 0.000000 0.000000
# 2 -0.002460 0.008876 -0.001178 0.000000 0.000000 0.000000
# 3 -0.007275 -0.001178 0.008613 0.000000 0.000000 0.000000
# 4 0.000000 0.000000 0.000000 0.026085 0.000000 0.000000
# 5 0.000000 0.000000 0.000000 0.000000 0.031454 0.000000
# 6 0.000000 0.000000 0.000000 0.000000 0.000000 0.790065
#
#
# Mechanical properties :
#
#
# Convention : Reuss Voigt Hill
#
# Bulk Modulus (GPa) = 46.53607 61.34466 53.94037
# Shear Modulus (GPa) = 5.43533 29.90744 17.67139
#
# Velocity S-wave (km/s) = 1.56176 3.66344 2.81602
# Velocity P-wave (km/s) = 4.91273 6.73963 5.89735
#
# Compressibility (1/GPa) = 0.02148871
#
# Stress axis : x y z
#
# Youngs Moduli (GPa) = 38.72152 112.65882 116.10963
#
# Poissons Ratio (x) = 0.27716 0.84470
# Poissons Ratio (y) = 0.09526 0.13673
# Poissons Ratio (z) = 0.28170 0.13267
#
# Static dielectric constant tensor:
#      x y z
#    x 1.848970 0.000000 0.000000 
#    y 0.000000 2.285430 0.000000 
#    z 0.000000 0.000000 1.858540 
# 
# From -- ./inp_files/38178.got.cif
#   From: 2010.05.17/outbox.cif.g08.bks.cpg/sg52_20_cif.got.tgz:38178.got - 2010.06.03 12:15:38.
