data_PCOD9408134
_publ_section_title
;
Structure prediction by ZEFSAII (Michael W. Deem and Ramdas Pophale) SiO2 
 PCOD9408134
Probable space group: P N N A
;
_chemical_formula_sum "Si O2"
_cell_formula_units_Z 44
_cell_length_a 8.888703
_cell_length_b 11.390771
_cell_length_c 21.233620
_cell_angle_alpha 90.000000
_cell_angle_beta 90.000000
_cell_angle_gamma 90.000000
_cell_volume 2149.886621
_symmetry_space_group_name_H-M "P N N A"
_symmetry_group_IT_number 52
_symmetry_cell_setting 'orthorhombic'
loop_
_space_group_symop_operation_xyz
x,y,z
1/2-x,-y,z
x,1/2-y,1/2-z
1/2-x,1/2+y,1/2-z
-x,-y,-z
1/2+x,y,-z
-x,1/2+y,1/2+z
1/2+x,1/2-y,1/2+z
loop_
_atom_site_type_symbol
_atom_site_label
_atom_site_fract_x
_atom_site_fract_y
_atom_site_fract_z
Si Si1 0.763539 0.166300 0.566884
Si Si2 0.747247 0.638967 0.654770
Si Si3 0.542277 0.791668 0.313698
Si Si4 0.408198 0.110662 0.565597
Si Si5 0.489253 0.250000 0.250000
Si Si6 0.500712 0.444649 0.157238
O O1 0.780859 0.301881 0.586540
O O2 0.589091 0.132688 0.561816
O O3 0.847878 0.103549 0.625737
O O4 0.838535 0.131619 0.501513
O O5 0.750000 0.500000 0.651859
O O6 0.901067 0.703975 0.677058
O O7 0.618246 0.675403 0.703755
O O8 0.619790 0.750000 0.250000
O O9 0.636356 0.798907 0.378502
O O10 0.488294 0.928482 0.308593
O O11 0.400600 0.980277 0.596003
O O12 0.563760 0.347276 0.204534
#
# Coordination Sequence:
#
# PCOD9408134 Si02
#       6
#     8   8   8   8   4   8
#     4  10  19  35  49  80 104 139 176 223 267 322
#     4  10  19  27  47  73 109 139 171 220 281 327
#     4   9  17  29  47  72 104 131 170 215 275 313
#     4   9  20  31  55  77 109 133 179 221 269 320
#     4  10  18  24  46  74 112 136 168 218 288 320
#     4   9  19  29  48  76 107 134 169 221 270 321
#
# _framework density 20.466194999999999
#
# number of rings (size 3 to 8) (size 9 to 14) (size 15 to 20)
#    1.091    1.455    0.909    2.182    2.545    0.000 
#    0.000    3.636    0.000    0.000    9.455    0.000 
#    0.000    0.000    0.000    0.000    0.000    0.000 
#
# Total GULP energy -245062.850632 kJ/mol
# GULP energy per Si atom -5569.610242 kJ/mol
# Density = 2.041961 g / cm^3
# Si number density = 20.466195 Si / 1000 Ang^3
#
#
#
# Elastic Constant Matrix: (Units=GPa)
#
#
# Indices 1 2 3 4 5 6 
#
# 1 59.0964 23.0928 32.5252 0.0000 0.0000 0.0000
# 2 23.0928 178.1532 65.4527 0.0000 0.0000 0.0000
# 3 32.5252 65.4527 160.4155 0.0000 0.0000 0.0000
# 4 0.0000 0.0000 0.0000 41.2198 0.0000 0.0000
# 5 0.0000 0.0000 0.0000 0.0000 22.8345 0.0000
# 6 0.0000 0.0000 0.0000 0.0000 0.0000 12.8114
#
#
#
# Elastic Compliance Matrix: (Units=1/GPa)
#
#
# Indices 1 2 3 4 5 6 
#
# 1 0.019281 -0.001250 -0.003399 0.000000 0.000000 0.000000
# 2 -0.001250 0.006684 -0.002474 0.000000 0.000000 0.000000
# 3 -0.003399 -0.002474 0.007932 0.000000 0.000000 0.000000
# 4 0.000000 0.000000 0.000000 0.024260 0.000000 0.000000
# 5 0.000000 0.000000 0.000000 0.000000 0.043793 0.000000
# 6 0.000000 0.000000 0.000000 0.000000 0.000000 0.078055
#
#
# Mechanical properties :
#
#
# Convention : Reuss Voigt Hill
#
# Bulk Modulus (GPa) = 50.88850 71.08962 60.98906
# Shear Modulus (GPa) = 24.90002 33.81277 29.35640
#
# Velocity S-wave (km/s) = 3.49182 4.06905 3.79144
# Velocity P-wave (km/s) = 6.41683 7.54233 7.00223
#
# Compressibility (1/GPa) = 0.01965080
#
# Stress axis : x y z
#
# Youngs Moduli (GPa) = 51.86470 149.60979 126.06645
#
# Poissons Ratio (x) = 0.18708 0.42852
# Poissons Ratio (y) = 0.06485 0.31185
# Poissons Ratio (z) = 0.17629 0.37009
#
# Static dielectric constant tensor:
#      x y z
#    x 1.806290 0.000000 0.000000 
#    y 0.000000 1.745650 0.000000 
#    z 0.000000 0.000000 1.786210 
# 
# From -- ./inp_files/36721.got.cif
#   From: 2010.05.17/outbox.cif.g08.bks.cpg/sg52_19_cif.got.tgz:36721.got - 2010.06.03 12:15:38.
