data_PCOD9408700
_publ_section_title
;
Structure prediction by ZEFSAII (Michael W. Deem and Ramdas Pophale) SiO2 
 PCOD9408700
Probable space group: P N N A
;
_chemical_formula_sum "Si O2"
_cell_formula_units_Z 40
_cell_length_a 4.977326
_cell_length_b 23.187272
_cell_length_c 19.906777
_cell_angle_alpha 90.000000
_cell_angle_beta 90.000000
_cell_angle_gamma 90.000000
_cell_volume 2297.453312
_symmetry_space_group_name_H-M "P N N A"
_symmetry_group_IT_number 52
_symmetry_cell_setting 'orthorhombic'
loop_
_space_group_symop_operation_xyz
x,y,z
1/2-x,-y,z
x,1/2-y,1/2-z
1/2-x,1/2+y,1/2-z
-x,-y,-z
1/2+x,y,-z
-x,1/2+y,1/2+z
1/2+x,1/2-y,1/2+z
loop_
_atom_site_type_symbol
_atom_site_label
_atom_site_fract_x
_atom_site_fract_y
_atom_site_fract_z
Si Si1 0.750000 0.000000 0.849980
Si Si2 0.342351 0.398405 0.451083
Si Si3 0.972293 0.225142 0.954216
Si Si4 0.983843 0.538751 0.131191
Si Si5 0.366224 0.350486 0.046433
Si Si6 0.250000 0.500000 0.740529
O O1 0.855867 0.051487 0.896858
O O2 0.499341 0.019500 0.804385
O O3 0.560404 0.403338 0.510462
O O4 0.394090 0.334925 0.419717
O O5 0.912784 0.287025 0.922004
O O6 0.778466 0.224276 0.020361
O O7 0.250000 0.500000 0.136014
O O8 0.055341 0.597246 0.094191
O O9 0.750000 0.500000 0.096020
O O10 0.864571 0.546903 0.206292
O O11 0.565439 0.353952 0.982080
#
# Coordination Sequence:
#
# PCOD9408700 Si02
#       6
#     4   8   8   8   8   4
#     4  12  20  33  56  73  98 134 170 204 240 312
#     4  10  19  32  51  81 107 123 152 204 259 299
#     4   8  16  30  46  71 105 130 150 185 245 312
#     4  10  20  35  49  70  99 135 163 217 246 284
#     4  10  19  30  51  78 100 130 163 198 255 308
#     4  10  22  37  46  71  94 140 176 200 250 282
#
# _framework density 17.410581000000001
#
# number of rings (size 3 to 8) (size 9 to 14) (size 15 to 20)
#    0.600    1.600    1.000    3.000    0.000    2.400 
#    0.000    0.000    0.000    1.200    5.200    0.000 
#    0.000    0.000    0.000    0.000    0.000    0.000 
#
# Total GULP energy -222686.679431 kJ/mol
# GULP energy per Si atom -5567.166986 kJ/mol
# Density = 1.737095 g / cm^3
# Si number density = 17.410581 Si / 1000 Ang^3
#
#
#
# Elastic Constant Matrix: (Units=GPa)
#
#
# Indices 1 2 3 4 5 6 
#
# 1 81.2984 15.8263 4.1123 0.0000 0.0000 0.0000
# 2 15.8263 144.3742 47.7741 0.0000 0.0000 0.0000
# 3 4.1123 47.7741 37.3386 0.0000 0.0000 0.0000
# 4 0.0000 0.0000 0.0000 -5.6821 0.0000 0.0000
# 5 0.0000 0.0000 0.0000 0.0000 -46.6620 0.0000
# 6 0.0000 0.0000 0.0000 0.0000 0.0000 21.7544
#
#
#
# Elastic Compliance Matrix: (Units=1/GPa)
#
#
# Indices 1 2 3 4 5 6 
#
# 1 0.012578 -0.001596 0.000657 0.000000 0.000000 0.000000
# 2 -0.001596 0.012215 -0.015453 0.000000 0.000000 0.000000
# 3 0.000657 -0.015453 0.046481 0.000000 0.000000 0.000000
# 4 0.000000 0.000000 0.000000 -0.175993 0.000000 0.000000
# 5 0.000000 0.000000 0.000000 0.000000 -0.021431 0.000000
# 6 0.000000 0.000000 0.000000 0.000000 0.000000 0.045968
#
#
# Mechanical properties :
#
#
# Convention : Reuss Voigt Hill
#
# Bulk Modulus (GPa) = 25.98087 44.27075 35.12581
# Shear Modulus (GPa) = -144.64414 6.90197 -68.87108
#
# Velocity S-wave (km/s) = -9.12462 1.99320 -6.29626
# Velocity P-wave (km/s) = 9.80085 5.54796 5.71300
#
# Compressibility (1/GPa) = 0.03848985
#
# Stress axis : x y z
#
# Youngs Moduli (GPa) = 79.50481 81.86748 21.51404
#
# Poissons Ratio (x) = 0.13068 -0.01414
# Poissons Ratio (y) = 0.12691 0.33245
# Poissons Ratio (z) = -0.05224 1.26509
#
# Static dielectric constant tensor:
#      x y z
#    x 1.609740 0.000000 0.000000 
#    y 0.000000 1.634710 0.000000 
#    z 0.000000 0.000000 1.564290 
# 
# From -- ./inp_files/35108.got.cif
#   From: 2010.05.17/outbox.cif.g08.bks.cpg/sg52_18_cif.got.tgz:35108.got - 2010.06.03 12:15:38.
