data_PCOD9408423
_publ_section_title
;
Structure prediction by ZEFSAII (Michael W. Deem and Ramdas Pophale) SiO2 
 PCOD9408423
Probable space group: P N N A
;
_chemical_formula_sum "Si O2"
_cell_formula_units_Z 56
_cell_length_a 7.208842
_cell_length_b 15.436520
_cell_length_c 19.836594
_cell_angle_alpha 90.000000
_cell_angle_beta 90.000000
_cell_angle_gamma 90.000000
_cell_volume 2207.404947
_symmetry_space_group_name_H-M "P N N A"
_symmetry_group_IT_number 52
_symmetry_cell_setting 'orthorhombic'
loop_
_space_group_symop_operation_xyz
x,y,z
1/2-x,-y,z
x,1/2-y,1/2-z
1/2-x,1/2+y,1/2-z
-x,-y,-z
1/2+x,y,-z
-x,1/2+y,1/2+z
1/2+x,1/2-y,1/2+z
loop_
_atom_site_type_symbol
_atom_site_label
_atom_site_fract_x
_atom_site_fract_y
_atom_site_fract_z
Si Si1 0.316489 0.826338 0.334757
Si Si2 0.026057 0.015146 0.093580
Si Si3 0.760340 0.637548 0.459578
Si Si4 0.750000 0.500000 0.906111
Si Si5 0.581173 0.747807 0.571097
Si Si6 0.448230 0.955191 0.244931
Si Si7 0.067536 0.878103 0.552073
Si Si8 0.250000 0.000000 0.642729
O O1 0.162146 0.757572 0.353858
O O2 0.405007 0.853986 0.263975
O O3 0.471708 0.814456 0.392959
O O4 0.215547 0.916000 0.359639
O O5 0.974382 0.018998 0.172549
O O6 0.250000 0.000000 0.085791
O O7 0.934686 0.104819 0.069136
O O8 0.903857 0.942099 0.054859
O O9 0.703677 0.676353 0.531885
O O10 0.870609 0.716411 0.425670
O O11 0.581132 0.458505 0.947939
O O12 0.594468 0.829578 0.518510
O O13 0.579755 0.985422 0.306063
O O14 0.250000 0.000000 0.241418
O O15 0.242078 0.918619 0.591730
#
# Coordination Sequence:
#
# PCOD9408423 Si02
#       8
#     8   8   8   4   8   8   8   4
#     4   9  18  37  63  99 137 195 229 293 363 431
#     4  10  25  47  79 101 134 185 264 326 359 433
#     4  11  26  46  70 112 142 190 244 303 403 455
#     4   8  16  37  54  90 134 184 251 272 336 426
#     4  12  24  42  64 101 166 186 227 304 389 476
#     4  10  19  41  71 103 131 176 250 316 346 415
#     4   9  20  36  55  98 141 200 233 289 352 446
#     4  10  18  33  66  98 142 180 251 282 344 432
#
# _framework density 25.369156
#
# number of rings (size 3 to 8) (size 9 to 14) (size 15 to 20)
#    0.857    1.143    2.143    0.857    2.000    5.714 
#    0.000    0.714    0.000   30.000    0.000    0.000 
#    0.000    0.000    0.000    0.000    0.000    0.000 
#
# Total GULP energy -311882.322812 kJ/mol
# GULP energy per Si atom -5569.327193 kJ/mol
# Density = 2.531141 g / cm^3
# Si number density = 25.369156 Si / 1000 Ang^3
#
#
#
# Elastic Constant Matrix: (Units=GPa)
#
#
# Indices 1 2 3 4 5 6 
#
# 1 144.0878 48.4265 41.2616 0.0000 0.0000 0.0000
# 2 48.4265 86.3983 29.8515 0.0000 0.0000 0.0000
# 3 41.2616 29.8515 103.1386 0.0000 0.0000 0.0000
# 4 0.0000 0.0000 0.0000 -0.0517 0.0000 0.0000
# 5 0.0000 0.0000 0.0000 0.0000 18.0726 0.0000
# 6 0.0000 0.0000 0.0000 0.0000 0.0000 58.3959
#
#
#
# Elastic Compliance Matrix: (Units=1/GPa)
#
#
# Indices 1 2 3 4 5 6 
#
# 1 0.009053 -0.004248 -0.002392 0.000000 0.000000 0.000000
# 2 -0.004248 0.014853 -0.002600 0.000000 0.000000 0.000000
# 3 -0.002392 -0.002600 0.011405 0.000000 0.000000 0.000000
# 4 0.000000 0.000000 0.000000-19.344500 0.000000 0.000000
# 5 0.000000 0.000000 0.000000 0.000000 0.055332 0.000000
# 6 0.000000 0.000000 0.000000 0.000000 0.000000 0.017124
#
#
# Mechanical properties :
#
#
# Convention : Reuss Voigt Hill
#
# Bulk Modulus (GPa) = 59.41012 63.63377 61.52195
# Shear Modulus (GPa) = -0.26025 29.55570 14.64773
#
# Velocity S-wave (km/s) = -0.32063 3.41695 2.40549
# Velocity P-wave (km/s) = 4.83032 6.38004 5.65849
#
# Compressibility (1/GPa) = 0.01683215
#
# Stress axis : x y z
#
# Youngs Moduli (GPa) = 110.46238 67.32498 87.67940
#
# Poissons Ratio (x) = 0.28597 0.20975
# Poissons Ratio (y) = 0.46920 0.22794
# Poissons Ratio (z) = 0.26426 0.17503
#
# Static dielectric constant tensor:
#      x y z
#    x 2.128580 0.000000 0.000000 
#    y 0.000000 2.140470 0.000000 
#    z 0.000000 0.000000 2.047500 
# 
# From -- ./inp_files/36151.got.cif
#   From: 2010.05.17/outbox.cif.g08.bks.cpg/sg52_19_cif.got.tgz:36151.got - 2010.06.03 12:15:38.
