data_PCOD9408510
_publ_section_title
;
Structure prediction by ZEFSAII (Michael W. Deem and Ramdas Pophale) SiO2 
 PCOD9408510
Probable space group: P N N A
;
_chemical_formula_sum "Si O2"
_cell_formula_units_Z 44
_cell_length_a 8.289349
_cell_length_b 17.067240
_cell_length_c 12.087640
_cell_angle_alpha 90.000000
_cell_angle_beta 90.000000
_cell_angle_gamma 90.000000
_cell_volume 1710.114690
_symmetry_space_group_name_H-M "P N N A"
_symmetry_group_IT_number 52
_symmetry_cell_setting 'orthorhombic'
loop_
_space_group_symop_operation_xyz
x,y,z
1/2-x,-y,z
x,1/2-y,1/2-z
1/2-x,1/2+y,1/2-z
-x,-y,-z
1/2+x,y,-z
-x,1/2+y,1/2+z
1/2+x,1/2-y,1/2+z
loop_
_atom_site_type_symbol
_atom_site_label
_atom_site_fract_x
_atom_site_fract_y
_atom_site_fract_z
Si Si1 0.183473 0.103550 0.944472
Si Si2 0.849644 0.423348 0.235773
Si Si3 0.175089 0.249108 0.070264
Si Si4 0.151915 0.887800 0.157215
Si Si5 0.389292 0.250000 0.750000
Si Si6 0.805949 0.921270 0.615820
O O1 0.332270 0.075990 0.870032
O O2 0.019046 0.083558 0.884662
O O3 0.173052 0.197935 0.959757
O O4 0.213305 0.080493 0.071188
O O5 0.750000 0.500000 0.200180
O O6 0.798384 0.331266 0.222105
O O7 0.020536 0.427458 0.174969
O O8 0.317415 0.205250 0.138442
O O9 0.198652 0.340412 0.050222
O O10 0.015456 0.237395 0.146522
O O11 0.184693 0.910779 0.281291
O O12 0.750000 0.000000 0.556084
#
# Coordination Sequence:
#
# PCOD9408510 Si02
#       6
#     8   8   8   8   4   8
#     4  10  20  35  60  87 124 154 200 258 301 374
#     4  11  22  39  60  98 127 161 206 258 320 375
#     4   9  18  37  60  82 120 168 208 242 313 376
#     4  10  18  35  58  90 114 160 202 247 308 369
#     4  10  18  42  60  82 132 174 196 256 316 372
#     4  11  21  38  63  86 126 164 205 259 310 381
#
# _framework density 25.729267
#
# number of rings (size 3 to 8) (size 9 to 14) (size 15 to 20)
#    1.091    0.727    3.636    3.273    0.000    0.727 
#    6.545    6.364    0.000    2.182    0.000    0.000 
#    0.000    0.000    0.000    0.000    0.000    0.000 
#
# Total GULP energy -245572.022881 kJ/mol
# GULP energy per Si atom -5581.182338 kJ/mol
# Density = 2.567071 g / cm^3
# Si number density = 25.729267 Si / 1000 Ang^3
#
#
#
# Elastic Constant Matrix: (Units=GPa)
#
#
# Indices 1 2 3 4 5 6 
#
# 1 83.3194 60.6072 25.0970 0.0000 0.0000 0.0000
# 2 60.6072 261.4949 19.0684 0.0000 0.0000 0.0000
# 3 25.0970 19.0684 75.2804 0.0000 0.0000 0.0000
# 4 0.0000 0.0000 0.0000 -96.0284 0.0000 0.0000
# 5 0.0000 0.0000 0.0000 0.0000 264.8969 0.0000
# 6 0.0000 0.0000 0.0000 0.0000 0.0000 39.5046
#
#
#
# Elastic Compliance Matrix: (Units=1/GPa)
#
#
# Indices 1 2 3 4 5 6 
#
# 1 0.015752 -0.003329 -0.004408 0.000000 0.000000 0.000000
# 2 -0.003329 0.004600 -0.000055 0.000000 0.000000 0.000000
# 3 -0.004408 -0.000055 0.014767 0.000000 0.000000 0.000000
# 4 0.000000 0.000000 0.000000 -0.010414 0.000000 0.000000
# 5 0.000000 0.000000 0.000000 0.000000 0.003775 0.000000
# 6 0.000000 0.000000 0.000000 0.000000 0.000000 0.025313
#
#
# Mechanical properties :
#
#
# Convention : Reuss Voigt Hill
#
# Bulk Modulus (GPa) = 51.19382 69.95998 60.57690
# Shear Modulus (GPa) = 65.88517 62.69610 64.29064
#
# Velocity S-wave (km/s) = 5.06584 4.94171 5.00416
# Velocity P-wave (km/s) = 7.35916 7.73373 7.54877
#
# Compressibility (1/GPa) = 0.01953361
#
# Stress axis : x y z
#
# Youngs Moduli (GPa) = 63.48590 217.39900 67.71780
#
# Poissons Ratio (x) = 0.72379 0.29850
# Poissons Ratio (y) = 0.21137 0.00374
# Poissons Ratio (z) = 0.27984 0.01200
#
# Static dielectric constant tensor:
#      x y z
#    x 2.016240 0.000000 0.000000 
#    y 0.000000 2.187430 0.000000 
#    z 0.000000 0.000000 1.996290 
# 
# From -- ./inp_files/24629.got.cif
#   From: 2010.05.17/outbox.cif.g08.bks.cpg/sg52_13_cif.got.tgz:24629.got - 2010.06.03 12:15:38.
