data_PCOD9408301
_publ_section_title
;
Structure prediction by ZEFSAII (Michael W. Deem and Ramdas Pophale) SiO2 
 PCOD9408301
Probable space group: P N N A
;
_chemical_formula_sum "Si O2"
_cell_formula_units_Z 64
_cell_length_a 8.768020
_cell_length_b 17.768206
_cell_length_c 18.184293
_cell_angle_alpha 90.000000
_cell_angle_beta 90.000000
_cell_angle_gamma 90.000000
_cell_volume 2832.967113
_symmetry_space_group_name_H-M "P N N A"
_symmetry_group_IT_number 52
_symmetry_cell_setting 'orthorhombic'
loop_
_space_group_symop_operation_xyz
x,y,z
1/2-x,-y,z
x,1/2-y,1/2-z
1/2-x,1/2+y,1/2-z
-x,-y,-z
1/2+x,y,-z
-x,1/2+y,1/2+z
1/2+x,1/2-y,1/2+z
loop_
_atom_site_type_symbol
_atom_site_label
_atom_site_fract_x
_atom_site_fract_y
_atom_site_fract_z
Si Si1 0.901337 0.353234 0.097951
Si Si2 0.389626 0.315392 0.651799
Si Si3 0.137448 0.429807 0.630644
Si Si4 0.117728 0.764998 0.330073
Si Si5 0.807415 0.408233 0.654828
Si Si6 0.105970 0.304615 0.963601
Si Si7 0.617641 0.137519 0.973798
Si Si8 0.605771 0.127675 0.720550
O O1 0.876200 0.272640 0.138187
O O2 0.990674 0.402523 0.158236
O O3 0.735709 0.362684 0.062713
O O4 0.013130 0.340085 0.030104
O O5 0.231303 0.358792 0.662044
O O6 0.470890 0.348651 0.578149
O O7 0.499609 0.330481 0.719879
O O8 0.250000 0.500000 0.635011
O O9 0.092462 0.408026 0.547819
O O10 0.973894 0.441662 0.666657
O O11 0.043163 0.750000 0.250000
O O12 0.005213 0.789971 0.394365
O O13 0.176739 0.682539 0.349265
O O14 0.265040 0.819029 0.317807
O O15 0.725221 0.415451 0.576508
O O16 0.702275 0.424064 0.724738
O O17 0.163978 0.222611 0.996545
#
# Coordination Sequence:
#
# PCOD9408301 Si02
#       8
#     8   8   8   8   8   8   8   8
#     4  11  19  31  50  76 104 142 179 215 261 329
#     4  10  20  34  51  72 102 138 186 231 269 319
#     4  12  24  35  51  76 102 142 199 246 271 295
#     4  10  18  32  50  75 104 143 181 213 265 329
#     4  10  19  35  51  70 104 138 183 233 272 317
#     4  11  20  29  49  76 110 143 178 213 255 320
#     4  10  19  34  50  70 100 145 185 228 273 304
#     4  10  21  34  53  75  99 135 182 222 272 330
#
# _framework density 22.591155000000001
#
# number of rings (size 3 to 8) (size 9 to 14) (size 15 to 20)
#    0.000    1.500    2.500    6.375    0.000    5.000 
#    0.000    1.875    0.000    0.000    0.000    0.000 
#    0.000    0.000    0.000   76.500    0.000    0.000 
#
# Total GULP energy -357315.950087 kJ/mol
# GULP energy per Si atom -5583.061720 kJ/mol
# Density = 2.253974 g / cm^3
# Si number density = 22.591155 Si / 1000 Ang^3
#
#
#
# Elastic Constant Matrix: (Units=GPa)
#
#
# Indices 1 2 3 4 5 6 
#
# 1 116.1693 23.4500 50.8956 0.0000 0.0000 0.0000
# 2 23.4500 24.5921 10.5235 0.0000 0.0000 0.0000
# 3 50.8956 10.5235 119.0316 0.0000 0.0000 0.0000
# 4 0.0000 0.0000 0.0000 -27.1947 0.0000 0.0000
# 5 0.0000 0.0000 0.0000 0.0000 30.2376 0.0000
# 6 0.0000 0.0000 0.0000 0.0000 0.0000 20.4098
#
#
#
# Elastic Compliance Matrix: (Units=1/GPa)
#
#
# Indices 1 2 3 4 5 6 
#
# 1 0.012621 -0.010108 -0.004503 0.000000 0.000000 0.000000
# 2 -0.010108 0.050358 -0.000130 0.000000 0.000000 0.000000
# 3 -0.004503 -0.000130 0.010338 0.000000 0.000000 0.000000
# 4 0.000000 0.000000 0.000000 -0.036772 0.000000 0.000000
# 5 0.000000 0.000000 0.000000 0.000000 0.033071 0.000000
# 6 0.000000 0.000000 0.000000 0.000000 0.000000 0.048996
#
#
# Mechanical properties :
#
#
# Convention : Reuss Voigt Hill
#
# Bulk Modulus (GPa) = 22.81295 47.72569 35.26932
# Shear Modulus (GPa) = 30.73004 16.35213 23.54109
#
# Velocity S-wave (km/s) = 3.69218 2.69333 3.23158
# Velocity P-wave (km/s) = 5.31944 5.55371 5.43783
#
# Compressibility (1/GPa) = 0.04383475
#
# Stress axis : x y z
#
# Youngs Moduli (GPa) = 79.23024 19.85785 96.73023
#
# Poissons Ratio (x) = 0.20073 0.43558
# Poissons Ratio (y) = 0.80089 0.01257
# Poissons Ratio (z) = 0.35678 0.00258
#
# Static dielectric constant tensor:
#      x y z
#    x 1.925370 0.000000 0.000000 
#    y 0.000000 1.902510 0.000000 
#    z 0.000000 0.000000 1.887450 
# 
# From -- ./inp_files/31654.got.cif
#   From: 2010.05.17/outbox.cif.g08.bks.cpg/sg52_16_cif.got.tgz:31654.got - 2010.06.03 12:15:38.
