data_PCOD9408283
_publ_section_title
;
Structure prediction by ZEFSAII (Michael W. Deem and Ramdas Pophale) SiO2 
 PCOD9408283
Probable space group: P N N A
;
_chemical_formula_sum "Si O2"
_cell_formula_units_Z 44
_cell_length_a 21.808045
_cell_length_b 8.752176
_cell_length_c 10.443771
_cell_angle_alpha 90.000000
_cell_angle_beta 90.000000
_cell_angle_gamma 90.000000
_cell_volume 1993.380096
_symmetry_space_group_name_H-M "P N N A"
_symmetry_group_IT_number 52
_symmetry_cell_setting 'orthorhombic'
loop_
_space_group_symop_operation_xyz
x,y,z
1/2-x,-y,z
x,1/2-y,1/2-z
1/2-x,1/2+y,1/2-z
-x,-y,-z
1/2+x,y,-z
-x,1/2+y,1/2+z
1/2+x,1/2-y,1/2+z
loop_
_atom_site_type_symbol
_atom_site_label
_atom_site_fract_x
_atom_site_fract_y
_atom_site_fract_z
Si Si1 0.648138 0.326374 0.945705
Si Si2 0.985981 0.411772 0.773950
Si Si3 0.370978 0.971973 0.161028
Si Si4 0.601387 0.881481 0.490766
Si Si5 0.953683 0.250000 0.250000
Si Si6 0.719797 0.719990 0.600808
O O1 0.610676 0.170901 0.925978
O O2 0.643778 0.406844 0.803829
O O3 0.619313 0.443867 0.045489
O O4 0.718057 0.273403 0.968160
O O5 0.019857 0.250000 0.750000
O O6 0.926458 0.411909 0.679625
O O7 0.956165 0.400714 0.914842
O O8 0.012228 0.583620 0.752748
O O9 0.311708 0.053169 0.101478
O O10 0.586155 0.766907 0.377459
O O11 0.663670 0.824205 0.556133
O O12 0.732282 0.750000 0.750000
#
# Coordination Sequence:
#
# PCOD9408283 Si02
#       6
#     8   8   8   8   4   8
#     4  10  20  29  61  96 129 164 194 266 342 402
#     4  11  21  42  66  94 124 163 221 283 324 381
#     4  10  18  31  56 100 135 146 201 270 343 395
#     4  11  23  42  58  92 126 168 221 267 322 398
#     4  12  28  44  62  84 132 190 224 258 326 384
#     4  12  18  33  61  98 131 155 200 271 348 391
#
# _framework density 22.073060000000002
#
# number of rings (size 3 to 8) (size 9 to 14) (size 15 to 20)
#    0.000    1.091    7.273    3.818    0.000    0.727 
#    3.273    0.000    0.000    4.364    2.364    0.000 
#    0.000    0.000    0.000    0.000    0.000    0.000 
#
# Total GULP energy -245202.689030 kJ/mol
# GULP energy per Si atom -5572.788387 kJ/mol
# Density = 2.202282 g / cm^3
# Si number density = 22.073060 Si / 1000 Ang^3
#
#
#
# Elastic Constant Matrix: (Units=GPa)
#
#
# Indices 1 2 3 4 5 6 
#
# 1 34.3329 18.0006 13.5849 0.0000 0.0000 0.0000
# 2 18.0006 155.6922 22.0176 0.0000 0.0000 0.0000
# 3 13.5849 22.0176 48.9105 0.0000 0.0000 0.0000
# 4 0.0000 0.0000 0.0000 33.2736 0.0000 0.0000
# 5 0.0000 0.0000 0.0000 0.0000 22.5162 0.0000
# 6 0.0000 0.0000 0.0000 0.0000 0.0000 14.8884
#
#
#
# Elastic Compliance Matrix: (Units=1/GPa)
#
#
# Indices 1 2 3 4 5 6 
#
# 1 0.033794 -0.002755 -0.008146 0.000000 0.000000 0.000000
# 2 -0.002755 0.007084 -0.002424 0.000000 0.000000 0.000000
# 3 -0.008146 -0.002424 0.023799 0.000000 0.000000 0.000000
# 4 0.000000 0.000000 0.000000 0.030054 0.000000 0.000000
# 5 0.000000 0.000000 0.000000 0.000000 0.044412 0.000000
# 6 0.000000 0.000000 0.000000 0.000000 0.000000 0.067167
#
#
# Mechanical properties :
#
#
# Convention : Reuss Voigt Hill
#
# Bulk Modulus (GPa) = 26.29669 38.46020 32.37844
# Shear Modulus (GPa) = 20.35526 26.49113 23.42319
#
# Velocity S-wave (km/s) = 3.04003 3.46809 3.26109
# Velocity P-wave (km/s) = 4.92562 5.78781 5.37403
#
# Compressibility (1/GPa) = 0.03802760
#
# Stress axis : x y z
#
# Youngs Moduli (GPa) = 29.59073 141.15835 42.01823
#
# Poissons Ratio (x) = 0.38892 0.34229
# Poissons Ratio (y) = 0.08153 0.10184
# Poissons Ratio (z) = 0.24105 0.34214
#
# Static dielectric constant tensor:
#      x y z
#    x 1.856250 0.000000 0.000000 
#    y 0.000000 1.974070 0.000000 
#    z 0.000000 0.000000 1.820610 
# 
# From -- ./inp_files/22212.got.cif
#   From: 2010.05.17/outbox.cif.g08.bks.cpg/sg52_12_cif.got.tgz:22212.got - 2010.06.03 12:15:38.
