data_PCOD9408940
_publ_section_title
;
Structure prediction by ZEFSAII (Michael W. Deem and Ramdas Pophale) SiO2 
 PCOD9408940
Probable space group: P N N A
;
_chemical_formula_sum "Si O2"
_cell_formula_units_Z 32
_cell_length_a 11.065922
_cell_length_b 12.876928
_cell_length_c 8.442776
_cell_angle_alpha 90.000000
_cell_angle_beta 90.000000
_cell_angle_gamma 90.000000
_cell_volume 1203.054049
_symmetry_space_group_name_H-M "P N N A"
_symmetry_group_IT_number 52
_symmetry_cell_setting 'orthorhombic'
loop_
_space_group_symop_operation_xyz
x,y,z
1/2-x,-y,z
x,1/2-y,1/2-z
1/2-x,1/2+y,1/2-z
-x,-y,-z
1/2+x,y,-z
-x,1/2+y,1/2+z
1/2+x,1/2-y,1/2+z
loop_
_atom_site_type_symbol
_atom_site_label
_atom_site_fract_x
_atom_site_fract_y
_atom_site_fract_z
Si Si1 0.405577 0.355182 0.907282
Si Si2 0.941551 0.008979 0.713961
Si Si3 0.837312 0.642776 0.302591
Si Si4 0.807064 0.324658 0.599828
O O1 0.529606 0.388574 0.819310
O O2 0.286281 0.362172 0.798907
O O3 0.396978 0.438072 0.050887
O O4 0.398489 0.242570 0.989018
O O5 0.074457 0.051287 0.757975
O O6 0.860665 0.066050 0.843377
O O7 0.899811 0.750000 0.250000
O O8 0.804299 0.651992 0.485406
O O9 0.783454 0.250000 0.750000
#
# Coordination Sequence:
#
# PCOD9408940 Si02
#       4
#     8   8   8   8
#     4   9  19  34  56  85 112 149 200 246 299 363
#     4  10  19  36  59  81 117 157 194 249 310 365
#     4  10  19  34  57  83 117 157 197 247 305 362
#     4   9  19  36  56  85 120 153 199 251 299 369
#
# _framework density 26.598970000000001
#
# number of rings (size 3 to 8) (size 9 to 14) (size 15 to 20)
#    0.000    2.500    0.000    3.000    0.000    1.000 
#    0.000   11.250    0.000   18.000    0.000    0.000 
#    0.000    0.000    0.000    0.000    0.000    0.000 
#
# Total GULP energy -179113.384059 kJ/mol
# GULP energy per Si atom -5597.293252 kJ/mol
# Density = 2.653843 g / cm^3
# Si number density = 26.598970 Si / 1000 Ang^3
#
#
#
# Elastic Constant Matrix: (Units=GPa)
#
#
# Indices 1 2 3 4 5 6 
#
# 1 83.4287 38.8121 67.2805 0.0000 0.0000 0.0000
# 2 38.8121 114.2241 45.7322 0.0000 0.0000 0.0000
# 3 67.2805 45.7322 155.2230 0.0000 0.0000 0.0000
# 4 0.0000 0.0000 0.0000 26.7737 0.0000 0.0000
# 5 0.0000 0.0000 0.0000 0.0000 38.6103 0.0000
# 6 0.0000 0.0000 0.0000 0.0000 0.0000 36.5765
#
#
#
# Elastic Compliance Matrix: (Units=1/GPa)
#
#
# Indices 1 2 3 4 5 6 
#
# 1 0.019729 -0.003719 -0.007456 0.000000 0.000000 0.000000
# 2 -0.003719 0.010626 -0.001519 0.000000 0.000000 0.000000
# 3 -0.007456 -0.001519 0.010122 0.000000 0.000000 0.000000
# 4 0.000000 0.000000 0.000000 0.037350 0.000000 0.000000
# 5 0.000000 0.000000 0.000000 0.000000 0.025900 0.000000
# 6 0.000000 0.000000 0.000000 0.000000 0.000000 0.027340
#
#
# Mechanical properties :
#
#
# Convention : Reuss Voigt Hill
#
# Bulk Modulus (GPa) = 66.26846 72.94727 69.60786
# Shear Modulus (GPa) = 30.96293 33.79551 32.37922
#
# Velocity S-wave (km/s) = 3.41554 3.56835 3.49278
# Velocity P-wave (km/s) = 6.36573 6.66798 6.51861
#
# Compressibility (1/GPa) = 0.01509014
#
# Stress axis : x y z
#
# Youngs Moduli (GPa) = 50.68713 94.10522 98.79921
#
# Poissons Ratio (x) = 0.34994 0.73663
# Poissons Ratio (y) = 0.18848 0.15007
# Poissons Ratio (z) = 0.37791 0.14294
#
# Static dielectric constant tensor:
#      x y z
#    x 2.086460 0.000000 0.000000 
#    y 0.000000 2.308550 0.000000 
#    z 0.000000 0.000000 2.087230 
# 
# From -- ./inp_files/8192.got.cif
#   From: 2010.05.17/outbox.cif.g08.bks.cpg/sg52_5_cif.got.tgz:8192.got - 2010.06.03 12:15:38.
