data_PCOD9408809
_publ_section_title
;
Structure prediction by ZEFSAII (Michael W. Deem and Ramdas Pophale) SiO2 
 PCOD9408809
Probable space group: P N N A
;
_chemical_formula_sum "Si O2"
_cell_formula_units_Z 48
_cell_length_a 20.758466
_cell_length_b 6.276006
_cell_length_c 19.655849
_cell_angle_alpha 90.000000
_cell_angle_beta 90.000000
_cell_angle_gamma 90.000000
_cell_volume 2560.769063
_symmetry_space_group_name_H-M "P N N A"
_symmetry_group_IT_number 52
_symmetry_cell_setting 'orthorhombic'
loop_
_space_group_symop_operation_xyz
x,y,z
1/2-x,-y,z
x,1/2-y,1/2-z
1/2-x,1/2+y,1/2-z
-x,-y,-z
1/2+x,y,-z
-x,1/2+y,1/2+z
1/2+x,1/2-y,1/2+z
loop_
_atom_site_type_symbol
_atom_site_label
_atom_site_fract_x
_atom_site_fract_y
_atom_site_fract_z
Si Si1 0.250000 0.500000 0.419231
Si Si2 0.316464 0.375675 0.892361
Si Si3 0.312266 0.352607 0.178185
Si Si4 0.070662 0.345700 0.936116
Si Si5 0.779777 0.250000 0.250000
Si Si6 0.926139 0.399544 0.921026
Si Si7 0.634775 0.964424 0.002842
O O1 0.283137 0.324523 0.372393
O O2 0.308069 0.592250 0.465381
O O3 0.250000 0.500000 0.902742
O O4 0.373808 0.544599 0.892958
O O5 0.315504 0.251977 0.821568
O O6 0.328567 0.212134 0.952996
O O7 0.250000 0.500000 0.192379
O O8 0.333194 0.250000 0.250000
O O9 0.373301 0.452531 0.137033
O O10 0.001451 0.388987 0.903182
O O11 0.089256 0.102505 0.949378
O O12 0.075224 0.448406 0.012371
O O13 0.750000 0.500000 0.248823
O O14 0.907433 0.164828 0.948645
#
# Coordination Sequence:
#
# PCOD9408809 Si02
#       7
#     4   8   8   8   4   8   8
#     4  10  20  32  54  88 110 144 196 250 294 356
#     4  10  22  36  58  88 116 155 197 253 304 374
#     4  11  21  37  57  80 113 154 196 243 303 367
#     4  10  19  37  59  83 120 154 195 255 311 366
#     4  10  24  40  60  86 124 162 202 252 318 376
#     4   9  21  36  55  85 118 153 199 249 307 373
#     4  10  19  32  59  85 115 150 200 249 310 364
#
# _framework density 18.744368000000001
#
# number of rings (size 3 to 8) (size 9 to 14) (size 15 to 20)
#    0.000    2.000    0.833    2.500    5.833    4.667 
#    0.000    1.667    1.833    0.000    0.000    0.000 
#    0.000    0.000    0.000    0.000    0.000    0.000 
#
# Total GULP energy -267226.896639 kJ/mol
# GULP energy per Si atom -5567.227013 kJ/mol
# Density = 1.870170 g / cm^3
# Si number density = 18.744368 Si / 1000 Ang^3
#
#
#
# Elastic Constant Matrix: (Units=GPa)
#
#
# Indices 1 2 3 4 5 6 
#
# 1 137.8408 22.9801 35.4612 0.0000 0.0000 0.0000
# 2 22.9801 43.3383 1.3916 0.0000 0.0000 0.0000
# 3 35.4612 1.3916 51.0144 0.0000 0.0000 0.0000
# 4 0.0000 0.0000 0.0000 25.3273 0.0000 0.0000
# 5 0.0000 0.0000 0.0000 0.0000 65.0302 0.0000
# 6 0.0000 0.0000 0.0000 0.0000 0.0000 18.9163
#
#
#
# Elastic Compliance Matrix: (Units=1/GPa)
#
#
# Indices 1 2 3 4 5 6 
#
# 1 0.009804 -0.004984 -0.006679 0.000000 0.000000 0.000000
# 2 -0.004984 0.025628 0.002765 0.000000 0.000000 0.000000
# 3 -0.006679 0.002765 0.024170 0.000000 0.000000 0.000000
# 4 0.000000 0.000000 0.000000 0.039483 0.000000 0.000000
# 5 0.000000 0.000000 0.000000 0.000000 0.015377 0.000000
# 6 0.000000 0.000000 0.000000 0.000000 0.000000 0.052864
#
#
# Mechanical properties :
#
#
# Convention : Reuss Voigt Hill
#
# Bulk Modulus (GPa) = 23.91968 39.09545 31.50756
# Shear Modulus (GPa) = 25.11840 33.34548 29.23194
#
# Velocity S-wave (km/s) = 3.66464 4.22235 3.95334
# Velocity P-wave (km/s) = 5.54029 6.68382 6.13874
#
# Compressibility (1/GPa) = 0.04180658
#
# Stress axis : x y z
#
# Youngs Moduli (GPa) = 102.00027 39.01944 41.37438
#
# Poissons Ratio (x) = 0.19447 0.27634
# Poissons Ratio (y) = 0.50837 -0.11442
# Poissons Ratio (z) = 0.68125 -0.10791
#
# Static dielectric constant tensor:
#      x y z
#    x 1.686620 0.000000 0.000000 
#    y 0.000000 1.705910 0.000000 
#    z 0.000000 0.000000 1.634640 
# 
# From -- ./inp_files/37857.got.cif
#   From: 2010.05.17/outbox.cif.g08.bks.cpg/sg52_19_cif.got.tgz:37857.got - 2010.06.03 12:15:38.
