data_PCOD9408236
_publ_section_title
;
Structure prediction by ZEFSAII (Michael W. Deem and Ramdas Pophale) SiO2 
 PCOD9408236
Probable space group: P N N A
;
_chemical_formula_sum "Si O2"
_cell_formula_units_Z 40
_cell_length_a 9.259179
_cell_length_b 19.368285
_cell_length_c 8.352943
_cell_angle_alpha 90.000000
_cell_angle_beta 90.000000
_cell_angle_gamma 90.000000
_cell_volume 1497.970169
_symmetry_space_group_name_H-M "P N N A"
_symmetry_group_IT_number 52
_symmetry_cell_setting 'orthorhombic'
loop_
_space_group_symop_operation_xyz
x,y,z
1/2-x,-y,z
x,1/2-y,1/2-z
1/2-x,1/2+y,1/2-z
-x,-y,-z
1/2+x,y,-z
-x,1/2+y,1/2+z
1/2+x,1/2-y,1/2+z
loop_
_atom_site_type_symbol
_atom_site_label
_atom_site_fract_x
_atom_site_fract_y
_atom_site_fract_z
Si Si1 0.919361 0.345250 0.413840
Si Si2 0.319207 0.886630 0.687236
Si Si3 0.650991 0.250000 0.750000
Si Si4 0.876244 0.355630 0.783836
Si Si5 0.946397 0.465734 0.191090
Si Si6 0.250000 0.500000 0.148175
O O1 0.765262 0.341319 0.319654
O O2 0.901457 0.335607 0.599834
O O3 0.970335 0.420690 0.350653
O O4 0.042727 0.294457 0.355429
O O5 0.466628 0.850609 0.632521
O O6 0.177578 0.920189 0.596857
O O7 0.384639 0.960500 0.746089
O O8 0.754556 0.303274 0.845728
O O9 0.812577 0.432616 0.764615
O O10 0.094656 0.469139 0.091454
#
# Coordination Sequence:
#
# PCOD9408236 Si02
#       6
#     8   8   4   8   8   4
#     4  10  20  35  51  79 120 157 184 239 288 358
#     4   8  17  30  48  77 108 148 180 221 295 349
#     4  12  24  38  52  86 120 160 202 234 294 368
#     4  11  21  33  56  83 121 155 194 237 296 358
#     4   8  16  29  49  79 113 145 175 224 296 360
#     4  10  18  30  56  88 120 152 180 242 308 370
#
# _framework density 26.7028
#
# number of rings (size 3 to 8) (size 9 to 14) (size 15 to 20)
#    1.200    1.200    2.000    1.200    2.800    2.400 
#    0.000    0.000    0.000    0.000    0.000    1.400 
#    6.000    0.800    0.000    0.000    0.000    0.000 
#
# Total GULP energy -223053.080923 kJ/mol
# GULP energy per Si atom -5576.327023 kJ/mol
# Density = 2.664202 g / cm^3
# Si number density = 26.702800 Si / 1000 Ang^3
#
#
#
# Elastic Constant Matrix: (Units=GPa)
#
#
# Indices 1 2 3 4 5 6 
#
# 1 291.5831 62.2000 38.0955 0.0000 0.0000 0.0000
# 2 62.2000 118.3836 12.8999 0.0000 0.0000 0.0000
# 3 38.0955 12.8999 38.4346 0.0000 0.0000 0.0000
# 4 0.0000 0.0000 0.0000 7.3785 0.0000 0.0000
# 5 0.0000 0.0000 0.0000 0.0000 33.9885 0.0000
# 6 0.0000 0.0000 0.0000 0.0000 0.0000 68.9368
#
#
#
# Elastic Compliance Matrix: (Units=1/GPa)
#
#
# Indices 1 2 3 4 5 6 
#
# 1 0.004303 -0.001864 -0.003639 0.000000 0.000000 0.000000
# 2 -0.001864 0.009575 -0.001366 0.000000 0.000000 0.000000
# 3 -0.003639 -0.001366 0.030084 0.000000 0.000000 0.000000
# 4 0.000000 0.000000 0.000000 0.135529 0.000000 0.000000
# 5 0.000000 0.000000 0.000000 0.000000 0.029422 0.000000
# 6 0.000000 0.000000 0.000000 0.000000 0.000000 0.014506
#
#
# Mechanical properties :
#
#
# Convention : Reuss Voigt Hill
#
# Bulk Modulus (GPa) = 33.08721 74.97690 54.03205
# Shear Modulus (GPa) = 20.22396 44.40782 32.31589
#
# Velocity S-wave (km/s) = 2.75503 4.08246 3.48258
# Velocity P-wave (km/s) = 4.74742 7.09657 6.03735
#
# Compressibility (1/GPa) = 0.03022316
#
# Stress axis : x y z
#
# Youngs Moduli (GPa) = 232.41506 104.43415 33.24059
#
# Poissons Ratio (x) = 0.19468 0.12096
# Poissons Ratio (y) = 0.43325 0.04541
# Poissons Ratio (z) = 0.84577 0.14267
#
# Static dielectric constant tensor:
#      x y z
#    x 2.183430 0.000000 0.000000 
#    y 0.000000 2.126310 0.000000 
#    z 0.000000 0.000000 2.131990 
# 
# From -- ./inp_files/24827.got.cif
#   From: 2010.05.17/outbox.cif.g08.bks.cpg/sg52_13_cif.got.tgz:24827.got - 2010.06.03 12:15:38.
