data_PCOD9408677
_publ_section_title
;
Structure prediction by ZEFSAII (Michael W. Deem and Ramdas Pophale) SiO2 
 PCOD9408677
Probable space group: P N N A
;
_chemical_formula_sum "Si O2"
_cell_formula_units_Z 32
_cell_length_a 9.588989
_cell_length_b 4.998094
_cell_length_c 23.521069
_cell_angle_alpha 90.000000
_cell_angle_beta 90.000000
_cell_angle_gamma 90.000000
_cell_volume 1127.286474
_symmetry_space_group_name_H-M "P N N A"
_symmetry_group_IT_number 52
_symmetry_cell_setting 'orthorhombic'
loop_
_space_group_symop_operation_xyz
x,y,z
1/2-x,-y,z
x,1/2-y,1/2-z
1/2-x,1/2+y,1/2-z
-x,-y,-z
1/2+x,y,-z
-x,1/2+y,1/2+z
1/2+x,1/2-y,1/2+z
loop_
_atom_site_type_symbol
_atom_site_label
_atom_site_fract_x
_atom_site_fract_y
_atom_site_fract_z
Si Si1 0.588416 0.674781 0.563831
Si Si2 0.136168 0.787102 0.676198
Si Si3 0.102317 0.820013 0.553011
Si Si4 0.940831 0.230299 0.811631
O O1 0.528690 0.379782 0.556607
O O2 0.672463 0.755176 0.507289
O O3 0.638892 0.690199 0.628783
O O4 0.459853 0.883917 0.558110
O O5 0.182346 0.757616 0.610961
O O6 0.068782 0.494643 0.692249
O O7 0.250000 0.000000 0.703242
O O8 0.002780 0.975367 0.679734
O O9 0.869251 0.250000 0.750000
#
# Coordination Sequence:
#
# PCOD9408677 Si02
#       4
#     8   8   8   8
#     4   8  14  25  40  55  70  92 124 162 200 230
#     4  10  19  29  40  55  77 106 136 163 191 229
#     4   8  14  25  40  55  70  92 124 162 200 229
#     4  10  19  29  40  55  77 106 136 163 193 232
#
# _framework density 28.386751
#
# number of rings (size 3 to 8) (size 9 to 14) (size 15 to 20)
#    0.000    3.000    0.000    1.500    0.000    2.000 
#    0.000    0.000    0.000    0.000    0.000    0.000 
#    0.000    0.000    0.000   45.000    0.000    0.000 
#
# Total GULP energy -178306.971778 kJ/mol
# GULP energy per Si atom -5572.092868 kJ/mol
# Density = 2.832214 g / cm^3
# Si number density = 28.386751 Si / 1000 Ang^3
#
#
#
# Elastic Constant Matrix: (Units=GPa)
#
#
# Indices 1 2 3 4 5 6 
#
# 1 42.0113 46.1893 20.2135 0.0000 0.0000 0.0000
# 2 46.1893 193.4794 23.5901 0.0000 0.0000 0.0000
# 3 20.2135 23.5901 278.4015 0.0000 0.0000 0.0000
# 4 0.0000 0.0000 0.0000 -0.2588 0.0000 0.0000
# 5 0.0000 0.0000 0.0000 0.0000 -13.4381 0.0000
# 6 0.0000 0.0000 0.0000 0.0000 0.0000 46.7282
#
#
#
# Elastic Compliance Matrix: (Units=1/GPa)
#
#
# Indices 1 2 3 4 5 6 
#
# 1 0.033099 -0.007688 -0.001752 0.000000 0.000000 0.000000
# 2 -0.007688 0.007008 -0.000036 0.000000 0.000000 0.000000
# 3 -0.001752 -0.000036 0.003722 0.000000 0.000000 0.000000
# 4 0.000000 0.000000 0.000000 -3.863965 0.000000 0.000000
# 5 0.000000 0.000000 0.000000 0.000000 -0.074415 0.000000
# 6 0.000000 0.000000 0.000000 0.000000 0.000000 0.021400
#
#
# Mechanical properties :
#
#
# Convention : Reuss Voigt Hill
#
# Bulk Modulus (GPa) = 40.19594 77.09756 58.64675
# Shear Modulus (GPa) = -1.30008 34.86621 16.78307
#
# Velocity S-wave (km/s) = -0.67748 3.50845 2.43416
# Velocity P-wave (km/s) = 3.68495 6.60537 5.34836
#
# Compressibility (1/GPa) = 0.02487813
#
# Stress axis : x y z
#
# Youngs Moduli (GPa) = 30.21284 142.68962 268.66289
#
# Poissons Ratio (x) = 1.09700 0.47061
# Poissons Ratio (y) = 0.23228 0.00958
# Poissons Ratio (z) = 0.05292 0.00509
#
# Static dielectric constant tensor:
#      x y z
#    x 2.135560 0.000000 0.000000 
#    y 0.000000 2.121400 0.000000 
#    z 0.000000 0.000000 2.349970 
# 
# From -- ./inp_files/34164.got.cif
#   From: 2010.05.17/outbox.cif.g08.bks.cpg/sg52_18_cif.got.tgz:34164.got - 2010.06.03 12:15:38.
