data_PCOD9408618
_publ_section_title
;
Structure prediction by ZEFSAII (Michael W. Deem and Ramdas Pophale) SiO2 
 PCOD9408618
Probable space group: P N N A
;
_chemical_formula_sum "Si O2"
_cell_formula_units_Z 60
_cell_length_a 16.192158
_cell_length_b 19.163898
_cell_length_c 9.504168
_cell_angle_alpha 90.000000
_cell_angle_beta 90.000000
_cell_angle_gamma 90.000000
_cell_volume 2949.189562
_symmetry_space_group_name_H-M "P N N A"
_symmetry_group_IT_number 52
_symmetry_cell_setting 'orthorhombic'
loop_
_space_group_symop_operation_xyz
x,y,z
1/2-x,-y,z
x,1/2-y,1/2-z
1/2-x,1/2+y,1/2-z
-x,-y,-z
1/2+x,y,-z
-x,1/2+y,1/2+z
1/2+x,1/2-y,1/2+z
loop_
_atom_site_type_symbol
_atom_site_label
_atom_site_fract_x
_atom_site_fract_y
_atom_site_fract_z
Si Si1 0.113931 0.830535 0.762038
Si Si2 0.409298 0.060080 0.554053
Si Si3 0.510117 0.957404 0.738193
Si Si4 0.165895 0.038182 0.135549
Si Si5 0.922098 0.819109 0.830838
Si Si6 0.926160 0.684651 0.341184
Si Si7 0.728925 0.103951 0.155289
Si Si8 0.750000 0.500000 0.091519
O O1 0.135586 0.750000 0.750000
O O2 0.122351 0.866824 0.610720
O O3 0.176902 0.870438 0.866671
O O4 0.016657 0.836334 0.792008
O O5 0.465579 0.067304 0.419363
O O6 0.330963 0.015585 0.504721
O O7 0.447694 0.019656 0.690087
O O8 0.471204 0.889506 0.811159
O O9 0.586383 0.989084 0.829050
O O10 0.136943 0.114089 0.194240
O O11 0.250000 0.000000 0.185798
O O12 0.188753 0.059266 0.972410
O O13 0.894354 0.750000 0.750000
O O14 0.929326 0.800499 0.994376
O O15 0.956317 0.750000 0.250000
O O16 0.829849 0.669115 0.315243
O O17 0.729483 0.060874 0.298724
#
# Coordination Sequence:
#
# PCOD9408618 Si02
#       8
#     8   8   8   8   8   8   8   4
#     4  10  21  39  67  95 129 171 220 264 317 400
#     4  10  22  39  63  94 131 168 211 267 330 400
#     4  11  24  40  61  96 131 168 215 275 334 393
#     4  11  24  42  65  95 132 168 220 279 335 393
#     4  10  24  43  68  95 130 184 220 270 331 406
#     4  11  25  41  66  95 133 173 218 275 335 391
#     4  10  21  39  64  94 125 168 218 271 318 392
#     4  10  18  38  60  94 122 164 212 264 320 388
#
# _framework density 20.344571999999999
#
# number of rings (size 3 to 8) (size 9 to 14) (size 15 to 20)
#    0.000    1.600    3.333    0.400    6.533    2.133 
#    0.000    3.333    0.000    0.000    0.000    0.000 
#    0.000    0.000    0.000    0.000    0.000    0.000 
#
# Total GULP energy -334232.537790 kJ/mol
# GULP energy per Si atom -5570.542296 kJ/mol
# Density = 2.029827 g / cm^3
# Si number density = 20.344572 Si / 1000 Ang^3
#
#
#
# Elastic Constant Matrix: (Units=GPa)
#
#
# Indices 1 2 3 4 5 6 
#
# 1 89.4078 40.3982 9.3453 0.0000 0.0000 0.0000
# 2 40.3982 134.6280 52.8663 0.0000 0.0000 0.0000
# 3 9.3453 52.8663 61.5016 0.0000 0.0000 0.0000
# 4 0.0000 0.0000 0.0000 27.5794 0.0000 0.0000
# 5 0.0000 0.0000 0.0000 0.0000 25.2119 0.0000
# 6 0.0000 0.0000 0.0000 0.0000 0.0000 29.4672
#
#
#
# Elastic Compliance Matrix: (Units=1/GPa)
#
#
# Indices 1 2 3 4 5 6 
#
# 1 0.013116 -0.004760 0.002098 0.000000 0.000000 0.000000
# 2 -0.004760 0.012940 -0.010400 0.000000 0.000000 0.000000
# 3 0.002098 -0.010400 0.024880 0.000000 0.000000 0.000000
# 4 0.000000 0.000000 0.000000 0.036259 0.000000 0.000000
# 5 0.000000 0.000000 0.000000 0.000000 0.039664 0.000000
# 6 0.000000 0.000000 0.000000 0.000000 0.000000 0.033936
#
#
# Mechanical properties :
#
#
# Convention : Reuss Voigt Hill
#
# Bulk Modulus (GPa) = 40.29958 54.52857 47.41407
# Shear Modulus (GPa) = 25.61617 28.64686 27.13152
#
# Velocity S-wave (km/s) = 3.55225 3.75652 3.65581
# Velocity P-wave (km/s) = 6.05609 6.75840 6.41686
#
# Compressibility (1/GPa) = 0.02481416
#
# Stress axis : x y z
#
# Youngs Moduli (GPa) = 76.24247 77.27966 40.19215
#
# Poissons Ratio (x) = 0.36784 -0.08434
# Poissons Ratio (y) = 0.36290 0.41799
# Poissons Ratio (z) = -0.15999 0.80370
#
# Static dielectric constant tensor:
#      x y z
#    x 1.610950 0.000000 0.000000 
#    y 0.000000 1.756530 0.000000 
#    z 0.000000 0.000000 1.740320 
# 
# From -- ./inp_files/12436.got.cif
#   From: 2010.05.17/outbox.cif.g08.bks.cpg/sg52_7_cif.got.tgz:12436.got - 2010.06.03 12:15:38.
