data_PCOD9408000
_publ_section_title
;
Structure prediction by ZEFSAII (Michael W. Deem and Ramdas Pophale) SiO2 
 PCOD9408000
Probable space group: P N N A
;
_chemical_formula_sum "Si O2"
_cell_formula_units_Z 48
_cell_length_a 19.908704
_cell_length_b 13.595292
_cell_length_c 7.097031
_cell_angle_alpha 90.000000
_cell_angle_beta 90.000000
_cell_angle_gamma 90.000000
_cell_volume 1920.915371
_symmetry_space_group_name_H-M "P N N A"
_symmetry_group_IT_number 52
_symmetry_cell_setting 'orthorhombic'
loop_
_space_group_symop_operation_xyz
x,y,z
1/2-x,-y,z
x,1/2-y,1/2-z
1/2-x,1/2+y,1/2-z
-x,-y,-z
1/2+x,y,-z
-x,1/2+y,1/2+z
1/2+x,1/2-y,1/2+z
loop_
_atom_site_type_symbol
_atom_site_label
_atom_site_fract_x
_atom_site_fract_y
_atom_site_fract_z
Si Si1 0.993735 0.838846 0.445652
Si Si2 0.618265 0.306830 0.548716
Si Si3 0.870367 0.244277 0.977887
Si Si4 0.299361 0.426731 0.070802
Si Si5 0.757633 0.389304 0.510450
Si Si6 0.436837 0.510860 0.241039
O O1 0.929737 0.767870 0.436514
O O2 0.978235 0.916922 0.607512
O O3 0.053844 0.769425 0.519323
O O4 0.021419 0.906464 0.269636
O O5 0.625872 0.250000 0.750000
O O6 0.692087 0.325846 0.463213
O O7 0.585043 0.415982 0.587933
O O8 0.867112 0.250000 0.750000
O O9 0.823043 0.333074 0.043018
O O10 0.832239 0.147642 0.037836
O O11 0.250000 0.500000 0.967921
O O12 0.259449 0.392632 0.258642
O O13 0.366822 0.480261 0.142007
O O14 0.750000 0.500000 0.448645
#
# Coordination Sequence:
#
# PCOD9408000 Si02
#       6
#     8   8   8   8   8   8
#     4   9  19  29  44  71 105 137 168 202 264 331
#     4  10  17  28  49  74 102 130 165 213 274 324
#     4   9  18  29  44  66 104 135 162 208 265 313
#     4   9  14  24  45  72  96 124 148 202 272 316
#     4  10  17  27  46  71  99 132 162 210 271 321
#     4   9  16  29  46  70 107 129 163 214 258 326
#
# _framework density 24.988085000000002
#
# number of rings (size 3 to 8) (size 9 to 14) (size 15 to 20)
#    0.000    2.667    3.333    1.500    2.333    0.000 
#    0.000    0.833    0.000    0.000    0.000    3.500 
#    0.000    0.000    0.000    0.000    0.000    0.000 
#
# Total GULP energy -267769.696548 kJ/mol
# GULP energy per Si atom -5578.535345 kJ/mol
# Density = 2.493121 g / cm^3
# Si number density = 24.988085 Si / 1000 Ang^3
#
#
#
# Elastic Constant Matrix: (Units=GPa)
#
#
# Indices 1 2 3 4 5 6 
#
# 1 157.6598 74.7876 5.0173 0.0000 0.0000 0.0000
# 2 74.7876 135.9486 5.6484 0.0000 0.0000 0.0000
# 3 5.0173 5.6484 64.9345 0.0000 0.0000 0.0000
# 4 0.0000 0.0000 0.0000 1.3400 0.0000 0.0000
# 5 0.0000 0.0000 0.0000 0.0000 7.7452 0.0000
# 6 0.0000 0.0000 0.0000 0.0000 0.0000 84.0286
#
#
#
# Elastic Compliance Matrix: (Units=1/GPa)
#
#
# Indices 1 2 3 4 5 6 
#
# 1 0.008587 -0.004713 -0.000253 0.000000 0.000000 0.000000
# 2 -0.004713 0.009969 -0.000503 0.000000 0.000000 0.000000
# 3 -0.000253 -0.000503 0.015463 0.000000 0.000000 0.000000
# 4 0.000000 0.000000 0.000000 0.746282 0.000000 0.000000
# 5 0.000000 0.000000 0.000000 0.000000 0.129113 0.000000
# 6 0.000000 0.000000 0.000000 0.000000 0.000000 0.011901
#
#
# Mechanical properties :
#
#
# Convention : Reuss Voigt Hill
#
# Bulk Modulus (GPa) = 43.32715 58.82771 51.07743
# Shear Modulus (GPa) = 5.31945 36.82873 21.07409
#
# Velocity S-wave (km/s) = 1.46062 3.84324 2.90723
# Velocity P-wave (km/s) = 4.49681 6.57932 5.63510
#
# Compressibility (1/GPa) = 0.02308021
#
# Stress axis : x y z
#
# Youngs Moduli (GPa) = 116.46153 100.30741 64.66850
#
# Poissons Ratio (x) = 0.47275 0.01639
# Poissons Ratio (y) = 0.54889 0.03253
# Poissons Ratio (z) = 0.02952 0.05046
#
# Static dielectric constant tensor:
#      x y z
#    x 1.955910 0.000000 0.000000 
#    y 0.000000 1.982470 0.000000 
#    z 0.000000 0.000000 2.018480 
# 
# From -- ./inp_files/20711.got.cif
#   From: 2010.05.17/outbox.cif.g08.bks.cpg/sg52_11_cif.got.tgz:20711.got - 2010.06.03 12:15:38.
