data_PCOD9408502
_publ_section_title
;
Structure prediction by ZEFSAII (Michael W. Deem and Ramdas Pophale) SiO2 
 PCOD9408502
Probable space group: P N N A
;
_chemical_formula_sum "Si O2"
_cell_formula_units_Z 64
_cell_length_a 15.878984
_cell_length_b 9.238884
_cell_length_c 23.126185
_cell_angle_alpha 90.000000
_cell_angle_beta 90.000000
_cell_angle_gamma 90.000000
_cell_volume 3392.705954
_symmetry_space_group_name_H-M "P N N A"
_symmetry_group_IT_number 52
_symmetry_cell_setting 'orthorhombic'
loop_
_space_group_symop_operation_xyz
x,y,z
1/2-x,-y,z
x,1/2-y,1/2-z
1/2-x,1/2+y,1/2-z
-x,-y,-z
1/2+x,y,-z
-x,1/2+y,1/2+z
1/2+x,1/2-y,1/2+z
loop_
_atom_site_type_symbol
_atom_site_label
_atom_site_fract_x
_atom_site_fract_y
_atom_site_fract_z
Si Si1 0.924537 0.716688 0.010188
Si Si2 0.756344 0.669556 0.331908
Si Si3 0.405290 0.139370 0.705427
Si Si4 0.562254 0.924143 0.426527
Si Si5 0.331050 0.552187 0.449082
Si Si6 0.832378 0.333728 0.444871
Si Si7 0.068221 0.132997 0.786404
Si Si8 0.487507 0.526679 0.592607
O O1 0.918083 0.589516 0.057316
O O2 0.970047 0.850361 0.043807
O O3 0.842577 0.791846 0.980940
O O4 0.981312 0.640938 0.960271
O O5 0.750000 0.500000 0.314173
O O6 0.683542 0.777668 0.309528
O O7 0.745641 0.664250 0.401135
O O8 0.848135 0.712080 0.311322
O O9 0.450529 0.250000 0.750000
O O10 0.442515 0.103361 0.642328
O O11 0.403446 0.995455 0.743902
O O12 0.639104 0.829872 0.452285
O O13 0.250000 0.500000 0.412398
O O14 0.325363 0.427144 0.498123
O O15 0.420703 0.536458 0.418335
O O16 0.911800 0.410716 0.412603
O O17 0.017842 0.250000 0.750000
O O18 0.019705 0.082205 0.842600
#
# Coordination Sequence:
#
# PCOD9408502 Si02
#       8
#     8   8   8   8   8   8   8   8
#     4  10  20  36  61  85 114 146 185 250 299 348
#     4  11  20  33  54  79 121 158 188 233 270 334
#     4  11  22  36  54  80 119 160 189 234 273 344
#     4  10  19  36  59  86 116 147 193 233 293 349
#     4  11  22  36  59  85 111 145 200 249 297 346
#     4  10  18  35  57  83 114 156 188 233 282 346
#     4  12  25  36  55  87 119 160 197 234 285 355
#     4  11  20  38  58  82 111 155 200 238 290 346
#
# _framework density 18.863999
#
# number of rings (size 3 to 8) (size 9 to 14) (size 15 to 20)
#    0.000    1.250    5.000    3.000    1.750    0.000 
#    0.000    0.625    0.000    0.000    3.250    0.000 
#    0.000    0.000    0.000    0.000    0.000    0.000 
#
# Total GULP energy -356765.634750 kJ/mol
# GULP energy per Si atom -5574.463043 kJ/mol
# Density = 1.882106 g / cm^3
# Si number density = 18.863999 Si / 1000 Ang^3
#
#
#
# Elastic Constant Matrix: (Units=GPa)
#
#
# Indices 1 2 3 4 5 6 
#
# 1 47.9578 26.4251 27.7114 0.0000 0.0000 0.0000
# 2 26.4251 94.8960 19.8289 0.0000 0.0000 0.0000
# 3 27.7114 19.8289 105.9440 0.0000 0.0000 0.0000
# 4 0.0000 0.0000 0.0000 29.3095 0.0000 0.0000
# 5 0.0000 0.0000 0.0000 0.0000 11.0806 0.0000
# 6 0.0000 0.0000 0.0000 0.0000 0.0000 19.5427
#
#
#
# Elastic Compliance Matrix: (Units=1/GPa)
#
#
# Indices 1 2 3 4 5 6 
#
# 1 0.027962 -0.006513 -0.006095 0.000000 0.000000 0.000000
# 2 -0.006513 0.012484 -0.000633 0.000000 0.000000 0.000000
# 3 -0.006095 -0.000633 0.011152 0.000000 0.000000 0.000000
# 4 0.000000 0.000000 0.000000 0.034119 0.000000 0.000000
# 5 0.000000 0.000000 0.000000 0.000000 0.090248 0.000000
# 6 0.000000 0.000000 0.000000 0.000000 0.000000 0.051170
#
#
# Mechanical properties :
#
#
# Convention : Reuss Voigt Hill
#
# Bulk Modulus (GPa) = 39.81541 44.08095 41.94818
# Shear Modulus (GPa) = 19.08487 23.64203 21.36345
#
# Velocity S-wave (km/s) = 3.18419 3.54402 3.36891
# Velocity P-wave (km/s) = 5.88822 6.33761 6.11704
#
# Compressibility (1/GPa) = 0.02511590
#
# Stress axis : x y z
#
# Youngs Moduli (GPa) = 35.76260 80.10435 89.67270
#
# Poissons Ratio (x) = 0.52171 0.54655
# Poissons Ratio (y) = 0.23292 0.05676
# Poissons Ratio (z) = 0.21797 0.05070
#
# Static dielectric constant tensor:
#      x y z
#    x 1.723290 0.000000 0.000000 
#    y 0.000000 1.719680 0.000000 
#    z 0.000000 0.000000 1.697660 
# 
# From -- ./inp_files/40911.got.cif
#   From: 2010.05.17/outbox.cif.g08.bks.cpg/sg52_21_cif.got.tgz:40911.got - 2010.06.03 12:15:38.
