data_PCOD9408600
_publ_section_title
;
Structure prediction by ZEFSAII (Michael W. Deem and Ramdas Pophale) SiO2 
 PCOD9408600
Probable space group: P N N A
;
_chemical_formula_sum "Si O2"
_cell_formula_units_Z 48
_cell_length_a 12.103594
_cell_length_b 13.866455
_cell_length_c 12.226572
_cell_angle_alpha 90.000000
_cell_angle_beta 90.000000
_cell_angle_gamma 90.000000
_cell_volume 2052.033770
_symmetry_space_group_name_H-M "P N N A"
_symmetry_group_IT_number 52
_symmetry_cell_setting 'orthorhombic'
loop_
_space_group_symop_operation_xyz
x,y,z
1/2-x,-y,z
x,1/2-y,1/2-z
1/2-x,1/2+y,1/2-z
-x,-y,-z
1/2+x,y,-z
-x,1/2+y,1/2+z
1/2+x,1/2-y,1/2+z
loop_
_atom_site_type_symbol
_atom_site_label
_atom_site_fract_x
_atom_site_fract_y
_atom_site_fract_z
Si Si1 0.163392 0.728290 0.367705
Si Si2 0.726307 0.108637 0.530672
Si Si3 0.373402 0.031082 0.039360
Si Si4 0.331167 0.857280 0.707436
Si Si5 0.373094 0.882609 0.228888
Si Si6 0.597670 0.554241 0.294508
O O1 0.112861 0.750000 0.250000
O O2 0.170335 0.824284 0.438307
O O3 0.110009 0.642950 0.433880
O O4 0.288657 0.687591 0.336920
O O5 0.673283 0.154230 0.423656
O O6 0.664571 0.104507 0.646983
O O7 0.750000 0.000000 0.497900
O O8 0.250000 0.000000 0.000236
O O9 0.369981 0.979685 0.157543
O O10 0.429373 0.020941 0.920319
O O11 0.356646 0.750000 0.750000
O O12 0.214373 0.894334 0.763239
O O13 0.406717 0.951611 0.731261
O O14 0.503760 0.866863 0.231826
#
# Coordination Sequence:
#
# PCOD9408600 Si02
#       6
#     8   8   8   8   8   8
#     4   9  19  36  62  92 122 159 205 244 310 368
#     4  11  21  41  62  91 126 165 207 252 309 374
#     4  10  18  37  64  91 121 163 204 254 305 375
#     4  11  24  42  64  84 123 172 212 251 310 376
#     4  10  22  36  67  94 126 156 201 267 313 363
#     4  11  22  42  62  93 123 162 214 252 315 375
#
# _framework density 23.391428000000001
#
# number of rings (size 3 to 8) (size 9 to 14) (size 15 to 20)
#    0.000    1.667    3.333    4.000    2.333    2.667 
#    0.000    2.500    0.000    0.000    0.000    0.000 
#    0.000    0.000    0.000    0.000    0.000    0.000 
#
# Total GULP energy -267223.173240 kJ/mol
# GULP energy per Si atom -5567.149442 kJ/mol
# Density = 2.333819 g / cm^3
# Si number density = 23.391428 Si / 1000 Ang^3
#
#
#
# Elastic Constant Matrix: (Units=GPa)
#
#
# Indices 1 2 3 4 5 6 
#
# 1 30.4626 -9.1047 2.3152 0.0000 0.0000 0.0000
# 2 -9.1047 125.2545 23.0828 0.0000 0.0000 0.0000
# 3 2.3152 23.0828 155.2598 0.0000 0.0000 0.0000
# 4 0.0000 0.0000 0.0000 27.0135 0.0000 0.0000
# 5 0.0000 0.0000 0.0000 0.0000 0.7892 0.0000
# 6 0.0000 0.0000 0.0000 0.0000 0.0000 3.7455
#
#
#
# Elastic Compliance Matrix: (Units=1/GPa)
#
#
# Indices 1 2 3 4 5 6 
#
# 1 0.033675 0.002612 -0.000890 0.000000 0.000000 0.000000
# 2 0.002612 0.008411 -0.001289 0.000000 0.000000 0.000000
# 3 -0.000890 -0.001289 0.006646 0.000000 0.000000 0.000000
# 4 0.000000 0.000000 0.000000 0.037019 0.000000 0.000000
# 5 0.000000 0.000000 0.000000 0.000000 1.267177 0.000000
# 6 0.000000 0.000000 0.000000 0.000000 0.000000 0.266986
#
#
# Mechanical properties :
#
#
# Convention : Reuss Voigt Hill
#
# Bulk Modulus (GPa) = 20.16271 38.17372 29.16821
# Shear Modulus (GPa) = 3.05702 25.95521 14.50611
#
# Velocity S-wave (km/s) = 1.14444 3.33468 2.49298
# Velocity P-wave (km/s) = 3.22253 5.58407 4.55887
#
# Compressibility (1/GPa) = 0.04959651
#
# Stress axis : x y z
#
# Youngs Moduli (GPa) = 29.69523 118.88856 150.47088
#
# Poissons Ratio (x) = -0.31053 0.13399
# Poissons Ratio (y) = -0.07756 0.19403
# Poissons Ratio (z) = 0.02644 0.15330
#
# Static dielectric constant tensor:
#      x y z
#    x 2.190030 0.000000 0.000000 
#    y 0.000000 1.901650 0.000000 
#    z 0.000000 0.000000 1.811020 
# 
# From -- ./inp_files/19530.got.cif
#   From: 2010.05.17/outbox.cif.g08.bks.cpg/sg52_10_cif.got.tgz:19530.got - 2010.06.03 12:15:38.
