data_PCOD9408443
_publ_section_title
;
Structure prediction by ZEFSAII (Michael W. Deem and Ramdas Pophale) SiO2 
 PCOD9408443
Probable space group: P N N A
;
_chemical_formula_sum "Si O2"
_cell_formula_units_Z 60
_cell_length_a 7.671108
_cell_length_b 29.888469
_cell_length_c 11.370047
_cell_angle_alpha 90.000000
_cell_angle_beta 90.000000
_cell_angle_gamma 90.000000
_cell_volume 2606.897925
_symmetry_space_group_name_H-M "P N N A"
_symmetry_group_IT_number 52
_symmetry_cell_setting 'orthorhombic'
loop_
_space_group_symop_operation_xyz
x,y,z
1/2-x,-y,z
x,1/2-y,1/2-z
1/2-x,1/2+y,1/2-z
-x,-y,-z
1/2+x,y,-z
-x,1/2+y,1/2+z
1/2+x,1/2-y,1/2+z
loop_
_atom_site_type_symbol
_atom_site_label
_atom_site_fract_x
_atom_site_fract_y
_atom_site_fract_z
Si Si1 0.262778 0.151589 0.684921
Si Si2 0.936081 0.809936 0.896157
Si Si3 0.805747 0.750000 0.250000
Si Si4 0.931058 0.615401 0.400984
Si Si5 0.805446 0.890393 0.763156
Si Si6 0.615232 0.750615 0.936759
Si Si7 0.609223 0.852849 0.552656
Si Si8 0.609535 0.035237 0.922496
O O1 0.211148 0.124541 0.801078
O O2 0.391610 0.134418 0.584063
O O3 0.288550 0.203025 0.724477
O O4 0.079621 0.149556 0.611627
O O5 0.921355 0.846770 0.794197
O O6 0.762424 0.780980 0.879783
O O7 0.074711 0.772507 0.936366
O O8 0.935486 0.842555 0.010742
O O9 0.941000 0.754867 0.140322
O O10 0.867733 0.573371 0.477425
O O11 0.124706 0.610083 0.343797
O O12 0.727600 0.884604 0.633501
O O13 0.915709 0.933105 0.807856
O O14 0.671698 0.699138 0.943268
O O15 0.750000 0.000000 0.877263
O O16 0.500000 0.000000 0.000000
#
# Coordination Sequence:
#
# PCOD9408443 Si02
#       8
#     8   8   4   8   8   8   8   8
#     4  10  20  39  56  79 114 163 208 239 294 346
#     4  11  19  33  54  84 111 154 206 243 287 339
#     4  10  18  34  56  70 112 166 200 240 290 336
#     4  10  20  37  62  85 119 160 187 245 315 363
#     4  10  21  39  60  85 122 157 192 240 316 367
#     4  11  19  31  53  77 112 158 206 242 281 328
#     4  10  22  38  55  80 117 169 203 245 286 348
#     4  11  22  40  69  99 116 140 189 250 319 386
#
# _framework density 23.01586
#
# number of rings (size 3 to 8) (size 9 to 14) (size 15 to 20)
#    0.000    1.600    4.000    3.200    0.000    0.000 
#    4.800    0.000    0.000    1.600    0.000    0.000 
#    0.000    0.000    0.000    0.000    0.000    0.000 
#
# Total GULP energy -334956.596020 kJ/mol
# GULP energy per Si atom -5582.609934 kJ/mol
# Density = 2.296347 g / cm^3
# Si number density = 23.015860 Si / 1000 Ang^3
#
#
#
# Elastic Constant Matrix: (Units=GPa)
#
#
# Indices 1 2 3 4 5 6 
#
# 1 51.1271 22.8089 6.5726 0.0000 0.0000 0.0000
# 2 22.8089 124.1372 26.8468 0.0000 0.0000 0.0000
# 3 6.5726 26.8468 134.9638 0.0000 0.0000 0.0000
# 4 0.0000 0.0000 0.0000 31.1114 0.0000 0.0000
# 5 0.0000 0.0000 0.0000 0.0000 30.7811 0.0000
# 6 0.0000 0.0000 0.0000 0.0000 0.0000 39.0470
#
#
#
# Elastic Compliance Matrix: (Units=1/GPa)
#
#
# Indices 1 2 3 4 5 6 
#
# 1 0.021315 -0.003858 -0.000271 0.000000 0.000000 0.000000
# 2 -0.003858 0.009116 -0.001625 0.000000 0.000000 0.000000
# 3 -0.000271 -0.001625 0.007746 0.000000 0.000000 0.000000
# 4 0.000000 0.000000 0.000000 0.032143 0.000000 0.000000
# 5 0.000000 0.000000 0.000000 0.000000 0.032487 0.000000
# 6 0.000000 0.000000 0.000000 0.000000 0.000000 0.025610
#
#
# Mechanical properties :
#
#
# Convention : Reuss Voigt Hill
#
# Bulk Modulus (GPa) = 37.49679 46.96497 42.23088
# Shear Modulus (GPa) = 33.59885 37.12122 35.36004
#
# Velocity S-wave (km/s) = 3.82490 4.02039 3.92386
# Velocity P-wave (km/s) = 5.98611 6.48083 6.23838
#
# Compressibility (1/GPa) = 0.02666895
#
# Stress axis : x y z
#
# Youngs Moduli (GPa) = 46.91540 109.69750 129.10046
#
# Poissons Ratio (x) = 0.42320 0.03494
# Poissons Ratio (y) = 0.18099 0.20985
# Poissons Ratio (z) = 0.01270 0.17831
#
# Static dielectric constant tensor:
#      x y z
#    x 2.036160 0.000000 0.000000 
#    y 0.000000 1.818090 0.000000 
#    z 0.000000 0.000000 1.931240 
# 
# From -- ./inp_files/17153.got.cif
#   From: 2010.05.17/outbox.cif.g08.bks.cpg/sg52_9_cif.got.tgz:17153.got - 2010.06.03 12:15:38.
