data_PCOD9408938
_publ_section_title
;
Structure prediction by ZEFSAII (Michael W. Deem and Ramdas Pophale) SiO2 
 PCOD9408938
Probable space group: P N N A
;
_chemical_formula_sum "Si O2"
_cell_formula_units_Z 48
_cell_length_a 22.996949
_cell_length_b 8.833577
_cell_length_c 13.596055
_cell_angle_alpha 90.000000
_cell_angle_beta 90.000000
_cell_angle_gamma 90.000000
_cell_volume 2761.974940
_symmetry_space_group_name_H-M "P N N A"
_symmetry_group_IT_number 52
_symmetry_cell_setting 'orthorhombic'
loop_
_space_group_symop_operation_xyz
x,y,z
1/2-x,-y,z
x,1/2-y,1/2-z
1/2-x,1/2+y,1/2-z
-x,-y,-z
1/2+x,y,-z
-x,1/2+y,1/2+z
1/2+x,1/2-y,1/2+z
loop_
_atom_site_type_symbol
_atom_site_label
_atom_site_fract_x
_atom_site_fract_y
_atom_site_fract_z
Si Si1 0.768474 0.176018 0.851426
Si Si2 0.466229 0.651404 0.028702
Si Si3 0.359478 0.748557 0.368564
Si Si4 0.058372 0.659806 0.654556
Si Si5 0.500174 0.840784 0.849063
Si Si6 0.119673 0.586523 0.457336
O O1 0.789038 0.250000 0.750000
O O2 0.709898 0.264706 0.882241
O O3 0.821464 0.170658 0.926537
O O4 0.750000 0.000000 0.834394
O O5 0.403512 0.634566 0.080077
O O6 0.508080 0.738893 0.104507
O O7 0.500000 0.500000 0.000000
O O8 0.461851 0.754404 0.930961
O O9 0.369168 0.750000 0.250000
O O10 0.374003 0.587042 0.419963
O O11 0.080019 0.750000 0.750000
O O12 0.105418 0.616990 0.571258
O O13 0.026878 0.502142 0.677459
O O14 0.505190 0.750000 0.750000
O O15 0.562985 0.856569 0.899292
#
# Coordination Sequence:
#
# PCOD9408938 Si02
#       6
#     8   8   8   8   8   8
#     4   9  19  35  56  83 110 147 183 229 295 345
#     4  11  21  34  53  83 112 149 187 227 295 346
#     4  10  19  34  57  82 116 146 184 237 293 350
#     4  11  21  37  54  77 113 147 192 240 282 347
#     4  11  21  33  54  79 113 144 186 240 287 350
#     4  10  19  36  55  81 110 148 189 233 288 350
#
# _framework density 17.378869000000002
#
# number of rings (size 3 to 8) (size 9 to 14) (size 15 to 20)
#    0.000    1.667    3.333    3.000    2.333    0.000 
#    9.000    0.000    0.000    1.000    4.333    0.000 
#    0.000    0.000    0.000    0.000    0.000    0.000 
#
# Total GULP energy -267718.887892 kJ/mol
# GULP energy per Si atom -5577.476831 kJ/mol
# Density = 1.733931 g / cm^3
# Si number density = 17.378869 Si / 1000 Ang^3
#
#
#
# Elastic Constant Matrix: (Units=GPa)
#
#
# Indices 1 2 3 4 5 6 
#
# 1 86.5390 28.4928 46.1955 0.0000 0.0000 0.0000
# 2 28.4928 76.2966 41.9661 0.0000 0.0000 0.0000
# 3 46.1955 41.9661 124.8721 0.0000 0.0000 0.0000
# 4 0.0000 0.0000 0.0000 28.4158 0.0000 0.0000
# 5 0.0000 0.0000 0.0000 0.0000 10.8252 0.0000
# 6 0.0000 0.0000 0.0000 0.0000 0.0000 17.8146
#
#
#
# Elastic Compliance Matrix: (Units=1/GPa)
#
#
# Indices 1 2 3 4 5 6 
#
# 1 0.014982 -0.003124 -0.004493 0.000000 0.000000 0.000000
# 2 -0.003124 0.016730 -0.004467 0.000000 0.000000 0.000000
# 3 -0.004493 -0.004467 0.011171 0.000000 0.000000 0.000000
# 4 0.000000 0.000000 0.000000 0.035192 0.000000 0.000000
# 5 0.000000 0.000000 0.000000 0.000000 0.092377 0.000000
# 6 0.000000 0.000000 0.000000 0.000000 0.000000 0.056134
#
#
# Mechanical properties :
#
#
# Convention : Reuss Voigt Hill
#
# Bulk Modulus (GPa) = 53.42758 57.89072 55.65915
# Shear Modulus (GPa) = 19.45579 22.81467 21.13523
#
# Velocity S-wave (km/s) = 3.34954 3.62716 3.49111
# Velocity P-wave (km/s) = 6.76526 7.13618 6.95319
#
# Compressibility (1/GPa) = 0.01871692
#
# Stress axis : x y z
#
# Youngs Moduli (GPa) = 66.74540 59.77162 89.51383
#
# Poissons Ratio (x) = 0.18672 0.40216
# Poissons Ratio (y) = 0.20851 0.39985
# Poissons Ratio (z) = 0.29987 0.26700
#
# Static dielectric constant tensor:
#      x y z
#    x 1.544490 0.000000 0.000000 
#    y 0.000000 1.613210 0.000000 
#    z 0.000000 0.000000 1.594780 
# 
# From -- ./inp_files/22280.got.cif
#   From: 2010.05.17/outbox.cif.g08.bks.cpg/sg52_12_cif.got.tgz:22280.got - 2010.06.03 12:15:38.
