data_PCOD9408275
_publ_section_title
;
Structure prediction by ZEFSAII (Michael W. Deem and Ramdas Pophale) SiO2 
 PCOD9408275
Probable space group: P N N A
;
_chemical_formula_sum "Si O2"
_cell_formula_units_Z 60
_cell_length_a 8.586817
_cell_length_b 14.240019
_cell_length_c 24.226000
_cell_angle_alpha 90.000000
_cell_angle_beta 90.000000
_cell_angle_gamma 90.000000
_cell_volume 2962.268968
_symmetry_space_group_name_H-M "P N N A"
_symmetry_group_IT_number 52
_symmetry_cell_setting 'orthorhombic'
loop_
_space_group_symop_operation_xyz
x,y,z
1/2-x,-y,z
x,1/2-y,1/2-z
1/2-x,1/2+y,1/2-z
-x,-y,-z
1/2+x,y,-z
-x,1/2+y,1/2+z
1/2+x,1/2-y,1/2+z
loop_
_atom_site_type_symbol
_atom_site_label
_atom_site_fract_x
_atom_site_fract_y
_atom_site_fract_z
Si Si1 0.974030 0.319087 0.417053
Si Si2 0.863609 0.207715 0.311571
Si Si3 0.938598 0.486211 0.224591
Si Si4 0.990088 0.306817 0.806701
Si Si5 0.340315 0.673755 0.514105
Si Si6 0.564614 0.995991 0.152650
Si Si7 0.750000 0.500000 0.540918
Si Si8 0.580668 0.669966 0.606512
O O1 0.936854 0.266044 0.360997
O O2 0.826268 0.313259 0.457993
O O3 0.992949 0.425732 0.394782
O O4 0.116437 0.282054 0.454657
O O5 0.884275 0.250000 0.250000
O O6 0.945850 0.106307 0.311962
O O7 0.675924 0.204327 0.320446
O O8 0.750000 0.500000 0.229115
O O9 0.020792 0.580961 0.203722
O O10 0.989703 0.463350 0.287118
O O11 0.961216 0.250000 0.750000
O O12 0.884067 0.259246 0.854564
O O13 0.354956 0.562188 0.501337
O O14 0.467411 0.704283 0.558262
O O15 0.750000 0.000000 0.148627
O O16 0.515473 0.103354 0.147888
O O17 0.680474 0.585697 0.577546
#
# Coordination Sequence:
#
# PCOD9408275 Si02
#       8
#     8   8   8   8   8   8   4   8
#     4  12  22  35  55  86 122 159 192 236 303 365
#     4  10  18  32  55  87 120 148 188 250 304 348
#     4   9  18  29  51  89 117 140 186 242 304 346
#     4  10  18  31  53  85 116 149 187 243 302 350
#     4  12  23  35  53  82 122 154 192 236 293 365
#     4  11  17  28  52  83 117 144 175 230 290 353
#     4  12  24  36  50  82 114 156 196 232 294 360
#     4  12  21  33  52  78 118 153 186 234 289 363
#
# _framework density 20.254743999999999
#
# number of rings (size 3 to 8) (size 9 to 14) (size 15 to 20)
#    0.000    1.067    8.000    1.200    0.000    0.000 
#    0.000    0.000    0.000    3.200    3.467    0.000 
#    0.000    0.000    0.000    0.000    0.000    0.000 
#
# Total GULP energy -334173.335397 kJ/mol
# GULP energy per Si atom -5569.555590 kJ/mol
# Density = 2.020864 g / cm^3
# Si number density = 20.254744 Si / 1000 Ang^3
#
#
#
# Elastic Constant Matrix: (Units=GPa)
#
#
# Indices 1 2 3 4 5 6 
#
# 1 22.3668 14.0036 20.6317 0.0000 0.0000 0.0000
# 2 14.0036 90.8912 43.2450 0.0000 0.0000 0.0000
# 3 20.6317 43.2450 126.5061 0.0000 0.0000 0.0000
# 4 0.0000 0.0000 0.0000 33.4604 0.0000 0.0000
# 5 0.0000 0.0000 0.0000 0.0000 18.6372 0.0000
# 6 0.0000 0.0000 0.0000 0.0000 0.0000 12.9609
#
#
#
# Elastic Compliance Matrix: (Units=1/GPa)
#
#
# Indices 1 2 3 4 5 6 
#
# 1 0.054445 -0.004972 -0.007180 0.000000 0.000000 0.000000
# 2 -0.004972 0.013593 -0.003836 0.000000 0.000000 0.000000
# 3 -0.007180 -0.003836 0.010387 0.000000 0.000000 0.000000
# 4 0.000000 0.000000 0.000000 0.029886 0.000000 0.000000
# 5 0.000000 0.000000 0.000000 0.000000 0.053656 0.000000
# 6 0.000000 0.000000 0.000000 0.000000 0.000000 0.077155
#
#
# Mechanical properties :
#
#
# Convention : Reuss Voigt Hill
#
# Bulk Modulus (GPa) = 21.52872 43.94721 32.73797
# Shear Modulus (GPa) = 17.44705 23.80394 20.62549
#
# Velocity S-wave (km/s) = 2.93811 3.43188 3.19455
# Velocity P-wave (km/s) = 4.70766 6.11948 5.45940
#
# Compressibility (1/GPa) = 0.04644959
#
# Stress axis : x y z
#
# Youngs Moduli (GPa) = 18.36717 73.56566 96.27504
#
# Poissons Ratio (x) = 0.36580 0.69122
# Poissons Ratio (y) = 0.09133 0.36929
# Poissons Ratio (z) = 0.13187 0.28218
#
# Static dielectric constant tensor:
#      x y z
#    x 1.852930 0.000000 0.000000 
#    y 0.000000 1.729680 0.000000 
#    z 0.000000 0.000000 1.759520 
# 
# From -- ./inp_files/36952.got.cif
#   From: 2010.05.17/outbox.cif.g08.bks.cpg/sg52_19_cif.got.tgz:36952.got - 2010.06.03 12:15:38.
