data_PCOD9408260
_publ_section_title
;
Structure prediction by ZEFSAII (Michael W. Deem and Ramdas Pophale) SiO2 
 PCOD9408260
Probable space group: P N N A
;
_chemical_formula_sum "Si O2"
_cell_formula_units_Z 48
_cell_length_a 8.105060
_cell_length_b 18.907602
_cell_length_c 12.112459
_cell_angle_alpha 90.000000
_cell_angle_beta 90.000000
_cell_angle_gamma 90.000000
_cell_volume 1856.201016
_symmetry_space_group_name_H-M "P N N A"
_symmetry_group_IT_number 52
_symmetry_cell_setting 'orthorhombic'
loop_
_space_group_symop_operation_xyz
x,y,z
1/2-x,-y,z
x,1/2-y,1/2-z
1/2-x,1/2+y,1/2-z
-x,-y,-z
1/2+x,y,-z
-x,1/2+y,1/2+z
1/2+x,1/2-y,1/2+z
loop_
_atom_site_type_symbol
_atom_site_label
_atom_site_fract_x
_atom_site_fract_y
_atom_site_fract_z
Si Si1 0.685770 0.305260 0.975904
Si Si2 0.605214 0.595019 0.078781
Si Si3 0.878670 0.446836 0.435005
Si Si4 0.338341 0.847243 0.093003
Si Si5 0.073749 0.529266 0.167300
Si Si6 0.923647 0.320828 0.779361
O O1 0.552217 0.353812 0.916136
O O2 0.630570 0.224225 0.978117
O O3 0.852538 0.308043 0.902055
O O4 0.739479 0.351703 0.082384
O O5 0.562611 0.531099 0.159488
O O6 0.612092 0.555336 0.958792
O O7 0.750000 0.500000 0.377766
O O8 0.775173 0.399352 0.521314
O O9 0.000000 0.500000 0.500000
O O10 0.996665 0.389754 0.376268
O O11 0.235561 0.822582 0.198783
O O12 0.250000 0.500000 0.211042
O O13 0.016120 0.599037 0.230826
O O14 0.023250 0.250000 0.750000
#
# Coordination Sequence:
#
# PCOD9408260 Si02
#       6
#     8   8   8   8   8   8
#     4  10  19  33  54  85 116 148 191 237 297 363
#     4  10  18  31  50  81 118 141 185 241 276 362
#     4   9  19  35  54  84 107 141 199 247 293 337
#     4  10  19  35  59  81 110 152 191 248 303 350
#     4  10  18  31  51  79 113 146 187 233 293 347
#     4   9  19  33  51  80 111 146 192 234 289 364
#
# _framework density 25.859268
#
# number of rings (size 3 to 8) (size 9 to 14) (size 15 to 20)
#    0.000    2.333    3.333    1.000    0.000    2.000 
#    0.000    0.000    0.000   11.000    0.000   28.000 
#    0.000    0.000    0.000    0.000    0.000    0.000 
#
# Total GULP energy -268070.799980 kJ/mol
# GULP energy per Si atom -5584.808333 kJ/mol
# Density = 2.580041 g / cm^3
# Si number density = 25.859268 Si / 1000 Ang^3
#
#
#
# Elastic Constant Matrix: (Units=GPa)
#
#
# Indices 1 2 3 4 5 6 
#
# 1 65.6763 76.1271 17.4154 0.0000 0.0000 0.0000
# 2 76.1271 278.2622 35.8170 0.0000 0.0000 0.0000
# 3 17.4154 35.8170 56.5109 0.0000 0.0000 0.0000
# 4 0.0000 0.0000 0.0000 40.4955 0.0000 0.0000
# 5 0.0000 0.0000 0.0000 0.0000 27.9091 0.0000
# 6 0.0000 0.0000 0.0000 0.0000 0.0000 62.3587
#
#
#
# Elastic Compliance Matrix: (Units=1/GPa)
#
#
# Indices 1 2 3 4 5 6 
#
# 1 0.022867 -0.005824 -0.003356 0.000000 0.000000 0.000000
# 2 -0.005824 0.005396 -0.001625 0.000000 0.000000 0.000000
# 3 -0.003356 -0.001625 0.019760 0.000000 0.000000 0.000000
# 4 0.000000 0.000000 0.000000 0.024694 0.000000 0.000000
# 5 0.000000 0.000000 0.000000 0.000000 0.035831 0.000000
# 6 0.000000 0.000000 0.000000 0.000000 0.000000 0.016036
#
#
# Mechanical properties :
#
#
# Convention : Reuss Voigt Hill
#
# Bulk Modulus (GPa) = 37.86032 73.24094 55.55063
# Shear Modulus (GPa) = 32.25837 44.22531 38.24184
#
# Velocity S-wave (km/s) = 3.53577 4.13998 3.84975
# Velocity P-wave (km/s) = 5.59836 7.15800 6.42567
#
# Compressibility (1/GPa) = 0.02641288
#
# Stress axis : x y z
#
# Youngs Moduli (GPa) = 43.73161 185.31322 50.60718
#
# Poissons Ratio (x) = 1.07926 0.16983
# Poissons Ratio (y) = 0.25469 0.08226
# Poissons Ratio (z) = 0.14675 0.30120
#
# Static dielectric constant tensor:
#      x y z
#    x 2.059430 0.000000 0.000000 
#    y 0.000000 2.063820 0.000000 
#    z 0.000000 0.000000 2.114180 
# 
# From -- ./inp_files/24700.got.cif
#   From: 2010.05.17/outbox.cif.g08.bks.cpg/sg52_13_cif.got.tgz:24700.got - 2010.06.03 12:15:38.
