data_PCOD9408169
_publ_section_title
;
Structure prediction by ZEFSAII (Michael W. Deem and Ramdas Pophale) SiO2 
 PCOD9408169
Probable space group: P N N A
;
_chemical_formula_sum "Si O2"
_cell_formula_units_Z 36
_cell_length_a 15.505304
_cell_length_b 5.065750
_cell_length_c 31.123210
_cell_angle_alpha 90.000000
_cell_angle_beta 90.000000
_cell_angle_gamma 90.000000
_cell_volume 2444.603458
_symmetry_space_group_name_H-M "P N N A"
_symmetry_group_IT_number 52
_symmetry_cell_setting 'orthorhombic'
loop_
_space_group_symop_operation_xyz
x,y,z
1/2-x,-y,z
x,1/2-y,1/2-z
1/2-x,1/2+y,1/2-z
-x,-y,-z
1/2+x,y,-z
-x,1/2+y,1/2+z
1/2+x,1/2-y,1/2+z
loop_
_atom_site_type_symbol
_atom_site_label
_atom_site_fract_x
_atom_site_fract_y
_atom_site_fract_z
Si Si1 0.186752 0.251603 0.655987
Si Si2 0.190892 0.252654 0.495676
Si Si3 0.067868 0.101543 0.923743
Si Si4 0.312666 0.750000 0.750000
Si Si5 0.527994 0.076362 0.548659
O O1 0.250000 0.500000 0.657459
O O2 0.118942 0.322352 0.619153
O O3 0.143131 0.228059 0.703358
O O4 0.250000 0.000000 0.647741
O O5 0.250000 0.500000 0.484329
O O6 0.133812 0.336113 0.537049
O O7 0.124717 0.177236 0.457819
O O8 0.250000 0.000000 0.506163
O O9 0.988123 0.304619 0.926805
O O10 0.032302 0.806328 0.931570
O O11 0.250000 0.500000 0.748713
O O12 0.500000 0.000000 0.500000
#
# Coordination Sequence:
#
# PCOD9408169 Si02
#       5
#     8   8   8   4   8
#     4  10  18  29  44  65  87 115 148 177 205 246
#     4  11  19  29  43  59  78 108 144 176 204 244
#     4  11  19  30  44  61  84 112 144 177 208 248
#     4   8  16  28  42  60  88 114 138 172 212 244
#     4  10  20  32  42  58  84 111 138 177 222 248
#
# _framework density 14.726315
#
# number of rings (size 3 to 8) (size 9 to 14) (size 15 to 20)
#    0.000    1.778    0.000    9.333    0.000    0.000 
#    0.000    0.000    0.000    0.000    0.000    0.000 
#    0.000    0.000    0.000   20.000    0.000    0.000 
#
# Total GULP energy -200447.639057 kJ/mol
# GULP energy per Si atom -5567.989974 kJ/mol
# Density = 1.469280 g / cm^3
# Si number density = 14.726315 Si / 1000 Ang^3
#
#
#
# Elastic Constant Matrix: (Units=GPa)
#
#
# Indices 1 2 3 4 5 6 
#
# 1 43.2797 8.9996 10.8856 0.0000 0.0000 0.0000
# 2 8.9996 98.2539 -0.0191 0.0000 0.0000 0.0000
# 3 10.8856 -0.0191 73.9434 0.0000 0.0000 0.0000
# 4 0.0000 0.0000 0.0000 15.4585 0.0000 0.0000
# 5 0.0000 0.0000 0.0000 0.0000 -5.1009 0.0000
# 6 0.0000 0.0000 0.0000 0.0000 0.0000 30.7494
#
#
#
# Elastic Compliance Matrix: (Units=1/GPa)
#
#
# Indices 1 2 3 4 5 6 
#
# 1 0.024478 -0.002243 -0.003604 0.000000 0.000000 0.000000
# 2 -0.002243 0.010383 0.000333 0.000000 0.000000 0.000000
# 3 -0.003604 0.000333 0.014055 0.000000 0.000000 0.000000
# 4 0.000000 0.000000 0.000000 0.064689 0.000000 0.000000
# 5 0.000000 0.000000 0.000000 0.000000 -0.196042 0.000000
# 6 0.000000 0.000000 0.000000 0.000000 0.000000 0.032521
#
#
# Mechanical properties :
#
#
# Convention : Reuss Voigt Hill
#
# Bulk Modulus (GPa) = 26.39365 28.35657 27.37511
# Shear Modulus (GPa) = -190.41914 21.26211 -84.57851
#
# Velocity S-wave (km/s) = -11.38359 3.80388 -7.58672
# Velocity P-wave (km/s) = 12.44266 6.21210 7.62330
#
# Compressibility (1/GPa) = 0.03788790
#
# Stress axis : x y z
#
# Youngs Moduli (GPa) = 40.85234 96.30928 71.15140
#
# Poissons Ratio (x) = 0.21600 0.25644
# Poissons Ratio (y) = 0.09162 -0.02368
# Poissons Ratio (z) = 0.14724 -0.03206
#
# Static dielectric constant tensor:
#      x y z
#    x 1.517730 0.000000 0.000000 
#    y 0.000000 1.526340 0.000000 
#    z 0.000000 0.000000 1.540380 
# 
# From -- ./inp_files/44686.got.cif
#   From: 2010.05.17/outbox.cif.g08.bks.cpg/sg52_23_cif.got.tgz:44686.got - 2010.06.03 12:15:38.
