data_PCOD9408752
_publ_section_title
;
Structure prediction by ZEFSAII (Michael W. Deem and Ramdas Pophale) SiO2 
 PCOD9408752
Probable space group: P N N A
;
_chemical_formula_sum "Si O2"
_cell_formula_units_Z 56
_cell_length_a 25.721891
_cell_length_b 21.067467
_cell_length_c 5.529511
_cell_angle_alpha 90.000000
_cell_angle_beta 90.000000
_cell_angle_gamma 90.000000
_cell_volume 2996.414860
_symmetry_space_group_name_H-M "P N N A"
_symmetry_group_IT_number 52
_symmetry_cell_setting 'orthorhombic'
loop_
_space_group_symop_operation_xyz
x,y,z
1/2-x,-y,z
x,1/2-y,1/2-z
1/2-x,1/2+y,1/2-z
-x,-y,-z
1/2+x,y,-z
-x,1/2+y,1/2+z
1/2+x,1/2-y,1/2+z
loop_
_atom_site_type_symbol
_atom_site_label
_atom_site_fract_x
_atom_site_fract_y
_atom_site_fract_z
Si Si1 0.777638 0.429935 0.162869
Si Si2 0.022035 0.865350 0.294382
Si Si3 0.473841 0.678562 0.276064
Si Si4 0.606328 0.556590 0.976410
Si Si5 0.114243 0.073148 0.171415
Si Si6 0.236111 0.076081 0.166419
Si Si7 0.457119 0.982842 0.803359
O O1 0.750000 0.500000 0.174137
O O2 0.764868 0.400807 0.424142
O O3 0.838528 0.433044 0.101477
O O4 0.754047 0.397364 0.924514
O O5 0.081674 0.890538 0.299922
O O6 0.010705 0.826186 0.538154
O O7 0.986263 0.927886 0.337541
O O8 0.002696 0.836131 0.036054
O O9 0.453033 0.750000 0.250000
O O10 0.425446 0.629250 0.260811
O O11 0.608666 0.488462 0.842991
O O12 0.562707 0.545863 0.179186
O O13 0.174807 0.087448 0.150734
O O14 0.093820 0.048650 0.914623
O O15 0.250000 0.000000 0.177877
O O16 0.500000 0.000000 0.000000
#
# Coordination Sequence:
#
# PCOD9408752 Si02
#       7
#     8   8   8   8   8   8   8
#     4  10  20  31  48  75 123 152 172 218 276 363
#     4  11  23  36  59  84 115 154 195 245 295 352
#     4  11  25  43  58  81 116 161 209 252 288 344
#     4  12  20  33  55  87 122 153 188 230 309 370
#     4  11  21  33  57  82 119 161 190 240 296 371
#     4  10  19  32  47  78 115 154 177 219 283 351
#     4  11  20  31  49  82 124 149 183 233 292 366
#
# _framework density 18.689
#
# number of rings (size 3 to 8) (size 9 to 14) (size 15 to 20)
#    0.000    1.143    5.714    4.286    0.000    0.000 
#    0.000    0.000    0.000    0.000    0.000    4.000 
#    0.000    0.000    0.000    0.000    0.000    0.000 
#
# Total GULP energy -311842.148917 kJ/mol
# GULP energy per Si atom -5568.609802 kJ/mol
# Density = 1.864646 g / cm^3
# Si number density = 18.689000 Si / 1000 Ang^3
#
#
#
# Elastic Constant Matrix: (Units=GPa)
#
#
# Indices 1 2 3 4 5 6 
#
# 1 65.2165 15.0112 31.1582 0.0000 0.0000 0.0000
# 2 15.0112 50.0876 12.7225 0.0000 0.0000 0.0000
# 3 31.1582 12.7225 89.6142 0.0000 0.0000 0.0000
# 4 0.0000 0.0000 0.0000 8.1082 0.0000 0.0000
# 5 0.0000 0.0000 0.0000 0.0000 26.5238 0.0000
# 6 0.0000 0.0000 0.0000 0.0000 0.0000 8.9134
#
#
#
# Elastic Compliance Matrix: (Units=1/GPa)
#
#
# Indices 1 2 3 4 5 6 
#
# 1 0.019208 -0.004212 -0.006081 0.000000 0.000000 0.000000
# 2 -0.004212 0.021636 -0.001607 0.000000 0.000000 0.000000
# 3 -0.006081 -0.001607 0.013501 0.000000 0.000000 0.000000
# 4 0.000000 0.000000 0.000000 0.123332 0.000000 0.000000
# 5 0.000000 0.000000 0.000000 0.000000 0.037702 0.000000
# 6 0.000000 0.000000 0.000000 0.000000 0.000000 0.112190
#
#
# Mechanical properties :
#
#
# Convention : Reuss Voigt Hill
#
# Bulk Modulus (GPa) = 32.73805 35.85578 34.29691
# Shear Modulus (GPa) = 13.82934 18.44417 16.13676
#
# Velocity S-wave (km/s) = 2.72319 3.14490 2.94162
# Velocity P-wave (km/s) = 5.23861 5.69336 5.47071
#
# Compressibility (1/GPa) = 0.03054550
#
# Stress axis : x y z
#
# Youngs Moduli (GPa) = 52.06120 46.22009 74.06714
#
# Poissons Ratio (x) = 0.19469 0.45037
# Poissons Ratio (y) = 0.21929 0.11903
# Poissons Ratio (z) = 0.31656 0.07428
#
# Static dielectric constant tensor:
#      x y z
#    x 1.669690 0.000000 0.000000 
#    y 0.000000 1.670310 0.000000 
#    z 0.000000 0.000000 1.840940 
# 
# From -- ./inp_files/5313.got.cif
#   From: 2010.05.17/outbox.cif.g08.bks.cpg/sg52_3_cif.got.tgz:5313.got - 2010.06.03 12:15:38.
