data_PCOD9408229
_publ_section_title
;
Structure prediction by ZEFSAII (Michael W. Deem and Ramdas Pophale) SiO2 
 PCOD9408229
Probable space group: P N N A
;
_chemical_formula_sum "Si O2"
_cell_formula_units_Z 40
_cell_length_a 12.198555
_cell_length_b 13.540749
_cell_length_c 10.054543
_cell_angle_alpha 90.000000
_cell_angle_beta 90.000000
_cell_angle_gamma 90.000000
_cell_volume 1660.784994
_symmetry_space_group_name_H-M "P N N A"
_symmetry_group_IT_number 52
_symmetry_cell_setting 'orthorhombic'
loop_
_space_group_symop_operation_xyz
x,y,z
1/2-x,-y,z
x,1/2-y,1/2-z
1/2-x,1/2+y,1/2-z
-x,-y,-z
1/2+x,y,-z
-x,1/2+y,1/2+z
1/2+x,1/2-y,1/2+z
loop_
_atom_site_type_symbol
_atom_site_label
_atom_site_fract_x
_atom_site_fract_y
_atom_site_fract_z
Si Si1 0.606007 0.353270 0.837399
Si Si2 0.717404 0.610396 0.604639
Si Si3 0.391960 0.277680 0.936574
Si Si4 0.964933 0.080027 0.679090
Si Si5 0.794216 0.890772 0.380405
O O1 0.685249 0.353535 0.706618
O O2 0.547510 0.462073 0.842484
O O3 0.512655 0.272526 0.873686
O O4 0.680103 0.354894 0.969647
O O5 0.750000 0.500000 0.558164
O O6 0.673468 0.683112 0.491166
O O7 0.610478 0.601876 0.696510
O O8 0.416847 0.354029 0.059086
O O9 0.310130 0.330456 0.834596
O O10 0.091350 0.110451 0.696469
O O11 0.750000 0.000000 0.389598
#
# Coordination Sequence:
#
# PCOD9408229 Si02
#       5
#     8   8   8   8   8
#     4  10  18  31  52  86 126 147 199 271 322 376
#     4  10  21  36  55  90 124 164 220 267 310 395
#     4  11  19  31  57  88 116 161 202 257 329 381
#     4  10  18  30  52  87 122 147 192 266 336 374
#     4  11  16  28  52  88 121 145 191 265 333 375
#
# _framework density 24.084996
#
# number of rings (size 3 to 8) (size 9 to 14) (size 15 to 20)
#    0.000    1.600    6.000    2.400    0.000    0.000 
#    0.000    0.000    0.000    7.200   20.800    0.000 
#    0.000    0.000    0.000    0.400    0.000    0.000 
#
# Total GULP energy -223394.714302 kJ/mol
# GULP energy per Si atom -5584.867858 kJ/mol
# Density = 2.403018 g / cm^3
# Si number density = 24.084996 Si / 1000 Ang^3
#
#
#
# Elastic Constant Matrix: (Units=GPa)
#
#
# Indices 1 2 3 4 5 6 
#
# 1 224.8470 67.9887 22.0543 0.0000 0.0000 0.0000
# 2 67.9887 117.3771 52.3717 0.0000 0.0000 0.0000
# 3 22.0543 52.3717 55.0578 0.0000 0.0000 0.0000
# 4 0.0000 0.0000 0.0000 35.4979 0.0000 0.0000
# 5 0.0000 0.0000 0.0000 0.0000 22.1261 0.0000
# 6 0.0000 0.0000 0.0000 0.0000 0.0000 86.0265
#
#
#
# Elastic Compliance Matrix: (Units=1/GPa)
#
#
# Indices 1 2 3 4 5 6 
#
# 1 0.005455 -0.003796 0.001426 0.000000 0.000000 0.000000
# 2 -0.003796 0.017443 -0.015071 0.000000 0.000000 0.000000
# 3 0.001426 -0.015071 0.031928 0.000000 0.000000 0.000000
# 4 0.000000 0.000000 0.000000 0.028171 0.000000 0.000000
# 5 0.000000 0.000000 0.000000 0.000000 0.045196 0.000000
# 6 0.000000 0.000000 0.000000 0.000000 0.000000 0.011624
#
#
# Mechanical properties :
#
#
# Convention : Reuss Voigt Hill
#
# Bulk Modulus (GPa) = 50.14416 75.79012 62.96714
# Shear Modulus (GPa) = 27.57129 45.72126 36.64628
#
# Velocity S-wave (km/s) = 3.38709 4.36171 3.90492
# Velocity P-wave (km/s) = 6.01343 7.54335 6.82142
#
# Compressibility (1/GPa) = 0.01994250
#
# Stress axis : x y z
#
# Youngs Moduli (GPa) = 183.30177 57.32973 31.32067
#
# Poissons Ratio (x) = 0.21763 -0.04465
# Poissons Ratio (y) = 0.69583 0.47205
# Poissons Ratio (z) = -0.26131 0.86404
#
# Static dielectric constant tensor:
#      x y z
#    x 1.898280 0.000000 0.000000 
#    y 0.000000 2.071680 0.000000 
#    z 0.000000 0.000000 1.980420 
# 
# From -- ./inp_files/17998.got.cif
#   From: 2010.05.17/outbox.cif.g08.bks.cpg/sg52_9_cif.got.tgz:17998.got - 2010.06.03 12:15:38.
