data_PCOD9408656
_publ_section_title
;
Structure prediction by ZEFSAII (Michael W. Deem and Ramdas Pophale) SiO2 
 PCOD9408656
Probable space group: P N N A
;
_chemical_formula_sum "Si O2"
_cell_formula_units_Z 28
_cell_length_a 8.883840
_cell_length_b 10.287682
_cell_length_c 12.728559
_cell_angle_alpha 90.000000
_cell_angle_beta 90.000000
_cell_angle_gamma 90.000000
_cell_volume 1163.315460
_symmetry_space_group_name_H-M "P N N A"
_symmetry_group_IT_number 52
_symmetry_cell_setting 'orthorhombic'
loop_
_space_group_symop_operation_xyz
x,y,z
1/2-x,-y,z
x,1/2-y,1/2-z
1/2-x,1/2+y,1/2-z
-x,-y,-z
1/2+x,y,-z
-x,1/2+y,1/2+z
1/2+x,1/2-y,1/2+z
loop_
_atom_site_type_symbol
_atom_site_label
_atom_site_fract_x
_atom_site_fract_y
_atom_site_fract_z
Si Si1 0.473432 0.613340 0.786000
Si Si2 0.778308 0.215260 0.452537
Si Si3 0.750000 0.000000 0.114266
Si Si4 0.402237 0.649950 0.151736
O O1 0.542493 0.750000 0.750000
O O2 0.382690 0.547694 0.690163
O O3 0.347817 0.655512 0.872971
O O4 0.585690 0.499951 0.816310
O O5 0.787056 0.371570 0.449790
O O6 0.727316 0.176944 0.567846
O O7 0.939346 0.330616 0.088748
O O8 0.402681 0.750000 0.250000
#
# Coordination Sequence:
#
# PCOD9408656 Si02
#       4
#     8   8   4   8
#     4  10  19  39  70 103 137 189 238 294 362 435
#     4  11  23  39  73 102 139 190 244 298 369 432
#     4  10  18  40  68 102 134 186 236 296 364 434
#     4  12  23  45  71 102 145 187 244 301 362 436
#
# _framework density 24.069137000000001
#
# number of rings (size 3 to 8) (size 9 to 14) (size 15 to 20)
#    0.000    1.143    5.714    1.714    0.000    1.143 
#    0.000    5.714    6.286    0.000    0.000    2.000 
#    0.000    0.000    0.000    0.000    0.000    0.000 
#
# Total GULP energy -156887.080283 kJ/mol
# GULP energy per Si atom -5603.110010 kJ/mol
# Density = 2.401435 g / cm^3
# Si number density = 24.069137 Si / 1000 Ang^3
#
#
#
# Elastic Constant Matrix: (Units=GPa)
#
#
# Indices 1 2 3 4 5 6 
#
# 1 104.0604 59.1979 65.8371 0.0000 0.0000 0.0000
# 2 59.1979 274.4049 88.4161 0.0000 0.0000 0.0000
# 3 65.8371 88.4161 138.7363 0.0000 0.0000 0.0000
# 4 0.0000 0.0000 0.0000 38.7800 0.0000 0.0000
# 5 0.0000 0.0000 0.0000 0.0000 42.1630 0.0000
# 6 0.0000 0.0000 0.0000 0.0000 0.0000 19.2091
#
#
#
# Elastic Compliance Matrix: (Units=1/GPa)
#
#
# Indices 1 2 3 4 5 6 
#
# 1 0.013995 -0.001106 -0.005936 0.000000 0.000000 0.000000
# 2 -0.001106 0.004673 -0.002453 0.000000 0.000000 0.000000
# 3 -0.005936 -0.002453 0.011588 0.000000 0.000000 0.000000
# 4 0.000000 0.000000 0.000000 0.025786 0.000000 0.000000
# 5 0.000000 0.000000 0.000000 0.000000 0.023717 0.000000
# 6 0.000000 0.000000 0.000000 0.000000 0.000000 0.052059
#
#
# Mechanical properties :
#
#
# Convention : Reuss Voigt Hill
#
# Bulk Modulus (GPa) = 88.77078 104.90041 96.83560
# Shear Modulus (GPa) = 32.34864 40.28046 36.31455
#
# Velocity S-wave (km/s) = 3.67002 4.09532 3.88849
# Velocity P-wave (km/s) = 7.41083 8.12649 7.77689
#
# Compressibility (1/GPa) = 0.01126497
#
# Stress axis : x y z
#
# Youngs Moduli (GPa) = 71.45441 213.97590 86.29348
#
# Poissons Ratio (x) = 0.23676 0.51225
# Poissons Ratio (y) = 0.07906 0.21170
# Poissons Ratio (z) = 0.42416 0.52494
#
# Static dielectric constant tensor:
#      x y z
#    x 1.994680 0.000000 0.000000 
#    y 0.000000 1.879800 0.000000 
#    z 0.000000 0.000000 1.924490 
# 
# From -- ./inp_files/26602.got.cif
#   From: 2010.05.17/outbox.cif.g08.bks.cpg/sg52_14_cif.got.tgz:26602.got - 2010.06.03 12:15:38.
