data_PCOD9408924
_publ_section_title
;
Structure prediction by ZEFSAII (Michael W. Deem and Ramdas Pophale) SiO2 
 PCOD9408924
Probable space group: P N N A
;
_chemical_formula_sum "Si O2"
_cell_formula_units_Z 48
_cell_length_a 22.136780
_cell_length_b 19.901295
_cell_length_c 5.240354
_cell_angle_alpha 90.000000
_cell_angle_beta 90.000000
_cell_angle_gamma 90.000000
_cell_volume 2308.641042
_symmetry_space_group_name_H-M "P N N A"
_symmetry_group_IT_number 52
_symmetry_cell_setting 'orthorhombic'
loop_
_space_group_symop_operation_xyz
x,y,z
1/2-x,-y,z
x,1/2-y,1/2-z
1/2-x,1/2+y,1/2-z
-x,-y,-z
1/2+x,y,-z
-x,1/2+y,1/2+z
1/2+x,1/2-y,1/2+z
loop_
_atom_site_type_symbol
_atom_site_label
_atom_site_fract_x
_atom_site_fract_y
_atom_site_fract_z
Si Si1 0.030866 0.324715 0.368256
Si Si2 0.830096 0.830117 0.764016
Si Si3 0.762223 0.832658 0.261870
Si Si4 0.024798 0.964214 0.746467
Si Si5 0.420348 0.176381 0.168952
Si Si6 0.631093 0.887126 0.333476
O O1 0.021533 0.250000 0.250000
O O2 0.101693 0.340073 0.360690
O O3 0.000679 0.388188 0.230509
O O4 0.993027 0.325556 0.632420
O O5 0.823111 0.750000 0.750000
O O6 0.811982 0.850529 0.478095
O O7 0.784717 0.854250 0.982594
O O8 0.753201 0.750000 0.250000
O O9 0.701846 0.872559 0.335442
O O10 0.097652 0.956324 0.746508
O O11 0.000000 0.000000 0.500000
O O12 0.000000 0.000000 0.000000
O O13 0.401751 0.250000 0.250000
O O14 0.394945 0.128167 0.385656
O O15 0.392252 0.162107 0.892361
#
# Coordination Sequence:
#
# PCOD9408924 Si02
#       6
#     8   8   8   8   8   8
#     4  10  22  40  64  93 123 159 209 256 302 367
#     4   9  20  34  55  85 120 158 198 247 302 351
#     4  10  19  34  55  85 121 157 197 249 302 355
#     4  11  24  42  62  88 124 162 198 250 315 368
#     4  11  20  32  54  88 119 150 192 249 302 347
#     4  11  22  36  57  83 119 161 202 239 299 371
#
# _framework density 20.791452
#
# number of rings (size 3 to 8) (size 9 to 14) (size 15 to 20)
#    0.000    1.667    0.000    6.500    0.000    9.333 
#    0.000    0.000    0.000    6.000    0.000    0.000 
#    0.000    0.000    0.000    0.000    0.000    0.000 
#
# Total GULP energy -267507.523287 kJ/mol
# GULP energy per Si atom -5573.073402 kJ/mol
# Density = 2.074413 g / cm^3
# Si number density = 20.791452 Si / 1000 Ang^3
#
#
#
# Elastic Constant Matrix: (Units=GPa)
#
#
# Indices 1 2 3 4 5 6 
#
# 1 95.2658 -1.2380 31.4855 0.0000 0.0000 0.0000
# 2 -1.2380 45.7353 10.6765 0.0000 0.0000 0.0000
# 3 31.4855 10.6765 98.1399 0.0000 0.0000 0.0000
# 4 0.0000 0.0000 0.0000 25.2136 0.0000 0.0000
# 5 0.0000 0.0000 0.0000 0.0000 32.0393 0.0000
# 6 0.0000 0.0000 0.0000 0.0000 0.0000 -17.6376
#
#
#
# Elastic Compliance Matrix: (Units=1/GPa)
#
#
# Indices 1 2 3 4 5 6 
#
# 1 0.011810 0.001236 -0.003923 0.000000 0.000000 0.000000
# 2 0.001236 0.022564 -0.002851 0.000000 0.000000 0.000000
# 3 -0.003923 -0.002851 0.011758 0.000000 0.000000 0.000000
# 4 0.000000 0.000000 0.000000 0.039661 0.000000 0.000000
# 5 0.000000 0.000000 0.000000 0.000000 0.031212 0.000000
# 6 0.000000 0.000000 0.000000 0.000000 0.000000 -0.056697
#
#
# Mechanical properties :
#
#
# Convention : Reuss Voigt Hill
#
# Bulk Modulus (GPa) = 28.52711 35.66546 32.09628
# Shear Modulus (GPa) = 60.19020 21.13753 40.66386
#
# Velocity S-wave (km/s) = 5.38631 3.19195 4.42724
# Velocity P-wave (km/s) = 7.24110 5.54760 6.45017
#
# Compressibility (1/GPa) = 0.03505437
#
# Stress axis : x y z
#
# Youngs Moduli (GPa) = 84.67674 44.31846 85.04593
#
# Poissons Ratio (x) = -0.05476 0.33365
# Poissons Ratio (y) = -0.10462 0.24247
# Poissons Ratio (z) = 0.33220 0.12636
#
# Static dielectric constant tensor:
#      x y z
#    x 1.863680 0.000000 0.000000 
#    y 0.000000 1.743740 0.000000 
#    z 0.000000 0.000000 1.770420 
# 
# From -- ./inp_files/5130.got.cif
#   From: 2010.05.17/outbox.cif.g08.bks.cpg/sg52_3_cif.got.tgz:5130.got - 2010.06.03 12:15:38.
