data_PCOD9408376
_publ_section_title
;
Structure prediction by ZEFSAII (Michael W. Deem and Ramdas Pophale) SiO2 
 PCOD9408376
Probable space group: P N N A
;
_chemical_formula_sum "Si O2"
_cell_formula_units_Z 48
_cell_length_a 21.478095
_cell_length_b 23.054193
_cell_length_c 4.891452
_cell_angle_alpha 90.000000
_cell_angle_beta 90.000000
_cell_angle_gamma 90.000000
_cell_volume 2422.052093
_symmetry_space_group_name_H-M "P N N A"
_symmetry_group_IT_number 52
_symmetry_cell_setting 'orthorhombic'
loop_
_space_group_symop_operation_xyz
x,y,z
1/2-x,-y,z
x,1/2-y,1/2-z
1/2-x,1/2+y,1/2-z
-x,-y,-z
1/2+x,y,-z
-x,1/2+y,1/2+z
1/2+x,1/2-y,1/2+z
loop_
_atom_site_type_symbol
_atom_site_label
_atom_site_fract_x
_atom_site_fract_y
_atom_site_fract_z
Si Si1 0.641773 0.926236 0.998400
Si Si2 0.726847 0.936870 0.487401
Si Si3 0.413152 0.956912 0.785404
Si Si4 0.019303 0.627669 0.382932
Si Si5 0.039137 0.186975 0.382401
Si Si6 0.144045 0.397976 0.206625
O O1 0.688176 0.907778 0.242438
O O2 0.600594 0.978076 0.126674
O O3 0.683040 0.948147 0.747374
O O4 0.592955 0.880221 0.878506
O O5 0.785429 0.901676 0.605910
O O6 0.750000 0.000000 0.383089
O O7 0.482406 0.931755 0.814526
O O8 0.392614 0.945173 0.476947
O O9 0.369425 0.916319 0.981303
O O10 0.000498 0.644746 0.687836
O O11 0.989608 0.675737 0.180774
O O12 0.035398 0.250000 0.250000
O O13 0.109248 0.162010 0.363237
#
# Coordination Sequence:
#
# PCOD9408376 Si02
#       6
#     8   8   8   8   8   8
#     4  12  21  33  53  79 120 155 182 218 278 339
#     4  12  21  33  52  78 120 160 191 212 264 344
#     4  10  18  33  51  77 115 148 181 226 267 334
#     4  10  22  35  55  85 109 140 190 234 290 341
#     4  10  21  40  62  79 103 138 188 252 300 326
#     4  10  20  33  53  82 107 145 195 228 266 333
#
# _framework density 19.817903999999999
#
# number of rings (size 3 to 8) (size 9 to 14) (size 15 to 20)
#    0.000    1.333    3.333    3.500    0.000    0.000 
#    0.000    6.667    0.000    4.000    0.000    0.000 
#    0.000    0.000    0.000    0.000    0.000    0.000 
#
# Total GULP energy -268043.315388 kJ/mol
# GULP energy per Si atom -5584.235737 kJ/mol
# Density = 1.977280 g / cm^3
# Si number density = 19.817904 Si / 1000 Ang^3
#
#
#
# Elastic Constant Matrix: (Units=GPa)
#
#
# Indices 1 2 3 4 5 6 
#
# 1 103.7943 19.2456 11.4483 0.0000 0.0000 0.0000
# 2 19.2456 37.7039 -6.2526 0.0000 0.0000 0.0000
# 3 11.4483 -6.2526 72.2984 0.0000 0.0000 0.0000
# 4 0.0000 0.0000 0.0000 19.1723 0.0000 0.0000
# 5 0.0000 0.0000 0.0000 0.0000 14.4360 0.0000
# 6 0.0000 0.0000 0.0000 0.0000 0.0000 10.0960
#
#
#
# Elastic Compliance Matrix: (Units=1/GPa)
#
#
# Indices 1 2 3 4 5 6 
#
# 1 0.010993 -0.005986 -0.002259 0.000000 0.000000 0.000000
# 2 -0.005986 0.030168 0.003557 0.000000 0.000000 0.000000
# 3 -0.002259 0.003557 0.014497 0.000000 0.000000 0.000000
# 4 0.000000 0.000000 0.000000 0.052159 0.000000 0.000000
# 5 0.000000 0.000000 0.000000 0.000000 0.069271 0.000000
# 6 0.000000 0.000000 0.000000 0.000000 0.000000 0.099049
#
#
# Mechanical properties :
#
#
# Convention : Reuss Voigt Hill
#
# Bulk Modulus (GPa) = 21.60628 29.18658 25.39643
# Shear Modulus (GPa) = 16.61462 21.36455 18.98959
#
# Velocity S-wave (km/s) = 2.89859 3.28692 3.09884
# Velocity P-wave (km/s) = 4.70410 5.40041 5.06424
#
# Compressibility (1/GPa) = 0.04628284
#
# Stress axis : x y z
#
# Youngs Moduli (GPa) = 90.96288 33.14787 68.98065
#
# Poissons Ratio (x) = 0.19843 0.15579
# Poissons Ratio (y) = 0.54451 -0.24536
# Poissons Ratio (z) = 0.20544 -0.11790
#
# Static dielectric constant tensor:
#      x y z
#    x 1.741690 0.000000 0.000000 
#    y 0.000000 1.692690 0.000000 
#    z 0.000000 0.000000 1.690460 
# 
# From -- ./inp_files/4382.got.cif
#   From: 2010.05.17/outbox.cif.g08.bks.cpg/sg52_3_cif.got.tgz:4382.got - 2010.06.03 12:15:38.
