data_PCOD9408061
_publ_section_title
;
Structure prediction by ZEFSAII (Michael W. Deem and Ramdas Pophale) SiO2 
 PCOD9408061
Probable space group: P N N A
;
_chemical_formula_sum "Si O2"
_cell_formula_units_Z 52
_cell_length_a 14.199675
_cell_length_b 16.031752
_cell_length_c 13.631214
_cell_angle_alpha 90.000000
_cell_angle_beta 90.000000
_cell_angle_gamma 90.000000
_cell_volume 3103.086818
_symmetry_space_group_name_H-M "P N N A"
_symmetry_group_IT_number 52
_symmetry_cell_setting 'orthorhombic'
loop_
_space_group_symop_operation_xyz
x,y,z
1/2-x,-y,z
x,1/2-y,1/2-z
1/2-x,1/2+y,1/2-z
-x,-y,-z
1/2+x,y,-z
-x,1/2+y,1/2+z
1/2+x,1/2-y,1/2+z
loop_
_atom_site_type_symbol
_atom_site_label
_atom_site_fract_x
_atom_site_fract_y
_atom_site_fract_z
Si Si1 0.250000 0.500000 0.410098
Si Si2 0.379744 0.043128 0.801989
Si Si3 0.357303 0.020642 0.575338
Si Si4 0.281438 0.613442 0.592672
Si Si5 0.061035 0.946363 0.194701
Si Si6 0.451395 0.716789 0.638580
Si Si7 0.522923 0.889670 0.584564
O O1 0.279750 0.573951 0.484768
O O2 0.162240 0.530025 0.346268
O O3 0.361428 0.053951 0.686905
O O4 0.324984 0.112649 0.865248
O O5 0.332963 0.955139 0.836910
O O6 0.489745 0.024706 0.818141
O O7 0.405069 0.083113 0.499040
O O8 0.250000 0.000000 0.550802
O O9 0.424206 0.939018 0.572294
O O10 0.347638 0.693275 0.599853
O O11 0.060734 0.919674 0.309014
O O12 0.015471 0.866384 0.139661
O O13 0.440984 0.750000 0.750000
O O14 0.501421 0.792074 0.583222
#
# Coordination Sequence:
#
# PCOD9408061 Si02
#       7
#     4   8   8   8   8   8   8
#     4  10  20  32  50  78 100 138 178 200 246 300
#     4   8  15  29  51  76  96 126 170 215 242 284
#     4  10  17  31  55  77  98 126 169 216 249 295
#     4   9  17  30  52  77  99 129 170 208 251 291
#     4   9  18  33  52  71 106 136 171 206 242 305
#     4   9  18  34  51  71 104 133 164 209 252 305
#     4   9  20  33  51  80 100 132 167 205 260 303
#
# _framework density 16.757508000000001
#
# number of rings (size 3 to 8) (size 9 to 14) (size 15 to 20)
#    0.000    3.077    1.538    0.923    1.077    5.538 
#    2.769    0.000    0.000    0.000    0.000    0.000 
#    0.000    0.000    0.000    0.000    0.000    0.000 
#
# Total GULP energy -289509.911494 kJ/mol
# GULP energy per Si atom -5567.498298 kJ/mol
# Density = 1.671937 g / cm^3
# Si number density = 16.757508 Si / 1000 Ang^3
#
#
#
# Elastic Constant Matrix: (Units=GPa)
#
#
# Indices 1 2 3 4 5 6 
#
# 1 139.2635 66.6312 64.7339 0.0000 0.0000 0.0000
# 2 66.6312 62.4242 42.9451 0.0000 0.0000 0.0000
# 3 64.7339 42.9451 77.1230 0.0000 0.0000 0.0000
# 4 0.0000 0.0000 0.0000 11.5313 0.0000 0.0000
# 5 0.0000 0.0000 0.0000 0.0000 3.1118 0.0000
# 6 0.0000 0.0000 0.0000 0.0000 0.0000 13.4782
#
#
#
# Elastic Compliance Matrix: (Units=1/GPa)
#
#
# Indices 1 2 3 4 5 6 
#
# 1 0.016491 -0.013097 -0.006549 0.000000 0.000000 0.000000
# 2 -0.013097 0.036369 -0.009258 0.000000 0.000000 0.000000
# 3 -0.006549 -0.009258 0.023619 0.000000 0.000000 0.000000
# 4 0.000000 0.000000 0.000000 0.086720 0.000000 0.000000
# 5 0.000000 0.000000 0.000000 0.000000 0.321357 0.000000
# 6 0.000000 0.000000 0.000000 0.000000 0.000000 0.074194
#
#
# Mechanical properties :
#
#
# Convention : Reuss Voigt Hill
#
# Bulk Modulus (GPa) = 53.56312 69.71459 61.63885
# Shear Modulus (GPa) = 8.02849 12.59096 10.30972
#
# Velocity S-wave (km/s) = 2.19121 2.74407 2.48307
# Velocity P-wave (km/s) = 6.19959 7.19251 6.71443
#
# Compressibility (1/GPa) = 0.01866956
#
# Stress axis : x y z
#
# Youngs Moduli (GPa) = 60.63825 27.49625 42.33949
#
# Poissons Ratio (x) = 0.36012 0.27728
# Poissons Ratio (y) = 0.79419 0.39199
# Poissons Ratio (z) = 0.39712 0.25457
#
# Static dielectric constant tensor:
#      x y z
#    x 1.586640 0.000000 0.000000 
#    y 0.000000 1.574230 0.000000 
#    z 0.000000 0.000000 1.561210 
# 
# From -- ./inp_files/19772.got.cif
#   From: 2010.05.17/outbox.cif.g08.bks.cpg/sg52_10_cif.got.tgz:19772.got - 2010.06.03 12:15:38.
