data_PCOD9408409
_publ_section_title
;
Structure prediction by ZEFSAII (Michael W. Deem and Ramdas Pophale) SiO2 
 PCOD9408409
Probable space group: P N N A
;
_chemical_formula_sum "Si O2"
_cell_formula_units_Z 44
_cell_length_a 15.823958
_cell_length_b 7.689792
_cell_length_c 18.155565
_cell_angle_alpha 90.000000
_cell_angle_beta 90.000000
_cell_angle_gamma 90.000000
_cell_volume 2209.222629
_symmetry_space_group_name_H-M "P N N A"
_symmetry_group_IT_number 52
_symmetry_cell_setting 'orthorhombic'
loop_
_space_group_symop_operation_xyz
x,y,z
1/2-x,-y,z
x,1/2-y,1/2-z
1/2-x,1/2+y,1/2-z
-x,-y,-z
1/2+x,y,-z
-x,1/2+y,1/2+z
1/2+x,1/2-y,1/2+z
loop_
_atom_site_type_symbol
_atom_site_label
_atom_site_fract_x
_atom_site_fract_y
_atom_site_fract_z
Si Si1 0.794129 0.312700 0.910926
Si Si2 0.816273 0.878173 0.310325
Si Si3 0.750000 0.500000 0.692509
Si Si4 0.197657 0.821943 0.923651
Si Si5 0.937321 0.327999 0.171550
Si Si6 0.585179 0.921159 0.707219
O O1 0.750000 0.500000 0.911863
O O2 0.882226 0.344238 0.869677
O O3 0.746113 0.169531 0.860276
O O4 0.805380 0.245476 0.993218
O O5 0.852000 0.750000 0.250000
O O6 0.758017 0.795062 0.372276
O O7 0.750000 0.000000 0.266490
O O8 0.888128 0.993825 0.345406
O O9 0.667275 0.522977 0.743907
O O10 0.102976 0.807091 0.887605
O O11 0.250000 0.000000 0.924409
O O12 0.909645 0.250000 0.250000
O O13 0.030000 0.407551 0.188291
O O14 0.548043 0.750000 0.750000
#
# Coordination Sequence:
#
# PCOD9408409 Si02
#       6
#     8   8   4   8   8   8
#     4  11  22  39  69  96 127 178 220 280 336 403
#     4  10  18  33  57  84 118 164 212 259 320 396
#     4  10  22  44  66 102 124 170 236 278 336 402
#     4  11  22  40  61  93 134 175 225 272 339 411
#     4  11  23  36  61  95 128 172 213 277 337 396
#     4  10  23  40  66  94 130 169 228 286 337 402
#
# _framework density 19.916508
#
# number of rings (size 3 to 8) (size 9 to 14) (size 15 to 20)
#    0.000    1.455    1.818    6.000    2.545    0.727 
#    0.000    0.000    0.000    4.364    0.000    0.000 
#    0.000    0.000    0.000    0.000    0.000    0.000 
#
# Total GULP energy -244945.020948 kJ/mol
# GULP energy per Si atom -5566.932294 kJ/mol
# Density = 1.987118 g / cm^3
# Si number density = 19.916508 Si / 1000 Ang^3
#
#
#
# Elastic Constant Matrix: (Units=GPa)
#
#
# Indices 1 2 3 4 5 6 
#
# 1 87.9962 42.5830 47.5553 0.0000 0.0000 0.0000
# 2 42.5830 110.2848 51.9669 0.0000 0.0000 0.0000
# 3 47.5553 51.9669 142.8104 0.0000 0.0000 0.0000
# 4 0.0000 0.0000 0.0000 36.7050 0.0000 0.0000
# 5 0.0000 0.0000 0.0000 0.0000 4.1638 0.0000
# 6 0.0000 0.0000 0.0000 0.0000 0.0000 32.5715
#
#
#
# Elastic Compliance Matrix: (Units=1/GPa)
#
#
# Indices 1 2 3 4 5 6 
#
# 1 0.015345 -0.004245 -0.003565 0.000000 0.000000 0.000000
# 2 -0.004245 0.012118 -0.002996 0.000000 0.000000 0.000000
# 3 -0.003565 -0.002996 0.009280 0.000000 0.000000 0.000000
# 4 0.000000 0.000000 0.000000 0.027244 0.000000 0.000000
# 5 0.000000 0.000000 0.000000 0.000000 0.240165 0.000000
# 6 0.000000 0.000000 0.000000 0.000000 0.000000 0.030702
#
#
# Mechanical properties :
#
#
# Convention : Reuss Voigt Hill
#
# Bulk Modulus (GPa) = 66.09179 69.47795 67.78487
# Shear Modulus (GPa) = 13.83085 27.95379 20.89232
#
# Velocity S-wave (km/s) = 2.63808 3.75046 3.24233
# Velocity P-wave (km/s) = 6.52195 7.32905 6.93725
#
# Compressibility (1/GPa) = 0.01513047
#
# Stress axis : x y z
#
# Youngs Moduli (GPa) = 65.16741 82.51963 107.76207
#
# Poissons Ratio (x) = 0.35031 0.38418
# Poissons Ratio (y) = 0.27664 0.32287
# Poissons Ratio (z) = 0.23233 0.24724
#
# Static dielectric constant tensor:
#      x y z
#    x 1.785050 0.000000 0.000000 
#    y 0.000000 2.094070 0.000000 
#    z 0.000000 0.000000 1.665340 
# 
# From -- ./inp_files/32968.got.cif
#   From: 2010.05.17/outbox.cif.g08.bks.cpg/sg52_17_cif.got.tgz:32968.got - 2010.06.03 12:15:38.
