data_PCOD9408882
_publ_section_title
;
Structure prediction by ZEFSAII (Michael W. Deem and Ramdas Pophale) SiO2 
 PCOD9408882
Probable space group: P N N A
;
_chemical_formula_sum "Si O2"
_cell_formula_units_Z 44
_cell_length_a 19.044589
_cell_length_b 10.697371
_cell_length_c 10.894171
_cell_angle_alpha 90.000000
_cell_angle_beta 90.000000
_cell_angle_gamma 90.000000
_cell_volume 2219.437147
_symmetry_space_group_name_H-M "P N N A"
_symmetry_group_IT_number 52
_symmetry_cell_setting 'orthorhombic'
loop_
_space_group_symop_operation_xyz
x,y,z
1/2-x,-y,z
x,1/2-y,1/2-z
1/2-x,1/2+y,1/2-z
-x,-y,-z
1/2+x,y,-z
-x,1/2+y,1/2+z
1/2+x,1/2-y,1/2+z
loop_
_atom_site_type_symbol
_atom_site_label
_atom_site_fract_x
_atom_site_fract_y
_atom_site_fract_z
Si Si1 0.735045 0.635490 0.333342
Si Si2 0.987435 0.318068 0.950355
Si Si3 0.621936 0.250000 0.750000
Si Si4 0.630754 0.188238 0.006714
Si Si5 0.909856 0.416984 0.451549
Si Si6 0.998646 0.949804 0.704020
O O1 0.750000 0.500000 0.272115
O O2 0.712645 0.750000 0.250000
O O3 0.807699 0.674245 0.396637
O O4 0.671434 0.614742 0.427181
O O5 0.978469 0.408839 0.833989
O O6 0.070027 0.283667 0.954445
O O7 0.969648 0.392297 0.077176
O O8 0.945257 0.188813 0.964835
O O9 0.661923 0.227944 0.875767
O O10 0.569735 0.133261 0.729881
O O11 0.591546 0.055182 0.992450
O O12 0.949515 0.430588 0.319448
#
# Coordination Sequence:
#
# PCOD9408882 Si02
#       6
#     8   8   4   8   8   8
#     4  10  23  39  62  91 124 160 202 250 313 364
#     4  10  20  33  58  90 121 149 202 236 304 362
#     4  10  20  42  58  80 118 158 200 250 310 346
#     4  10  22  37  60  85 118 162 198 245 302 366
#     4  11  20  39  60  88 126 156 195 261 306 354
#     4  10  19  33  58  89 117 157 187 249 301 358
#
# _framework density 19.824846000000001
#
# number of rings (size 3 to 8) (size 9 to 14) (size 15 to 20)
#    0.000    1.818    3.636    1.636    5.091    0.000 
#    3.273    0.000   12.000    0.000    0.000    0.000 
#    0.000    0.000    0.000    0.000    0.000    0.000 
#
# Total GULP energy -245484.785048 kJ/mol
# GULP energy per Si atom -5579.199660 kJ/mol
# Density = 1.977972 g / cm^3
# Si number density = 19.824846 Si / 1000 Ang^3
#
#
#
# Elastic Constant Matrix: (Units=GPa)
#
#
# Indices 1 2 3 4 5 6 
#
# 1 42.1728 18.9204 -0.6693 0.0000 0.0000 0.0000
# 2 18.9204 99.7047 36.7697 0.0000 0.0000 0.0000
# 3 -0.6693 36.7697 51.4869 0.0000 0.0000 0.0000
# 4 0.0000 0.0000 0.0000 38.2373 0.0000 0.0000
# 5 0.0000 0.0000 0.0000 0.0000 9.2709 0.0000
# 6 0.0000 0.0000 0.0000 0.0000 0.0000 -3.4004
#
#
#
# Elastic Compliance Matrix: (Units=1/GPa)
#
#
# Indices 1 2 3 4 5 6 
#
# 1 0.026997 -0.007131 0.005443 0.000000 0.000000 0.000000
# 2 -0.007131 0.015499 -0.011161 0.000000 0.000000 0.000000
# 3 0.005443 -0.011161 0.027464 0.000000 0.000000 0.000000
# 4 0.000000 0.000000 0.000000 0.026152 0.000000 0.000000
# 5 0.000000 0.000000 0.000000 0.000000 0.107864 0.000000
# 6 0.000000 0.000000 0.000000 0.000000 0.000000 -0.294087
#
#
# Mechanical properties :
#
#
# Convention : Reuss Voigt Hill
#
# Bulk Modulus (GPa) = 22.59213 33.71178 28.15195
# Shear Modulus (GPa) = -100.68806 18.04449 -41.32178
#
# Velocity S-wave (km/s) = -7.13436 3.02022 -4.57041
# Velocity P-wave (km/s) = 7.51298 5.40407 3.69058
#
# Compressibility (1/GPa) = 0.04426321
#
# Stress axis : x y z
#
# Youngs Moduli (GPa) = 37.04057 64.52078 36.41116
#
# Poissons Ratio (x) = 0.46007 -0.19820
# Poissons Ratio (y) = 0.26412 0.40640
# Poissons Ratio (z) = -0.20162 0.72014
#
# Static dielectric constant tensor:
#      x y z
#    x 1.656800 0.000000 0.000000 
#    y 0.000000 1.816190 0.000000 
#    z 0.000000 0.000000 1.738540 
# 
# From -- ./inp_files/20548.got.cif
#   From: 2010.05.17/outbox.cif.g08.bks.cpg/sg52_11_cif.got.tgz:20548.got - 2010.06.03 12:15:38.
