data_PCOD9408037
_publ_section_title
;
Structure prediction by ZEFSAII (Michael W. Deem and Ramdas Pophale) SiO2 
 PCOD9408037
Probable space group: P N N A
;
_chemical_formula_sum "Si O2"
_cell_formula_units_Z 60
_cell_length_a 5.322332
_cell_length_b 16.491224
_cell_length_c 33.837925
_cell_angle_alpha 90.000000
_cell_angle_beta 90.000000
_cell_angle_gamma 90.000000
_cell_volume 2970.014544
_symmetry_space_group_name_H-M "P N N A"
_symmetry_group_IT_number 52
_symmetry_cell_setting 'orthorhombic'
loop_
_space_group_symop_operation_xyz
x,y,z
1/2-x,-y,z
x,1/2-y,1/2-z
1/2-x,1/2+y,1/2-z
-x,-y,-z
1/2+x,y,-z
-x,1/2+y,1/2+z
1/2+x,1/2-y,1/2+z
loop_
_atom_site_type_symbol
_atom_site_label
_atom_site_fract_x
_atom_site_fract_y
_atom_site_fract_z
Si Si1 0.162776 0.749262 0.703255
Si Si2 0.681126 0.840204 0.985317
Si Si3 0.750000 0.500000 0.465871
Si Si4 0.332663 0.085929 0.653072
Si Si5 0.614103 0.585337 0.591479
Si Si6 0.662798 0.800503 0.837852
Si Si7 0.666827 0.636659 0.888397
Si Si8 0.267857 0.903298 0.475833
O O1 0.126911 0.750000 0.750000
O O2 0.161659 0.839776 0.684154
O O3 0.433652 0.712546 0.692190
O O4 0.933212 0.699865 0.683238
O O5 0.748209 0.854442 0.939737
O O6 0.413163 0.799775 0.992613
O O7 0.631525 0.931286 0.004625
O O8 0.630956 0.437621 0.433633
O O9 0.603512 0.086837 0.631738
O O10 0.109606 0.102124 0.621389
O O11 0.250000 0.000000 0.671481
O O12 0.750000 0.500000 0.593737
O O13 0.600192 0.624343 0.633972
O O14 0.669876 0.723408 0.867082
O O15 0.717687 0.641428 0.934729
O O16 0.542200 0.886946 0.493604
O O17 0.250000 0.000000 0.466896
#
# Coordination Sequence:
#
# PCOD9408037 Si02
#       8
#     8   8   4   8   8   8   8   8
#     4  10  22  44  64  84 120 150 177 222 296 374
#     4  10  17  30  48  73 104 150 203 242 277 319
#     4  10  18  32  52  80 110 160 204 248 284 314
#     4  10  19  34  63  92 106 142 190 233 273 324
#     4  11  20  34  55  81 118 150 203 253 276 332
#     4  10  24  38  61  87 110 153 187 230 301 342
#     4  10  20  37  53  81 121 142 187 240 280 330
#     4  10  19  30  49  74 106 150 185 219 274 332
#
# _framework density 20.201923000000001
#
# number of rings (size 3 to 8) (size 9 to 14) (size 15 to 20)
#    0.000    1.867    2.000    3.200    1.867    1.067 
#    0.000    4.000    0.000    0.000    0.000    0.000 
#    0.000    0.000    0.000    0.000    0.000    0.000 
#
# Total GULP energy -334575.473685 kJ/mol
# GULP energy per Si atom -5576.257895 kJ/mol
# Density = 2.015594 g / cm^3
# Si number density = 20.201923 Si / 1000 Ang^3
#
#
#
# Elastic Constant Matrix: (Units=GPa)
#
#
# Indices 1 2 3 4 5 6 
#
# 1 107.8974 2.3035 19.6546 0.0000 0.0000 0.0000
# 2 2.3035 25.1259 5.4287 0.0000 0.0000 0.0000
# 3 19.6546 5.4287 104.6896 0.0000 0.0000 0.0000
# 4 0.0000 0.0000 0.0000 8.5884 0.0000 0.0000
# 5 0.0000 0.0000 0.0000 0.0000 20.6287 0.0000
# 6 0.0000 0.0000 0.0000 0.0000 0.0000 9.5382
#
#
#
# Elastic Compliance Matrix: (Units=1/GPa)
#
#
# Indices 1 2 3 4 5 6 
#
# 1 0.009602 -0.000496 -0.001777 0.000000 0.000000 0.000000
# 2 -0.000496 0.040276 -0.001995 0.000000 0.000000 0.000000
# 3 -0.001777 -0.001995 0.009989 0.000000 0.000000 0.000000
# 4 0.000000 0.000000 0.000000 0.116436 0.000000 0.000000
# 5 0.000000 0.000000 0.000000 0.000000 0.048476 0.000000
# 6 0.000000 0.000000 0.000000 0.000000 0.000000 0.104842
#
#
# Mechanical properties :
#
#
# Convention : Reuss Voigt Hill
#
# Bulk Modulus (GPa) = 19.48170 32.49849 25.99009
# Shear Modulus (GPa) = 14.07386 21.77282 17.92334
#
# Velocity S-wave (km/s) = 2.64229 3.28649 2.98184
# Velocity P-wave (km/s) = 4.35584 5.52477 4.97476
#
# Compressibility (1/GPa) = 0.05133023
#
# Stress axis : x y z
#
# Youngs Moduli (GPa) = 104.14103 24.82856 100.10876
#
# Poissons Ratio (x) = 0.01232 0.17790
# Poissons Ratio (y) = 0.05169 0.19975
# Poissons Ratio (z) = 0.18506 0.04954
#
# Static dielectric constant tensor:
#      x y z
#    x 1.934510 0.000000 0.000000 
#    y 0.000000 1.793170 0.000000 
#    z 0.000000 0.000000 1.664240 
# 
# From -- ./inp_files/41815.got.cif
#   From: 2010.05.17/outbox.cif.g08.bks.cpg/sg52_21_cif.got.tgz:41815.got - 2010.06.03 12:15:38.
