data_PCOD9408242
_publ_section_title
;
Structure prediction by ZEFSAII (Michael W. Deem and Ramdas Pophale) SiO2 
 PCOD9408242
Probable space group: P N N A
;
_chemical_formula_sum "Si O2"
_cell_formula_units_Z 36
_cell_length_a 7.671420
_cell_length_b 14.240072
_cell_length_c 17.246886
_cell_angle_alpha 90.000000
_cell_angle_beta 90.000000
_cell_angle_gamma 90.000000
_cell_volume 1884.076958
_symmetry_space_group_name_H-M "P N N A"
_symmetry_group_IT_number 52
_symmetry_cell_setting 'orthorhombic'
loop_
_space_group_symop_operation_xyz
x,y,z
1/2-x,-y,z
x,1/2-y,1/2-z
1/2-x,1/2+y,1/2-z
-x,-y,-z
1/2+x,y,-z
-x,1/2+y,1/2+z
1/2+x,1/2-y,1/2+z
loop_
_atom_site_type_symbol
_atom_site_label
_atom_site_fract_x
_atom_site_fract_y
_atom_site_fract_z
Si Si1 0.144788 0.294787 0.165723
Si Si2 0.334410 0.101765 0.592358
Si Si3 0.468026 0.185468 0.437193
Si Si4 0.990692 0.642064 0.547593
Si Si5 0.250000 0.000000 0.954816
O O1 0.160081 0.250000 0.250000
O O2 0.328425 0.330318 0.130767
O O3 0.985648 0.368290 0.152659
O O4 0.093774 0.210047 0.108831
O O5 0.423936 0.113803 0.507551
O O6 0.166888 0.171528 0.590009
O O7 0.250000 0.000000 0.604299
O O8 0.448097 0.287675 0.478450
O O9 0.135346 0.576910 0.588474
O O10 0.864047 0.566602 0.509611
#
# Coordination Sequence:
#
# PCOD9408242 Si02
#       5
#     8   8   8   8   4
#     4  11  24  41  59  87 129 163 198 248 316 366
#     4  11  22  38  67  94 118 158 214 256 294 366
#     4  11  20  38  66  89 120 159 204 252 308 355
#     4  10  18  36  56  89 110 155 196 248 295 353
#     4  10  18  30  64  86 112 140 212 250 280 350
#
# _framework density 19.107500000000002
#
# number of rings (size 3 to 8) (size 9 to 14) (size 15 to 20)
#    0.000    1.333    6.667    2.000    0.000    0.889 
#    2.000    2.222    0.000    0.000    0.000    0.000 
#    0.000    0.000    0.000    0.000    0.000    0.000 
#
# Total GULP energy -200552.628785 kJ/mol
# GULP energy per Si atom -5570.906355 kJ/mol
# Density = 1.906401 g / cm^3
# Si number density = 19.107500 Si / 1000 Ang^3
#
#
#
# Elastic Constant Matrix: (Units=GPa)
#
#
# Indices 1 2 3 4 5 6 
#
# 1 87.5225 6.7344 23.6850 0.0000 0.0000 0.0000
# 2 6.7344 86.5628 1.0221 0.0000 0.0000 0.0000
# 3 23.6850 1.0221 71.0493 0.0000 0.0000 0.0000
# 4 0.0000 0.0000 0.0000 12.7829 0.0000 0.0000
# 5 0.0000 0.0000 0.0000 0.0000 18.5096 0.0000
# 6 0.0000 0.0000 0.0000 0.0000 0.0000 37.5037
#
#
#
# Elastic Compliance Matrix: (Units=1/GPa)
#
#
# Indices 1 2 3 4 5 6 
#
# 1 0.012634 -0.000933 -0.004198 0.000000 0.000000 0.000000
# 2 -0.000933 0.011623 0.000144 0.000000 0.000000 0.000000
# 3 -0.004198 0.000144 0.015472 0.000000 0.000000 0.000000
# 4 0.000000 0.000000 0.000000 0.078229 0.000000 0.000000
# 5 0.000000 0.000000 0.000000 0.000000 0.054026 0.000000
# 6 0.000000 0.000000 0.000000 0.000000 0.000000 0.026664
#
#
# Mechanical properties :
#
#
# Convention : Reuss Voigt Hill
#
# Bulk Modulus (GPa) = 33.60898 34.22417 33.91658
# Shear Modulus (GPa) = 22.87897 28.00545 25.44221
#
# Velocity S-wave (km/s) = 3.46407 3.83257 3.65297
# Velocity P-wave (km/s) = 5.79891 6.12659 5.96500
#
# Compressibility (1/GPa) = 0.02975395
#
# Stress axis : x y z
#
# Youngs Moduli (GPa) = 79.15458 86.03475 64.63231
#
# Poissons Ratio (x) = 0.08029 0.27133
# Poissons Ratio (y) = 0.07387 -0.00930
# Poissons Ratio (z) = 0.33230 -0.01238
#
# Static dielectric constant tensor:
#      x y z
#    x 1.785530 0.000000 0.000000 
#    y 0.000000 1.704160 0.000000 
#    z 0.000000 0.000000 1.641870 
# 
# From -- ./inp_files/24323.got.cif
#   From: 2010.05.17/outbox.cif.g08.bks.cpg/sg52_13_cif.got.tgz:24323.got - 2010.06.03 12:15:38.
