data_PCOD9408396
_publ_section_title
;
Structure prediction by ZEFSAII (Michael W. Deem and Ramdas Pophale) SiO2 
 PCOD9408396
Probable space group: P N N A
;
_chemical_formula_sum "Si O2"
_cell_formula_units_Z 40
_cell_length_a 7.816446
_cell_length_b 10.198102
_cell_length_c 24.663642
_cell_angle_alpha 90.000000
_cell_angle_beta 90.000000
_cell_angle_gamma 90.000000
_cell_volume 1966.010763
_symmetry_space_group_name_H-M "P N N A"
_symmetry_group_IT_number 52
_symmetry_cell_setting 'orthorhombic'
loop_
_space_group_symop_operation_xyz
x,y,z
1/2-x,-y,z
x,1/2-y,1/2-z
1/2-x,1/2+y,1/2-z
-x,-y,-z
1/2+x,y,-z
-x,1/2+y,1/2+z
1/2+x,1/2-y,1/2+z
loop_
_atom_site_type_symbol
_atom_site_label
_atom_site_fract_x
_atom_site_fract_y
_atom_site_fract_z
Si Si1 0.565678 0.060515 0.443055
Si Si2 0.159520 0.240848 0.862996
Si Si3 0.691264 0.776406 0.811534
Si Si4 0.750000 0.500000 0.865779
Si Si5 0.952178 0.371650 0.292992
Si Si6 0.750000 0.000000 0.292640
O O1 0.612098 0.210932 0.424369
O O2 0.750000 0.000000 0.436197
O O3 0.500000 0.000000 0.500000
O O4 0.419962 0.012841 0.401824
O O5 0.317435 0.151258 0.842207
O O6 0.203357 0.375905 0.829861
O O7 0.980141 0.183429 0.842237
O O8 0.643723 0.750000 0.750000
O O9 0.756184 0.634931 0.833267
O O10 0.855368 0.869934 0.814040
O O11 0.938228 0.250000 0.250000
O O12 0.904338 0.484808 0.250541
#
# Coordination Sequence:
#
# PCOD9408396 Si02
#       6
#     8   8   8   4   8   4
#     4  11  20  33  51  72  97 137 174 216 264 319
#     4  10  20  34  47  71 107 141 169 218 262 310
#     4  10  20  30  47  73 100 140 176 204 254 314
#     4  10  22  33  50  74 108 141 170 208 270 304
#     4   9  19  32  46  73 100 141 179 210 255 315
#     4  10  18  33  56  70 106 153 180 208 264 320
#
# _framework density 20.345769000000001
#
# number of rings (size 3 to 8) (size 9 to 14) (size 15 to 20)
#    0.000    2.000    2.000    3.000   14.000    0.000 
#    0.000    0.000    0.000    0.000    0.000    0.000 
#    0.000    8.000    0.000    1.800    0.000    0.000 
#
# Total GULP energy -222755.338370 kJ/mol
# GULP energy per Si atom -5568.883459 kJ/mol
# Density = 2.029946 g / cm^3
# Si number density = 20.345769 Si / 1000 Ang^3
#
#
#
# Elastic Constant Matrix: (Units=GPa)
#
#
# Indices 1 2 3 4 5 6 
#
# 1 145.3149 9.4822 25.6108 0.0000 0.0000 0.0000
# 2 9.4822 40.5662 21.0756 0.0000 0.0000 0.0000
# 3 25.6108 21.0756 93.4673 0.0000 0.0000 0.0000
# 4 0.0000 0.0000 0.0000 9.2360 0.0000 0.0000
# 5 0.0000 0.0000 0.0000 0.0000 5.2723 0.0000
# 6 0.0000 0.0000 0.0000 0.0000 0.0000 30.1228
#
#
#
# Elastic Compliance Matrix: (Units=1/GPa)
#
#
# Indices 1 2 3 4 5 6 
#
# 1 0.007251 -0.000751 -0.001818 0.000000 0.000000 0.000000
# 2 -0.000751 0.028000 -0.006108 0.000000 0.000000 0.000000
# 3 -0.001818 -0.006108 0.012574 0.000000 0.000000 0.000000
# 4 0.000000 0.000000 0.000000 0.108272 0.000000 0.000000
# 5 0.000000 0.000000 0.000000 0.000000 0.189670 0.000000
# 6 0.000000 0.000000 0.000000 0.000000 0.000000 0.033197
#
#
# Mechanical properties :
#
#
# Convention : Reuss Voigt Hill
#
# Bulk Modulus (GPa) = 32.81615 43.52062 38.16838
# Shear Modulus (GPa) = 12.30092 23.80489 18.05291
#
# Velocity S-wave (km/s) = 2.46152 3.42426 2.98200
# Velocity P-wave (km/s) = 4.92372 6.08860 5.53688
#
# Compressibility (1/GPa) = 0.03047280
#
# Stress axis : x y z
#
# Youngs Moduli (GPa) = 137.91359 35.71461 79.52791
#
# Poissons Ratio (x) = 0.02681 0.14455
# Poissons Ratio (y) = 0.10351 0.48575
# Poissons Ratio (z) = 0.25067 0.21814
#
# Static dielectric constant tensor:
#      x y z
#    x 1.747080 0.000000 0.000000 
#    y 0.000000 1.865570 0.000000 
#    z 0.000000 0.000000 1.782540 
# 
# From -- ./inp_files/35815.got.cif
#   From: 2010.05.17/outbox.cif.g08.bks.cpg/sg52_18_cif.got.tgz:35815.got - 2010.06.03 12:15:38.
