data_PCOD9408587
_publ_section_title
;
Structure prediction by ZEFSAII (Michael W. Deem and Ramdas Pophale) SiO2 
 PCOD9408587
Probable space group: P N N A
;
_chemical_formula_sum "Si O2"
_cell_formula_units_Z 64
_cell_length_a 9.087357
_cell_length_b 17.441777
_cell_length_c 19.941856
_cell_angle_alpha 90.000000
_cell_angle_beta 90.000000
_cell_angle_gamma 90.000000
_cell_volume 3160.777282
_symmetry_space_group_name_H-M "P N N A"
_symmetry_group_IT_number 52
_symmetry_cell_setting 'orthorhombic'
loop_
_space_group_symop_operation_xyz
x,y,z
1/2-x,-y,z
x,1/2-y,1/2-z
1/2-x,1/2+y,1/2-z
-x,-y,-z
1/2+x,y,-z
-x,1/2+y,1/2+z
1/2+x,1/2-y,1/2+z
loop_
_atom_site_type_symbol
_atom_site_label
_atom_site_fract_x
_atom_site_fract_y
_atom_site_fract_z
Si Si1 0.413453 0.519928 0.099906
Si Si2 0.499828 0.696309 0.592361
Si Si3 0.541791 0.133792 0.357618
Si Si4 0.428237 0.565105 0.257477
Si Si5 0.758109 0.775200 0.997754
Si Si6 0.107729 0.607366 0.281927
Si Si7 0.840139 0.174572 0.288549
Si Si8 0.985636 0.316422 0.074829
O O1 0.250000 0.500000 0.075426
O O2 0.509721 0.443010 0.101071
O O3 0.399598 0.545900 0.178483
O O4 0.484172 0.593512 0.065038
O O5 0.488438 0.788471 0.602281
O O6 0.642311 0.678989 0.547263
O O7 0.352043 0.676850 0.551736
O O8 0.524586 0.658207 0.663843
O O9 0.435525 0.132579 0.292934
O O10 0.705283 0.135234 0.327027
O O11 0.284891 0.607757 0.286082
O O12 0.439898 0.481402 0.289991
O O13 0.574147 0.615910 0.259292
O O14 0.658464 0.713412 0.036844
O O15 0.875906 0.731646 0.951401
O O16 0.788208 0.250000 0.250000
O O17 0.955500 0.197841 0.346524
#
# Coordination Sequence:
#
# PCOD9408587 Si02
#       8
#     8   8   8   8   8   8   8   8
#     4  10  18  37  59  84 122 156 190 243 303 368
#     4  11  22  39  61  85 118 162 210 260 301 357
#     4  11  21  37  60  92 124 151 196 252 311 368
#     4   9  20  37  56  93 121 149 189 239 312 379
#     4  10  23  41  57  84 118 166 216 253 288 353
#     4  10  20  37  64  89 118 154 197 249 313 370
#     4  11  23  36  60  95 125 150 191 250 316 372
#     4  10  22  40  58  80 121 159 207 247 298 355
#
# _framework density 20.248183999999998
#
# number of rings (size 3 to 8) (size 9 to 14) (size 15 to 20)
#    0.000    1.750    3.750    1.875    3.500    4.500 
#    0.000    6.875    0.000    3.000    0.000    0.000 
#    0.000    0.000    0.000    0.000    0.000    0.000 
#
# Total GULP energy -357531.425172 kJ/mol
# GULP energy per Si atom -5586.428518 kJ/mol
# Density = 2.020210 g / cm^3
# Si number density = 20.248184 Si / 1000 Ang^3
#
#
#
# Elastic Constant Matrix: (Units=GPa)
#
#
# Indices 1 2 3 4 5 6 
#
# 1 94.7978 22.0061 -0.6607 0.0000 0.0000 0.0000
# 2 22.0061 21.7847 -1.1286 0.0000 0.0000 0.0000
# 3 -0.6607 -1.1286 31.8983 0.0000 0.0000 0.0000
# 4 0.0000 0.0000 0.0000 10.6473 0.0000 0.0000
# 5 0.0000 0.0000 0.0000 0.0000 11.6373 0.0000
# 6 0.0000 0.0000 0.0000 0.0000 0.0000 17.9048
#
#
#
# Elastic Compliance Matrix: (Units=1/GPa)
#
#
# Indices 1 2 3 4 5 6 
#
# 1 0.013782 -0.013932 -0.000207 0.000000 0.000000 0.000000
# 2 -0.013932 0.060073 0.001837 0.000000 0.000000 0.000000
# 3 -0.000207 0.001837 0.031410 0.000000 0.000000 0.000000
# 4 0.000000 0.000000 0.000000 0.093921 0.000000 0.000000
# 5 0.000000 0.000000 0.000000 0.000000 0.085931 0.000000
# 6 0.000000 0.000000 0.000000 0.000000 0.000000 0.055851
#
#
# Mechanical properties :
#
#
# Convention : Reuss Voigt Hill
#
# Bulk Modulus (GPa) = 12.39793 20.99050 16.69421
# Shear Modulus (GPa) = 12.74018 16.58880 14.66449
#
# Velocity S-wave (km/s) = 2.51111 2.86540 2.69409
# Velocity P-wave (km/s) = 3.81364 4.61914 4.23558
#
# Compressibility (1/GPa) = 0.08065864
#
# Stress axis : x y z
#
# Youngs Moduli (GPa) = 72.56088 16.64648 31.83665
#
# Poissons Ratio (x) = 0.23192 0.00661
# Poissons Ratio (y) = 1.01094 -0.05848
# Poissons Ratio (z) = 0.01505 -0.03058
#
# Static dielectric constant tensor:
#      x y z
#    x 1.743180 0.000000 0.000000 
#    y 0.000000 1.707870 0.000000 
#    z 0.000000 0.000000 1.744340 
# 
# From -- ./inp_files/36183.got.cif
#   From: 2010.05.17/outbox.cif.g08.bks.cpg/sg52_19_cif.got.tgz:36183.got - 2010.06.03 12:15:38.
