data_PCOD9408730
_publ_section_title
;
Structure prediction by ZEFSAII (Michael W. Deem and Ramdas Pophale) SiO2 
 PCOD9408730
Probable space group: P N N A
;
_chemical_formula_sum "Si O2"
_cell_formula_units_Z 32
_cell_length_a 14.683607
_cell_length_b 5.200625
_cell_length_c 18.336487
_cell_angle_alpha 90.000000
_cell_angle_beta 90.000000
_cell_angle_gamma 90.000000
_cell_volume 1400.246277
_symmetry_space_group_name_H-M "P N N A"
_symmetry_group_IT_number 52
_symmetry_cell_setting 'orthorhombic'
loop_
_space_group_symop_operation_xyz
x,y,z
1/2-x,-y,z
x,1/2-y,1/2-z
1/2-x,1/2+y,1/2-z
-x,-y,-z
1/2+x,y,-z
-x,1/2+y,1/2+z
1/2+x,1/2-y,1/2+z
loop_
_atom_site_type_symbol
_atom_site_label
_atom_site_fract_x
_atom_site_fract_y
_atom_site_fract_z
Si Si1 0.897675 0.700961 0.449839
Si Si2 0.961530 0.495867 0.299574
Si Si3 0.843039 0.139553 0.830695
Si Si4 0.112522 0.701291 0.023733
O O1 0.901244 0.575789 0.369440
O O2 0.854884 0.482710 0.500196
O O3 0.003160 0.754810 0.472455
O O4 0.858544 0.981808 0.467257
O O5 0.936310 0.250000 0.250000
O O6 0.065400 0.464419 0.329038
O O7 0.962749 0.750000 0.250000
O O8 0.834511 0.250000 0.750000
O O9 0.859286 0.351249 0.893289
O O10 0.750000 0.000000 0.847393
#
# Coordination Sequence:
#
# PCOD9408730 Si02
#       4
#     8   8   8   8
#     4   9  17  31  48  68  93 124 168 215 256 302
#     4  10  19  31  50  75 102 132 167 213 268 320
#     4  10  21  33  48  70 103 142 180 214 252 309
#     4   9  18  31  48  66  91 131 172 211 253 294
#
# _framework density 22.853121000000002
#
# number of rings (size 3 to 8) (size 9 to 14) (size 15 to 20)
#    0.000    2.500    0.000    2.250    0.000   14.000 
#    0.000    0.000    0.000    0.000    0.000    0.000 
#    0.000    6.000    0.000    4.250    0.000   12.500 
#
# Total GULP energy -178504.769990 kJ/mol
# GULP energy per Si atom -5578.274062 kJ/mol
# Density = 2.280111 g / cm^3
# Si number density = 22.853121 Si / 1000 Ang^3
#
#
#
# Elastic Constant Matrix: (Units=GPa)
#
#
# Indices 1 2 3 4 5 6 
#
# 1 48.0747 10.4156 28.1728 0.0000 0.0000 0.0000
# 2 10.4156 158.6974 75.9164 0.0000 0.0000 0.0000
# 3 28.1728 75.9164 147.1343 0.0000 0.0000 0.0000
# 4 0.0000 0.0000 0.0000 45.8478 0.0000 0.0000
# 5 0.0000 0.0000 0.0000 0.0000 -49.2184 0.0000
# 6 0.0000 0.0000 0.0000 0.0000 0.0000 -2.0987
#
#
#
# Elastic Compliance Matrix: (Units=1/GPa)
#
#
# Indices 1 2 3 4 5 6 
#
# 1 0.023508 0.000810 -0.004919 0.000000 0.000000 0.000000
# 2 0.000810 0.008394 -0.004486 0.000000 0.000000 0.000000
# 3 -0.004919 -0.004486 0.010053 0.000000 0.000000 0.000000
# 4 0.000000 0.000000 0.000000 0.021811 0.000000 0.000000
# 5 0.000000 0.000000 0.000000 0.000000 -0.020318 0.000000
# 6 0.000000 0.000000 0.000000 0.000000 0.000000 -0.476480
#
#
# Mechanical properties :
#
#
# Convention : Reuss Voigt Hill
#
# Bulk Modulus (GPa) = 40.37940 64.76844 52.57392
# Shear Modulus (GPa) = -12.26739 14.86623 1.29942
#
# Velocity S-wave (km/s) = -2.31939 2.55328 0.75487
# Velocity P-wave (km/s) = 3.24572 6.09057 4.88005
#
# Compressibility (1/GPa) = 0.02476510
#
# Stress axis : x y z
#
# Youngs Moduli (GPa) = 42.53822 119.12928 99.47018
#
# Poissons Ratio (x) = -0.09655 0.48934
# Poissons Ratio (y) = -0.03447 0.44626
# Poissons Ratio (z) = 0.20926 0.53445
#
# Static dielectric constant tensor:
#      x y z
#    x 1.910660 0.000000 0.000000 
#    y 0.000000 1.884750 0.000000 
#    z 0.000000 0.000000 1.898020 
# 
# From -- ./inp_files/33399.got.cif
#   From: 2010.05.17/outbox.cif.g08.bks.cpg/sg52_17_cif.got.tgz:33399.got - 2010.06.03 12:15:38.
