data_PCOD9408137
_publ_section_title
;
Structure prediction by ZEFSAII (Michael W. Deem and Ramdas Pophale) SiO2 
 PCOD9408137
Probable space group: P N N A
;
_chemical_formula_sum "Si O2"
_cell_formula_units_Z 56
_cell_length_a 16.866936
_cell_length_b 8.487858
_cell_length_c 22.718594
_cell_angle_alpha 90.000000
_cell_angle_beta 90.000000
_cell_angle_gamma 90.000000
_cell_volume 3252.488373
_symmetry_space_group_name_H-M "P N N A"
_symmetry_group_IT_number 52
_symmetry_cell_setting 'orthorhombic'
loop_
_space_group_symop_operation_xyz
x,y,z
1/2-x,-y,z
x,1/2-y,1/2-z
1/2-x,1/2+y,1/2-z
-x,-y,-z
1/2+x,y,-z
-x,1/2+y,1/2+z
1/2+x,1/2-y,1/2+z
loop_
_atom_site_type_symbol
_atom_site_label
_atom_site_fract_x
_atom_site_fract_y
_atom_site_fract_z
Si Si1 0.644077 0.109964 0.110311
Si Si2 0.003443 0.782456 0.057285
Si Si3 0.250000 0.500000 0.710522
Si Si4 0.081147 0.105035 0.064435
Si Si5 0.435039 0.233633 0.879075
Si Si6 0.876510 0.411586 0.007567
Si Si7 0.130276 0.750000 0.750000
Si Si8 0.211059 0.253982 0.004073
O O1 0.566117 0.221220 0.105726
O O2 0.698599 0.155775 0.055487
O O3 0.698399 0.113331 0.167792
O O4 0.609181 0.932530 0.105405
O O5 0.064887 0.920932 0.073605
O O6 0.051403 0.629511 0.036677
O O7 0.958587 0.847555 0.998734
O O8 0.187559 0.599712 0.746443
O O9 0.027805 0.201699 0.110022
O O10 0.171347 0.156749 0.056893
O O11 0.403367 0.360059 0.926664
O O12 0.417123 0.262859 0.810942
O O13 0.842111 0.586951 0.003316
O O14 0.801671 0.302515 0.990348
#
# Coordination Sequence:
#
# PCOD9408137 Si02
#       8
#     8   8   4   8   8   8   4   8
#     4   9  17  30  45  58  80 116 147 174 213 253
#     4   8  15  27  42  60  81 110 143 173 207 257
#     4  10  20  32  46  64  86 116 152 186 216 254
#     4   8  15  27  42  59  81 110 145 172 208 257
#     4   9  18  31  44  60  83 114 148 181 210 247
#     4  10  19  27  39  64  93 114 140 173 212 260
#     4  10  20  32  46  62  86 114 148 186 214 242
#     4  10  18  26  40  63  90 117 139 170 215 264
#
# _framework density 17.217587000000002
#
# number of rings (size 3 to 8) (size 9 to 14) (size 15 to 20)
#    0.000    2.857    0.000    4.286    0.000    9.143 
#    0.000    0.000    0.000    0.000    0.000    0.000 
#    0.000   14.857    0.000    0.143    0.000    0.000 
#
# Total GULP energy -312066.009892 kJ/mol
# GULP energy per Si atom -5572.607319 kJ/mol
# Density = 1.717840 g / cm^3
# Si number density = 17.217587 Si / 1000 Ang^3
#
#
#
# Elastic Constant Matrix: (Units=GPa)
#
#
# Indices 1 2 3 4 5 6 
#
# 1 61.2871 27.1198 34.9070 0.0000 0.0000 0.0000
# 2 27.1198 34.0286 20.7256 0.0000 0.0000 0.0000
# 3 34.9070 20.7256 68.5052 0.0000 0.0000 0.0000
# 4 0.0000 0.0000 0.0000 15.9955 0.0000 0.0000
# 5 0.0000 0.0000 0.0000 0.0000 5.6729 0.0000
# 6 0.0000 0.0000 0.0000 0.0000 0.0000 31.6076
#
#
#
# Elastic Compliance Matrix: (Units=1/GPa)
#
#
# Indices 1 2 3 4 5 6 
#
# 1 0.029742 -0.017743 -0.009787 0.000000 0.000000 0.000000
# 2 -0.017743 0.046610 -0.005060 0.000000 0.000000 0.000000
# 3 -0.009787 -0.005060 0.021116 0.000000 0.000000 0.000000
# 4 0.000000 0.000000 0.000000 0.062518 0.000000 0.000000
# 5 0.000000 0.000000 0.000000 0.000000 0.176277 0.000000
# 6 0.000000 0.000000 0.000000 0.000000 0.000000 0.031638
#
#
# Mechanical properties :
#
#
# Convention : Reuss Voigt Hill
#
# Bulk Modulus (GPa) = 30.97272 36.59174 33.78223
# Shear Modulus (GPa) = 11.26524 16.05977 13.66250
#
# Velocity S-wave (km/s) = 2.56068 3.05741 2.82001
# Velocity P-wave (km/s) = 5.17405 5.81054 5.50151
#
# Compressibility (1/GPa) = 0.03228648
#
# Stress axis : x y z
#
# Youngs Moduli (GPa) = 33.62198 21.45483 47.35818
#
# Poissons Ratio (x) = 0.38067 0.46352
# Poissons Ratio (y) = 0.59654 0.23966
# Poissons Ratio (z) = 0.32907 0.10857
#
# Static dielectric constant tensor:
#      x y z
#    x 1.622730 0.000000 0.000000 
#    y 0.000000 1.655860 0.000000 
#    z 0.000000 0.000000 1.560100 
# 
# From -- ./inp_files/40890.got.cif
#   From: 2010.05.17/outbox.cif.g08.bks.cpg/sg52_21_cif.got.tgz:40890.got - 2010.06.03 12:15:38.
