data_PCOD9408412
_publ_section_title
;
Structure prediction by ZEFSAII (Michael W. Deem and Ramdas Pophale) SiO2 
 PCOD9408412
Probable space group: P N N A
;
_chemical_formula_sum "Si O2"
_cell_formula_units_Z 40
_cell_length_a 9.846646
_cell_length_b 17.324654
_cell_length_c 12.711098
_cell_angle_alpha 90.000000
_cell_angle_beta 90.000000
_cell_angle_gamma 90.000000
_cell_volume 2168.382840
_symmetry_space_group_name_H-M "P N N A"
_symmetry_group_IT_number 52
_symmetry_cell_setting 'orthorhombic'
loop_
_space_group_symop_operation_xyz
x,y,z
1/2-x,-y,z
x,1/2-y,1/2-z
1/2-x,1/2+y,1/2-z
-x,-y,-z
1/2+x,y,-z
-x,1/2+y,1/2+z
1/2+x,1/2-y,1/2+z
loop_
_atom_site_type_symbol
_atom_site_label
_atom_site_fract_x
_atom_site_fract_y
_atom_site_fract_z
Si Si1 0.093899 0.021024 0.400631
Si Si2 0.821987 0.112015 0.155512
Si Si3 0.590722 0.162365 0.751613
Si Si4 0.047307 0.446663 0.701348
Si Si5 0.210331 0.589171 0.423580
O O1 0.089899 0.108776 0.353484
O O2 0.250000 0.000000 0.422493
O O3 0.000000 0.000000 0.500000
O O4 0.036205 0.969051 0.304850
O O5 0.681813 0.103810 0.218967
O O6 0.936487 0.164330 0.206046
O O7 0.894886 0.027534 0.156057
O O8 0.784461 0.130737 0.035666
O O9 0.640991 0.250000 0.750000
O O10 0.685748 0.119903 0.836805
O O11 0.942305 0.409076 0.620824
O O12 0.250000 0.500000 0.440390
#
# Coordination Sequence:
#
# PCOD9408412 Si02
#       5
#     8   8   8   8   8
#     4  11  23  41  66  87 115 166 220 257 293 373
#     4  10  20  31  61  92 117 149 188 249 308 369
#     4  11  24  43  57  87 133 162 196 263 321 360
#     4  10  18  33  58  92 116 143 198 256 291 349
#     4  12  17  36  64  93 118 148 202 246 310 368
#
# _framework density 18.446926000000001
#
# number of rings (size 3 to 8) (size 9 to 14) (size 15 to 20)
#    0.000    1.200    8.000    1.800    5.600    0.000 
#    3.600    1.000    0.000    0.000    0.000    0.000 
#    0.000    0.000    0.000    0.000    0.000    0.000 
#
# Total GULP energy -223062.656269 kJ/mol
# GULP energy per Si atom -5576.566407 kJ/mol
# Density = 1.840494 g / cm^3
# Si number density = 18.446926 Si / 1000 Ang^3
#
#
#
# Elastic Constant Matrix: (Units=GPa)
#
#
# Indices 1 2 3 4 5 6 
#
# 1 140.4971 15.0836 36.0805 0.0000 0.0000 0.0000
# 2 15.0836 55.8301 31.2024 0.0000 0.0000 0.0000
# 3 36.0805 31.2024 91.9051 0.0000 0.0000 0.0000
# 4 0.0000 0.0000 0.0000 5.4152 0.0000 0.0000
# 5 0.0000 0.0000 0.0000 0.0000 35.7782 0.0000
# 6 0.0000 0.0000 0.0000 0.0000 0.0000 8.7323
#
#
#
# Elastic Compliance Matrix: (Units=1/GPa)
#
#
# Indices 1 2 3 4 5 6 
#
# 1 0.007927 -0.000497 -0.002943 0.000000 0.000000 0.000000
# 2 -0.000497 0.022137 -0.007321 0.000000 0.000000 0.000000
# 3 -0.002943 -0.007321 0.014522 0.000000 0.000000 0.000000
# 4 0.000000 0.000000 0.000000 0.184666 0.000000 0.000000
# 5 0.000000 0.000000 0.000000 0.000000 0.027950 0.000000
# 6 0.000000 0.000000 0.000000 0.000000 0.000000 0.114517
#
#
# Mechanical properties :
#
#
# Convention : Reuss Voigt Hill
#
# Bulk Modulus (GPa) = 43.35715 50.32949 46.84332
# Shear Modulus (GPa) = 12.47107 23.70952 18.09029
#
# Velocity S-wave (km/s) = 2.60292 3.58897 3.13496
# Velocity P-wave (km/s) = 5.70862 6.67210 6.20908
#
# Compressibility (1/GPa) = 0.02306425
#
# Stress axis : x y z
#
# Youngs Moduli (GPa) = 126.15484 45.17310 68.86228
#
# Poissons Ratio (x) = 0.02243 0.20268
# Poissons Ratio (y) = 0.06265 0.50412
# Poissons Ratio (z) = 0.37132 0.33070
#
# Static dielectric constant tensor:
#      x y z
#    x 1.660200 0.000000 0.000000 
#    y 0.000000 1.676900 0.000000 
#    z 0.000000 0.000000 1.647720 
# 
# From -- ./inp_files/16674.got.cif
#   From: 2010.05.17/outbox.cif.g08.bks.cpg/sg52_9_cif.got.tgz:16674.got - 2010.06.03 12:15:38.
