data_PCOD9408255
_publ_section_title
;
Structure prediction by ZEFSAII (Michael W. Deem and Ramdas Pophale) SiO2 
 PCOD9408255
Probable space group: P N N A
;
_chemical_formula_sum "Si O2"
_cell_formula_units_Z 40
_cell_length_a 18.336608
_cell_length_b 7.431663
_cell_length_c 14.041790
_cell_angle_alpha 90.000000
_cell_angle_beta 90.000000
_cell_angle_gamma 90.000000
_cell_volume 1913.495663
_symmetry_space_group_name_H-M "P N N A"
_symmetry_group_IT_number 52
_symmetry_cell_setting 'orthorhombic'
loop_
_space_group_symop_operation_xyz
x,y,z
1/2-x,-y,z
x,1/2-y,1/2-z
1/2-x,1/2+y,1/2-z
-x,-y,-z
1/2+x,y,-z
-x,1/2+y,1/2+z
1/2+x,1/2-y,1/2+z
loop_
_atom_site_type_symbol
_atom_site_label
_atom_site_fract_x
_atom_site_fract_y
_atom_site_fract_z
Si Si1 0.192819 0.163384 0.646881
Si Si2 0.254271 0.278281 0.044040
Si Si3 0.101237 0.789023 0.359942
Si Si4 0.888609 0.781329 0.642616
Si Si5 0.540363 0.176566 0.459079
O O1 0.182501 0.250000 0.750000
O O2 0.230350 0.278017 0.561753
O O3 0.112999 0.123172 0.600409
O O4 0.250000 0.000000 0.660710
O O5 0.250000 0.500000 0.041892
O O6 0.333899 0.216260 0.074356
O O7 0.194107 0.221166 0.121646
O O8 0.113853 0.750000 0.250000
O O9 0.020832 0.732777 0.393385
O O10 0.108860 0.003854 0.368164
O O11 0.913071 0.750000 0.750000
O O12 0.935672 0.713249 0.552981
O O13 0.500000 0.000000 0.500000
#
# Coordination Sequence:
#
# PCOD9408255 Si02
#       5
#     8   8   8   8   8
#     4  10  19  34  53  74 100 135 173 208 250 305
#     4   8  16  31  50  68  93 128 164 195 241 304
#     4  10  18  31  50  72  94 123 161 202 245 291
#     4   9  17  31  49  69  92 124 159 196 239 291
#     4   9  18  33  52  71  99 134 167 199 247 311
#
# _framework density 20.904150999999999
#
# number of rings (size 3 to 8) (size 9 to 14) (size 15 to 20)
#    0.000    2.800    0.000    4.800    0.000    0.000 
#    0.000   14.000    0.000    0.000    0.000    0.000 
#    0.000    0.000    0.000    0.000    0.000    0.000 
#
# Total GULP energy -222734.358923 kJ/mol
# GULP energy per Si atom -5568.358973 kJ/mol
# Density = 2.085657 g / cm^3
# Si number density = 20.904151 Si / 1000 Ang^3
#
#
#
# Elastic Constant Matrix: (Units=GPa)
#
#
# Indices 1 2 3 4 5 6 
#
# 1 175.8467 17.6698 87.5398 0.0000 0.0000 0.0000
# 2 17.6698 33.5585 7.1479 0.0000 0.0000 0.0000
# 3 87.5398 7.1479 175.3335 0.0000 0.0000 0.0000
# 4 0.0000 0.0000 0.0000 21.2540 0.0000 0.0000
# 5 0.0000 0.0000 0.0000 0.0000 28.0633 0.0000
# 6 0.0000 0.0000 0.0000 0.0000 0.0000 3.3565
#
#
#
# Elastic Compliance Matrix: (Units=1/GPa)
#
#
# Indices 1 2 3 4 5 6 
#
# 1 0.007926 -0.003360 -0.003820 0.000000 0.000000 0.000000
# 2 -0.003360 0.031484 0.000394 0.000000 0.000000 0.000000
# 3 -0.003820 0.000394 0.007595 0.000000 0.000000 0.000000
# 4 0.000000 0.000000 0.000000 0.047050 0.000000 0.000000
# 5 0.000000 0.000000 0.000000 0.000000 0.035634 0.000000
# 6 0.000000 0.000000 0.000000 0.000000 0.000000 0.297929
#
#
# Mechanical properties :
#
#
# Convention : Reuss Voigt Hill
#
# Bulk Modulus (GPa) = 29.91109 67.71708 48.81409
# Shear Modulus (GPa) = 11.05377 28.69350 19.87364
#
# Velocity S-wave (km/s) = 2.30202 3.70891 3.08669
# Velocity P-wave (km/s) = 4.62661 7.12782 6.00880
#
# Compressibility (1/GPa) = 0.03343242
#
# Stress axis : x y z
#
# Youngs Moduli (GPa) = 126.16308 31.76233 131.66898
#
# Poissons Ratio (x) = 0.10671 0.50303
# Poissons Ratio (y) = 0.42387 -0.05187
# Poissons Ratio (z) = 0.48200 -0.01251
#
# Static dielectric constant tensor:
#      x y z
#    x 1.795870 0.000000 0.000000 
#    y 0.000000 1.783020 0.000000 
#    z 0.000000 0.000000 1.843880 
# 
# From -- ./inp_files/21448.got.cif
#   From: 2010.05.17/outbox.cif.g08.bks.cpg/sg52_11_cif.got.tgz:21448.got - 2010.06.03 12:15:38.
