data_PCOD9408451
_publ_section_title
;
Structure prediction by ZEFSAII (Michael W. Deem and Ramdas Pophale) SiO2 
 PCOD9408451
Probable space group: P N N A
;
_chemical_formula_sum "Si O2"
_cell_formula_units_Z 60
_cell_length_a 16.712986
_cell_length_b 9.254456
_cell_length_c 22.067605
_cell_angle_alpha 90.000000
_cell_angle_beta 90.000000
_cell_angle_gamma 90.000000
_cell_volume 3413.187496
_symmetry_space_group_name_H-M "P N N A"
_symmetry_group_IT_number 52
_symmetry_cell_setting 'orthorhombic'
loop_
_space_group_symop_operation_xyz
x,y,z
1/2-x,-y,z
x,1/2-y,1/2-z
1/2-x,1/2+y,1/2-z
-x,-y,-z
1/2+x,y,-z
-x,1/2+y,1/2+z
1/2+x,1/2-y,1/2+z
loop_
_atom_site_type_symbol
_atom_site_label
_atom_site_fract_x
_atom_site_fract_y
_atom_site_fract_z
Si Si1 0.658413 0.047286 0.398027
Si Si2 0.544542 0.750000 0.750000
Si Si3 0.061520 0.305736 0.551593
Si Si4 0.338657 0.453694 0.480726
Si Si5 0.576846 0.572596 0.640206
Si Si6 0.928348 0.210903 0.460907
Si Si7 0.568145 0.520962 0.221094
Si Si8 0.970223 0.323353 0.331383
O O1 0.629981 0.206810 0.417941
O O2 0.750000 0.000000 0.408092
O O3 0.601744 0.942386 0.437737
O O4 0.636143 0.018261 0.327421
O O5 0.593229 0.685823 0.693548
O O6 0.487513 0.618539 0.771434
O O7 0.100328 0.436219 0.513581
O O8 0.000394 0.365922 0.602621
O O9 0.005890 0.217328 0.503961
O O10 0.250000 0.500000 0.495554
O O11 0.355818 0.453539 0.409264
O O12 0.358888 0.293722 0.503376
O O13 0.549418 0.420246 0.668402
O O14 0.943538 0.303712 0.400183
O O15 0.589529 0.584692 0.287706
O O16 0.522445 0.660694 0.193424
#
# Coordination Sequence:
#
# PCOD9408451 Si02
#       8
#     8   4   8   8   8   8   8   8
#     4  11  22  35  49  78 116 145 174 227 278 321
#     4  10  18  34  58  80  98 138 188 232 260 314
#     4  11  19  35  55  81 103 149 183 222 256 333
#     4  11  21  34  53  83 112 141 173 225 279 325
#     4  10  18  34  57  80 102 136 186 225 261 324
#     4  10  19  35  55  76 106 144 188 221 258 320
#     4   9  19  31  53  76 105 135 181 222 265 316
#     4   9  16  33  54  76  99 136 185 224 252 312
#
# _framework density 17.578876000000001
#
# number of rings (size 3 to 8) (size 9 to 14) (size 15 to 20)
#    0.000    1.867    4.000    2.000    0.000    0.000 
#    0.000    3.333    0.000    3.200    0.000    0.933 
#    0.000    0.000    0.000    0.000    0.000    0.000 
#
# Total GULP energy -334167.109327 kJ/mol
# GULP energy per Si atom -5569.451822 kJ/mol
# Density = 1.753887 g / cm^3
# Si number density = 17.578876 Si / 1000 Ang^3
#
#
#
# Elastic Constant Matrix: (Units=GPa)
#
#
# Indices 1 2 3 4 5 6 
#
# 1 31.4294 -0.4469 7.8032 0.0000 0.0000 0.0000
# 2 -0.4469 63.7713 19.9414 0.0000 0.0000 0.0000
# 3 7.8032 19.9414 84.2382 0.0000 0.0000 0.0000
# 4 0.0000 0.0000 0.0000 22.4589 0.0000 0.0000
# 5 0.0000 0.0000 0.0000 0.0000 11.0532 0.0000
# 6 0.0000 0.0000 0.0000 0.0000 0.0000 14.4804
#
#
#
# Elastic Compliance Matrix: (Units=1/GPa)
#
#
# Indices 1 2 3 4 5 6 
#
# 1 0.032661 0.001269 -0.003326 0.000000 0.000000 0.000000
# 2 0.001269 0.016984 -0.004138 0.000000 0.000000 0.000000
# 3 -0.003326 -0.004138 0.013159 0.000000 0.000000 0.000000
# 4 0.000000 0.000000 0.000000 0.044526 0.000000 0.000000
# 5 0.000000 0.000000 0.000000 0.000000 0.090472 0.000000
# 6 0.000000 0.000000 0.000000 0.000000 0.000000 0.069059
#
#
# Mechanical properties :
#
#
# Convention : Reuss Voigt Hill
#
# Bulk Modulus (GPa) = 19.83588 26.00380 22.91984
# Shear Modulus (GPa) = 16.88877 19.74124 18.31501
#
# Velocity S-wave (km/s) = 3.10295 3.35477 3.23131
# Velocity P-wave (km/s) = 4.91387 5.46175 5.19504
#
# Compressibility (1/GPa) = 0.05041369
#
# Stress axis : x y z
#
# Youngs Moduli (GPa) = 30.61745 58.87925 75.99497
#
# Poissons Ratio (x) = -0.07471 0.25275
# Poissons Ratio (y) = -0.03885 0.31447
# Poissons Ratio (z) = 0.10183 0.24365
#
# Static dielectric constant tensor:
#      x y z
#    x 1.566460 0.000000 0.000000 
#    y 0.000000 1.615150 0.000000 
#    z 0.000000 0.000000 1.653500 
# 
# From -- ./inp_files/40635.got.cif
#   From: 2010.05.17/outbox.cif.g08.bks.cpg/sg52_21_cif.got.tgz:40635.got - 2010.06.03 12:15:38.
