data_PCOD9408694
_publ_section_title
;
Structure prediction by ZEFSAII (Michael W. Deem and Ramdas Pophale) SiO2 
 PCOD9408694
Probable space group: P N N A
;
_chemical_formula_sum "Si O2"
_cell_formula_units_Z 56
_cell_length_a 5.649472
_cell_length_b 14.611716
_cell_length_c 25.283103
_cell_angle_alpha 90.000000
_cell_angle_beta 90.000000
_cell_angle_gamma 90.000000
_cell_volume 2087.081733
_symmetry_space_group_name_H-M "P N N A"
_symmetry_group_IT_number 52
_symmetry_cell_setting 'orthorhombic'
loop_
_space_group_symop_operation_xyz
x,y,z
1/2-x,-y,z
x,1/2-y,1/2-z
1/2-x,1/2+y,1/2-z
-x,-y,-z
1/2+x,y,-z
-x,1/2+y,1/2+z
1/2+x,1/2-y,1/2+z
loop_
_atom_site_type_symbol
_atom_site_label
_atom_site_fract_x
_atom_site_fract_y
_atom_site_fract_z
Si Si1 0.662522 0.645549 0.885370
Si Si2 0.839130 0.840313 0.868891
Si Si3 0.662594 0.905050 0.408852
Si Si4 0.872924 0.256240 0.998891
Si Si5 0.119446 0.361064 0.749037
Si Si6 0.160613 0.399193 0.623238
Si Si7 0.380950 0.638630 0.250317
O O1 0.753844 0.737562 0.857130
O O2 0.389898 0.621470 0.872554
O O3 0.899627 0.583865 0.884447
O O4 0.632993 0.681606 0.946036
O O5 0.606470 0.881134 0.897685
O O6 0.873058 0.888954 0.812320
O O7 0.106187 0.839398 0.892023
O O8 0.631881 0.828621 0.453416
O O9 0.750000 0.000000 0.433656
O O10 0.622743 0.204514 0.999862
O O11 0.116076 0.250000 0.750000
O O12 0.126422 0.385140 0.686496
O O13 0.369366 0.394436 0.771375
O O14 0.869232 0.393447 0.772192
O O15 0.250000 0.500000 0.611300
O O16 0.391096 0.750000 0.250000
#
# Coordination Sequence:
#
# PCOD9408694 Si02
#       7
#     8   8   8   8   8   8   8
#     4  10  19  30  45  69  97 128 162 195 244 291
#     4  10  19  31  47  70  98 125 158 205 249 292
#     4  10  19  31  48  71 100 131 165 203 239 280
#     4   8  16  27  42  64  94 121 156 193 232 279
#     4   8  14  25  42  65  90 114 145 185 233 288
#     4  10  19  31  48  71  97 123 156 203 252 290
#     4   8  14  25  42  64  84 112 150 186 224 270
#
# _framework density 26.831723
#
# number of rings (size 3 to 8) (size 9 to 14) (size 15 to 20)
#    0.000    2.857    0.000    1.714    0.000    5.143 
#    0.000    0.000    0.000    0.000    0.000   96.000 
#    0.000  102.857    0.000    0.000    0.000    0.000 
#
# Total GULP energy -312601.348011 kJ/mol
# GULP energy per Si atom -5582.166929 kJ/mol
# Density = 2.677065 g / cm^3
# Si number density = 26.831723 Si / 1000 Ang^3
#
#
#
# Elastic Constant Matrix: (Units=GPa)
#
#
# Indices 1 2 3 4 5 6 
#
# 1 362.4229 9.6718 54.8817 0.0000 0.0000 0.0000
# 2 9.6718 53.3705 18.0950 0.0000 0.0000 0.0000
# 3 54.8817 18.0950 59.1179 0.0000 0.0000 0.0000
# 4 0.0000 0.0000 0.0000 4.5534 0.0000 0.0000
# 5 0.0000 0.0000 0.0000 0.0000 37.8211 0.0000
# 6 0.0000 0.0000 0.0000 0.0000 0.0000 44.3053
#
#
#
# Elastic Compliance Matrix: (Units=1/GPa)
#
#
# Indices 1 2 3 4 5 6 
#
# 1 0.003222 0.000480 -0.003138 0.000000 0.000000 0.000000
# 2 0.000480 0.020978 -0.006867 0.000000 0.000000 0.000000
# 3 -0.003138 -0.006867 0.021930 0.000000 0.000000 0.000000
# 4 0.000000 0.000000 0.000000 0.219617 0.000000 0.000000
# 5 0.000000 0.000000 0.000000 0.000000 0.026440 0.000000
# 6 0.000000 0.000000 0.000000 0.000000 0.000000 0.022571
#
#
# Mechanical properties :
#
#
# Convention : Reuss Voigt Hill
#
# Bulk Modulus (GPa) = 36.92627 71.13425 54.03026
# Shear Modulus (GPa) = 14.58439 43.48682 29.03560
#
# Velocity S-wave (km/s) = 2.33395 4.03019 3.29315
# Velocity P-wave (km/s) = 4.58859 6.94445 5.88560
#
# Compressibility (1/GPa) = 0.02708099
#
# Stress axis : x y z
#
# Youngs Moduli (GPa) = 310.41200 47.66894 45.59991
#
# Poissons Ratio (x) = -0.02288 0.14307
# Poissons Ratio (y) = -0.14899 0.31312
# Poissons Ratio (z) = 0.97395 0.32732
#
# Static dielectric constant tensor:
#      x y z
#    x 2.240110 0.000000 0.000000 
#    y 0.000000 2.114140 0.000000 
#    z 0.000000 0.000000 2.058410 
# 
# From -- ./inp_files/43791.got.cif
#   From: 2010.05.17/outbox.cif.g08.bks.cpg/sg52_22_cif.got.tgz:43791.got - 2010.06.03 12:15:38.
