data_PCOD9408270
_publ_section_title
;
Structure prediction by ZEFSAII (Michael W. Deem and Ramdas Pophale) SiO2 
 PCOD9408270
Probable space group: P N N A
;
_chemical_formula_sum "Si O2"
_cell_formula_units_Z 48
_cell_length_a 16.213486
_cell_length_b 15.614149
_cell_length_c 7.103902
_cell_angle_alpha 90.000000
_cell_angle_beta 90.000000
_cell_angle_gamma 90.000000
_cell_volume 1798.422312
_symmetry_space_group_name_H-M "P N N A"
_symmetry_group_IT_number 52
_symmetry_cell_setting 'orthorhombic'
loop_
_space_group_symop_operation_xyz
x,y,z
1/2-x,-y,z
x,1/2-y,1/2-z
1/2-x,1/2+y,1/2-z
-x,-y,-z
1/2+x,y,-z
-x,1/2+y,1/2+z
1/2+x,1/2-y,1/2+z
loop_
_atom_site_type_symbol
_atom_site_label
_atom_site_fract_x
_atom_site_fract_y
_atom_site_fract_z
Si Si1 0.441165 0.177128 0.016139
Si Si2 0.162232 0.315385 0.015478
Si Si3 0.522339 0.631925 0.095335
Si Si4 0.690265 0.921990 0.480247
Si Si5 0.889142 0.859129 0.105937
Si Si6 0.169381 0.542039 0.538872
O O1 0.438919 0.275940 0.965639
O O2 0.466354 0.129275 0.821154
O O3 0.362600 0.123366 0.074385
O O4 0.516774 0.163087 0.153590
O O5 0.255465 0.343114 0.062457
O O6 0.142998 0.213770 0.039080
O O7 0.160379 0.339713 0.793845
O O8 0.076811 0.363722 0.074330
O O9 0.590211 0.570669 0.993722
O O10 0.690481 0.925583 0.249583
O O11 0.750000 0.000000 0.534841
O O12 0.887045 0.957815 0.051214
O O13 0.250000 0.500000 0.453134
#
# Coordination Sequence:
#
# PCOD9408270 Si02
#       6
#     8   8   8   8   8   8
#     4   9  19  34  54  77 106 140 175 220 271 328
#     4  10  20  34  57  80 106 142 177 227 266 313
#     4   9  20  35  56  77 108 142 179 218 273 321
#     4  10  19  34  52  81 104 139 184 219 260 318
#     4  10  19  33  55  79 106 134 180 222 269 311
#     4  10  18  31  52  82 102 135 178 223 260 310
#
# _framework density 26.690062999999999
#
# number of rings (size 3 to 8) (size 9 to 14) (size 15 to 20)
#    0.000    2.333    3.333    0.500    2.333    2.000 
#    0.000    0.000    3.667    4.000    0.000    0.000 
#    0.000    0.000    0.000    0.000    0.000    0.000 
#
# Total GULP energy -267606.281515 kJ/mol
# GULP energy per Si atom -5575.130865 kJ/mol
# Density = 2.662932 g / cm^3
# Si number density = 26.690063 Si / 1000 Ang^3
#
#
#
# Elastic Constant Matrix: (Units=GPa)
#
#
# Indices 1 2 3 4 5 6 
#
# 1 140.3589 38.0555 25.2946 0.0000 0.0000 0.0000
# 2 38.0555 112.7414 9.2112 0.0000 0.0000 0.0000
# 3 25.2946 9.2112 62.1726 0.0000 0.0000 0.0000
# 4 0.0000 0.0000 0.0000 9.5516 0.0000 0.0000
# 5 0.0000 0.0000 0.0000 0.0000 41.0628 0.0000
# 6 0.0000 0.0000 0.0000 0.0000 0.0000 45.1192
#
#
#
# Elastic Compliance Matrix: (Units=1/GPa)
#
#
# Indices 1 2 3 4 5 6 
#
# 1 0.008368 -0.002578 -0.003023 0.000000 0.000000 0.000000
# 2 -0.002578 0.009773 -0.000399 0.000000 0.000000 0.000000
# 3 -0.003023 -0.000399 0.017373 0.000000 0.000000 0.000000
# 4 0.000000 0.000000 0.000000 0.104694 0.000000 0.000000
# 5 0.000000 0.000000 0.000000 0.000000 0.024353 0.000000
# 6 0.000000 0.000000 0.000000 0.000000 0.000000 0.022164
#
#
# Mechanical properties :
#
#
# Convention : Reuss Voigt Hill
#
# Bulk Modulus (GPa) = 42.52618 51.15503 46.84061
# Shear Modulus (GPa) = 24.20582 35.32749 29.76665
#
# Velocity S-wave (km/s) = 3.01478 3.64211 3.34319
# Velocity P-wave (km/s) = 5.29967 6.07408 5.70004
#
# Compressibility (1/GPa) = 0.02351492
#
# Stress axis : x y z
#
# Youngs Moduli (GPa) = 119.49991 102.32731 57.56016
#
# Poissons Ratio (x) = 0.26377 0.17398
# Poissons Ratio (y) = 0.30804 0.02297
# Poissons Ratio (z) = 0.36121 0.04084
#
# Static dielectric constant tensor:
#      x y z
#    x 2.186270 0.000000 0.000000 
#    y 0.000000 2.493280 0.000000 
#    z 0.000000 0.000000 2.186850 
# 
# From -- ./inp_files/19545.got.cif
#   From: 2010.05.17/outbox.cif.g08.bks.cpg/sg52_10_cif.got.tgz:19545.got - 2010.06.03 12:15:38.
