data_PCOD9408289
_publ_section_title
;
Structure prediction by ZEFSAII (Michael W. Deem and Ramdas Pophale) SiO2 
 PCOD9408289
Probable space group: P N N A
;
_chemical_formula_sum "Si O2"
_cell_formula_units_Z 40
_cell_length_a 23.182091
_cell_length_b 12.780496
_cell_length_c 5.739990
_cell_angle_alpha 90.000000
_cell_angle_beta 90.000000
_cell_angle_gamma 90.000000
_cell_volume 1700.636323
_symmetry_space_group_name_H-M "P N N A"
_symmetry_group_IT_number 52
_symmetry_cell_setting 'orthorhombic'
loop_
_space_group_symop_operation_xyz
x,y,z
1/2-x,-y,z
x,1/2-y,1/2-z
1/2-x,1/2+y,1/2-z
-x,-y,-z
1/2+x,y,-z
-x,1/2+y,1/2+z
1/2+x,1/2-y,1/2+z
loop_
_atom_site_type_symbol
_atom_site_label
_atom_site_fract_x
_atom_site_fract_y
_atom_site_fract_z
Si Si1 0.883673 0.655098 0.079227
Si Si2 0.091867 0.960933 0.918247
Si Si3 0.479247 0.917134 0.306656
Si Si4 0.218309 0.613473 0.614834
Si Si5 0.239142 0.374380 0.121818
O O1 0.872664 0.750000 0.250000
O O2 0.891709 0.549763 0.229406
O O3 0.943037 0.670169 0.940057
O O4 0.828530 0.642105 0.918349
O O5 0.150869 0.898650 0.947065
O O6 0.037579 0.891961 0.831656
O O7 0.066198 0.023184 0.139114
O O8 0.500000 0.000000 0.500000
O O9 0.250000 0.500000 0.629134
O O10 0.245685 0.664149 0.382765
O O11 0.227989 0.654877 0.878639
O O12 0.250000 0.500000 0.138103
#
# Coordination Sequence:
#
# PCOD9408289 Si02
#       5
#     8   8   8   8   8
#     4  11  22  36  57  94 132 163 202 273 336 385
#     4  10  19  36  58  90 116 163 211 268 313 379
#     4   9  20  35  56  85 121 153 213 262 320 378
#     4  10  18  31  58  84 119 151 208 254 297 366
#     4  10  19  34  55  87 121 159 205 252 307 380
#
# _framework density 23.520606000000001
#
# number of rings (size 3 to 8) (size 9 to 14) (size 15 to 20)
#    0.000    2.000    4.000    2.400    2.800    0.800 
#    0.000    0.000    0.000    0.000   15.600    0.000 
#    0.000    0.000    0.000    0.000    0.000    0.000 
#
# Total GULP energy -223552.615607 kJ/mol
# GULP energy per Si atom -5588.815390 kJ/mol
# Density = 2.346707 g / cm^3
# Si number density = 23.520606 Si / 1000 Ang^3
#
#
#
# Elastic Constant Matrix: (Units=GPa)
#
#
# Indices 1 2 3 4 5 6 
#
# 1 195.8533 20.6581 65.8236 0.0000 0.0000 0.0000
# 2 20.6581 40.0739 36.8577 0.0000 0.0000 0.0000
# 3 65.8236 36.8577 179.4911 0.0000 0.0000 0.0000
# 4 0.0000 0.0000 0.0000 34.0200 0.0000 0.0000
# 5 0.0000 0.0000 0.0000 0.0000 64.9396 0.0000
# 6 0.0000 0.0000 0.0000 0.0000 0.0000 13.0290
#
#
#
# Elastic Compliance Matrix: (Units=1/GPa)
#
#
# Indices 1 2 3 4 5 6 
#
# 1 0.005877 -0.001291 -0.001890 0.000000 0.000000 0.000000
# 2 -0.001291 0.031048 -0.005902 0.000000 0.000000 0.000000
# 3 -0.001890 -0.005902 0.007476 0.000000 0.000000 0.000000
# 4 0.000000 0.000000 0.000000 0.029395 0.000000 0.000000
# 5 0.000000 0.000000 0.000000 0.000000 0.015399 0.000000
# 6 0.000000 0.000000 0.000000 0.000000 0.000000 0.076752
#
#
# Mechanical properties :
#
#
# Convention : Reuss Voigt Hill
#
# Bulk Modulus (GPa) = 38.11747 73.56636 55.84192
# Shear Modulus (GPa) = 25.92569 41.86963 33.89766
#
# Velocity S-wave (km/s) = 3.32362 4.22373 3.80042
# Velocity P-wave (km/s) = 5.56505 7.42508 6.56131
#
# Compressibility (1/GPa) = 0.02623469
#
# Stress axis : x y z
#
# Youngs Moduli (GPa) = 170.14525 32.20833 133.75343
#
# Poissons Ratio (x) = 0.04159 0.25282
# Poissons Ratio (y) = 0.21970 0.78941
# Poissons Ratio (z) = 0.32161 0.19009
#
# Static dielectric constant tensor:
#      x y z
#    x 1.845910 0.000000 0.000000 
#    y 0.000000 1.961840 0.000000 
#    z 0.000000 0.000000 1.918640 
# 
# From -- ./inp_files/5006.got.cif
#   From: 2010.05.17/outbox.cif.g08.bks.cpg/sg52_3_cif.got.tgz:5006.got - 2010.06.03 12:15:38.
