data_PCOD9408248
_publ_section_title
;
Structure prediction by ZEFSAII (Michael W. Deem and Ramdas Pophale) SiO2 
 PCOD9408248
Probable space group: P N N A
;
_chemical_formula_sum "Si O2"
_cell_formula_units_Z 56
_cell_length_a 14.565300
_cell_length_b 9.623783
_cell_length_c 21.790038
_cell_angle_alpha 90.000000
_cell_angle_beta 90.000000
_cell_angle_gamma 90.000000
_cell_volume 3054.381240
_symmetry_space_group_name_H-M "P N N A"
_symmetry_group_IT_number 52
_symmetry_cell_setting 'orthorhombic'
loop_
_space_group_symop_operation_xyz
x,y,z
1/2-x,-y,z
x,1/2-y,1/2-z
1/2-x,1/2+y,1/2-z
-x,-y,-z
1/2+x,y,-z
-x,1/2+y,1/2+z
1/2+x,1/2-y,1/2+z
loop_
_atom_site_type_symbol
_atom_site_label
_atom_site_fract_x
_atom_site_fract_y
_atom_site_fract_z
Si Si1 0.211143 0.871667 0.069150
Si Si2 0.520027 0.707604 0.445285
Si Si3 0.007961 0.105576 0.923918
Si Si4 0.088805 0.437178 0.118887
Si Si5 0.031306 0.695236 0.181750
Si Si6 0.253708 0.774865 0.320357
Si Si7 0.672110 0.600489 0.997234
O O1 0.103460 0.901501 0.074924
O O2 0.264438 0.854895 0.133471
O O3 0.250000 0.000000 0.031985
O O4 0.224174 0.723801 0.038152
O O5 0.470118 0.678127 0.510934
O O6 0.544748 0.551993 0.422511
O O7 0.456910 0.791809 0.399141
O O8 0.603258 0.814262 0.459476
O O9 0.022239 0.206338 0.866268
O O10 0.022280 0.535555 0.159624
O O11 0.180590 0.395736 0.155302
O O12 0.114919 0.518752 0.055793
O O13 0.010232 0.750000 0.250000
O O14 0.143291 0.704956 0.175412
O O15 0.276760 0.750000 0.250000
O O16 0.750000 0.500000 0.024174
#
# Coordination Sequence:
#
# PCOD9408248 Si02
#       7
#     8   8   8   8   8   8   8
#     4  10  18  31  46  67  98 139 174 213 246 301
#     4  10  21  33  54  71 100 144 177 219 268 319
#     4   9  19  35  47  74 104 137 184 214 261 312
#     4  12  19  34  50  74 102 143 183 217 259 309
#     4  10  20  33  51  73 111 146 181 220 253 305
#     4  10  20  31  47  71 105 148 188 214 241 300
#     4  11  20  35  50  73 101 130 177 226 263 305
#
# _framework density 18.334319000000001
#
# number of rings (size 3 to 8) (size 9 to 14) (size 15 to 20)
#    0.000    1.714    5.714    1.714    0.000    4.571 
#    0.000    0.000    0.000    0.000    0.000    0.000 
#    0.000    3.429    0.000    2.571    0.000    0.000 
#
# Total GULP energy -311780.241914 kJ/mol
# GULP energy per Si atom -5567.504320 kJ/mol
# Density = 1.829259 g / cm^3
# Si number density = 18.334319 Si / 1000 Ang^3
#
#
#
# Elastic Constant Matrix: (Units=GPa)
#
#
# Indices 1 2 3 4 5 6 
#
# 1 28.0491 18.4615 12.6910 0.0000 0.0000 0.0000
# 2 18.4615 96.7793 21.5742 0.0000 0.0000 0.0000
# 3 12.6910 21.5742 69.7296 0.0000 0.0000 0.0000
# 4 0.0000 0.0000 0.0000 14.9854 0.0000 0.0000
# 5 0.0000 0.0000 0.0000 0.0000 -1.1895 0.0000
# 6 0.0000 0.0000 0.0000 0.0000 0.0000 33.2468
#
#
#
# Elastic Compliance Matrix: (Units=1/GPa)
#
#
# Indices 1 2 3 4 5 6 
#
# 1 0.042745 -0.006895 -0.005646 0.000000 0.000000 0.000000
# 2 -0.006895 0.012211 -0.002523 0.000000 0.000000 0.000000
# 3 -0.005646 -0.002523 0.016149 0.000000 0.000000 0.000000
# 4 0.000000 0.000000 0.000000 0.066732 0.000000 0.000000
# 5 0.000000 0.000000 0.000000 0.000000 -0.840664 0.000000
# 6 0.000000 0.000000 0.000000 0.000000 0.000000 0.030078
#
#
# Mechanical properties :
#
#
# Convention : Reuss Voigt Hill
#
# Bulk Modulus (GPa) = 24.40473 33.33461 28.86967
# Shear Modulus (GPa) = -7.94961 18.86395 5.45717
#
# Velocity S-wave (km/s) = -2.08455 3.21111 1.72712
# Velocity P-wave (km/s) = 2.74701 5.65414 4.44496
#
# Compressibility (1/GPa) = 0.04097567
#
# Stress axis : x y z
#
# Youngs Moduli (GPa) = 23.39460 81.89637 61.92194
#
# Poissons Ratio (x) = 0.56470 0.34963
# Poissons Ratio (y) = 0.16131 0.15623
# Poissons Ratio (z) = 0.13209 0.20662
#
# Static dielectric constant tensor:
#      x y z
#    x 1.662800 0.000000 0.000000 
#    y 0.000000 1.725800 0.000000 
#    z 0.000000 0.000000 1.666280 
# 
# From -- ./inp_files/37633.got.cif
#   From: 2010.05.17/outbox.cif.g08.bks.cpg/sg52_19_cif.got.tgz:37633.got - 2010.06.03 12:15:38.
