data_PCOD9408819
_publ_section_title
;
Structure prediction by ZEFSAII (Michael W. Deem and Ramdas Pophale) SiO2 
 PCOD9408819
Probable space group: P N N A
;
_chemical_formula_sum "Si O2"
_cell_formula_units_Z 36
_cell_length_a 5.580206
_cell_length_b 10.907915
_cell_length_c 23.009762
_cell_angle_alpha 90.000000
_cell_angle_beta 90.000000
_cell_angle_gamma 90.000000
_cell_volume 1400.567690
_symmetry_space_group_name_H-M "P N N A"
_symmetry_group_IT_number 52
_symmetry_cell_setting 'orthorhombic'
loop_
_space_group_symop_operation_xyz
x,y,z
1/2-x,-y,z
x,1/2-y,1/2-z
1/2-x,1/2+y,1/2-z
-x,-y,-z
1/2+x,y,-z
-x,1/2+y,1/2+z
1/2+x,1/2-y,1/2+z
loop_
_atom_site_type_symbol
_atom_site_label
_atom_site_fract_x
_atom_site_fract_y
_atom_site_fract_z
Si Si1 0.330372 0.677518 0.310064
Si Si2 0.776251 0.275992 0.472103
Si Si3 0.103288 0.897977 0.344688
Si Si4 0.250000 0.000000 0.561373
Si Si5 0.161854 0.172185 0.838597
O O1 0.303570 0.750000 0.250000
O O2 0.293170 0.788862 0.357994
O O3 0.594256 0.627992 0.311974
O O4 0.085676 0.607052 0.322583
O O5 0.542675 0.317197 0.509168
O O6 0.788484 0.126579 0.472577
O O7 0.708272 0.318999 0.407211
O O8 0.890259 0.814453 0.318629
O O9 0.250000 0.000000 0.309599
O O10 0.978237 0.968892 0.397402
#
# Coordination Sequence:
#
# PCOD9408819 Si02
#       5
#     8   8   8   4   8
#     4  10  19  33  50  63  80 113 160 198 233 274
#     4  11  21  30  42  62  89 124 159 189 223 255
#     4   9  18  29  46  62  89 116 146 195 236 257
#     4  10  20  28  42  60  92 124 154 200 218 254
#     4   9  20  32  46  61  88 113 154 199 224 261
#
# _framework density 25.703862999999998
#
# number of rings (size 3 to 8) (size 9 to 14) (size 15 to 20)
#    1.333    0.889    0.000    5.333    6.222    0.000 
#    0.000    0.000    0.000    0.000    0.000    0.000 
#    0.000    0.000    0.000    0.000    0.000   22.222 
#
# Total GULP energy -200630.281316 kJ/mol
# GULP energy per Si atom -5573.063370 kJ/mol
# Density = 2.564536 g / cm^3
# Si number density = 25.703863 Si / 1000 Ang^3
#
#
#
# Elastic Constant Matrix: (Units=GPa)
#
#
# Indices 1 2 3 4 5 6 
#
# 1 246.1448 47.6187 64.3203 0.0000 0.0000 0.0000
# 2 47.6187 71.6396 -4.8252 0.0000 0.0000 0.0000
# 3 64.3203 -4.8252 89.5435 0.0000 0.0000 0.0000
# 4 0.0000 0.0000 0.0000 -17.6929 0.0000 0.0000
# 5 0.0000 0.0000 0.0000 0.0000 53.3179 0.0000
# 6 0.0000 0.0000 0.0000 0.0000 0.0000 37.7462
#
#
#
# Elastic Compliance Matrix: (Units=1/GPa)
#
#
# Indices 1 2 3 4 5 6 
#
# 1 0.006121 -0.004380 -0.004633 0.000000 0.000000 0.000000
# 2 -0.004380 0.017145 0.004070 0.000000 0.000000 0.000000
# 3 -0.004633 0.004070 0.014715 0.000000 0.000000 0.000000
# 4 0.000000 0.000000 0.000000 -0.056520 0.000000 0.000000
# 5 0.000000 0.000000 0.000000 0.000000 0.018755 0.000000
# 6 0.000000 0.000000 0.000000 0.000000 0.000000 0.026493
#
#
# Mechanical properties :
#
#
# Convention : Reuss Voigt Hill
#
# Bulk Modulus (GPa) = 35.59390 69.06172 52.32781
# Shear Modulus (GPa) = 108.79410 34.68851 71.74131
#
# Velocity S-wave (km/s) = 6.51290 3.67760 5.28879
# Velocity P-wave (km/s) = 8.39255 6.70519 7.59587
#
# Compressibility (1/GPa) = 0.02809471
#
# Stress axis : x y z
#
# Youngs Moduli (GPa) = 163.38249 58.32760 67.95914
#
# Poissons Ratio (x) = 0.25550 0.31482
# Poissons Ratio (y) = 0.71568 -0.27662
# Poissons Ratio (z) = 0.75688 -0.23741
#
# Static dielectric constant tensor:
#      x y z
#    x 2.031230 0.000000 0.000000 
#    y 0.000000 2.100880 0.000000 
#    z 0.000000 0.000000 2.042990 
# 
# From -- ./inp_files/34948.got.cif
#   From: 2010.05.17/outbox.cif.g08.bks.cpg/sg52_18_cif.got.tgz:34948.got - 2010.06.03 12:15:38.
