data_PCOD9408665
_publ_section_title
;
Structure prediction by ZEFSAII (Michael W. Deem and Ramdas Pophale) SiO2 
 PCOD9408665
Probable space group: P N N A
;
_chemical_formula_sum "Si O2"
_cell_formula_units_Z 32
_cell_length_a 11.505335
_cell_length_b 12.547874
_cell_length_c 9.400274
_cell_angle_alpha 90.000000
_cell_angle_beta 90.000000
_cell_angle_gamma 90.000000
_cell_volume 1357.093999
_symmetry_space_group_name_H-M "P N N A"
_symmetry_group_IT_number 52
_symmetry_cell_setting 'orthorhombic'
loop_
_space_group_symop_operation_xyz
x,y,z
1/2-x,-y,z
x,1/2-y,1/2-z
1/2-x,1/2+y,1/2-z
-x,-y,-z
1/2+x,y,-z
-x,1/2+y,1/2+z
1/2+x,1/2-y,1/2+z
loop_
_atom_site_type_symbol
_atom_site_label
_atom_site_fract_x
_atom_site_fract_y
_atom_site_fract_z
Si Si1 0.250000 0.500000 0.380567
Si Si2 0.582407 0.250000 0.250000
Si Si3 0.141987 0.427746 0.929238
Si Si4 0.945541 0.120656 0.997781
Si Si5 0.534179 0.403884 0.788363
O O1 0.189946 0.594915 0.469975
O O2 0.351094 0.546427 0.283268
O O3 0.666543 0.337371 0.183369
O O4 0.500745 0.191231 0.130009
O O5 0.250000 0.500000 0.972059
O O6 0.051814 0.504672 0.847531
O O7 0.085080 0.365141 0.061531
O O8 0.973429 0.157824 0.158130
O O9 0.000000 0.000000 0.000000
#
# Coordination Sequence:
#
# PCOD9408665 Si02
#       5
#     4   4   8   8   8
#     4  10  18  42  72 104 136 198 232 322 382 444
#     4  12  24  46  78 118 148 204 266 310 402 486
#     4  11  24  44  74 108 158 200 258 320 383 465
#     4  10  22  42  72 105 150 194 251 312 383 459
#     4  10  22  44  70 103 148 200 240 321 383 445
#
# _framework density 23.579796000000002
#
# number of rings (size 3 to 8) (size 9 to 14) (size 15 to 20)
#    0.000    1.500    6.250    0.000    1.750    1.000 
#    0.000   22.500    0.000    0.000    0.000    0.000 
#    0.000    0.000    0.000    0.000    0.000    0.000 
#
# Total GULP energy -178303.462139 kJ/mol
# GULP energy per Si atom -5571.983192 kJ/mol
# Density = 2.352613 g / cm^3
# Si number density = 23.579796 Si / 1000 Ang^3
#
#
#
# Elastic Constant Matrix: (Units=GPa)
#
#
# Indices 1 2 3 4 5 6 
#
# 1 75.3545 22.1307 47.0194 0.0000 0.0000 0.0000
# 2 22.1307 73.1845 57.6187 0.0000 0.0000 0.0000
# 3 47.0194 57.6187 187.4274 0.0000 0.0000 0.0000
# 4 0.0000 0.0000 0.0000 60.1399 0.0000 0.0000
# 5 0.0000 0.0000 0.0000 0.0000 52.5068 0.0000
# 6 0.0000 0.0000 0.0000 0.0000 0.0000 13.5333
#
#
#
# Elastic Compliance Matrix: (Units=1/GPa)
#
#
# Indices 1 2 3 4 5 6 
#
# 1 0.016001 -0.002214 -0.003333 0.000000 0.000000 0.000000
# 2 -0.002214 0.018334 -0.005081 0.000000 0.000000 0.000000
# 3 -0.003333 -0.005081 0.007734 0.000000 0.000000 0.000000
# 4 0.000000 0.000000 0.000000 0.016628 0.000000 0.000000
# 5 0.000000 0.000000 0.000000 0.000000 0.019045 0.000000
# 6 0.000000 0.000000 0.000000 0.000000 0.000000 0.073892
#
#
# Mechanical properties :
#
#
# Convention : Reuss Voigt Hill
#
# Bulk Modulus (GPa) = 48.05018 65.50046 56.77532
# Shear Modulus (GPa) = 27.80457 39.18250 33.49354
#
# Velocity S-wave (km/s) = 3.43763 4.08082 3.77295
# Velocity P-wave (km/s) = 6.01484 7.07408 6.56586
#
# Compressibility (1/GPa) = 0.02081158
#
# Stress axis : x y z
#
# Youngs Moduli (GPa) = 62.49671 54.54442 129.30705
#
# Poissons Ratio (x) = 0.12077 0.43103
# Poissons Ratio (y) = 0.13838 0.65696
# Poissons Ratio (z) = 0.20833 0.27712
#
# Static dielectric constant tensor:
#      x y z
#    x 1.892140 0.000000 0.000000 
#    y 0.000000 1.560320 0.000000 
#    z 0.000000 0.000000 1.989530 
# 
# From -- ./inp_files/8361.got.cif
#   From: 2010.05.17/outbox.cif.g08.bks.cpg/sg52_5_cif.got.tgz:8361.got - 2010.06.03 12:15:38.
