data_PCOD9408200
_publ_section_title
;
Structure prediction by ZEFSAII (Michael W. Deem and Ramdas Pophale) SiO2 
 PCOD9408200
Probable space group: P N N A
;
_chemical_formula_sum "Si O2"
_cell_formula_units_Z 52
_cell_length_a 5.604116
_cell_length_b 35.845041
_cell_length_c 11.684722
_cell_angle_alpha 90.000000
_cell_angle_beta 90.000000
_cell_angle_gamma 90.000000
_cell_volume 2347.224242
_symmetry_space_group_name_H-M "P N N A"
_symmetry_group_IT_number 52
_symmetry_cell_setting 'orthorhombic'
loop_
_space_group_symop_operation_xyz
x,y,z
1/2-x,-y,z
x,1/2-y,1/2-z
1/2-x,1/2+y,1/2-z
-x,-y,-z
1/2+x,y,-z
-x,1/2+y,1/2+z
1/2+x,1/2-y,1/2+z
loop_
_atom_site_type_symbol
_atom_site_label
_atom_site_fract_x
_atom_site_fract_y
_atom_site_fract_z
Si Si1 0.816529 0.576104 0.706099
Si Si2 0.750000 0.000000 0.929244
Si Si3 0.674317 0.818649 0.274774
Si Si4 0.826993 0.294196 0.764310
Si Si5 0.151935 0.766044 0.507026
Si Si6 0.357499 0.863834 0.999765
Si Si7 0.315982 0.899184 0.747927
O O1 0.755775 0.537145 0.646827
O O2 0.846175 0.607169 0.605563
O O3 0.583732 0.587355 0.781776
O O4 0.081598 0.574878 0.761921
O O5 0.500000 0.000000 0.000000
O O6 0.407558 0.815949 0.223524
O O7 0.654690 0.788209 0.374838
O O8 0.734273 0.860592 0.311311
O O9 0.920028 0.806680 0.213141
O O10 0.797203 0.250000 0.750000
O O11 0.848356 0.296382 0.903342
O O12 0.401784 0.745109 0.498305
O O13 0.607445 0.842894 0.002224
O O14 0.347044 0.888279 0.882707
#
# Coordination Sequence:
#
# PCOD9408200 Si02
#       7
#     8   4   8   8   8   8   8
#     4  10  19  30  45  65  95 129 166 212 246 290
#     4  12  20  30  48  72  94 134 188 220 256 306
#     4  10  19  32  52  72  94 130 164 196 248 308
#     4  10  19  33  53  75  99 126 158 200 252 301
#     4   8  16  30  49  70  92 120 148 190 238 284
#     4   8  14  25  39  54  80 117 150 191 235 270
#     4  10  18  30  46  66  92 126 163 204 253 293
#
# _framework density 22.153827
#
# number of rings (size 3 to 8) (size 9 to 14) (size 15 to 20)
#    0.000    2.462    0.000    5.077    0.000    0.000 
#    0.000    0.000    0.000   49.846    0.000    0.000 
#    0.000    0.000    0.000  124.615    0.000    4.154 
#
# Total GULP energy -289742.548221 kJ/mol
# GULP energy per Si atom -5571.972081 kJ/mol
# Density = 2.210340 g / cm^3
# Si number density = 22.153827 Si / 1000 Ang^3
#
#
#
# Elastic Constant Matrix: (Units=GPa)
#
#
# Indices 1 2 3 4 5 6 
#
# 1 280.2633 25.0376 7.7186 0.0000 0.0000 0.0000
# 2 25.0376 75.2886 2.3658 0.0000 0.0000 0.0000
# 3 7.7186 2.3658 19.1968 0.0000 0.0000 0.0000
# 4 0.0000 0.0000 0.0000 15.2557 0.0000 0.0000
# 5 0.0000 0.0000 0.0000 0.0000 8.4357 0.0000
# 6 0.0000 0.0000 0.0000 0.0000 0.0000 -29.9410
#
#
#
# Elastic Compliance Matrix: (Units=1/GPa)
#
#
# Indices 1 2 3 4 5 6 
#
# 1 0.003712 -0.001192 -0.001345 0.000000 0.000000 0.000000
# 2 -0.001192 0.013717 -0.001211 0.000000 0.000000 0.000000
# 3 -0.001345 -0.001211 0.052782 0.000000 0.000000 0.000000
# 4 0.000000 0.000000 0.000000 0.065549 0.000000 0.000000
# 5 0.000000 0.000000 0.000000 0.000000 0.118544 0.000000
# 6 0.000000 0.000000 0.000000 0.000000 0.000000 -0.033399
#
#
# Mechanical properties :
#
#
# Convention : Reuss Voigt Hill
#
# Bulk Modulus (GPa) = 15.94558 49.44362 32.69460
# Shear Modulus (GPa) = 20.05560 21.39185 20.72372
#
# Velocity S-wave (km/s) = 3.01206 3.11079 3.06183
# Velocity P-wave (km/s) = 4.39431 5.93881 5.22396
#
# Compressibility (1/GPa) = 0.06271331
#
# Stress axis : x y z
#
# Youngs Moduli (GPa) = 269.42420 72.90380 18.94577
#
# Poissons Ratio (x) = 0.08690 0.02549
# Poissons Ratio (y) = 0.32116 0.02295
# Poissons Ratio (z) = 0.36250 0.08830
#
# Static dielectric constant tensor:
#      x y z
#    x 2.006350 0.000000 0.000000 
#    y 0.000000 1.748360 0.000000 
#    z 0.000000 0.000000 1.882780 
# 
# From -- ./inp_files/30370.got.cif
#   From: 2010.05.17/outbox.cif.g08.bks.cpg/sg52_16_cif.got.tgz:30370.got - 2010.06.03 12:15:38.
