data_PCOD9408990
_publ_section_title
;
Structure prediction by ZEFSAII (Michael W. Deem and Ramdas Pophale) SiO2 
 PCOD9408990
Probable space group: P N N A
;
_chemical_formula_sum "Si O2"
_cell_formula_units_Z 44
_cell_length_a 8.555806
_cell_length_b 20.256490
_cell_length_c 15.084801
_cell_angle_alpha 90.000000
_cell_angle_beta 90.000000
_cell_angle_gamma 90.000000
_cell_volume 2614.355892
_symmetry_space_group_name_H-M "P N N A"
_symmetry_group_IT_number 52
_symmetry_cell_setting 'orthorhombic'
loop_
_space_group_symop_operation_xyz
x,y,z
1/2-x,-y,z
x,1/2-y,1/2-z
1/2-x,1/2+y,1/2-z
-x,-y,-z
1/2+x,y,-z
-x,1/2+y,1/2+z
1/2+x,1/2-y,1/2+z
loop_
_atom_site_type_symbol
_atom_site_label
_atom_site_fract_x
_atom_site_fract_y
_atom_site_fract_z
Si Si1 0.423574 0.156280 0.263148
Si Si2 0.420324 0.260752 0.918525
Si Si3 0.504597 0.455582 0.116928
Si Si4 0.436460 0.768021 0.891381
Si Si5 0.357712 0.084121 0.565720
Si Si6 0.363119 0.750000 0.250000
O O1 0.442539 0.082443 0.297532
O O2 0.502066 0.172061 0.168905
O O3 0.511045 0.203025 0.335727
O O4 0.250360 0.186690 0.259823
O O5 0.248895 0.232202 0.900957
O O6 0.403019 0.340136 0.923644
O O7 0.533215 0.243828 0.837442
O O8 0.486814 0.236255 0.012210
O O9 0.534404 0.533805 0.122067
O O10 0.677182 0.427521 0.091070
O O11 0.390502 0.437989 0.035427
#
# Coordination Sequence:
#
# PCOD9408990 Si02
#       6
#     8   8   8   8   8   4
#     4  10  19  35  46  76 102 144 174 217 252 321
#     4  12  19  35  49  79 103 140 173 222 260 324
#     4  10  20  33  49  74 109 141 184 199 255 313
#     4  10  20  30  53  69 106 138 169 217 270 298
#     4  10  20  31  51  74 105 148 170 210 252 310
#     4  10  24  30  52  72 104 134 182 214 276 304
#
# _framework density 16.830148000000001
#
# number of rings (size 3 to 8) (size 9 to 14) (size 15 to 20)
#    0.000    1.818    3.636    3.273    2.545    0.000 
#    0.000    0.000    0.000    0.000    0.000    1.273 
#    0.000    0.000    0.000    0.182    0.000    0.000 
#
# Total GULP energy -245598.403873 kJ/mol
# GULP energy per Si atom -5581.781906 kJ/mol
# Density = 1.679184 g / cm^3
# Si number density = 16.830148 Si / 1000 Ang^3
#
#
#
# Elastic Constant Matrix: (Units=GPa)
#
#
# Indices 1 2 3 4 5 6 
#
# 1 102.5638 1.9280 53.7598 0.0000 0.0000 0.0000
# 2 1.9280 40.6169 25.0062 0.0000 0.0000 0.0000
# 3 53.7598 25.0062 126.2169 0.0000 0.0000 0.0000
# 4 0.0000 0.0000 0.0000 31.6064 0.0000 0.0000
# 5 0.0000 0.0000 0.0000 0.0000 33.6981 0.0000
# 6 0.0000 0.0000 0.0000 0.0000 0.0000 -12.6968
#
#
#
# Elastic Compliance Matrix: (Units=1/GPa)
#
#
# Indices 1 2 3 4 5 6 
#
# 1 0.012898 0.003155 -0.006119 0.000000 0.000000 0.000000
# 2 0.003155 0.028812 -0.007052 0.000000 0.000000 0.000000
# 3 -0.006119 -0.007052 0.011926 0.000000 0.000000 0.000000
# 4 0.000000 0.000000 0.000000 0.031639 0.000000 0.000000
# 5 0.000000 0.000000 0.000000 0.000000 0.029675 0.000000
# 6 0.000000 0.000000 0.000000 0.000000 0.000000 -0.078760
#
#
# Mechanical properties :
#
#
# Convention : Reuss Voigt Hill
#
# Bulk Modulus (GPa) = 29.75799 47.86508 38.81154
# Shear Modulus (GPa) = 74.15744 23.10177 48.62960
#
# Velocity S-wave (km/s) = 6.64514 3.70894 5.38118
# Velocity P-wave (km/s) = 8.75197 6.84423 7.85622
#
# Compressibility (1/GPa) = 0.03360442
#
# Stress axis : x y z
#
# Youngs Moduli (GPa) = 77.53224 34.70752 83.84937
#
# Poissons Ratio (x) = -0.10949 0.51304
# Poissons Ratio (y) = -0.24460 0.59131
# Poissons Ratio (z) = 0.47439 0.24476
#
# Static dielectric constant tensor:
#      x y z
#    x 1.587800 0.000000 0.000000 
#    y 0.000000 1.582520 0.000000 
#    z 0.000000 0.000000 1.559480 
# 
# From -- ./inp_files/16881.got.cif
#   From: 2010.05.17/outbox.cif.g08.bks.cpg/sg52_9_cif.got.tgz:16881.got - 2010.06.03 12:15:38.
