data_PCOD9408873
_publ_section_title
;
Structure prediction by ZEFSAII (Michael W. Deem and Ramdas Pophale) SiO2 
 PCOD9408873
Probable space group: P N N A
;
_chemical_formula_sum "Si O2"
_cell_formula_units_Z 32
_cell_length_a 5.172340
_cell_length_b 7.138224
_cell_length_c 35.543509
_cell_angle_alpha 90.000000
_cell_angle_beta 90.000000
_cell_angle_gamma 90.000000
_cell_volume 1312.313324
_symmetry_space_group_name_H-M "P N N A"
_symmetry_group_IT_number 52
_symmetry_cell_setting 'orthorhombic'
loop_
_space_group_symop_operation_xyz
x,y,z
1/2-x,-y,z
x,1/2-y,1/2-z
1/2-x,1/2+y,1/2-z
-x,-y,-z
1/2+x,y,-z
-x,1/2+y,1/2+z
1/2+x,1/2-y,1/2+z
loop_
_atom_site_type_symbol
_atom_site_label
_atom_site_fract_x
_atom_site_fract_y
_atom_site_fract_z
Si Si1 0.967446 0.790037 0.984169
Si Si2 0.770693 0.773248 0.361158
Si Si3 0.501044 0.627666 0.785935
Si Si4 0.732148 0.273390 0.901295
O O1 0.869336 0.785560 0.941851
O O2 0.747172 0.702267 0.010286
O O3 0.000000 0.000000 0.000000
O O4 0.898897 0.744507 0.320438
O O5 0.481621 0.710722 0.370625
O O6 0.980189 0.706953 0.391557
O O7 0.750000 0.000000 0.363297
O O8 0.250000 0.500000 0.776524
O O9 0.574958 0.750000 0.750000
O O10 0.750000 0.500000 0.797064
O O11 0.750000 0.500000 0.901089
#
# Coordination Sequence:
#
# PCOD9408873 Si02
#       4
#     8   8   8   8
#     4  10  21  36  54  73 109 150 190 230 311 370
#     4   9  18  34  57  87 113 153 195 247 309 351
#     4  11  22  39  66  93 133 172 212 259 316 382
#     4  10  19  33  57  83 109 141 202 254 292 354
#
# _framework density 24.384423000000002
#
# number of rings (size 3 to 8) (size 9 to 14) (size 15 to 20)
#    0.000    2.000    0.000    6.000    0.000    1.000 
#    0.000    0.000   33.000    0.000    0.000    0.000 
#    0.000    0.000    0.000    0.000    0.000    0.000 
#
# Total GULP energy -178879.150604 kJ/mol
# GULP energy per Si atom -5589.973456 kJ/mol
# Density = 2.432892 g / cm^3
# Si number density = 24.384423 Si / 1000 Ang^3
#
#
#
# Elastic Constant Matrix: (Units=GPa)
#
#
# Indices 1 2 3 4 5 6 
#
# 1 156.0211 9.6115 36.3977 0.0000 0.0000 0.0000
# 2 9.6115 95.0662 9.3768 0.0000 0.0000 0.0000
# 3 36.3977 9.3768 143.4963 0.0000 0.0000 0.0000
# 4 0.0000 0.0000 0.0000 26.0121 0.0000 0.0000
# 5 0.0000 0.0000 0.0000 0.0000 40.7484 0.0000
# 6 0.0000 0.0000 0.0000 0.0000 0.0000 -6.1103
#
#
#
# Elastic Compliance Matrix: (Units=1/GPa)
#
#
# Indices 1 2 3 4 5 6 
#
# 1 0.006838 -0.000524 -0.001700 0.000000 0.000000 0.000000
# 2 -0.000524 0.010627 -0.000562 0.000000 0.000000 0.000000
# 3 -0.001700 -0.000562 0.007437 0.000000 0.000000 0.000000
# 4 0.000000 0.000000 0.000000 0.038444 0.000000 0.000000
# 5 0.000000 0.000000 0.000000 0.000000 0.024541 0.000000
# 6 0.000000 0.000000 0.000000 0.000000 0.000000 -0.163659
#
#
# Mechanical properties :
#
#
# Convention : Reuss Voigt Hill
#
# Bulk Modulus (GPa) = 51.72970 56.15060 53.94015
# Shear Modulus (GPa) = -78.42244 34.74323 -21.83961
#
# Velocity S-wave (km/s) = -5.67721 3.77876 -2.99597
# Velocity P-wave (km/s) = 4.65982 6.48968 3.19390
#
# Compressibility (1/GPa) = 0.01933125
#
# Stress axis : x y z
#
# Youngs Moduli (GPa) = 146.23498 94.09702 134.46635
#
# Poissons Ratio (x) = 0.04928 0.22863
# Poissons Ratio (y) = 0.07658 0.07552
# Poissons Ratio (z) = 0.24865 0.05285
#
# Static dielectric constant tensor:
#      x y z
#    x 1.952300 0.000000 0.000000 
#    y 0.000000 1.916080 0.000000 
#    z 0.000000 0.000000 1.923440 
# 
# From -- ./inp_files/43566.got.cif
#   From: 2010.05.17/outbox.cif.g08.bks.cpg/sg52_22_cif.got.tgz:43566.got - 2010.06.03 12:15:38.
