data_PCOD9408010
_publ_section_title
;
Structure prediction by ZEFSAII (Michael W. Deem and Ramdas Pophale) SiO2 
 PCOD9408010
Probable space group: P N N A
;
_chemical_formula_sum "Si O2"
_cell_formula_units_Z 36
_cell_length_a 10.549027
_cell_length_b 18.244260
_cell_length_c 6.898448
_cell_angle_alpha 90.000000
_cell_angle_beta 90.000000
_cell_angle_gamma 90.000000
_cell_volume 1327.669724
_symmetry_space_group_name_H-M "P N N A"
_symmetry_group_IT_number 52
_symmetry_cell_setting 'orthorhombic'
loop_
_space_group_symop_operation_xyz
x,y,z
1/2-x,-y,z
x,1/2-y,1/2-z
1/2-x,1/2+y,1/2-z
-x,-y,-z
1/2+x,y,-z
-x,1/2+y,1/2+z
1/2+x,1/2-y,1/2+z
loop_
_atom_site_type_symbol
_atom_site_label
_atom_site_fract_x
_atom_site_fract_y
_atom_site_fract_z
Si Si1 0.868388 0.103300 0.313525
Si Si2 0.739357 0.250000 0.250000
Si Si3 0.658750 0.934813 0.739049
Si Si4 0.607854 0.119844 0.227356
Si Si5 0.116566 0.166054 0.309908
O O1 0.830729 0.190292 0.350381
O O2 0.868703 0.056505 0.508126
O O3 0.742299 0.079594 0.200429
O O4 0.006432 0.112894 0.225263
O O5 0.643335 0.197782 0.130979
O O6 0.519520 0.921462 0.821941
O O7 0.745164 0.862287 0.751752
O O8 0.750000 0.000000 0.799373
O O9 0.600500 0.144722 0.458119
O O10 0.100018 0.250000 0.250000
#
# Coordination Sequence:
#
# PCOD9408010 Si02
#       5
#     8   4   8   8   8
#     4   8  16  29  47  61  92 124 155 192 225 273
#     4   8  14  32  44  66  92 122 158 192 228 274
#     4  10  20  30  43  73 104 124 148 190 245 284
#     4   8  17  29  46  65  96 122 147 191 234 279
#     4  10  17  28  46  70  93 122 159 195 231 273
#
# _framework density 27.115178
#
# number of rings (size 3 to 8) (size 9 to 14) (size 15 to 20)
#    1.333    1.778    1.111    0.000    1.556    8.000 
#    0.000    0.000    0.000    0.000    0.000    3.111 
#    0.000    0.000    0.000    0.000    0.000    0.000 
#
# Total GULP energy -200447.750595 kJ/mol
# GULP energy per Si atom -5567.993072 kJ/mol
# Density = 2.705346 g / cm^3
# Si number density = 27.115178 Si / 1000 Ang^3
#
#
#
# Elastic Constant Matrix: (Units=GPa)
#
#
# Indices 1 2 3 4 5 6 
#
# 1 144.4731 -8.0722 -38.9245 0.0000 0.0000 0.0000
# 2 -8.0722 96.5824 11.1300 0.0000 0.0000 0.0000
# 3 -38.9245 11.1300 94.1645 0.0000 0.0000 0.0000
# 4 0.0000 0.0000 0.0000 20.3961 0.0000 0.0000
# 5 0.0000 0.0000 0.0000 0.0000 -1.3454 0.0000
# 6 0.0000 0.0000 0.0000 0.0000 0.0000 44.0941
#
#
#
# Elastic Compliance Matrix: (Units=1/GPa)
#
#
# Indices 1 2 3 4 5 6 
#
# 1 0.007797 0.000284 0.003189 0.000000 0.000000 0.000000
# 2 0.000284 0.010507 -0.001124 0.000000 0.000000 0.000000
# 3 0.003189 -0.001124 0.012071 0.000000 0.000000 0.000000
# 4 0.000000 0.000000 0.000000 0.049029 0.000000 0.000000
# 5 0.000000 0.000000 0.000000 0.000000 -0.743292 0.000000
# 6 0.000000 0.000000 0.000000 0.000000 0.000000 0.022679
#
#
# Mechanical properties :
#
#
# Convention : Reuss Voigt Hill
#
# Bulk Modulus (GPa) = 28.51189 29.27630 28.89409
# Shear Modulus (GPa) = -7.88374 37.36808 14.74217
#
# Velocity S-wave (km/s) = -1.70699 3.71634 2.33424
# Velocity P-wave (km/s) = 2.57931 5.40697 4.23605
#
# Compressibility (1/GPa) = 0.03507309
#
# Stress axis : x y z
#
# Youngs Moduli (GPa) = 128.25651 95.17303 82.84314
#
# Poissons Ratio (x) = -0.02704 -0.26422
# Poissons Ratio (y) = -0.03644 0.09316
# Poissons Ratio (z) = -0.40906 0.10702
#
# Static dielectric constant tensor:
#      x y z
#    x 2.153630 0.000000 0.000000 
#    y 0.000000 2.145630 0.000000 
#    z 0.000000 0.000000 2.235760 
# 
# From -- ./inp_files/18103.got.cif
#   From: 2010.05.17/outbox.cif.g08.bks.cpg/sg52_10_cif.got.tgz:18103.got - 2010.06.03 12:15:38.
