data_PCOD9408290
_publ_section_title
;
Structure prediction by ZEFSAII (Michael W. Deem and Ramdas Pophale) SiO2 
 PCOD9408290
Probable space group: P N N A
;
_chemical_formula_sum "Si O2"
_cell_formula_units_Z 56
_cell_length_a 14.683069
_cell_length_b 12.798674
_cell_length_c 15.339341
_cell_angle_alpha 90.000000
_cell_angle_beta 90.000000
_cell_angle_gamma 90.000000
_cell_volume 2882.627457
_symmetry_space_group_name_H-M "P N N A"
_symmetry_group_IT_number 52
_symmetry_cell_setting 'orthorhombic'
loop_
_space_group_symop_operation_xyz
x,y,z
1/2-x,-y,z
x,1/2-y,1/2-z
1/2-x,1/2+y,1/2-z
-x,-y,-z
1/2+x,y,-z
-x,1/2+y,1/2+z
1/2+x,1/2-y,1/2+z
loop_
_atom_site_type_symbol
_atom_site_label
_atom_site_fract_x
_atom_site_fract_y
_atom_site_fract_z
Si Si1 0.602173 0.354694 0.021195
Si Si2 0.963814 0.517758 0.185393
Si Si3 0.549346 0.713233 0.105969
Si Si4 0.656797 0.965487 0.618899
Si Si5 0.209412 0.736486 0.010013
Si Si6 0.147745 0.957294 0.039500
Si Si7 0.021984 0.946779 0.868121
O O1 0.587658 0.407976 0.115717
O O2 0.683891 0.271798 0.011974
O O3 0.510878 0.303320 0.982133
O O4 0.628009 0.448968 0.954546
O O5 0.958153 0.396849 0.154431
O O6 0.069817 0.548541 0.178470
O O7 0.939434 0.511981 0.286555
O O8 0.653683 0.728671 0.079530
O O9 0.517107 0.821420 0.149341
O O10 0.682866 0.862853 0.566749
O O11 0.750000 0.000000 0.665236
O O12 0.169786 0.836640 0.058824
O O13 0.250000 0.000000 0.030536
O O14 0.079003 0.013188 0.106295
O O15 0.090419 0.960841 0.949341
#
# Coordination Sequence:
#
# PCOD9408290 Si02
#       7
#     8   8   8   8   8   8   8
#     4  10  18  31  58  90 119 148 190 240 297 359
#     4  11  19  34  56  92 124 146 183 257 311 343
#     4  10  18  35  57  86 119 156 194 231 299 370
#     4   9  17  31  53  87 120 149 186 230 296 362
#     4  10  18  33  60  81 109 160 195 232 283 359
#     4  10  22  43  60  75 108 161 216 237 285 359
#     4  10  23  38  61  82 115 158 201 249 293 355
#
# _framework density 19.426721000000001
#
# number of rings (size 3 to 8) (size 9 to 14) (size 15 to 20)
#    0.000    2.000    2.857    2.143    0.000    0.571 
#    2.571    0.714    0.000    0.000    0.000    0.000 
#    0.000    0.000    0.000    0.000    0.000    0.000 
#
# Total GULP energy -311947.248948 kJ/mol
# GULP energy per Si atom -5570.486588 kJ/mol
# Density = 1.938251 g / cm^3
# Si number density = 19.426721 Si / 1000 Ang^3
#
#
#
# Elastic Constant Matrix: (Units=GPa)
#
#
# Indices 1 2 3 4 5 6 
#
# 1 83.9307 7.5149 -4.0930 0.0000 0.0000 0.0000
# 2 7.5149 27.5235 -2.2226 0.0000 0.0000 0.0000
# 3 -4.0930 -2.2226 40.7242 0.0000 0.0000 0.0000
# 4 0.0000 0.0000 0.0000 17.1610 0.0000 0.0000
# 5 0.0000 0.0000 0.0000 0.0000 6.7805 0.0000
# 6 0.0000 0.0000 0.0000 0.0000 0.0000 27.3730
#
#
#
# Elastic Compliance Matrix: (Units=1/GPa)
#
#
# Indices 1 2 3 4 5 6 
#
# 1 0.012258 -0.003262 0.001054 0.000000 0.000000 0.000000
# 2 -0.003262 0.037361 0.001711 0.000000 0.000000 0.000000
# 3 0.001054 0.001711 0.024755 0.000000 0.000000 0.000000
# 4 0.000000 0.000000 0.000000 0.058272 0.000000 0.000000
# 5 0.000000 0.000000 0.000000 0.000000 0.147481 0.000000
# 6 0.000000 0.000000 0.000000 0.000000 0.000000 0.036532
#
#
# Mechanical properties :
#
#
# Convention : Reuss Voigt Hill
#
# Bulk Modulus (GPa) = 13.62751 17.17522 15.40137
# Shear Modulus (GPa) = 14.61508 20.32818 17.47163
#
# Velocity S-wave (km/s) = 2.74582 3.23832 3.00219
# Velocity P-wave (km/s) = 4.13313 4.77939 4.46796
#
# Compressibility (1/GPa) = 0.07338099
#
# Stress axis : x y z
#
# Youngs Moduli (GPa) = 81.57906 26.76566 40.39625
#
# Poissons Ratio (x) = 0.08730 -0.04258
# Poissons Ratio (y) = 0.26609 -0.06913
# Poissons Ratio (z) = -0.08598 -0.04580
#
# Static dielectric constant tensor:
#      x y z
#    x 1.693330 0.000000 0.000000 
#    y 0.000000 1.732450 0.000000 
#    z 0.000000 0.000000 1.691480 
# 
# From -- ./inp_files/27384.got.cif
#   From: 2010.05.17/outbox.cif.g08.bks.cpg/sg52_14_cif.got.tgz:27384.got - 2010.06.03 12:15:38.
