data_PCOD9408017
_publ_section_title
;
Structure prediction by ZEFSAII (Michael W. Deem and Ramdas Pophale) SiO2 
 PCOD9408017
Probable space group: P N N A
;
_chemical_formula_sum "Si O2"
_cell_formula_units_Z 52
_cell_length_a 20.138601
_cell_length_b 5.526206
_cell_length_c 28.483132
_cell_angle_alpha 90.000000
_cell_angle_beta 90.000000
_cell_angle_gamma 90.000000
_cell_volume 3169.889403
_symmetry_space_group_name_H-M "P N N A"
_symmetry_group_IT_number 52
_symmetry_cell_setting 'orthorhombic'
loop_
_space_group_symop_operation_xyz
x,y,z
1/2-x,-y,z
x,1/2-y,1/2-z
1/2-x,1/2+y,1/2-z
-x,-y,-z
1/2+x,y,-z
-x,1/2+y,1/2+z
1/2+x,1/2-y,1/2+z
loop_
_atom_site_type_symbol
_atom_site_label
_atom_site_fract_x
_atom_site_fract_y
_atom_site_fract_z
Si Si1 0.540256 0.751533 0.009417
Si Si2 0.186270 0.378109 0.295216
Si Si3 0.484399 0.239334 0.613125
Si Si4 0.082129 0.750000 0.250000
Si Si5 0.987924 0.254602 0.652873
Si Si6 0.865500 0.219651 0.922046
Si Si7 0.356848 0.786298 0.391678
O O1 0.555409 0.760174 0.064696
O O2 0.500000 0.500000 0.000000
O O3 0.600073 0.760842 0.972508
O O4 0.500000 0.000000 0.000000
O O5 0.250000 0.500000 0.318747
O O6 0.216870 0.250000 0.250000
O O7 0.130304 0.545611 0.271792
O O8 0.153396 0.218376 0.335562
O O9 0.479058 0.480954 0.645007
O O10 0.563270 0.222338 0.599128
O O11 0.470934 0.979048 0.636210
O O12 0.036478 0.805261 0.294785
O O13 0.923019 0.273506 0.618800
O O14 0.827876 0.468021 0.912130
O O15 0.831424 0.962640 0.914048
#
# Coordination Sequence:
#
# PCOD9408017 Si02
#       7
#     8   8   8   4   8   8   8
#     4  12  16  24  43  61  79  95 112 135 180 245
#     4  12  24  34  45  57  70  96 138 184 217 250
#     4  10  17  29  40  60  76  93 114 145 185 241
#     4  12  22  34  44  54  72 104 132 174 210 248
#     4  10  19  28  42  53  74  97 121 150 191 230
#     4  10  17  30  42  60  76  96 112 144 188 249
#     4  10  19  31  43  53  77  93 116 154 200 239
#
# _framework density 16.404358999999999
#
# number of rings (size 3 to 8) (size 9 to 14) (size 15 to 20)
#    0.000    1.231   10.000    1.846    0.000    0.000 
#    0.000    0.000    0.000    0.000    0.000    0.000 
#    0.000    0.000    0.000    0.000    0.000    0.000 
#
# Total GULP energy -289565.875400 kJ/mol
# GULP energy per Si atom -5568.574527 kJ/mol
# Density = 1.636702 g / cm^3
# Si number density = 16.404359 Si / 1000 Ang^3
#
#
#
# Elastic Constant Matrix: (Units=GPa)
#
#
# Indices 1 2 3 4 5 6 
#
# 1 9.8919 -0.4475 14.1742 0.0000 0.0000 0.0000
# 2 -0.4475 139.8271 4.7486 0.0000 0.0000 0.0000
# 3 14.1742 4.7486 81.3947 0.0000 0.0000 0.0000
# 4 0.0000 0.0000 0.0000 19.2048 0.0000 0.0000
# 5 0.0000 0.0000 0.0000 0.0000 15.3171 0.0000
# 6 0.0000 0.0000 0.0000 0.0000 0.0000 2.0903
#
#
#
# Elastic Compliance Matrix: (Units=1/GPa)
#
#
# Indices 1 2 3 4 5 6 
#
# 1 0.134918 0.001232 -0.023567 0.000000 0.000000 0.000000
# 2 0.001232 0.007177 -0.000633 0.000000 0.000000 0.000000
# 3 -0.023567 -0.000633 0.016427 0.000000 0.000000 0.000000
# 4 0.000000 0.000000 0.000000 0.052070 0.000000 0.000000
# 5 0.000000 0.000000 0.000000 0.000000 0.065287 0.000000
# 6 0.000000 0.000000 0.000000 0.000000 0.000000 0.478408
#
#
# Mechanical properties :
#
#
# Convention : Reuss Voigt Hill
#
# Bulk Modulus (GPa) = 8.88211 29.78494 19.33353
# Shear Modulus (GPa) = 5.96836 21.49831 13.73334
#
# Velocity S-wave (km/s) = 1.90950 3.62404 2.89654
# Velocity P-wave (km/s) = 3.20746 5.97559 4.79560
#
# Compressibility (1/GPa) = 0.11258580
#
# Stress axis : x y z
#
# Youngs Moduli (GPa) = 7.41193 139.33129 60.87647
#
# Poissons Ratio (x) = -0.17168 1.43466
# Poissons Ratio (y) = -0.00913 0.03855
# Poissons Ratio (z) = 0.17467 0.08824
#
# Static dielectric constant tensor:
#      x y z
#    x 1.527970 0.000000 0.000000 
#    y 0.000000 1.734860 0.000000 
#    z 0.000000 0.000000 1.555400 
# 
# From -- ./inp_files/45207.got.cif
#   From: 2010.05.17/outbox.cif.g08.bks.cpg/sg52_23_cif.got.tgz:45207.got - 2010.06.03 12:15:38.
