data_PCOD9408462
_publ_section_title
;
Structure prediction by ZEFSAII (Michael W. Deem and Ramdas Pophale) SiO2 
 PCOD9408462
Probable space group: P N N A
;
_chemical_formula_sum "Si O2"
_cell_formula_units_Z 32
_cell_length_a 15.625480
_cell_length_b 16.295770
_cell_length_c 6.762972
_cell_angle_alpha 90.000000
_cell_angle_beta 90.000000
_cell_angle_gamma 90.000000
_cell_volume 1722.050341
_symmetry_space_group_name_H-M "P N N A"
_symmetry_group_IT_number 52
_symmetry_cell_setting 'orthorhombic'
loop_
_space_group_symop_operation_xyz
x,y,z
1/2-x,-y,z
x,1/2-y,1/2-z
1/2-x,1/2+y,1/2-z
-x,-y,-z
1/2+x,y,-z
-x,1/2+y,1/2+z
1/2+x,1/2-y,1/2+z
loop_
_atom_site_type_symbol
_atom_site_label
_atom_site_fract_x
_atom_site_fract_y
_atom_site_fract_z
Si Si1 0.839092 0.966384 0.966629
Si Si2 0.410421 0.592398 0.865638
Si Si3 0.276413 0.663639 0.140595
Si Si4 0.898028 0.425544 0.880465
O O1 0.893657 0.924625 0.136330
O O2 0.750000 0.000000 0.056375
O O3 0.810436 0.901171 0.802311
O O4 0.886129 0.037498 0.841401
O O5 0.509183 0.615090 0.900943
O O6 0.343089 0.655562 0.960193
O O7 0.395900 0.504339 0.974431
O O8 0.272994 0.750000 0.250000
O O9 0.182279 0.632825 0.078397
#
# Coordination Sequence:
#
# PCOD9408462 Si02
#       4
#     8   8   8   8
#     4   9  17  32  56  80 102 137 180 220 261 309
#     4  10  18  34  60  78 102 139 187 220 266 313
#     4  10  21  36  49  76 117 142 169 217 275 325
#     4   9  19  34  56  82 103 137 179 234 260 306
#
# _framework density 18.5825
#
# number of rings (size 3 to 8) (size 9 to 14) (size 15 to 20)
#    0.000    2.500    0.000    4.500    0.000    1.000 
#    4.500    0.000    0.000    0.000    0.000    0.000 
#    0.000    0.000    0.000    0.000    0.000    0.000 
#
# Total GULP energy -178444.109183 kJ/mol
# GULP energy per Si atom -5576.378412 kJ/mol
# Density = 1.854021 g / cm^3
# Si number density = 18.582500 Si / 1000 Ang^3
#
#
#
# Elastic Constant Matrix: (Units=GPa)
#
#
# Indices 1 2 3 4 5 6 
#
# 1 152.9961 43.2943 30.0259 0.0000 0.0000 0.0000
# 2 43.2943 39.8047 -14.0132 0.0000 0.0000 0.0000
# 3 30.0259 -14.0132 40.7964 0.0000 0.0000 0.0000
# 4 0.0000 0.0000 0.0000 10.3384 0.0000 0.0000
# 5 0.0000 0.0000 0.0000 0.0000 18.3025 0.0000
# 6 0.0000 0.0000 0.0000 0.0000 0.0000 8.1241
#
#
#
# Elastic Compliance Matrix: (Units=1/GPa)
#
#
# Indices 1 2 3 4 5 6 
#
# 1 0.020505 -0.031415 -0.025882 0.000000 0.000000 0.000000
# 2 -0.031415 0.076707 0.049469 0.000000 0.000000 0.000000
# 3 -0.025882 0.049469 0.060553 0.000000 0.000000 0.000000
# 4 0.000000 0.000000 0.000000 0.096727 0.000000 0.000000
# 5 0.000000 0.000000 0.000000 0.000000 0.054637 0.000000
# 6 0.000000 0.000000 0.000000 0.000000 0.000000 0.123090
#
#
# Mechanical properties :
#
#
# Convention : Reuss Voigt Hill
#
# Bulk Modulus (GPa) = 7.03684 39.13459 23.08571
# Shear Modulus (GPa) = 10.09600 18.97234 14.53417
#
# Velocity S-wave (km/s) = 2.33342 3.19874 2.79972
# Velocity P-wave (km/s) = 3.32488 5.89476 4.78556
#
# Compressibility (1/GPa) = 0.14210932
#
# Stress axis : x y z
#
# Youngs Moduli (GPa) = 48.76819 13.03668 16.51436
#
# Poissons Ratio (x) = 0.40954 0.42743
# Poissons Ratio (y) = 1.53203 -0.81695
# Poissons Ratio (z) = 1.26223 -0.64491
#
# Static dielectric constant tensor:
#      x y z
#    x 1.673320 0.000000 0.000000 
#    y 0.000000 1.622400 0.000000 
#    z 0.000000 0.000000 1.633550 
# 
# From -- ./inp_files/1890.got.cif
#   From: 2010.05.17/outbox.cif.g08.bks.cpg/sg52_1_cif.got.tgz:1890.got - 2010.06.03 12:15:38.
