data_PCOD9408406
_publ_section_title
;
Structure prediction by ZEFSAII (Michael W. Deem and Ramdas Pophale) SiO2 
 PCOD9408406
Probable space group: P N N A
;
_chemical_formula_sum "Si O2"
_cell_formula_units_Z 64
_cell_length_a 7.880618
_cell_length_b 21.584105
_cell_length_c 19.284917
_cell_angle_alpha 90.000000
_cell_angle_beta 90.000000
_cell_angle_gamma 90.000000
_cell_volume 3280.288908
_symmetry_space_group_name_H-M "P N N A"
_symmetry_group_IT_number 52
_symmetry_cell_setting 'orthorhombic'
loop_
_space_group_symop_operation_xyz
x,y,z
1/2-x,-y,z
x,1/2-y,1/2-z
1/2-x,1/2+y,1/2-z
-x,-y,-z
1/2+x,y,-z
-x,1/2+y,1/2+z
1/2+x,1/2-y,1/2+z
loop_
_atom_site_type_symbol
_atom_site_label
_atom_site_fract_x
_atom_site_fract_y
_atom_site_fract_z
Si Si1 0.793921 0.718408 0.325558
Si Si2 0.272000 0.661080 0.037622
Si Si3 0.410340 0.833262 0.606431
Si Si4 0.828178 0.849452 0.754837
Si Si5 0.939221 0.891899 0.251408
Si Si6 0.579757 0.247610 0.861238
Si Si7 0.049663 0.479716 0.222753
Si Si8 0.569851 0.467741 0.931012
O O1 0.773396 0.750000 0.250000
O O2 0.923959 0.762759 0.365935
O O3 0.852292 0.649322 0.307835
O O4 0.615709 0.727458 0.363596
O O5 0.346584 0.724800 0.068218
O O6 0.393307 0.604426 0.058678
O O7 0.089899 0.649202 0.072318
O O8 0.273483 0.662082 0.954637
O O9 0.364508 0.874724 0.672864
O O10 0.634085 0.868128 0.740911
O O11 0.830788 0.811244 0.826022
O O12 0.893340 0.803490 0.694489
O O13 0.944261 0.910805 0.753834
O O14 0.948953 0.965162 0.240126
O O15 0.250000 0.500000 0.223056
O O16 0.983517 0.477383 0.143339
O O17 0.750000 0.500000 0.922175
O O18 0.500000 0.500000 0.000000
#
# Coordination Sequence:
#
# PCOD9408406 Si02
#       8
#     8   8   8   8   8   8   8   8
#     4  10  21  34  52  75 105 135 178 226 271 306
#     4  12  21  36  52  76 107 144 184 220 264 313
#     4  11  22  34  53  75 106 143 184 221 264 311
#     4  10  18  33  57  77 101 139 179 220 270 311
#     4  10  19  35  55  79 107 144 177 218 268 322
#     4  11  20  34  54  77 105 138 180 229 268 312
#     4   9  17  33  52  75 104 136 177 215 257 319
#     4  11  21  33  48  70 103 145 181 215 252 308
#
# _framework density 19.510477000000002
#
# number of rings (size 3 to 8) (size 9 to 14) (size 15 to 20)
#    0.000    1.500    3.750    4.500    3.500    0.000 
#    0.000    1.875    0.000    0.000    0.000    0.875 
#    0.000    0.000    0.000    0.000    0.000    0.000 
#
# Total GULP energy -357397.214088 kJ/mol
# GULP energy per Si atom -5584.331470 kJ/mol
# Density = 1.946607 g / cm^3
# Si number density = 19.510477 Si / 1000 Ang^3
#
#
#
# Elastic Constant Matrix: (Units=GPa)
#
#
# Indices 1 2 3 4 5 6 
#
# 1 47.6883 11.2456 5.4627 0.0000 0.0000 0.0000
# 2 11.2456 105.3366 18.6758 0.0000 0.0000 0.0000
# 3 5.4627 18.6758 26.2000 0.0000 0.0000 0.0000
# 4 0.0000 0.0000 0.0000 28.6675 0.0000 0.0000
# 5 0.0000 0.0000 0.0000 0.0000 25.2775 0.0000
# 6 0.0000 0.0000 0.0000 0.0000 0.0000 15.6867
#
#
#
# Elastic Compliance Matrix: (Units=1/GPa)
#
#
# Indices 1 2 3 4 5 6 
#
# 1 0.021757 -0.001738 -0.003297 0.000000 0.000000 0.000000
# 2 -0.001738 0.011006 -0.007483 0.000000 0.000000 0.000000
# 3 -0.003297 -0.007483 0.044189 0.000000 0.000000 0.000000
# 4 0.000000 0.000000 0.000000 0.034883 0.000000 0.000000
# 5 0.000000 0.000000 0.000000 0.000000 0.039561 0.000000
# 6 0.000000 0.000000 0.000000 0.000000 0.000000 0.063748
#
#
# Mechanical properties :
#
#
# Convention : Reuss Voigt Hill
#
# Bulk Modulus (GPa) = 19.26201 27.77700 23.51951
# Shear Modulus (GPa) = 19.41860 23.51572 21.46716
#
# Velocity S-wave (km/s) = 3.15825 3.47549 3.32066
# Velocity P-wave (km/s) = 4.81596 5.51119 5.17526
#
# Compressibility (1/GPa) = 0.05191566
#
# Stress axis : x y z
#
# Youngs Moduli (GPa) = 45.96197 90.86314 22.62999
#
# Poissons Ratio (x) = 0.15793 0.07462
# Poissons Ratio (y) = 0.07989 0.16933
# Poissons Ratio (z) = 0.15155 0.67989
#
# Static dielectric constant tensor:
#      x y z
#    x 1.773240 0.000000 0.000000 
#    y 0.000000 1.700310 0.000000 
#    z 0.000000 0.000000 1.703040 
# 
# From -- ./inp_files/31587.got.cif
#   From: 2010.05.17/outbox.cif.g08.bks.cpg/sg52_16_cif.got.tgz:31587.got - 2010.06.03 12:15:38.
