data_PCOD9408726
_publ_section_title
;
Structure prediction by ZEFSAII (Michael W. Deem and Ramdas Pophale) SiO2 
 PCOD9408726
Probable space group: P N N A
;
_chemical_formula_sum "Si O2"
_cell_formula_units_Z 40
_cell_length_a 12.303786
_cell_length_b 12.197451
_cell_length_c 9.733532
_cell_angle_alpha 90.000000
_cell_angle_beta 90.000000
_cell_angle_gamma 90.000000
_cell_volume 1460.758130
_symmetry_space_group_name_H-M "P N N A"
_symmetry_group_IT_number 52
_symmetry_cell_setting 'orthorhombic'
loop_
_space_group_symop_operation_xyz
x,y,z
1/2-x,-y,z
x,1/2-y,1/2-z
1/2-x,1/2+y,1/2-z
-x,-y,-z
1/2+x,y,-z
-x,1/2+y,1/2+z
1/2+x,1/2-y,1/2+z
loop_
_atom_site_type_symbol
_atom_site_label
_atom_site_fract_x
_atom_site_fract_y
_atom_site_fract_z
Si Si1 0.768535 0.388807 0.479674
Si Si2 0.334074 0.626964 0.182454
Si Si3 0.623587 0.662398 0.926112
Si Si4 0.615256 0.274322 0.103798
Si Si5 0.426888 0.117936 0.730576
O O1 0.750000 0.500000 0.560996
O O2 0.832085 0.285400 0.541423
O O3 0.645555 0.342800 0.460634
O O4 0.841326 0.420571 0.345351
O O5 0.335975 0.750000 0.250000
O O6 0.448336 0.576692 0.234710
O O7 0.205013 0.601919 0.176363
O O8 0.348443 0.643667 0.016222
O O9 0.613622 0.603674 0.074254
O O10 0.504435 0.683403 0.868362
O O11 0.672849 0.250000 0.250000
O O12 0.433193 0.250000 0.750000
#
# Coordination Sequence:
#
# PCOD9408726 Si02
#       5
#     8   8   8   8   8
#     4  10  19  31  49  76 111 143 171 208 261 325
#     4   9  16  28  49  74  97 125 165 214 260 299
#     4   9  17  30  50  75 100 129 176 225 262 295
#     4  10  19  32  53  77 101 132 176 224 260 300
#     4   8  15  29  47  68  95 132 173 207 244 301
#
# _framework density 27.383040999999999
#
# number of rings (size 3 to 8) (size 9 to 14) (size 15 to 20)
#    0.000    2.800    0.000    4.800    0.000    0.800 
#    0.000    0.000    0.000   10.800    0.000   23.800 
#    0.000    0.000    0.000    0.000    0.000    0.000 
#
# Total GULP energy -222897.582326 kJ/mol
# GULP energy per Si atom -5572.439558 kJ/mol
# Density = 2.732072 g / cm^3
# Si number density = 27.383041 Si / 1000 Ang^3
#
#
#
# Elastic Constant Matrix: (Units=GPa)
#
#
# Indices 1 2 3 4 5 6 
#
# 1 216.4931 23.7716 35.9123 0.0000 0.0000 0.0000
# 2 23.7716 81.7124 -9.0156 0.0000 0.0000 0.0000
# 3 35.9123 -9.0156 152.9756 0.0000 0.0000 0.0000
# 4 0.0000 0.0000 0.0000 7.6653 0.0000 0.0000
# 5 0.0000 0.0000 0.0000 0.0000 74.7976 0.0000
# 6 0.0000 0.0000 0.0000 0.0000 0.0000 27.5214
#
#
#
# Elastic Compliance Matrix: (Units=1/GPa)
#
#
# Indices 1 2 3 4 5 6 
#
# 1 0.005005 -0.001596 -0.001269 0.000000 0.000000 0.000000
# 2 -0.001596 0.012827 0.001131 0.000000 0.000000 0.000000
# 3 -0.001269 0.001131 0.006902 0.000000 0.000000 0.000000
# 4 0.000000 0.000000 0.000000 0.130458 0.000000 0.000000
# 5 0.000000 0.000000 0.000000 0.000000 0.013369 0.000000
# 6 0.000000 0.000000 0.000000 0.000000 0.000000 0.036335
#
#
# Mechanical properties :
#
#
# Convention : Reuss Voigt Hill
#
# Bulk Modulus (GPa) = 47.02619 61.39086 54.20852
# Shear Modulus (GPa) = 23.20688 48.69772 35.95230
#
# Velocity S-wave (km/s) = 2.91433 4.22167 3.62738
# Velocity P-wave (km/s) = 5.34183 6.79936 6.11418
#
# Compressibility (1/GPa) = 0.02126475
#
# Stress axis : x y z
#
# Youngs Moduli (GPa) = 199.80684 77.95995 144.89547
#
# Poissons Ratio (x) = 0.12442 0.18387
# Poissons Ratio (y) = 0.31889 -0.16382
# Poissons Ratio (z) = 0.25355 -0.08814
#
# Static dielectric constant tensor:
#      x y z
#    x 2.194300 0.000000 0.000000 
#    y 0.000000 2.446260 0.000000 
#    z 0.000000 0.000000 2.306190 
# 
# From -- ./inp_files/18007.got.cif
#   From: 2010.05.17/outbox.cif.g08.bks.cpg/sg52_10_cif.got.tgz:18007.got - 2010.06.03 12:15:38.
