data_PCOD9408558
_publ_section_title
;
Structure prediction by ZEFSAII (Michael W. Deem and Ramdas Pophale) SiO2 
 PCOD9408558
Probable space group: P N N A
;
_chemical_formula_sum "Si O2"
_cell_formula_units_Z 64
_cell_length_a 7.673877
_cell_length_b 27.571853
_cell_length_c 13.019272
_cell_angle_alpha 90.000000
_cell_angle_beta 90.000000
_cell_angle_gamma 90.000000
_cell_volume 2754.656739
_symmetry_space_group_name_H-M "P N N A"
_symmetry_group_IT_number 52
_symmetry_cell_setting 'orthorhombic'
loop_
_space_group_symop_operation_xyz
x,y,z
1/2-x,-y,z
x,1/2-y,1/2-z
1/2-x,1/2+y,1/2-z
-x,-y,-z
1/2+x,y,-z
-x,1/2+y,1/2+z
1/2+x,1/2-y,1/2+z
loop_
_atom_site_type_symbol
_atom_site_label
_atom_site_fract_x
_atom_site_fract_y
_atom_site_fract_z
Si Si1 0.042455 0.501351 0.618817
Si Si2 0.553893 0.019444 0.673837
Si Si3 0.062347 0.087197 0.639527
Si Si4 0.830644 0.886547 0.576608
Si Si5 0.515968 0.398502 0.359780
Si Si6 0.980928 0.788933 0.673547
Si Si7 0.686675 0.142747 0.963408
Si Si8 0.372629 0.302201 0.623106
O O1 0.250000 0.500000 0.630494
O O2 0.945351 0.452406 0.655538
O O3 0.000000 0.500000 0.500000
O O4 0.980098 0.536875 0.708412
O O5 0.544351 0.068142 0.607255
O O6 0.750000 0.000000 0.661277
O O7 0.434451 0.972401 0.643572
O O8 0.861137 0.102225 0.619829
O O9 0.168863 0.110816 0.546774
O O10 0.108019 0.109226 0.751499
O O11 0.892955 0.835522 0.624971
O O12 0.642711 0.401152 0.459162
O O13 0.354916 0.365408 0.393904
O O14 0.875810 0.750000 0.750000
O O15 0.058881 0.751080 0.592722
O O16 0.134817 0.802371 0.754024
O O17 0.716101 0.183613 0.050512
O O18 0.520499 0.157750 0.899573
#
# Coordination Sequence:
#
# PCOD9408558 Si02
#       8
#     8   8   8   8   8   8   8   8
#     4  11  22  35  52  84 121 156 199 256 301 362
#     4   9  21  39  58  85 123 161 206 249 301 366
#     4  10  23  38  58  95 125 156 212 250 298 373
#     4  11  21  39  64  83 121 171 196 254 308 359
#     4  10  22  37  57  88 119 151 205 244 298 379
#     4   8  20  38  54  85 113 148 204 248 294 357
#     4  10  18  36  61  81 110 156 185 241 314 348
#     4   8  19  34  55  80 112 138 189 247 290 351
#
# _framework density 23.233384999999998
#
# number of rings (size 3 to 8) (size 9 to 14) (size 15 to 20)
#    0.750    1.500    0.000    2.250    0.000    9.000 
#    0.000    0.625    0.000    6.000    0.000    0.000 
#    0.000    0.000    0.000    0.000    0.000    0.000 
#
# Total GULP energy -356311.471448 kJ/mol
# GULP energy per Si atom -5567.366741 kJ/mol
# Density = 2.318050 g / cm^3
# Si number density = 23.233385 Si / 1000 Ang^3
#
#
#
# Elastic Constant Matrix: (Units=GPa)
#
#
# Indices 1 2 3 4 5 6 
#
# 1 40.5738 18.7205 -5.7337 0.0000 0.0000 0.0000
# 2 18.7205 95.3470 22.5207 0.0000 0.0000 0.0000
# 3 -5.7337 22.5207 107.4023 0.0000 0.0000 0.0000
# 4 0.0000 0.0000 0.0000 32.4880 0.0000 0.0000
# 5 0.0000 0.0000 0.0000 0.0000 14.3754 0.0000
# 6 0.0000 0.0000 0.0000 0.0000 0.0000 13.1789
#
#
#
# Elastic Compliance Matrix: (Units=1/GPa)
#
#
# Indices 1 2 3 4 5 6 
#
# 1 0.027865 -0.006126 0.002772 0.000000 0.000000 0.000000
# 2 -0.006126 0.012381 -0.002923 0.000000 0.000000 0.000000
# 3 0.002772 -0.002923 0.010072 0.000000 0.000000 0.000000
# 4 0.000000 0.000000 0.000000 0.030781 0.000000 0.000000
# 5 0.000000 0.000000 0.000000 0.000000 0.069563 0.000000
# 6 0.000000 0.000000 0.000000 0.000000 0.000000 0.075879
#
#
# Mechanical properties :
#
#
# Convention : Reuss Voigt Hill
#
# Bulk Modulus (GPa) = 26.48042 34.92646 30.70344
# Shear Modulus (GPa) = 19.86637 25.86284 22.86461
#
# Velocity S-wave (km/s) = 2.92734 3.34005 3.14048
# Velocity P-wave (km/s) = 4.77997 5.47175 5.13752
#
# Compressibility (1/GPa) = 0.03776376
#
# Stress axis : x y z
#
# Youngs Moduli (GPa) = 35.88789 80.76781 99.28789
#
# Poissons Ratio (x) = 0.49476 -0.27523
# Poissons Ratio (y) = 0.21984 0.29024
# Poissons Ratio (z) = -0.09948 0.23610
#
# Static dielectric constant tensor:
#      x y z
#    x 1.883430 0.000000 0.000000 
#    y 0.000000 2.037740 0.000000 
#    z 0.000000 0.000000 1.976010 
# 
# From -- ./inp_files/17233.got.cif
#   From: 2010.05.17/outbox.cif.g08.bks.cpg/sg52_9_cif.got.tgz:17233.got - 2010.06.03 12:15:38.
