data_PCOD9408416
_publ_section_title
;
Structure prediction by ZEFSAII (Michael W. Deem and Ramdas Pophale) SiO2 
 PCOD9408416
Probable space group: P N N A
;
_chemical_formula_sum "Si O2"
_cell_formula_units_Z 64
_cell_length_a 22.159660
_cell_length_b 8.998407
_cell_length_c 14.959488
_cell_angle_alpha 90.000000
_cell_angle_beta 90.000000
_cell_angle_gamma 90.000000
_cell_volume 2982.946436
_symmetry_space_group_name_H-M "P N N A"
_symmetry_group_IT_number 52
_symmetry_cell_setting 'orthorhombic'
loop_
_space_group_symop_operation_xyz
x,y,z
1/2-x,-y,z
x,1/2-y,1/2-z
1/2-x,1/2+y,1/2-z
-x,-y,-z
1/2+x,y,-z
-x,1/2+y,1/2+z
1/2+x,1/2-y,1/2+z
loop_
_atom_site_type_symbol
_atom_site_label
_atom_site_fract_x
_atom_site_fract_y
_atom_site_fract_z
Si Si1 0.289777 0.642283 0.407049
Si Si2 0.074635 0.816948 0.031993
Si Si3 0.517532 0.172191 0.595278
Si Si4 0.634165 0.132546 0.484516
Si Si5 0.907069 0.931248 0.832431
Si Si6 0.978457 0.382348 0.809965
Si Si7 0.781671 0.650683 0.163273
Si Si8 0.800390 0.174647 0.513170
O O1 0.250000 0.500000 0.435335
O O2 0.338494 0.715179 0.475101
O O3 0.335062 0.594772 0.328638
O O4 0.239940 0.772292 0.403211
O O5 0.053435 0.703953 0.109497
O O6 0.074610 0.977588 0.077438
O O7 0.142594 0.780646 0.006190
O O8 0.032254 0.776903 0.949336
O O9 0.565964 0.120491 0.519212
O O10 0.557924 0.276320 0.658793
O O11 0.490664 0.028545 0.646248
O O12 0.651711 0.133627 0.380213
O O13 0.672872 0.991025 0.519633
O O14 0.929480 0.037365 0.753533
O O15 0.008523 0.250000 0.750000
O O16 0.750000 0.500000 0.193021
O O17 0.782947 0.750000 0.250000
O O18 0.739609 0.693121 0.077087
#
# Coordination Sequence:
#
# PCOD9408416 Si02
#       8
#     8   8   8   8   8   8   8   8
#     4  10  18  33  60  86 120 157 197 253 307 369
#     4  11  21  38  66  90 123 169 212 247 309 385
#     4  11  21  39  67  88 121 169 211 253 314 378
#     4   9  20  35  60  87 115 159 212 250 303 379
#     4  10  22  39  60  93 127 157 205 265 319 364
#     4  10  22  39  62  87 123 164 203 260 316 365
#     4   9  19  36  55  80 118 154 194 254 314 355
#     4  10  19  36  60  86 120 157 210 247 295 388
#
# _framework density 21.455296000000001
#
# number of rings (size 3 to 8) (size 9 to 14) (size 15 to 20)
#    0.000    2.000    2.500    2.250    0.000    2.000 
#    0.000    3.125   13.750    0.000    0.000    0.000 
#    0.000    0.000    0.000    0.000    0.000    0.000 
#
# Total GULP energy -356442.343224 kJ/mol
# GULP energy per Si atom -5569.411613 kJ/mol
# Density = 2.140646 g / cm^3
# Si number density = 21.455296 Si / 1000 Ang^3
#
#
#
# Elastic Constant Matrix: (Units=GPa)
#
#
# Indices 1 2 3 4 5 6 
#
# 1 66.7081 1.7351 18.1592 0.0000 0.0000 0.0000
# 2 1.7351 95.5676 26.3388 0.0000 0.0000 0.0000
# 3 18.1592 26.3388 45.7908 0.0000 0.0000 0.0000
# 4 0.0000 0.0000 0.0000 32.8509 0.0000 0.0000
# 5 0.0000 0.0000 0.0000 0.0000 3.7408 0.0000
# 6 0.0000 0.0000 0.0000 0.0000 0.0000 18.1801
#
#
#
# Elastic Compliance Matrix: (Units=1/GPa)
#
#
# Indices 1 2 3 4 5 6 
#
# 1 0.017076 0.001849 -0.007835 0.000000 0.000000 0.000000
# 2 0.001849 0.012635 -0.008001 0.000000 0.000000 0.000000
# 3 -0.007835 -0.008001 0.029548 0.000000 0.000000 0.000000
# 4 0.000000 0.000000 0.000000 0.030441 0.000000 0.000000
# 5 0.000000 0.000000 0.000000 0.000000 0.267325 0.000000
# 6 0.000000 0.000000 0.000000 0.000000 0.000000 0.055005
#
#
# Mechanical properties :
#
#
# Convention : Reuss Voigt Hill
#
# Bulk Modulus (GPa) = 31.96475 33.39252 32.67864
# Shear Modulus (GPa) = 11.10044 21.74325 16.42185
#
# Velocity S-wave (km/s) = 2.27706 3.18688 2.76958
# Velocity P-wave (km/s) = 4.67375 5.39807 5.04892
#
# Compressibility (1/GPa) = 0.03128446
#
# Stress axis : x y z
#
# Youngs Moduli (GPa) = 58.56340 79.14260 33.84317
#
# Poissons Ratio (x) = -0.14637 0.26517
# Poissons Ratio (y) = -0.10831 0.27079
# Poissons Ratio (z) = 0.45887 0.63324
#
# Static dielectric constant tensor:
#      x y z
#    x 1.807230 0.000000 0.000000 
#    y 0.000000 1.837790 0.000000 
#    z 0.000000 0.000000 1.823340 
# 
# From -- ./inp_files/29248.got.cif
#   From: 2010.05.17/outbox.cif.g08.bks.cpg/sg52_15_cif.got.tgz:29248.got - 2010.06.03 12:15:38.
