data_PCOD9408133
_publ_section_title
;
Structure prediction by ZEFSAII (Michael W. Deem and Ramdas Pophale) SiO2 
 PCOD9408133
Probable space group: P N N A
;
_chemical_formula_sum "Si O2"
_cell_formula_units_Z 44
_cell_length_a 19.586569
_cell_length_b 9.465441
_cell_length_c 12.444307
_cell_angle_alpha 90.000000
_cell_angle_beta 90.000000
_cell_angle_gamma 90.000000
_cell_volume 2307.118683
_symmetry_space_group_name_H-M "P N N A"
_symmetry_group_IT_number 52
_symmetry_cell_setting 'orthorhombic'
loop_
_space_group_symop_operation_xyz
x,y,z
1/2-x,-y,z
x,1/2-y,1/2-z
1/2-x,1/2+y,1/2-z
-x,-y,-z
1/2+x,y,-z
-x,1/2+y,1/2+z
1/2+x,1/2-y,1/2+z
loop_
_atom_site_type_symbol
_atom_site_label
_atom_site_fract_x
_atom_site_fract_y
_atom_site_fract_z
Si Si1 0.974354 0.967274 0.846856
Si Si2 0.661333 0.750000 0.750000
Si Si3 0.567510 0.791733 0.009663
Si Si4 0.279074 0.350171 0.458484
Si Si5 0.146116 0.247161 0.376354
Si Si6 0.064875 0.536208 0.118684
O O1 0.905569 0.880151 0.878592
O O2 0.034534 0.866951 0.887989
O O3 0.964568 0.112425 0.912643
O O4 0.982393 0.998242 0.720645
O O5 0.700615 0.648931 0.667851
O O6 0.617652 0.645622 0.823759
O O7 0.650026 0.805711 0.013871
O O8 0.544288 0.631290 0.983641
O O9 0.250000 0.500000 0.495040
O O10 0.211847 0.253278 0.452880
O O11 0.166195 0.250000 0.250000
O O12 0.104427 0.107305 0.405166
#
# Coordination Sequence:
#
# PCOD9408133 Si02
#       6
#     8   4   8   8   8   8
#     4  10  18  33  44  69  99 133 169 209 249 323
#     4  10  18  24  42  66 100 126 156 194 248 308
#     4  10  20  29  49  66 102 136 168 209 262 310
#     4  11  17  28  43  70  99 131 162 204 254 321
#     4  10  19  28  49  70  99 129 164 202 264 320
#     4  10  18  33  46  70  96 135 168 212 255 322
#
# _framework density 19.071408000000002
#
# number of rings (size 3 to 8) (size 9 to 14) (size 15 to 20)
#    0.000    1.818    6.364    1.091    0.000    2.909 
#    0.000    0.000    0.000    0.000    0.000    0.000 
#   16.364    0.000    0.000    0.000    0.000    0.000 
#
# Total GULP energy -244949.682092 kJ/mol
# GULP energy per Si atom -5567.038229 kJ/mol
# Density = 1.902800 g / cm^3
# Si number density = 19.071408 Si / 1000 Ang^3
#
#
#
# Elastic Constant Matrix: (Units=GPa)
#
#
# Indices 1 2 3 4 5 6 
#
# 1 91.5054 21.4082 26.2390 0.0000 0.0000 0.0000
# 2 21.4082 110.8372 21.4696 0.0000 0.0000 0.0000
# 3 26.2390 21.4696 41.4591 0.0000 0.0000 0.0000
# 4 0.0000 0.0000 0.0000 18.9533 0.0000 0.0000
# 5 0.0000 0.0000 0.0000 0.0000 10.2344 0.0000
# 6 0.0000 0.0000 0.0000 0.0000 0.0000 22.2704
#
#
#
# Elastic Compliance Matrix: (Units=1/GPa)
#
#
# Indices 1 2 3 4 5 6 
#
# 1 0.013462 -0.001056 -0.007973 0.000000 0.000000 0.000000
# 2 -0.001056 0.010111 -0.004568 0.000000 0.000000 0.000000
# 3 -0.007973 -0.004568 0.031532 0.000000 0.000000 0.000000
# 4 0.000000 0.000000 0.000000 0.052761 0.000000 0.000000
# 5 0.000000 0.000000 0.000000 0.000000 0.097710 0.000000
# 6 0.000000 0.000000 0.000000 0.000000 0.000000 0.044903
#
#
# Mechanical properties :
#
#
# Convention : Reuss Voigt Hill
#
# Bulk Modulus (GPa) = 35.82798 42.44835 39.13817
# Shear Modulus (GPa) = 17.42314 21.93728 19.68021
#
# Velocity S-wave (km/s) = 3.02582 3.39524 3.21584
# Velocity P-wave (km/s) = 5.57086 6.13809 5.86134
#
# Compressibility (1/GPa) = 0.02791115
#
# Stress axis : x y z
#
# Youngs Moduli (GPa) = 74.28576 98.90271 31.71421
#
# Poissons Ratio (x) = 0.10441 0.25286
# Poissons Ratio (y) = 0.07842 0.14486
# Poissons Ratio (z) = 0.59228 0.45177
#
# Static dielectric constant tensor:
#      x y z
#    x 1.745920 0.000000 0.000000 
#    y 0.000000 1.713770 0.000000 
#    z 0.000000 0.000000 1.702670 
# 
# From -- ./inp_files/27972.got.cif
#   From: 2010.05.17/outbox.cif.g08.bks.cpg/sg52_14_cif.got.tgz:27972.got - 2010.06.03 12:15:38.
