data_PCOD9408795
_publ_section_title
;
Structure prediction by ZEFSAII (Michael W. Deem and Ramdas Pophale) SiO2 
 PCOD9408795
Probable space group: P N N A
;
_chemical_formula_sum "Si O2"
_cell_formula_units_Z 64
_cell_length_a 13.282378
_cell_length_b 8.175169
_cell_length_c 27.043254
_cell_angle_alpha 90.000000
_cell_angle_beta 90.000000
_cell_angle_gamma 90.000000
_cell_volume 2936.510257
_symmetry_space_group_name_H-M "P N N A"
_symmetry_group_IT_number 52
_symmetry_cell_setting 'orthorhombic'
loop_
_space_group_symop_operation_xyz
x,y,z
1/2-x,-y,z
x,1/2-y,1/2-z
1/2-x,1/2+y,1/2-z
-x,-y,-z
1/2+x,y,-z
-x,1/2+y,1/2+z
1/2+x,1/2-y,1/2+z
loop_
_atom_site_type_symbol
_atom_site_label
_atom_site_fract_x
_atom_site_fract_y
_atom_site_fract_z
Si Si1 0.835914 0.330136 0.566400
Si Si2 0.177146 0.343837 0.123521
Si Si3 0.762712 0.299834 0.305710
Si Si4 0.516367 0.512903 0.398770
Si Si5 0.141239 0.176036 0.605489
Si Si6 0.304465 0.334917 0.548352
Si Si7 0.530814 0.506158 0.943040
Si Si8 0.498257 0.230456 0.809011
O O1 0.753675 0.301002 0.609012
O O2 0.798644 0.336332 0.510358
O O3 0.910387 0.479830 0.575602
O O4 0.903618 0.167800 0.566020
O O5 0.250000 0.500000 0.132668
O O6 0.091964 0.326259 0.165737
O O7 0.107709 0.369101 0.074925
O O8 0.750000 0.500000 0.312522
O O9 0.739405 0.250000 0.250000
O O10 0.688670 0.198298 0.340815
O O11 0.877668 0.240545 0.315901
O O12 0.575145 0.341336 0.401092
O O13 0.584166 0.644826 0.428683
O O14 0.496794 0.563572 0.341911
O O15 0.236595 0.190214 0.569200
O O16 0.067637 0.029103 0.591147
O O17 0.250000 0.500000 0.566654
O O18 0.500000 0.500000 0.000000
O O19 0.512495 0.250000 0.750000
#
# Coordination Sequence:
#
# PCOD9408795 Si02
#       8
#     8   8   8   8   8   8   8   8
#     4  10  22  37  61  91 124 175 212 262 321 376
#     4  10  24  46  59  86 132 164 224 275 311 390
#     4  11  22  41  67 102 138 172 218 281 348 419
#     4  10  20  37  62  91 127 157 213 266 316 387
#     4  10  19  38  59  90 132 168 205 264 326 390
#     4  10  19  32  55  93 131 158 199 253 312 392
#     4  10  22  38  62  90 131 173 216 261 320 389
#     4  11  24  42  70  93 125 167 216 275 332 392
#
# _framework density 21.794578000000001
#
# number of rings (size 3 to 8) (size 9 to 14) (size 15 to 20)
#    0.000    1.750    2.500    1.500    3.500    2.000 
#    2.250    1.250    0.000    0.000    0.000    0.000 
#    0.000    0.000    0.000    0.000    0.000    0.000 
#
# Total GULP energy -356842.068007 kJ/mol
# GULP energy per Si atom -5575.657313 kJ/mol
# Density = 2.174497 g / cm^3
# Si number density = 21.794578 Si / 1000 Ang^3
#
#
#
# Elastic Constant Matrix: (Units=GPa)
#
#
# Indices 1 2 3 4 5 6 
#
# 1 146.0113 49.7749 45.3868 0.0000 0.0000 0.0000
# 2 49.7749 68.6236 7.4270 0.0000 0.0000 0.0000
# 3 45.3868 7.4270 113.4383 0.0000 0.0000 0.0000
# 4 0.0000 0.0000 0.0000 23.2220 0.0000 0.0000
# 5 0.0000 0.0000 0.0000 0.0000 23.2409 0.0000
# 6 0.0000 0.0000 0.0000 0.0000 0.0000 36.9509
#
#
#
# Elastic Compliance Matrix: (Units=1/GPa)
#
#
# Indices 1 2 3 4 5 6 
#
# 1 0.010449 -0.007177 -0.003711 0.000000 0.000000 0.000000
# 2 -0.007177 0.019606 0.001588 0.000000 0.000000 0.000000
# 3 -0.003711 0.001588 0.010196 0.000000 0.000000 0.000000
# 4 0.000000 0.000000 0.000000 0.043063 0.000000 0.000000
# 5 0.000000 0.000000 0.000000 0.000000 0.043028 0.000000
# 6 0.000000 0.000000 0.000000 0.000000 0.000000 0.027063
#
#
# Mechanical properties :
#
#
# Convention : Reuss Voigt Hill
#
# Bulk Modulus (GPa) = 46.18682 59.25007 52.71845
# Shear Modulus (GPa) = 27.89839 31.71506 29.80673
#
# Velocity S-wave (km/s) = 3.58168 3.81882 3.70215
# Velocity P-wave (km/s) = 6.19213 6.83295 6.52042
#
# Compressibility (1/GPa) = 0.02165120
#
# Stress axis : x y z
#
# Youngs Moduli (GPa) = 95.70290 51.00388 98.07697
#
# Poissons Ratio (x) = 0.36607 0.36394
# Poissons Ratio (y) = 0.68690 -0.15575
# Poissons Ratio (z) = 0.35513 -0.08099
#
# Static dielectric constant tensor:
#      x y z
#    x 1.866030 0.000000 0.000000 
#    y 0.000000 1.879690 0.000000 
#    z 0.000000 0.000000 1.765110 
# 
# From -- ./inp_files/44851.got.cif
#   From: 2010.05.17/outbox.cif.g08.bks.cpg/sg52_23_cif.got.tgz:44851.got - 2010.06.03 12:15:38.
