data_PCOD9408397
_publ_section_title
;
Structure prediction by ZEFSAII (Michael W. Deem and Ramdas Pophale) SiO2 
 PCOD9408397
Probable space group: P N N A
;
_chemical_formula_sum "Si O2"
_cell_formula_units_Z 36
_cell_length_a 15.009970
_cell_length_b 8.541327
_cell_length_c 15.782847
_cell_angle_alpha 90.000000
_cell_angle_beta 90.000000
_cell_angle_gamma 90.000000
_cell_volume 2023.440879
_symmetry_space_group_name_H-M "P N N A"
_symmetry_group_IT_number 52
_symmetry_cell_setting 'orthorhombic'
loop_
_space_group_symop_operation_xyz
x,y,z
1/2-x,-y,z
x,1/2-y,1/2-z
1/2-x,1/2+y,1/2-z
-x,-y,-z
1/2+x,y,-z
-x,1/2+y,1/2+z
1/2+x,1/2-y,1/2+z
loop_
_atom_site_type_symbol
_atom_site_label
_atom_site_fract_x
_atom_site_fract_y
_atom_site_fract_z
Si Si1 0.078006 0.130920 0.818468
Si Si2 0.495495 0.621122 0.422092
Si Si3 0.835325 0.342991 0.063601
Si Si4 0.750000 0.000000 0.277045
Si Si5 0.646902 0.300405 0.011779
O O1 0.038888 0.250000 0.750000
O O2 0.103930 0.225684 0.903310
O O3 0.013102 0.987669 0.840909
O O4 0.170479 0.067408 0.779053
O O5 0.500000 0.500000 0.500000
O O6 0.579554 0.735516 0.430566
O O7 0.406943 0.724011 0.434608
O O8 0.795182 0.377966 0.157191
O O9 0.752606 0.267633 0.013050
O O10 0.859243 0.511541 0.022575
#
# Coordination Sequence:
#
# PCOD9408397 Si02
#       5
#     8   8   8   4   8
#     4  11  18  31  47  74 116 139 177 217 278 341
#     4  10  22  32  48  75 115 150 178 218 270 339
#     4  10  18  33  56  74 114 145 181 232 272 333
#     4  10  20  30  54  86 108 142 170 224 294 332
#     4   9  19  34  49  79 110 147 182 221 278 332
#
# _framework density 17.791474999999998
#
# number of rings (size 3 to 8) (size 9 to 14) (size 15 to 20)
#    0.000    2.222    4.444    2.000    0.000    2.667 
#    0.000    0.000    0.000    0.000    0.000    0.000 
#   80.000    0.000    0.000    0.000    0.000    0.000 
#
# Total GULP energy -200706.351365 kJ/mol
# GULP energy per Si atom -5575.176427 kJ/mol
# Density = 1.775098 g / cm^3
# Si number density = 17.791475 Si / 1000 Ang^3
#
#
#
# Elastic Constant Matrix: (Units=GPa)
#
#
# Indices 1 2 3 4 5 6 
#
# 1 94.7207 57.0903 42.2421 0.0000 0.0000 0.0000
# 2 57.0903 78.2182 37.0776 0.0000 0.0000 0.0000
# 3 42.2421 37.0776 48.9256 0.0000 0.0000 0.0000
# 4 0.0000 0.0000 0.0000 13.8663 0.0000 0.0000
# 5 0.0000 0.0000 0.0000 0.0000 20.2465 0.0000
# 6 0.0000 0.0000 0.0000 0.0000 0.0000 27.8549
#
#
#
# Elastic Compliance Matrix: (Units=1/GPa)
#
#
# Indices 1 2 3 4 5 6 
#
# 1 0.021881 -0.010948 -0.010595 0.000000 0.000000 0.000000
# 2 -0.010948 0.025430 -0.009819 0.000000 0.000000 0.000000
# 3 -0.010595 -0.009819 0.037028 0.000000 0.000000 0.000000
# 4 0.000000 0.000000 0.000000 0.072118 0.000000 0.000000
# 5 0.000000 0.000000 0.000000 0.000000 0.049391 0.000000
# 6 0.000000 0.000000 0.000000 0.000000 0.000000 0.035900
#
#
# Mechanical properties :
#
#
# Convention : Reuss Voigt Hill
#
# Bulk Modulus (GPa) = 46.26530 54.96494 50.61512
# Shear Modulus (GPa) = 16.04212 18.09049 17.06631
#
# Velocity S-wave (km/s) = 3.00605 3.19220 3.10052
# Velocity P-wave (km/s) = 6.17325 6.67442 6.42872
#
# Compressibility (1/GPa) = 0.02161447
#
# Stress axis : x y z
#
# Youngs Moduli (GPa) = 45.70127 39.32288 27.00641
#
# Poissons Ratio (x) = 0.43053 0.28613
# Poissons Ratio (y) = 0.50036 0.26518
# Poissons Ratio (z) = 0.48420 0.38612
#
# Static dielectric constant tensor:
#      x y z
#    x 1.603740 0.000000 0.000000 
#    y 0.000000 1.664860 0.000000 
#    z 0.000000 0.000000 1.628170 
# 
# From -- ./inp_files/27803.got.cif
#   From: 2010.05.17/outbox.cif.g08.bks.cpg/sg52_14_cif.got.tgz:27803.got - 2010.06.03 12:15:38.
