data_PCOD9408898
_publ_section_title
;
Structure prediction by ZEFSAII (Michael W. Deem and Ramdas Pophale) SiO2 
 PCOD9408898
Probable space group: P N N A
;
_chemical_formula_sum "Si O2"
_cell_formula_units_Z 56
_cell_length_a 9.245466
_cell_length_b 18.841701
_cell_length_c 18.204853
_cell_angle_alpha 90.000000
_cell_angle_beta 90.000000
_cell_angle_gamma 90.000000
_cell_volume 3171.290963
_symmetry_space_group_name_H-M "P N N A"
_symmetry_group_IT_number 52
_symmetry_cell_setting 'orthorhombic'
loop_
_space_group_symop_operation_xyz
x,y,z
1/2-x,-y,z
x,1/2-y,1/2-z
1/2-x,1/2+y,1/2-z
-x,-y,-z
1/2+x,y,-z
-x,1/2+y,1/2+z
1/2+x,1/2-y,1/2+z
loop_
_atom_site_type_symbol
_atom_site_label
_atom_site_fract_x
_atom_site_fract_y
_atom_site_fract_z
Si Si1 0.828497 0.219073 0.349040
Si Si2 0.158895 0.348567 0.971487
Si Si3 0.125371 0.321053 0.134571
Si Si4 0.996047 0.476221 0.160955
Si Si5 0.250000 0.000000 0.541314
Si Si6 0.822007 0.850672 0.218275
Si Si7 0.250000 0.500000 0.718238
Si Si8 0.065060 0.634025 0.164327
O O1 0.791453 0.187195 0.428131
O O2 0.782290 0.160385 0.289032
O O3 0.723622 0.285297 0.332588
O O4 0.998517 0.231149 0.338060
O O5 0.204538 0.427824 0.997266
O O6 0.034946 0.351933 0.908364
O O7 0.123617 0.310793 0.046730
O O8 0.072793 0.400720 0.156300
O O9 0.290402 0.319759 0.160622
O O10 0.090076 0.548620 0.161118
O O11 0.886823 0.481089 0.092010
O O12 0.889143 0.485463 0.230357
O O13 0.788881 0.925716 0.180492
O O14 0.975550 0.850028 0.260637
#
# Coordination Sequence:
#
# PCOD9408898 Si02
#       8
#     8   8   8   8   4   8   4   8
#     4  10  19  34  49  67  95 139 170 204 247 306
#     4  10  20  30  43  66 106 144 174 197 237 302
#     4  12  19  28  46  75 102 130 169 204 245 295
#     4   9  16  27  43  68 100 130 170 201 240 282
#     4   9  16  28  42  62  98 150 176 185 218 290
#     4   9  18  35  53  65  93 128 171 213 258 304
#     4   9  14  32  54  70  86 126 174 217 246 312
#     4   9  20  29  43  71 101 133 167 213 248 282
#
# _framework density 17.658424
#
# number of rings (size 3 to 8) (size 9 to 14) (size 15 to 20)
#    0.000    2.286    2.857    3.000    2.000    1.143 
#    0.000    5.714    0.000    0.000    0.000    1.000 
#    0.000    0.000    0.000    0.000    0.000    0.000 
#
# Total GULP energy -311778.205573 kJ/mol
# GULP energy per Si atom -5567.467957 kJ/mol
# Density = 1.761823 g / cm^3
# Si number density = 17.658424 Si / 1000 Ang^3
#
#
#
# Elastic Constant Matrix: (Units=GPa)
#
#
# Indices 1 2 3 4 5 6 
#
# 1 83.7560 13.0709 12.2890 0.0000 0.0000 0.0000
# 2 13.0709 73.6159 10.8242 0.0000 0.0000 0.0000
# 3 12.2890 10.8242 31.0603 0.0000 0.0000 0.0000
# 4 0.0000 0.0000 0.0000 9.1766 0.0000 0.0000
# 5 0.0000 0.0000 0.0000 0.0000 9.1874 0.0000
# 6 0.0000 0.0000 0.0000 0.0000 0.0000 15.4727
#
#
#
# Elastic Compliance Matrix: (Units=1/GPa)
#
#
# Indices 1 2 3 4 5 6 
#
# 1 0.012855 -0.001618 -0.004523 0.000000 0.000000 0.000000
# 2 -0.001618 0.014521 -0.004420 0.000000 0.000000 0.000000
# 3 -0.004523 -0.004420 0.035525 0.000000 0.000000 0.000000
# 4 0.000000 0.000000 0.000000 0.108973 0.000000 0.000000
# 5 0.000000 0.000000 0.000000 0.000000 0.108845 0.000000
# 6 0.000000 0.000000 0.000000 0.000000 0.000000 0.064630
#
#
# Mechanical properties :
#
#
# Convention : Reuss Voigt Hill
#
# Bulk Modulus (GPa) = 23.93450 28.97781 26.45616
# Shear Modulus (GPa) = 13.14413 16.91720 15.03066
#
# Velocity S-wave (km/s) = 2.73125 3.09855 2.92068
# Velocity P-wave (km/s) = 4.85076 5.40807 5.13698
#
# Compressibility (1/GPa) = 0.04178069
#
# Stress axis : x y z
#
# Youngs Moduli (GPa) = 77.78806 68.86476 28.14901
#
# Poissons Ratio (x) = 0.11139 0.12730
# Poissons Ratio (y) = 0.12583 0.12443
# Poissons Ratio (z) = 0.35180 0.30442
#
# Static dielectric constant tensor:
#      x y z
#    x 1.678700 0.000000 0.000000 
#    y 0.000000 1.656840 0.000000 
#    z 0.000000 0.000000 1.585140 
# 
# From -- ./inp_files/36243.got.cif
#   From: 2010.05.17/outbox.cif.g08.bks.cpg/sg52_19_cif.got.tgz:36243.got - 2010.06.03 12:15:38.
