data_PCOD9408625
_publ_section_title
;
Structure prediction by ZEFSAII (Michael W. Deem and Ramdas Pophale) SiO2 
 PCOD9408625
Probable space group: P N N A
;
_chemical_formula_sum "Si O2"
_cell_formula_units_Z 56
_cell_length_a 15.277345
_cell_length_b 28.448449
_cell_length_c 5.947601
_cell_angle_alpha 90.000000
_cell_angle_beta 90.000000
_cell_angle_gamma 90.000000
_cell_volume 2584.927136
_symmetry_space_group_name_H-M "P N N A"
_symmetry_group_IT_number 52
_symmetry_cell_setting 'orthorhombic'
loop_
_space_group_symop_operation_xyz
x,y,z
1/2-x,-y,z
x,1/2-y,1/2-z
1/2-x,1/2+y,1/2-z
-x,-y,-z
1/2+x,y,-z
-x,1/2+y,1/2+z
1/2+x,1/2-y,1/2+z
loop_
_atom_site_type_symbol
_atom_site_label
_atom_site_fract_x
_atom_site_fract_y
_atom_site_fract_z
Si Si1 0.261295 0.397450 0.909179
Si Si2 0.186477 0.296245 0.857103
Si Si3 0.529203 0.172803 0.051550
Si Si4 0.422211 0.493888 0.177947
Si Si5 0.900753 0.906355 0.729625
Si Si6 0.750000 0.000000 0.372475
Si Si7 0.053881 0.894252 0.360660
Si Si8 0.082323 0.250000 0.250000
O O1 0.236522 0.345340 0.825918
O O2 0.245538 0.446594 0.768537
O O3 0.196248 0.403057 0.125038
O O4 0.362133 0.393890 0.979791
O O5 0.231009 0.250000 0.750000
O O6 0.097478 0.304686 0.721857
O O7 0.149232 0.281807 0.101605
O O8 0.452298 0.149574 0.194289
O O9 0.576703 0.130659 0.919336
O O10 0.517798 0.214464 0.877262
O O11 0.417706 0.541016 0.321051
O O12 0.435563 0.442686 0.280157
O O13 0.500000 0.500000 0.000000
O O14 0.334344 0.494934 0.030583
O O15 0.967195 0.897042 0.518032
#
# Coordination Sequence:
#
# PCOD9408625 Si02
#       8
#     8   8   8   8   8   4   8   4
#     4  10  18  38  62  86 125 158 206 248 304 364
#     4  10  21  38  67  85 110 155 204 248 309 365
#     4  11  20  36  61  86 115 152 204 245 307 358
#     4   8  16  30  53  83 117 156 197 234 296 356
#     4  10  19  37  59  85 122 160 192 253 304 354
#     4   8  16  28  58  86 112 164 194 242 302 356
#     4  10  20  35  59  90 119 161 204 244 294 373
#     4  10  20  38  64  82 106 152 198 254 304 358
#
# _framework density 21.664054
#
# number of rings (size 3 to 8) (size 9 to 14) (size 15 to 20)
#    0.000    2.286    2.857    0.000    0.000    0.571 
#    2.571    0.000   20.429    0.857    0.000    0.000 
#    0.000    0.000    0.000    0.000    0.000    0.000 
#
# Total GULP energy -311860.678009 kJ/mol
# GULP energy per Si atom -5568.940679 kJ/mol
# Density = 2.161475 g / cm^3
# Si number density = 21.664054 Si / 1000 Ang^3
#
#
#
# Elastic Constant Matrix: (Units=GPa)
#
#
# Indices 1 2 3 4 5 6 
#
# 1 62.9460 1.1709 -7.8683 0.0000 0.0000 0.0000
# 2 1.1709 200.8990 24.3281 0.0000 0.0000 0.0000
# 3 -7.8683 24.3281 22.7241 0.0000 0.0000 0.0000
# 4 0.0000 0.0000 0.0000 28.3429 0.0000 0.0000
# 5 0.0000 0.0000 0.0000 0.0000 -1.5309 0.0000
# 6 0.0000 0.0000 0.0000 0.0000 0.0000 30.2052
#
#
#
# Elastic Compliance Matrix: (Units=1/GPa)
#
#
# Indices 1 2 3 4 5 6 
#
# 1 0.016752 -0.000919 0.006785 0.000000 0.000000 0.000000
# 2 -0.000919 0.005770 -0.006495 0.000000 0.000000 0.000000
# 3 0.006785 -0.006495 0.053309 0.000000 0.000000 0.000000
# 4 0.000000 0.000000 0.000000 0.035282 0.000000 0.000000
# 5 0.000000 0.000000 0.000000 0.000000 -0.653227 0.000000
# 6 0.000000 0.000000 0.000000 0.000000 0.000000 0.033107
#
#
# Mechanical properties :
#
#
# Convention : Reuss Voigt Hill
#
# Bulk Modulus (GPa) = 13.41009 35.75894 24.58452
# Shear Modulus (GPa) = -10.35431 29.33265 9.48917
#
# Velocity S-wave (km/s) = -2.18858 3.68364 2.09515
# Velocity P-wave (km/s) = 0.42781 5.88508 4.15037
#
# Compressibility (1/GPa) = 0.07457071
#
# Stress axis : x y z
#
# Youngs Moduli (GPa) = 59.69506 173.32496 18.75859
#
# Poissons Ratio (x) = 0.15932 -0.12727
# Poissons Ratio (y) = 0.05487 0.12184
# Poissons Ratio (z) = -0.40500 1.12575
#
# Static dielectric constant tensor:
#      x y z
#    x 1.743300 0.000000 0.000000 
#    y 0.000000 1.936890 0.000000 
#    z 0.000000 0.000000 1.816690 
# 
# From -- ./inp_files/2680.got.cif
#   From: 2010.05.17/outbox.cif.g08.bks.cpg/sg52_2_cif.got.tgz:2680.got - 2010.06.03 12:15:38.
