data_PCOD9408411
_publ_section_title
;
Structure prediction by ZEFSAII (Michael W. Deem and Ramdas Pophale) SiO2 
 PCOD9408411
Probable space group: P N N A
;
_chemical_formula_sum "Si O2"
_cell_formula_units_Z 56
_cell_length_a 8.090753
_cell_length_b 19.220374
_cell_length_c 15.827453
_cell_angle_alpha 90.000000
_cell_angle_beta 90.000000
_cell_angle_gamma 90.000000
_cell_volume 2461.284460
_symmetry_space_group_name_H-M "P N N A"
_symmetry_group_IT_number 52
_symmetry_cell_setting 'orthorhombic'
loop_
_space_group_symop_operation_xyz
x,y,z
1/2-x,-y,z
x,1/2-y,1/2-z
1/2-x,1/2+y,1/2-z
-x,-y,-z
1/2+x,y,-z
-x,1/2+y,1/2+z
1/2+x,1/2-y,1/2+z
loop_
_atom_site_type_symbol
_atom_site_label
_atom_site_fract_x
_atom_site_fract_y
_atom_site_fract_z
Si Si1 0.414544 0.797473 0.928719
Si Si2 0.066882 0.968704 0.589288
Si Si3 0.839558 0.562023 0.617871
Si Si4 0.639430 0.892705 0.045156
Si Si5 0.808490 0.317280 0.710741
Si Si6 0.601922 0.907821 0.629300
Si Si7 0.274084 0.852913 0.535047
O O1 0.276575 0.853201 0.901186
O O2 0.547553 0.790352 0.853272
O O3 0.313815 0.729529 0.961574
O O4 0.516656 0.834814 0.004071
O O5 0.113336 0.886754 0.583043
O O6 0.250000 0.000000 0.604337
O O7 0.936803 0.010177 0.647167
O O8 0.000000 0.000000 0.500000
O O9 0.750000 0.500000 0.665417
O O10 0.729942 0.572331 0.533656
O O11 0.821517 0.634780 0.664003
O O12 0.028821 0.552095 0.594317
O O13 0.726732 0.250000 0.750000
O O14 0.876950 0.365235 0.785562
O O15 0.435312 0.879755 0.584064
O O16 0.742243 0.885967 0.559137
#
# Coordination Sequence:
#
# PCOD9408411 Si02
#       7
#     8   8   8   8   8   8   8
#     4  10  19  35  60  90 122 157 199 251 311 373
#     4   8  16  30  49  76 104 140 190 240 273 334
#     4  10  21  41  66  92 123 161 207 259 320 378
#     4   9  20  36  64  95 119 152 209 258 304 374
#     4  11  23  40  59  86 129 165 195 257 322 373
#     4  10  20  36  57  81 116 158 204 252 302 350
#     4  10  18  33  58  82 111 154 207 241 293 359
#
# _framework density 22.752348000000001
#
# number of rings (size 3 to 8) (size 9 to 14) (size 15 to 20)
#    0.000    2.286    1.429    1.286    4.000    0.000 
#    0.000   13.571    0.000    0.000    0.000    0.000 
#    0.000    0.000    0.000    0.000    0.000    0.000 
#
# Total GULP energy -311858.831090 kJ/mol
# GULP energy per Si atom -5568.907698 kJ/mol
# Density = 2.270056 g / cm^3
# Si number density = 22.752348 Si / 1000 Ang^3
#
#
#
# Elastic Constant Matrix: (Units=GPa)
#
#
# Indices 1 2 3 4 5 6 
#
# 1 69.6526 -19.4134 0.7560 0.0000 0.0000 0.0000
# 2 -19.4134 69.9802 -2.8734 0.0000 0.0000 0.0000
# 3 0.7560 -2.8734 57.2956 0.0000 0.0000 0.0000
# 4 0.0000 0.0000 0.0000 22.8034 0.0000 0.0000
# 5 0.0000 0.0000 0.0000 0.0000 5.7712 0.0000
# 6 0.0000 0.0000 0.0000 0.0000 0.0000 28.9211
#
#
#
# Elastic Compliance Matrix: (Units=1/GPa)
#
#
# Indices 1 2 3 4 5 6 
#
# 1 0.015560 0.004317 0.000011 0.000000 0.000000 0.000000
# 2 0.004317 0.015517 0.000721 0.000000 0.000000 0.000000
# 3 0.000011 0.000721 0.017489 0.000000 0.000000 0.000000
# 4 0.000000 0.000000 0.000000 0.043853 0.000000 0.000000
# 5 0.000000 0.000000 0.000000 0.000000 0.173276 0.000000
# 6 0.000000 0.000000 0.000000 0.000000 0.000000 0.034577
#
#
# Mechanical properties :
#
#
# Convention : Reuss Voigt Hill
#
# Bulk Modulus (GPa) = 17.04586 17.09632 17.07109
# Shear Modulus (GPa) = 16.14318 26.06306 21.10312
#
# Velocity S-wave (km/s) = 2.66657 3.38821 3.04882
# Velocity P-wave (km/s) = 4.12176 4.77881 4.46240
#
# Compressibility (1/GPa) = 0.05866526
#
# Stress axis : x y z
#
# Youngs Moduli (GPa) = 64.26704 64.44555 57.17757
#
# Poissons Ratio (x) = -0.27821 -0.00064
# Poissons Ratio (y) = -0.27744 -0.04124
# Poissons Ratio (z) = -0.00072 -0.04648
#
# Static dielectric constant tensor:
#      x y z
#    x 1.873710 0.000000 0.000000 
#    y 0.000000 2.039690 0.000000 
#    z 0.000000 0.000000 1.887350 
# 
# From -- ./inp_files/31556.got.cif
#   From: 2010.05.17/outbox.cif.g08.bks.cpg/sg52_16_cif.got.tgz:31556.got - 2010.06.03 12:15:38.
