data_PCOD9408715
_publ_section_title
;
Structure prediction by ZEFSAII (Michael W. Deem and Ramdas Pophale) SiO2 
 PCOD9408715
Probable space group: P N N A
;
_chemical_formula_sum "Si O2"
_cell_formula_units_Z 32
_cell_length_a 18.932098
_cell_length_b 4.936437
_cell_length_c 12.524187
_cell_angle_alpha 90.000000
_cell_angle_beta 90.000000
_cell_angle_gamma 90.000000
_cell_volume 1170.474310
_symmetry_space_group_name_H-M "P N N A"
_symmetry_group_IT_number 52
_symmetry_cell_setting 'orthorhombic'
loop_
_space_group_symop_operation_xyz
x,y,z
1/2-x,-y,z
x,1/2-y,1/2-z
1/2-x,1/2+y,1/2-z
-x,-y,-z
1/2+x,y,-z
-x,1/2+y,1/2+z
1/2+x,1/2-y,1/2+z
loop_
_atom_site_type_symbol
_atom_site_label
_atom_site_fract_x
_atom_site_fract_y
_atom_site_fract_z
Si Si1 0.825306 0.396228 0.602213
Si Si2 0.054243 0.315562 0.882175
Si Si3 0.082369 0.123870 0.378537
Si Si4 0.649401 0.826601 0.141126
O O1 0.750000 0.500000 0.643162
O O2 0.883494 0.592420 0.656170
O O3 0.822095 0.431819 0.472208
O O4 0.852501 0.089704 0.615450
O O5 0.114459 0.541939 0.884363
O O6 0.983551 0.450518 0.836793
O O7 0.087585 0.043995 0.833173
O O8 0.046496 0.270300 0.009356
O O9 0.691974 0.750000 0.250000
#
# Coordination Sequence:
#
# PCOD9408715 Si02
#       4
#     8   8   8   8
#     4  10  19  31  46  68  98 130 161 192 230 284
#     4   9  17  30  48  67  89 120 159 204 247 275
#     4   9  17  30  48  67  89 120 159 204 247 277
#     4  10  19  31  46  68  98 130 161 192 228 280
#
# _framework density 27.339345000000002
#
# number of rings (size 3 to 8) (size 9 to 14) (size 15 to 20)
#    0.000    2.500    0.000    3.000    0.000    6.000 
#    0.000    7.500    0.000    0.000    0.000    0.000 
#    0.000   56.000    0.000    0.000    0.000    0.000 
#
# Total GULP energy -178538.934440 kJ/mol
# GULP energy per Si atom -5579.341701 kJ/mol
# Density = 2.727712 g / cm^3
# Si number density = 27.339345 Si / 1000 Ang^3
#
#
#
# Elastic Constant Matrix: (Units=GPa)
#
#
# Indices 1 2 3 4 5 6 
#
# 1 66.5009 1.0437 26.4614 0.0000 0.0000 0.0000
# 2 1.0437 138.2920 34.6825 0.0000 0.0000 0.0000
# 3 26.4614 34.6825 102.3009 0.0000 0.0000 0.0000
# 4 0.0000 0.0000 0.0000 41.4937 0.0000 0.0000
# 5 0.0000 0.0000 0.0000 0.0000 13.2998 0.0000
# 6 0.0000 0.0000 0.0000 0.0000 0.0000 29.6561
#
#
#
# Elastic Compliance Matrix: (Units=1/GPa)
#
#
# Indices 1 2 3 4 5 6 
#
# 1 0.016903 0.001059 -0.004731 0.000000 0.000000 0.000000
# 2 0.001059 0.007969 -0.002976 0.000000 0.000000 0.000000
# 3 -0.004731 -0.002976 0.012008 0.000000 0.000000 0.000000
# 4 0.000000 0.000000 0.000000 0.024100 0.000000 0.000000
# 5 0.000000 0.000000 0.000000 0.000000 0.075189 0.000000
# 6 0.000000 0.000000 0.000000 0.000000 0.000000 0.033720
#
#
# Mechanical properties :
#
#
# Convention : Reuss Voigt Hill
#
# Bulk Modulus (GPa) = 42.40081 47.94099 45.17090
# Shear Modulus (GPa) = 26.17154 33.21700 29.69427
#
# Velocity S-wave (km/s) = 3.09736 3.48945 3.29923
# Velocity P-wave (km/s) = 5.32299 5.81452 5.57418
#
# Compressibility (1/GPa) = 0.02358446
#
# Stress axis : x y z
#
# Youngs Moduli (GPa) = 59.15964 125.48034 83.27954
#
# Poissons Ratio (x) = -0.13288 0.39402
# Poissons Ratio (y) = -0.06265 0.24782
# Poissons Ratio (z) = 0.27990 0.37340
#
# Static dielectric constant tensor:
#      x y z
#    x 2.078390 0.000000 0.000000 
#    y 0.000000 2.062700 0.000000 
#    z 0.000000 0.000000 2.473390 
# 
# From -- ./inp_files/28424.got.cif
#   From: 2010.05.17/outbox.cif.g08.bks.cpg/sg52_15_cif.got.tgz:28424.got - 2010.06.03 12:15:38.
