data_PCOD9408044
_publ_section_title
;
Structure prediction by ZEFSAII (Michael W. Deem and Ramdas Pophale) SiO2 
 PCOD9408044
Probable space group: P N N A
;
_chemical_formula_sum "Si O2"
_cell_formula_units_Z 52
_cell_length_a 9.071712
_cell_length_b 17.753332
_cell_length_c 16.102463
_cell_angle_alpha 90.000000
_cell_angle_beta 90.000000
_cell_angle_gamma 90.000000
_cell_volume 2593.351824
_symmetry_space_group_name_H-M "P N N A"
_symmetry_group_IT_number 52
_symmetry_cell_setting 'orthorhombic'
loop_
_space_group_symop_operation_xyz
x,y,z
1/2-x,-y,z
x,1/2-y,1/2-z
1/2-x,1/2+y,1/2-z
-x,-y,-z
1/2+x,y,-z
-x,1/2+y,1/2+z
1/2+x,1/2-y,1/2+z
loop_
_atom_site_type_symbol
_atom_site_label
_atom_site_fract_x
_atom_site_fract_y
_atom_site_fract_z
Si Si1 0.503124 0.744654 0.920672
Si Si2 0.357941 0.618278 0.828427
Si Si3 0.462663 0.060330 0.930063
Si Si4 0.399377 0.389671 0.960830
Si Si5 0.729143 0.339784 0.529027
Si Si6 0.250000 0.500000 0.702168
Si Si7 0.902095 0.001486 0.614606
O O1 0.442802 0.698242 0.840278
O O2 0.650282 0.796110 0.913900
O O3 0.554696 0.682143 0.987274
O O4 0.371343 0.789149 0.966960
O O5 0.241711 0.620752 0.903854
O O6 0.273288 0.579383 0.751644
O O7 0.475811 0.552689 0.844269
O O8 0.609275 0.111176 0.919880
O O9 0.394917 0.016177 0.852530
O O10 0.330773 0.110327 0.968349
O O11 0.500000 0.000000 0.000000
O O12 0.532814 0.420044 0.904618
O O13 0.371662 0.454893 0.028069
O O14 0.750000 0.000000 0.662853
#
# Coordination Sequence:
#
# PCOD9408044 Si02
#       7
#     8   8   8   8   8   4   8
#     4  10  20  34  62 101 137 174 206 253 317 413
#     4  11  21  36  55  96 139 175 209 257 331 398
#     4  11  22  45  75  97 111 154 231 304 332 377
#     4  10  17  30  51  85 133 181 214 243 292 385
#     4  10  21  39  71 102 118 160 228 268 325 388
#     4  12  24  42  68  98 124 170 222 290 348 372
#     4  10  18  27  50  81 127 183 226 246 276 365
#
# _framework density 20.051271
#
# number of rings (size 3 to 8) (size 9 to 14) (size 15 to 20)
#    0.000    1.538    4.615    2.769    2.154    0.000 
#    0.000    2.308    0.000    1.846    0.000    0.000 
#    0.000    0.000    0.000    0.000    0.000    0.000 
#
# Total GULP energy -289785.413385 kJ/mol
# GULP energy per Si atom -5572.796411 kJ/mol
# Density = 2.000563 g / cm^3
# Si number density = 20.051271 Si / 1000 Ang^3
#
#
#
# Elastic Constant Matrix: (Units=GPa)
#
#
# Indices 1 2 3 4 5 6 
#
# 1 128.9582 41.7000 22.5947 0.0000 0.0000 0.0000
# 2 41.7000 81.5613 21.3194 0.0000 0.0000 0.0000
# 3 22.5947 21.3194 52.1872 0.0000 0.0000 0.0000
# 4 0.0000 0.0000 0.0000 23.8575 0.0000 0.0000
# 5 0.0000 0.0000 0.0000 0.0000 24.1695 0.0000
# 6 0.0000 0.0000 0.0000 0.0000 0.0000 51.0318
#
#
#
# Elastic Compliance Matrix: (Units=1/GPa)
#
#
# Indices 1 2 3 4 5 6 
#
# 1 0.009551 -0.004257 -0.002396 0.000000 0.000000 0.000000
# 2 -0.004257 0.015624 -0.004540 0.000000 0.000000 0.000000
# 3 -0.002396 -0.004540 0.022054 0.000000 0.000000 0.000000
# 4 0.000000 0.000000 0.000000 0.041916 0.000000 0.000000
# 5 0.000000 0.000000 0.000000 0.000000 0.041374 0.000000
# 6 0.000000 0.000000 0.000000 0.000000 0.000000 0.019596
#
#
# Mechanical properties :
#
#
# Convention : Reuss Voigt Hill
#
# Bulk Modulus (GPa) = 40.25228 48.21499 44.23363
# Shear Modulus (GPa) = 27.65799 31.61792 29.63795
#
# Velocity S-wave (km/s) = 3.71801 3.97527 3.84879
# Velocity P-wave (km/s) = 6.20884 6.72074 6.46986
#
# Compressibility (1/GPa) = 0.02484331
#
# Stress axis : x y z
#
# Youngs Moduli (GPa) = 104.70409 64.00555 45.34392
#
# Poissons Ratio (x) = 0.27245 0.10865
# Poissons Ratio (y) = 0.44569 0.20584
# Poissons Ratio (z) = 0.25088 0.29056
#
# Static dielectric constant tensor:
#      x y z
#    x 1.717140 0.000000 0.000000 
#    y 0.000000 1.746610 0.000000 
#    z 0.000000 0.000000 1.728560 
# 
# From -- ./inp_files/31433.got.cif
#   From: 2010.05.17/outbox.cif.g08.bks.cpg/sg52_16_cif.got.tgz:31433.got - 2010.06.03 12:15:38.
