data_PCOD9408734
_publ_section_title
;
Structure prediction by ZEFSAII (Michael W. Deem and Ramdas Pophale) SiO2 
 PCOD9408734
Probable space group: P N N A
;
_chemical_formula_sum "Si O2"
_cell_formula_units_Z 48
_cell_length_a 5.432530
_cell_length_b 13.802693
_cell_length_c 26.445694
_cell_angle_alpha 90.000000
_cell_angle_beta 90.000000
_cell_angle_gamma 90.000000
_cell_volume 1982.991854
_symmetry_space_group_name_H-M "P N N A"
_symmetry_group_IT_number 52
_symmetry_cell_setting 'orthorhombic'
loop_
_space_group_symop_operation_xyz
x,y,z
1/2-x,-y,z
x,1/2-y,1/2-z
1/2-x,1/2+y,1/2-z
-x,-y,-z
1/2+x,y,-z
-x,1/2+y,1/2+z
1/2+x,1/2-y,1/2+z
loop_
_atom_site_type_symbol
_atom_site_label
_atom_site_fract_x
_atom_site_fract_y
_atom_site_fract_z
Si Si1 0.885237 0.866498 0.635574
Si Si2 0.476112 0.890770 0.020217
Si Si3 0.204961 0.110018 0.481457
Si Si4 0.113293 0.131898 0.690853
Si Si5 0.884880 0.632321 0.637552
Si Si6 0.615082 0.368726 0.307577
O O1 0.879975 0.891419 0.576543
O O2 0.630386 0.899229 0.660967
O O3 0.884215 0.749484 0.639015
O O4 0.132201 0.898499 0.664332
O O5 0.417980 0.893879 0.079214
O O6 0.242499 0.846071 0.991375
O O7 0.500000 0.000000 0.000000
O O8 0.478322 0.153421 0.487007
O O9 0.250000 0.000000 0.499912
O O10 0.114454 0.250332 0.691184
O O11 0.096871 0.101688 0.749205
O O12 0.624258 0.600317 0.660639
O O13 0.124546 0.600564 0.668879
#
# Coordination Sequence:
#
# PCOD9408734 Si02
#       6
#     8   8   8   8   8   8
#     4  10  19  31  51  79 105 138 167 217 259 311
#     4  10  21  36  52  73  98 135 181 217 263 318
#     4  10  21  36  52  73 101 139 176 204 253 308
#     4   9  17  30  49  77 109 134 167 203 272 316
#     4  10  19  31  51  79 105 131 176 214 267 307
#     4   9  17  30  49  77 109 135 161 215 261 325
#
# _framework density 24.205850000000002
#
# number of rings (size 3 to 8) (size 9 to 14) (size 15 to 20)
#    0.000    2.333    0.000    3.000    0.000    5.333 
#    0.000    0.000    0.000    0.000   43.333    0.000 
#    0.000    0.000    0.000    0.000    0.000    0.000 
#
# Total GULP energy -268758.586632 kJ/mol
# GULP energy per Si atom -5599.137222 kJ/mol
# Density = 2.415076 g / cm^3
# Si number density = 24.205850 Si / 1000 Ang^3
#
#
#
# Elastic Constant Matrix: (Units=GPa)
#
#
# Indices 1 2 3 4 5 6 
#
# 1 258.9893 30.9147 121.0023 0.0000 0.0000 0.0000
# 2 30.9147 83.6284 -9.9012 0.0000 0.0000 0.0000
# 3 121.0023 -9.9012 205.1079 0.0000 0.0000 0.0000
# 4 0.0000 0.0000 0.0000 27.9999 0.0000 0.0000
# 5 0.0000 0.0000 0.0000 0.0000 52.9286 0.0000
# 6 0.0000 0.0000 0.0000 0.0000 0.0000 40.0858
#
#
#
# Elastic Compliance Matrix: (Units=1/GPa)
#
#
# Indices 1 2 3 4 5 6 
#
# 1 0.005836 -0.002580 -0.003567 0.000000 0.000000 0.000000
# 2 -0.002580 0.013167 0.002157 0.000000 0.000000 0.000000
# 3 -0.003567 0.002157 0.007084 0.000000 0.000000 0.000000
# 4 0.000000 0.000000 0.000000 0.035714 0.000000 0.000000
# 5 0.000000 0.000000 0.000000 0.000000 0.018893 0.000000
# 6 0.000000 0.000000 0.000000 0.000000 0.000000 0.024946
#
#
# Mechanical properties :
#
#
# Convention : Reuss Voigt Hill
#
# Bulk Modulus (GPa) = 55.22547 92.41747 73.82147
# Shear Modulus (GPa) = 41.78653 51.25017 46.51835
#
# Velocity S-wave (km/s) = 4.15938 4.60637 4.38857
# Velocity P-wave (km/s) = 6.77730 8.15807 7.49953
#
# Compressibility (1/GPa) = 0.01810759
#
# Stress axis : x y z
#
# Youngs Moduli (GPa) = 171.35711 75.94922 141.16034
#
# Poissons Ratio (x) = 0.19592 0.50356
# Poissons Ratio (y) = 0.44204 -0.30455
# Poissons Ratio (z) = 0.61128 -0.16386
#
# Static dielectric constant tensor:
#      x y z
#    x 1.926700 0.000000 0.000000 
#    y 0.000000 1.958320 0.000000 
#    z 0.000000 0.000000 1.816220 
# 
# From -- ./inp_files/38778.got.cif
#   From: 2010.05.17/outbox.cif.g08.bks.cpg/sg52_20_cif.got.tgz:38778.got - 2010.06.03 12:15:38.
