data_PCOD9408549
_publ_section_title
;
Structure prediction by ZEFSAII (Michael W. Deem and Ramdas Pophale) SiO2 
 PCOD9408549
Probable space group: P N N A
;
_chemical_formula_sum "Si O2"
_cell_formula_units_Z 40
_cell_length_a 7.248466
_cell_length_b 16.348149
_cell_length_c 14.205730
_cell_angle_alpha 90.000000
_cell_angle_beta 90.000000
_cell_angle_gamma 90.000000
_cell_volume 1683.364830
_symmetry_space_group_name_H-M "P N N A"
_symmetry_group_IT_number 52
_symmetry_cell_setting 'orthorhombic'
loop_
_space_group_symop_operation_xyz
x,y,z
1/2-x,-y,z
x,1/2-y,1/2-z
1/2-x,1/2+y,1/2-z
-x,-y,-z
1/2+x,y,-z
-x,1/2+y,1/2+z
1/2+x,1/2-y,1/2+z
loop_
_atom_site_type_symbol
_atom_site_label
_atom_site_fract_x
_atom_site_fract_y
_atom_site_fract_z
Si Si1 0.120961 0.157138 0.737047
Si Si2 0.033455 0.016318 0.609756
Si Si3 0.134800 0.318384 0.387309
Si Si4 0.060800 0.350050 0.186629
Si Si5 0.756999 0.404237 0.428002
O O1 0.059899 0.250000 0.750000
O O2 0.013506 0.104928 0.657794
O O3 0.339547 0.162900 0.706460
O O4 0.120693 0.114038 0.840165
O O5 0.250000 0.000000 0.628059
O O6 0.921405 0.943396 0.657593
O O7 0.000000 0.000000 0.500000
O O8 0.184737 0.334994 0.278990
O O9 0.104954 0.220552 0.389315
O O10 0.953099 0.374846 0.391464
O O11 0.237948 0.349941 0.478506
O O12 0.750000 0.500000 0.450669
#
# Coordination Sequence:
#
# PCOD9408549 Si02
#       5
#     8   8   8   8   8
#     4  10  18  36  59  84 114 154 201 237 282 360
#     4  10  22  36  60  86 114 155 198 244 291 354
#     4  10  20  35  60  82 112 152 188 238 285 356
#     4   9  18  38  58  80 116 159 194 224 298 363
#     4  11  21  35  58  86 112 146 194 240 293 343
#
# _framework density 23.761932999999999
#
# number of rings (size 3 to 8) (size 9 to 14) (size 15 to 20)
#    0.000    2.000    4.000    3.600    2.800    0.000 
#    0.000    3.000    4.400    0.000    0.000    0.000 
#    0.000    0.000    0.000    0.000    0.000    0.000 
#
# Total GULP energy -223269.579305 kJ/mol
# GULP energy per Si atom -5581.739483 kJ/mol
# Density = 2.370785 g / cm^3
# Si number density = 23.761933 Si / 1000 Ang^3
#
#
#
# Elastic Constant Matrix: (Units=GPa)
#
#
# Indices 1 2 3 4 5 6 
#
# 1 41.8461 21.2539 11.2335 0.0000 0.0000 0.0000
# 2 21.2539 204.4497 80.0956 0.0000 0.0000 0.0000
# 3 11.2335 80.0956 126.8690 0.0000 0.0000 0.0000
# 4 0.0000 0.0000 0.0000 51.3096 0.0000 0.0000
# 5 0.0000 0.0000 0.0000 0.0000 9.6019 0.0000
# 6 0.0000 0.0000 0.0000 0.0000 0.0000 19.3002
#
#
#
# Elastic Compliance Matrix: (Units=1/GPa)
#
#
# Indices 1 2 3 4 5 6 
#
# 1 0.025286 -0.002327 -0.000770 0.000000 0.000000 0.000000
# 2 -0.002327 0.006713 -0.004032 0.000000 0.000000 0.000000
# 3 -0.000770 -0.004032 0.010496 0.000000 0.000000 0.000000
# 4 0.000000 0.000000 0.000000 0.019490 0.000000 0.000000
# 5 0.000000 0.000000 0.000000 0.000000 0.104146 0.000000
# 6 0.000000 0.000000 0.000000 0.000000 0.000000 0.051813
#
#
# Mechanical properties :
#
#
# Convention : Reuss Voigt Hill
#
# Bulk Modulus (GPa) = 35.41490 66.48121 50.94805
# Shear Modulus (GPa) = 20.69432 33.41446 27.05439
#
# Velocity S-wave (km/s) = 2.95431 3.75403 3.37792
# Velocity P-wave (km/s) = 5.15496 6.84317 6.05816
#
# Compressibility (1/GPa) = 0.02823670
#
# Stress axis : x y z
#
# Youngs Moduli (GPa) = 39.54814 148.97389 95.27739
#
# Poissons Ratio (x) = 0.34667 0.07334
# Poissons Ratio (y) = 0.09203 0.38414
# Poissons Ratio (z) = 0.03044 0.60063
#
# Static dielectric constant tensor:
#      x y z
#    x 1.999930 0.000000 0.000000 
#    y 0.000000 1.935620 0.000000 
#    z 0.000000 0.000000 1.998450 
# 
# From -- ./inp_files/24390.got.cif
#   From: 2010.05.17/outbox.cif.g08.bks.cpg/sg52_13_cif.got.tgz:24390.got - 2010.06.03 12:15:38.
