data_PCOD9408996
_publ_section_title
;
Structure prediction by ZEFSAII (Michael W. Deem and Ramdas Pophale) SiO2 
 PCOD9408996
Probable space group: P N N A
;
_chemical_formula_sum "Si O2"
_cell_formula_units_Z 48
_cell_length_a 9.663752
_cell_length_b 22.496462
_cell_length_c 10.198266
_cell_angle_alpha 90.000000
_cell_angle_beta 90.000000
_cell_angle_gamma 90.000000
_cell_volume 2217.105370
_symmetry_space_group_name_H-M "P N N A"
_symmetry_group_IT_number 52
_symmetry_cell_setting 'orthorhombic'
loop_
_space_group_symop_operation_xyz
x,y,z
1/2-x,-y,z
x,1/2-y,1/2-z
1/2-x,1/2+y,1/2-z
-x,-y,-z
1/2+x,y,-z
-x,1/2+y,1/2+z
1/2+x,1/2-y,1/2+z
loop_
_atom_site_type_symbol
_atom_site_label
_atom_site_fract_x
_atom_site_fract_y
_atom_site_fract_z
Si Si1 0.502405 0.239362 0.969694
Si Si2 0.918214 0.490665 0.137923
Si Si3 0.674740 0.196820 0.313304
Si Si4 0.923502 0.136677 0.423211
Si Si5 0.765132 0.195663 0.855070
Si Si6 0.965155 0.107096 0.730320
O O1 0.501027 0.302208 0.891681
O O2 0.607053 0.194748 0.901241
O O3 0.567856 0.263450 0.105753
O O4 0.356754 0.213665 0.017290
O O5 0.750000 0.500000 0.125356
O O6 0.945053 0.421067 0.165393
O O7 0.986141 0.538865 0.235780
O O8 0.000000 0.500000 0.000000
O O9 0.763493 0.250000 0.250000
O O10 0.764879 0.156434 0.408613
O O11 0.591687 0.149724 0.225988
O O12 0.949055 0.119998 0.574301
O O13 0.780649 0.250000 0.750000
O O14 0.830145 0.134964 0.798009
#
# Coordination Sequence:
#
# PCOD9408996 Si02
#       6
#     8   8   8   8   8   8
#     4  11  21  33  56  83 123 163 196 255 313 369
#     4  10  20  33  58  86 121 169 199 243 309 378
#     4  11  17  30  53  79 117 156 196 246 308 364
#     4  10  20  34  54  89 125 156 204 248 311 380
#     4  12  21  39  57  85 128 165 201 255 321 374
#     4  10  19  35  55  82 124 167 199 248 310 377
#
# _framework density 21.649853
#
# number of rings (size 3 to 8) (size 9 to 14) (size 15 to 20)
#    0.000    1.333    8.333    0.000    0.000    0.667 
#    0.000    0.000    0.000    0.000    0.000    4.667 
#   10.000    0.167    0.000    0.000    0.000    0.000 
#
# Total GULP energy -267313.851187 kJ/mol
# GULP energy per Si atom -5569.038566 kJ/mol
# Density = 2.160058 g / cm^3
# Si number density = 21.649853 Si / 1000 Ang^3
#
#
#
# Elastic Constant Matrix: (Units=GPa)
#
#
# Indices 1 2 3 4 5 6 
#
# 1 58.6617 16.4939 20.5371 0.0000 0.0000 0.0000
# 2 16.4939 137.4250 25.2126 0.0000 0.0000 0.0000
# 3 20.5371 25.2126 40.5255 0.0000 0.0000 0.0000
# 4 0.0000 0.0000 0.0000 31.7437 0.0000 0.0000
# 5 0.0000 0.0000 0.0000 0.0000 33.3660 0.0000
# 6 0.0000 0.0000 0.0000 0.0000 0.0000 25.8283
#
#
#
# Elastic Compliance Matrix: (Units=1/GPa)
#
#
# Indices 1 2 3 4 5 6 
#
# 1 0.020772 -0.000634 -0.010132 0.000000 0.000000 0.000000
# 2 -0.000634 0.008234 -0.004801 0.000000 0.000000 0.000000
# 3 -0.010132 -0.004801 0.032798 0.000000 0.000000 0.000000
# 4 0.000000 0.000000 0.000000 0.031502 0.000000 0.000000
# 5 0.000000 0.000000 0.000000 0.000000 0.029971 0.000000
# 6 0.000000 0.000000 0.000000 0.000000 0.000000 0.038717
#
#
# Mechanical properties :
#
#
# Convention : Reuss Voigt Hill
#
# Bulk Modulus (GPa) = 32.60680 40.12214 36.36447
# Shear Modulus (GPa) = 24.58795 29.81219 27.20007
#
# Velocity S-wave (km/s) = 3.37369 3.71484 3.54837
# Velocity P-wave (km/s) = 5.50176 6.08051 5.79836
#
# Compressibility (1/GPa) = 0.03066845
#
# Stress axis : x y z
#
# Youngs Moduli (GPa) = 48.14066 121.45291 30.49011
#
# Poissons Ratio (x) = 0.07703 0.30893
# Poissons Ratio (y) = 0.03053 0.14639
# Poissons Ratio (z) = 0.48777 0.58311
#
# Static dielectric constant tensor:
#      x y z
#    x 1.885850 0.000000 0.000000 
#    y 0.000000 1.853970 0.000000 
#    z 0.000000 0.000000 1.884190 
# 
# From -- ./inp_files/16936.got.cif
#   From: 2010.05.17/outbox.cif.g08.bks.cpg/sg52_9_cif.got.tgz:16936.got - 2010.06.03 12:15:38.
