data_PCOD9408153
_publ_section_title
;
Structure prediction by ZEFSAII (Michael W. Deem and Ramdas Pophale) SiO2 
 PCOD9408153
Probable space group: P N N A
;
_chemical_formula_sum "Si O2"
_cell_formula_units_Z 40
_cell_length_a 18.881510
_cell_length_b 7.737563
_cell_length_c 15.963380
_cell_angle_alpha 90.000000
_cell_angle_beta 90.000000
_cell_angle_gamma 90.000000
_cell_volume 2332.199903
_symmetry_space_group_name_H-M "P N N A"
_symmetry_group_IT_number 52
_symmetry_cell_setting 'orthorhombic'
loop_
_space_group_symop_operation_xyz
x,y,z
1/2-x,-y,z
x,1/2-y,1/2-z
1/2-x,1/2+y,1/2-z
-x,-y,-z
1/2+x,y,-z
-x,1/2+y,1/2+z
1/2+x,1/2-y,1/2+z
loop_
_atom_site_type_symbol
_atom_site_label
_atom_site_fract_x
_atom_site_fract_y
_atom_site_fract_z
Si Si1 0.524096 0.430511 0.209658
Si Si2 0.630140 0.276581 0.072095
Si Si3 0.536241 0.128178 0.566778
Si Si4 0.077602 0.601605 0.622015
Si Si5 0.229202 0.701446 0.653027
O O1 0.499075 0.250000 0.250000
O O2 0.585952 0.378636 0.143888
O O3 0.465939 0.531692 0.155617
O O4 0.554504 0.547889 0.284081
O O5 0.711834 0.293121 0.096821
O O6 0.601686 0.078921 0.080634
O O7 0.609788 0.331167 0.978476
O O8 0.486150 0.296261 0.578175
O O9 0.500000 0.000000 0.500000
O O10 0.147933 0.719439 0.625881
O O11 0.250000 0.500000 0.647486
O O12 0.237187 0.750000 0.750000
#
# Coordination Sequence:
#
# PCOD9408153 Si02
#       5
#     8   8   8   8   8
#     4   9  17  30  46  65  90 122 160 195 227 272
#     4   9  18  30  44  67 100 125 151 189 229 276
#     4  10  19  30  43  64  96 127 155 190 230 274
#     4  10  18  30  48  69  95 128 157 184 225 279
#     4  10  18  28  45  69  96 126 154 182 221 275
#
# _framework density 17.151187
#
# number of rings (size 3 to 8) (size 9 to 14) (size 15 to 20)
#    0.000    2.400    0.000    5.400    0.000    1.600 
#    0.000    0.000    0.000    0.000    0.000    0.000 
#    0.000  121.600    0.000    0.000    0.000    0.000 
#
# Total GULP energy -222982.418656 kJ/mol
# GULP energy per Si atom -5574.560466 kJ/mol
# Density = 1.711215 g / cm^3
# Si number density = 17.151187 Si / 1000 Ang^3
#
#
#
# Elastic Constant Matrix: (Units=GPa)
#
#
# Indices 1 2 3 4 5 6 
#
# 1 72.7273 9.2236 46.1736 0.0000 0.0000 0.0000
# 2 9.2236 48.6997 16.7971 0.0000 0.0000 0.0000
# 3 46.1736 16.7971 73.9377 0.0000 0.0000 0.0000
# 4 0.0000 0.0000 0.0000 34.2175 0.0000 0.0000
# 5 0.0000 0.0000 0.0000 0.0000 7.5700 0.0000
# 6 0.0000 0.0000 0.0000 0.0000 0.0000 15.7464
#
#
#
# Elastic Compliance Matrix: (Units=1/GPa)
#
#
# Indices 1 2 3 4 5 6 
#
# 1 0.022802 0.000643 -0.014386 0.000000 0.000000 0.000000
# 2 0.000643 0.022298 -0.005467 0.000000 0.000000 0.000000
# 3 -0.014386 -0.005467 0.023751 0.000000 0.000000 0.000000
# 4 0.000000 0.000000 0.000000 0.029225 0.000000 0.000000
# 5 0.000000 0.000000 0.000000 0.000000 0.132101 0.000000
# 6 0.000000 0.000000 0.000000 0.000000 0.000000 0.063506
#
#
# Mechanical properties :
#
#
# Convention : Reuss Voigt Hill
#
# Bulk Modulus (GPa) = 32.86142 37.75038 35.30590
# Shear Modulus (GPa) = 14.60940 19.71813 17.16377
#
# Velocity S-wave (km/s) = 2.92173 3.39435 3.16687
# Velocity P-wave (km/s) = 5.53023 6.11721 5.83111
#
# Compressibility (1/GPa) = 0.03043082
#
# Stress axis : x y z
#
# Youngs Moduli (GPa) = 43.85642 44.84727 42.10403
#
# Poissons Ratio (x) = -0.02884 0.60569
# Poissons Ratio (y) = -0.02821 0.23019
# Poissons Ratio (z) = 0.63090 0.24519
#
# Static dielectric constant tensor:
#      x y z
#    x 1.582940 0.000000 0.000000 
#    y 0.000000 1.652900 0.000000 
#    z 0.000000 0.000000 1.567890 
# 
# From -- ./inp_files/26872.got.cif
#   From: 2010.05.17/outbox.cif.g08.bks.cpg/sg52_14_cif.got.tgz:26872.got - 2010.06.03 12:15:38.
