data_PCOD9408890
_publ_section_title
;
Structure prediction by ZEFSAII (Michael W. Deem and Ramdas Pophale) SiO2 
 PCOD9408890
Probable space group: P N N A
;
_chemical_formula_sum "Si O2"
_cell_formula_units_Z 56
_cell_length_a 14.681737
_cell_length_b 19.629171
_cell_length_c 9.548767
_cell_angle_alpha 90.000000
_cell_angle_beta 90.000000
_cell_angle_gamma 90.000000
_cell_volume 2751.862276
_symmetry_space_group_name_H-M "P N N A"
_symmetry_group_IT_number 52
_symmetry_cell_setting 'orthorhombic'
loop_
_space_group_symop_operation_xyz
x,y,z
1/2-x,-y,z
x,1/2-y,1/2-z
1/2-x,1/2+y,1/2-z
-x,-y,-z
1/2+x,y,-z
-x,1/2+y,1/2+z
1/2+x,1/2-y,1/2+z
loop_
_atom_site_type_symbol
_atom_site_label
_atom_site_fract_x
_atom_site_fract_y
_atom_site_fract_z
Si Si1 0.149901 0.187353 0.354403
Si Si2 0.661486 0.539841 0.677200
Si Si3 0.150395 0.679050 0.163153
Si Si4 0.043924 0.192429 0.630161
Si Si5 0.356598 0.587157 0.678845
Si Si6 0.553065 0.090457 0.868793
Si Si7 0.842703 0.071447 0.139594
O O1 0.156462 0.250000 0.250000
O O2 0.251428 0.168397 0.402419
O O3 0.099340 0.209346 0.493150
O O4 0.101828 0.130681 0.257645
O O5 0.750000 0.500000 0.737683
O O6 0.637532 0.610800 0.746951
O O7 0.576891 0.488579 0.663342
O O8 0.687491 0.560015 0.520314
O O9 0.153126 0.750000 0.250000
O O10 0.059089 0.683907 0.075673
O O11 0.046962 0.250000 0.750000
O O12 0.084058 0.125802 0.705839
O O13 0.400418 0.602606 0.523052
O O14 0.248971 0.607185 0.697256
O O15 0.355930 0.505233 0.698336
O O16 0.444215 0.103470 0.864790
#
# Coordination Sequence:
#
# PCOD9408890 Si02
#       7
#     8   8   8   8   8   8   8
#     4  11  24  42  61  88 122 160 210 256 308 374
#     4  11  17  35  63  92 124 167 214 248 302 371
#     4  10  22  41  63  88 122 163 205 252 308 370
#     4  11  24  42  64  88 121 163 206 259 318 373
#     4  10  19  37  57  89 125 154 199 252 309 360
#     4  11  20  35  62  90 121 164 208 259 299 370
#     4  10  19  33  60  93 124 158 201 256 313 355
#
# _framework density 20.349855000000002
#
# number of rings (size 3 to 8) (size 9 to 14) (size 15 to 20)
#    0.000    1.429    4.286    4.286    0.000    3.429 
#    0.000    7.143    0.000    0.000    0.000    0.000 
#    0.000    0.000    0.000    0.000    0.000    0.000 
#
# Total GULP energy -312023.043731 kJ/mol
# GULP energy per Si atom -5571.840067 kJ/mol
# Density = 2.030354 g / cm^3
# Si number density = 20.349855 Si / 1000 Ang^3
#
#
#
# Elastic Constant Matrix: (Units=GPa)
#
#
# Indices 1 2 3 4 5 6 
#
# 1 187.7389 0.3739 37.6910 0.0000 0.0000 0.0000
# 2 0.3739 42.0554 7.8240 0.0000 0.0000 0.0000
# 3 37.6910 7.8240 57.2969 0.0000 0.0000 0.0000
# 4 0.0000 0.0000 0.0000 2.2889 0.0000 0.0000
# 5 0.0000 0.0000 0.0000 0.0000 24.1601 0.0000
# 6 0.0000 0.0000 0.0000 0.0000 0.0000 2.0571
#
#
#
# Elastic Compliance Matrix: (Units=1/GPa)
#
#
# Indices 1 2 3 4 5 6 
#
# 1 0.006158 0.000717 -0.004149 0.000000 0.000000 0.000000
# 2 0.000717 0.024481 -0.003815 0.000000 0.000000 0.000000
# 3 -0.004149 -0.003815 0.020703 0.000000 0.000000 0.000000
# 4 0.000000 0.000000 0.000000 0.436898 0.000000 0.000000
# 5 0.000000 0.000000 0.000000 0.000000 0.041391 0.000000
# 6 0.000000 0.000000 0.000000 0.000000 0.000000 0.486118
#
#
# Mechanical properties :
#
#
# Convention : Reuss Voigt Hill
#
# Bulk Modulus (GPa) = 27.13722 42.09653 34.61688
# Shear Modulus (GPa) = 4.79605 21.78137 13.28871
#
# Velocity S-wave (km/s) = 1.53685 3.27516 2.55818
# Velocity P-wave (km/s) = 4.06368 5.91892 5.07676
#
# Compressibility (1/GPa) = 0.03684975
#
# Stress axis : x y z
#
# Youngs Moduli (GPa) = 162.38929 40.84718 48.30212
#
# Poissons Ratio (x) = -0.02929 0.20040
# Poissons Ratio (y) = -0.11645 0.18426
# Poissons Ratio (z) = 0.67372 0.15582
#
# Static dielectric constant tensor:
#      x y z
#    x 1.856600 0.000000 0.000000 
#    y 0.000000 1.654160 0.000000 
#    z 0.000000 0.000000 1.602960 
# 
# From -- ./inp_files/10788.got.cif
#   From: 2010.05.17/outbox.cif.g08.bks.cpg/sg52_6_cif.got.tgz:10788.got - 2010.06.03 12:15:38.
