data_PCOD9408444
_publ_section_title
;
Structure prediction by ZEFSAII (Michael W. Deem and Ramdas Pophale) SiO2 
 PCOD9408444
Probable space group: P N N A
;
_chemical_formula_sum "Si O2"
_cell_formula_units_Z 48
_cell_length_a 9.052056
_cell_length_b 28.276826
_cell_length_c 9.286443
_cell_angle_alpha 90.000000
_cell_angle_beta 90.000000
_cell_angle_gamma 90.000000
_cell_volume 2376.989640
_symmetry_space_group_name_H-M "P N N A"
_symmetry_group_IT_number 52
_symmetry_cell_setting 'orthorhombic'
loop_
_space_group_symop_operation_xyz
x,y,z
1/2-x,-y,z
x,1/2-y,1/2-z
1/2-x,1/2+y,1/2-z
-x,-y,-z
1/2+x,y,-z
-x,1/2+y,1/2+z
1/2+x,1/2-y,1/2+z
loop_
_atom_site_type_symbol
_atom_site_label
_atom_site_fract_x
_atom_site_fract_y
_atom_site_fract_z
Si Si1 0.885438 0.595159 0.852539
Si Si2 0.795629 0.250000 0.750000
Si Si3 0.546512 0.199044 0.585745
Si Si4 0.292770 0.250000 0.750000
Si Si5 0.531610 0.918423 0.662390
Si Si6 0.544580 0.179974 0.244404
Si Si7 0.924796 0.991353 0.847193
O O1 0.706518 0.592847 0.858265
O O2 0.940965 0.559625 0.728897
O O3 0.937593 0.648992 0.832575
O O4 0.950946 0.580855 0.008329
O O5 0.687619 0.229384 0.629981
O O6 0.900908 0.208259 0.808124
O O7 0.400943 0.225948 0.635505
O O8 0.544674 0.188927 0.417082
O O9 0.186918 0.208383 0.810092
O O10 0.466483 0.876370 0.763196
O O11 0.517383 0.968727 0.737919
O O12 0.750000 0.000000 0.863632
O O13 0.000000 0.000000 0.000000
#
# Coordination Sequence:
#
# PCOD9408444 Si02
#       7
#     8   4   8   4   8   8   8
#     4  10  21  38  66  93 120 154 205 253 296 354
#     4  10  18  34  56  78 120 150 184 246 298 342
#     4  10  20  36  57  84 116 153 200 244 298 341
#     4  10  22  34  56  86 116 154 192 246 290 362
#     4  10  21  38  66  93 120 154 205 253 296 354
#     4  10  20  36  57  84 116 153 200 244 298 341
#     4  10  23  44  62  90 128 160 193 244 308 366
#
# _framework density 20.193608000000001
#
# number of rings (size 3 to 8) (size 9 to 14) (size 15 to 20)
#    0.000    2.000    1.667    1.500    7.000    1.333 
#    0.000   10.000    0.000    0.000    0.000    0.000 
#    0.000    0.000    0.000    0.000    0.000    0.000 
#
# Total GULP energy -268101.533597 kJ/mol
# GULP energy per Si atom -5585.448617 kJ/mol
# Density = 2.014765 g / cm^3
# Si number density = 20.193608 Si / 1000 Ang^3
#
#
#
# Elastic Constant Matrix: (Units=GPa)
#
#
# Indices 1 2 3 4 5 6 
#
# 1 90.3542 44.4041 28.1210 0.0000 0.0000 0.0000
# 2 44.4041 127.3970 53.0582 0.0000 0.0000 0.0000
# 3 28.1210 53.0582 59.4126 0.0000 0.0000 0.0000
# 4 0.0000 0.0000 0.0000 33.1652 0.0000 0.0000
# 5 0.0000 0.0000 0.0000 0.0000 11.4330 0.0000
# 6 0.0000 0.0000 0.0000 0.0000 0.0000 21.8913
#
#
#
# Elastic Compliance Matrix: (Units=1/GPa)
#
#
# Indices 1 2 3 4 5 6 
#
# 1 0.013813 -0.003330 -0.003564 0.000000 0.000000 0.000000
# 2 -0.003330 0.013301 -0.010302 0.000000 0.000000 0.000000
# 3 -0.003564 -0.010302 0.027718 0.000000 0.000000 0.000000
# 4 0.000000 0.000000 0.000000 0.030152 0.000000 0.000000
# 5 0.000000 0.000000 0.000000 0.000000 0.087466 0.000000
# 6 0.000000 0.000000 0.000000 0.000000 0.000000 0.045680
#
#
# Mechanical properties :
#
#
# Convention : Reuss Voigt Hill
#
# Bulk Modulus (GPa) = 48.92327 58.70338 53.81333
# Shear Modulus (GPa) = 19.27996 23.40329 21.34163
#
# Velocity S-wave (km/s) = 3.09326 3.40802 3.25445
# Velocity P-wave (km/s) = 6.08584 6.67979 6.38972
#
# Compressibility (1/GPa) = 0.02044017
#
# Stress axis : x y z
#
# Youngs Moduli (GPa) = 72.39316 75.18340 36.07707
#
# Poissons Ratio (x) = 0.25039 0.12858
# Poissons Ratio (y) = 0.24109 0.37166
# Poissons Ratio (z) = 0.25801 0.77453
#
# Static dielectric constant tensor:
#      x y z
#    x 1.715150 0.000000 0.000000 
#    y 0.000000 1.737610 0.000000 
#    z 0.000000 0.000000 1.712210 
# 
# From -- ./inp_files/7737.got.cif
#   From: 2010.05.17/outbox.cif.g08.bks.cpg/sg52_4_cif.got.tgz:7737.got - 2010.06.03 12:15:38.
