data_PCOD9408184
_publ_section_title
;
Structure prediction by ZEFSAII (Michael W. Deem and Ramdas Pophale) SiO2 
 PCOD9408184
Probable space group: P N N A
;
_chemical_formula_sum "Si O2"
_cell_formula_units_Z 52
_cell_length_a 8.863888
_cell_length_b 10.692394
_cell_length_c 28.168035
_cell_angle_alpha 90.000000
_cell_angle_beta 90.000000
_cell_angle_gamma 90.000000
_cell_volume 2669.658836
_symmetry_space_group_name_H-M "P N N A"
_symmetry_group_IT_number 52
_symmetry_cell_setting 'orthorhombic'
loop_
_space_group_symop_operation_xyz
x,y,z
1/2-x,-y,z
x,1/2-y,1/2-z
1/2-x,1/2+y,1/2-z
-x,-y,-z
1/2+x,y,-z
-x,1/2+y,1/2+z
1/2+x,1/2-y,1/2+z
loop_
_atom_site_type_symbol
_atom_site_label
_atom_site_fract_x
_atom_site_fract_y
_atom_site_fract_z
Si Si1 0.812712 0.862110 0.946135
Si Si2 0.385896 0.921413 0.158698
Si Si3 0.851292 0.248381 0.194606
Si Si4 0.579043 0.785766 0.491060
Si Si5 0.859867 0.649598 0.065080
Si Si6 0.250000 0.000000 0.646944
Si Si7 0.640967 0.103102 0.119718
O O1 0.822555 0.855940 0.889078
O O2 0.696296 0.769895 0.971178
O O3 0.750000 0.000000 0.957520
O O4 0.975853 0.821345 0.966639
O O5 0.487019 0.820255 0.186672
O O6 0.250000 0.000000 0.182736
O O7 0.499843 0.028352 0.139753
O O8 0.813941 0.250000 0.250000
O O9 0.831901 0.390231 0.176005
O O10 0.734805 0.167307 0.162585
O O11 0.685717 0.850104 0.452049
O O12 0.467229 0.873446 0.520862
O O13 0.869361 0.566718 0.111859
O O14 0.894802 0.790997 0.081917
O O15 0.750000 0.000000 0.096801
#
# Coordination Sequence:
#
# PCOD9408184 Si02
#       7
#     8   8   8   8   8   4   8
#     4  10  18  29  48  79 113 156 193 240 280 331
#     4  10  20  36  60  85 123 157 183 242 313 358
#     4  10  22  39  66  89 109 144 199 249 301 370
#     4  10  20  30  49  75 116 156 206 231 268 343
#     4  10  20  35  50  80 114 157 194 241 284 328
#     4  10  22  38  62  84 116 144 194 252 290 350
#     4   9  18  34  56  83 115 153 194 247 298 345
#
# _framework density 19.478142999999999
#
# number of rings (size 3 to 8) (size 9 to 14) (size 15 to 20)
#    0.000    2.154    0.000    5.077    3.231    4.308 
#    0.000    0.769    3.385    7.385    0.000    0.000 
#    0.000    0.000    0.000    0.000    0.000    0.000 
#
# Total GULP energy -290036.443179 kJ/mol
# GULP energy per Si atom -5577.623907 kJ/mol
# Density = 1.943381 g / cm^3
# Si number density = 19.478143 Si / 1000 Ang^3
#
#
#
# Elastic Constant Matrix: (Units=GPa)
#
#
# Indices 1 2 3 4 5 6 
#
# 1 84.7172 18.7004 9.2730 0.0000 0.0000 0.0000
# 2 18.7004 93.5670 30.7653 0.0000 0.0000 0.0000
# 3 9.2730 30.7653 79.6004 0.0000 0.0000 0.0000
# 4 0.0000 0.0000 0.0000 8.9133 0.0000 0.0000
# 5 0.0000 0.0000 0.0000 0.0000 12.4827 0.0000
# 6 0.0000 0.0000 0.0000 0.0000 0.0000 11.1106
#
#
#
# Elastic Compliance Matrix: (Units=1/GPa)
#
#
# Indices 1 2 3 4 5 6 
#
# 1 0.012370 -0.002289 -0.000556 0.000000 0.000000 0.000000
# 2 -0.002289 0.012667 -0.004629 0.000000 0.000000 0.000000
# 3 -0.000556 -0.004629 0.014417 0.000000 0.000000 0.000000
# 4 0.000000 0.000000 0.000000 0.112192 0.000000 0.000000
# 5 0.000000 0.000000 0.000000 0.000000 0.080111 0.000000
# 6 0.000000 0.000000 0.000000 0.000000 0.000000 0.090004
#
#
# Mechanical properties :
#
#
# Convention : Reuss Voigt Hill
#
# Bulk Modulus (GPa) = 40.80873 41.70690 41.25782
# Shear Modulus (GPa) = 14.49786 19.77771 17.13779
#
# Velocity S-wave (km/s) = 2.73117 3.18996 2.96944
# Velocity P-wave (km/s) = 5.56258 5.91831 5.74320
#
# Compressibility (1/GPa) = 0.02450456
#
# Stress axis : x y z
#
# Youngs Moduli (GPa) = 80.83923 78.94416 69.36412
#
# Poissons Ratio (x) = 0.18074 0.03858
# Poissons Ratio (y) = 0.18508 0.32109
# Poissons Ratio (z) = 0.04496 0.36544
#
# Static dielectric constant tensor:
#      x y z
#    x 1.717340 0.000000 0.000000 
#    y 0.000000 1.723660 0.000000 
#    z 0.000000 0.000000 1.652290 
# 
# From -- ./inp_files/42283.got.cif
#   From: 2010.05.17/outbox.cif.g08.bks.cpg/sg52_22_cif.got.tgz:42283.got - 2010.06.03 12:15:38.
