data_PCOD9408915
_publ_section_title
;
Structure prediction by ZEFSAII (Michael W. Deem and Ramdas Pophale) SiO2 
 PCOD9408915
Probable space group: P N N A
;
_chemical_formula_sum "Si O2"
_cell_formula_units_Z 64
_cell_length_a 15.568453
_cell_length_b 8.630557
_cell_length_c 25.569331
_cell_angle_alpha 90.000000
_cell_angle_beta 90.000000
_cell_angle_gamma 90.000000
_cell_volume 3435.608356
_symmetry_space_group_name_H-M "P N N A"
_symmetry_group_IT_number 52
_symmetry_cell_setting 'orthorhombic'
loop_
_space_group_symop_operation_xyz
x,y,z
1/2-x,-y,z
x,1/2-y,1/2-z
1/2-x,1/2+y,1/2-z
-x,-y,-z
1/2+x,y,-z
-x,1/2+y,1/2+z
1/2+x,1/2-y,1/2+z
loop_
_atom_site_type_symbol
_atom_site_label
_atom_site_fract_x
_atom_site_fract_y
_atom_site_fract_z
Si Si1 0.775080 0.320083 0.472690
Si Si2 0.567079 0.314936 0.307256
Si Si3 0.570477 0.686965 0.308168
Si Si4 0.750336 0.814420 0.584528
Si Si5 0.523631 0.820521 0.007522
Si Si6 0.934939 0.813434 0.608792
Si Si7 0.253054 0.811177 0.856420
Si Si8 0.442542 0.314849 0.104345
O O1 0.750000 0.500000 0.477653
O O2 0.741713 0.233844 0.523920
O O3 0.878106 0.308942 0.473166
O O4 0.741867 0.260407 0.416902
O O5 0.548025 0.250000 0.250000
O O6 0.568173 0.500909 0.306926
O O7 0.662424 0.262282 0.325236
O O8 0.498438 0.257061 0.349529
O O9 0.558193 0.750000 0.250000
O O10 0.497303 0.745808 0.347349
O O11 0.663887 0.738622 0.330026
O O12 0.835573 0.762882 0.614885
O O13 0.657157 0.759062 0.604264
O O14 0.750000 0.000000 0.586872
O O15 0.518852 0.735843 0.951654
O O16 0.465445 0.746312 0.052193
O O17 0.500000 0.000000 0.000000
O O18 0.941580 0.999540 0.609110
O O19 0.250000 0.000000 0.857616
#
# Coordination Sequence:
#
# PCOD9408915 Si02
#       8
#     8   8   8   8   8   8   8   8
#     4  10  19  34  54  85 120 156 194 232 282 348
#     4  11  23  41  61  87 117 155 197 244 295 345
#     4  11  22  40  63  86 117 154 198 242 289 348
#     4   9  21  39  57  82 119 153 189 240 293 344
#     4  11  21  34  58  88 118 157 195 239 292 347
#     4  11  21  39  60  86 117 153 195 243 291 348
#     4   9  20  36  57  84 119 156 194 236 285 344
#     4  10  23  39  59  86 117 153 195 243 295 345
#
# _framework density 18.628433999999999
#
# number of rings (size 3 to 8) (size 9 to 14) (size 15 to 20)
#    0.000    1.750    1.250    3.000    5.250    1.000 
#    0.000    2.500    0.000    0.000    0.000    0.000 
#    0.000    0.000    0.000    0.000    0.000    0.000 
#
# Total GULP energy -357512.240867 kJ/mol
# GULP energy per Si atom -5586.128764 kJ/mol
# Density = 1.858603 g / cm^3
# Si number density = 18.628434 Si / 1000 Ang^3
#
#
#
# Elastic Constant Matrix: (Units=GPa)
#
#
# Indices 1 2 3 4 5 6 
#
# 1 138.2610 34.7129 91.3118 0.0000 0.0000 0.0000
# 2 34.7129 45.4093 30.8450 0.0000 0.0000 0.0000
# 3 91.3118 30.8450 142.3975 0.0000 0.0000 0.0000
# 4 0.0000 0.0000 0.0000 29.2191 0.0000 0.0000
# 5 0.0000 0.0000 0.0000 0.0000 28.4533 0.0000
# 6 0.0000 0.0000 0.0000 0.0000 0.0000 24.9239
#
#
#
# Elastic Compliance Matrix: (Units=1/GPa)
#
#
# Indices 1 2 3 4 5 6 
#
# 1 0.013523 -0.005214 -0.007542 0.000000 0.000000 0.000000
# 2 -0.005214 0.027832 -0.002685 0.000000 0.000000 0.000000
# 3 -0.007542 -0.002685 0.012440 0.000000 0.000000 0.000000
# 4 0.000000 0.000000 0.000000 0.034224 0.000000 0.000000
# 5 0.000000 0.000000 0.000000 0.000000 0.035145 0.000000
# 6 0.000000 0.000000 0.000000 0.000000 0.000000 0.040122
#
#
# Mechanical properties :
#
#
# Convention : Reuss Voigt Hill
#
# Bulk Modulus (GPa) = 43.64448 71.08968 57.36708
# Shear Modulus (GPa) = 24.77616 27.79914 26.28765
#
# Velocity S-wave (km/s) = 3.65090 3.86722 3.76061
# Velocity P-wave (km/s) = 6.42276 7.62793 7.05114
#
# Compressibility (1/GPa) = 0.02291241
#
# Stress axis : x y z
#
# Youngs Moduli (GPa) = 73.94908 35.93001 80.38304
#
# Poissons Ratio (x) = 0.18736 0.60624
# Poissons Ratio (y) = 0.38560 0.21583
# Poissons Ratio (z) = 0.55772 0.09647
#
# Static dielectric constant tensor:
#      x y z
#    x 1.665180 0.000000 0.000000 
#    y 0.000000 1.626290 0.000000 
#    z 0.000000 0.000000 1.592130 
# 
# From -- ./inp_files/40686.got.cif
#   From: 2010.05.17/outbox.cif.g08.bks.cpg/sg52_21_cif.got.tgz:40686.got - 2010.06.03 12:15:38.
