data_PCOD9408789
_publ_section_title
;
Structure prediction by ZEFSAII (Michael W. Deem and Ramdas Pophale) SiO2 
 PCOD9408789
Probable space group: P N N A
;
_chemical_formula_sum "Si O2"
_cell_formula_units_Z 32
_cell_length_a 8.387835
_cell_length_b 13.342346
_cell_length_c 11.779328
_cell_angle_alpha 90.000000
_cell_angle_beta 90.000000
_cell_angle_gamma 90.000000
_cell_volume 1318.264608
_symmetry_space_group_name_H-M "P N N A"
_symmetry_group_IT_number 52
_symmetry_cell_setting 'orthorhombic'
loop_
_space_group_symop_operation_xyz
x,y,z
1/2-x,-y,z
x,1/2-y,1/2-z
1/2-x,1/2+y,1/2-z
-x,-y,-z
1/2+x,y,-z
-x,1/2+y,1/2+z
1/2+x,1/2-y,1/2+z
loop_
_atom_site_type_symbol
_atom_site_label
_atom_site_fract_x
_atom_site_fract_y
_atom_site_fract_z
Si Si1 0.976064 0.750000 0.250000
Si Si2 0.241912 0.284085 0.428815
Si Si3 0.536349 0.449494 0.172862
Si Si4 0.437206 0.152533 0.568639
Si Si5 0.250000 0.000000 0.154779
O O1 0.101674 0.730516 0.351745
O O2 0.885053 0.646860 0.232039
O O3 0.301485 0.235112 0.546145
O O4 0.094574 0.213285 0.392423
O O5 0.206113 0.401917 0.419918
O O6 0.606746 0.558143 0.145967
O O7 0.392020 0.473729 0.258893
O O8 0.475919 0.404379 0.051601
#
# Coordination Sequence:
#
# PCOD9408789 Si02
#       5
#     4   8   8   8   4
#     4   8  16  32  52  78 106 154 196 224 270 356
#     4  10  20  33  56  83 114 148 194 238 288 342
#     4   9  17  30  54  80 109 142 192 238 274 326
#     4  10  19  32  54  88 115 142 188 245 288 338
#     4  10  20  38  60  80 110 162 200 224 278 372
#
# _framework density 24.274336999999999
#
# number of rings (size 3 to 8) (size 9 to 14) (size 15 to 20)
#    0.000    2.500    0.000    4.500    0.000    6.000 
#    0.000    0.000    0.000   36.000    0.000    0.000 
#    0.000    0.000    0.000    0.000    0.000    0.000 
#
# Total GULP energy -178368.159918 kJ/mol
# GULP energy per Si atom -5574.004997 kJ/mol
# Density = 2.421909 g / cm^3
# Si number density = 24.274337 Si / 1000 Ang^3
#
#
#
# Elastic Constant Matrix: (Units=GPa)
#
#
# Indices 1 2 3 4 5 6 
#
# 1 66.3291 68.5883 31.0960 0.0000 0.0000 0.0000
# 2 68.5883 293.7871 78.3335 0.0000 0.0000 0.0000
# 3 31.0960 78.3335 51.5209 0.0000 0.0000 0.0000
# 4 0.0000 0.0000 0.0000 169.2295 0.0000 0.0000
# 5 0.0000 0.0000 0.0000 0.0000 29.9723 0.0000
# 6 0.0000 0.0000 0.0000 0.0000 0.0000 43.2674
#
#
#
# Elastic Compliance Matrix: (Units=1/GPa)
#
#
# Indices 1 2 3 4 5 6 
#
# 1 0.022241 -0.002713 -0.009299 0.000000 0.000000 0.000000
# 2 -0.002713 0.006055 -0.007569 0.000000 0.000000 0.000000
# 3 -0.009299 -0.007569 0.036531 0.000000 0.000000 0.000000
# 4 0.000000 0.000000 0.000000 0.005909 0.000000 0.000000
# 5 0.000000 0.000000 0.000000 0.000000 0.033364 0.000000
# 6 0.000000 0.000000 0.000000 0.000000 0.000000 0.023112
#
#
# Mechanical properties :
#
#
# Convention : Reuss Voigt Hill
#
# Bulk Modulus (GPa) = 38.96399 85.29697 62.13048
# Shear Modulus (GPa) = 28.58279 64.06845 46.32562
#
# Velocity S-wave (km/s) = 3.43518 5.14303 4.37329
# Velocity P-wave (km/s) = 5.64095 8.39540 7.15203
#
# Compressibility (1/GPa) = 0.02566472
#
# Stress axis : x y z
#
# Youngs Moduli (GPa) = 44.96134 165.13964 27.37429
#
# Poissons Ratio (x) = 0.44804 0.25455
# Poissons Ratio (y) = 0.12199 0.20721
# Poissons Ratio (z) = 0.41809 1.25000
#
# Static dielectric constant tensor:
#      x y z
#    x 2.122570 0.000000 0.000000 
#    y 0.000000 1.943180 0.000000 
#    z 0.000000 0.000000 1.568350 
# 
# From -- ./inp_files/16452.got.cif
#   From: 2010.05.17/outbox.cif.g08.bks.cpg/sg52_9_cif.got.tgz:16452.got - 2010.06.03 12:15:38.
