data_PCOD9408418
_publ_section_title
;
Structure prediction by ZEFSAII (Michael W. Deem and Ramdas Pophale) SiO2 
 PCOD9408418
Probable space group: P N N A
;
_chemical_formula_sum "Si O2"
_cell_formula_units_Z 64
_cell_length_a 28.877467
_cell_length_b 12.149429
_cell_length_c 7.130904
_cell_angle_alpha 90.000000
_cell_angle_beta 90.000000
_cell_angle_gamma 90.000000
_cell_volume 2501.840124
_symmetry_space_group_name_H-M "P N N A"
_symmetry_group_IT_number 52
_symmetry_cell_setting 'orthorhombic'
loop_
_space_group_symop_operation_xyz
x,y,z
1/2-x,-y,z
x,1/2-y,1/2-z
1/2-x,1/2+y,1/2-z
-x,-y,-z
1/2+x,y,-z
-x,1/2+y,1/2+z
1/2+x,1/2-y,1/2+z
loop_
_atom_site_type_symbol
_atom_site_label
_atom_site_fract_x
_atom_site_fract_y
_atom_site_fract_z
Si Si1 0.393462 0.791006 0.470580
Si Si2 0.863616 0.042863 0.539883
Si Si3 0.300898 0.261985 0.019400
Si Si4 0.670395 0.976255 0.943307
Si Si5 0.461547 0.083197 0.576693
Si Si6 0.060322 0.527346 0.491584
Si Si7 0.702179 0.291387 0.532870
Si Si8 0.488772 0.805085 0.000228
O O1 0.398417 0.750000 0.250000
O O2 0.348588 0.729772 0.546229
O O3 0.442143 0.759397 0.561156
O O4 0.378744 0.917463 0.505086
O O5 0.833998 0.141383 0.445467
O O6 0.830294 0.025980 0.717837
O O7 0.915396 0.091602 0.549658
O O8 0.303118 0.250000 0.250000
O O9 0.316170 0.139059 0.966928
O O10 0.247237 0.272235 0.962672
O O11 0.703987 0.077169 0.990448
O O12 0.614951 0.986708 0.971525
O O13 0.446355 0.044939 0.784648
O O14 0.484598 0.202095 0.587046
O O15 0.500000 0.000000 0.500000
O O16 0.036534 0.415204 0.418746
O O17 0.031321 0.628843 0.400638
O O18 0.699121 0.250000 0.750000
#
# Coordination Sequence:
#
# PCOD9408418 Si02
#       8
#     8   8   8   8   8   8   8   8
#     4  11  18  34  59  83 118 164 204 256 310 376
#     4  11  22  39  58  89 126 162 202 269 323 374
#     4   9  21  34  56  97 127 154 203 268 327 372
#     4  11  20  39  62  90 125 162 211 261 317 385
#     4  12  26  41  61  91 129 168 209 261 325 380
#     4  11  25  40  65  92 119 176 217 261 313 395
#     4  10  18  33  60  93 122 158 206 262 322 376
#     4  11  23  41  61  87 128 164 219 258 310 393
#
# _framework density 25.581171000000001
#
# number of rings (size 3 to 8) (size 9 to 14) (size 15 to 20)
#    0.000    1.250    5.000    2.250    3.500    1.000 
#    0.000    0.000    0.000    0.000    9.750    0.000 
#    0.000    0.000    0.000    0.000    0.000    0.000 
#
# Total GULP energy -356448.049174 kJ/mol
# GULP energy per Si atom -5569.500768 kJ/mol
# Density = 2.552295 g / cm^3
# Si number density = 25.581171 Si / 1000 Ang^3
#
#
#
# Elastic Constant Matrix: (Units=GPa)
#
#
# Indices 1 2 3 4 5 6 
#
# 1 136.7371 57.8668 -10.5045 0.0000 0.0000 0.0000
# 2 57.8668 211.4087 14.2528 0.0000 0.0000 0.0000
# 3 -10.5045 14.2528 65.5824 0.0000 0.0000 0.0000
# 4 0.0000 0.0000 0.0000 -0.5998 0.0000 0.0000
# 5 0.0000 0.0000 0.0000 0.0000 -6.8039 0.0000
# 6 0.0000 0.0000 0.0000 0.0000 0.0000 62.4225
#
#
#
# Elastic Compliance Matrix: (Units=1/GPa)
#
#
# Indices 1 2 3 4 5 6 
#
# 1 0.008497 -0.002454 0.001894 0.000000 0.000000 0.000000
# 2 -0.002454 0.005509 -0.001590 0.000000 0.000000 0.000000
# 3 0.001894 -0.001590 0.015897 0.000000 0.000000 0.000000
# 4 0.000000 0.000000 0.000000 -1.667229 0.000000 0.000000
# 5 0.000000 0.000000 0.000000 0.000000 -0.146975 0.000000
# 6 0.000000 0.000000 0.000000 0.000000 0.000000 0.016020
#
#
# Mechanical properties :
#
#
# Convention : Reuss Voigt Hill
#
# Bulk Modulus (GPa) = 39.05638 59.66205 49.35921
# Shear Modulus (GPa) = -2.84828 34.47796 15.81484
#
# Velocity S-wave (km/s) = -1.05634 3.67520 2.48910
# Velocity P-wave (km/s) = 3.71658 6.43294 5.25337
#
# Compressibility (1/GPa) = 0.02560401
#
# Stress axis : x y z
#
# Youngs Moduli (GPa) = 117.68634 181.52210 62.90499
#
# Poissons Ratio (x) = 0.44537 -0.11916
# Poissons Ratio (y) = 0.28875 0.10003
# Poissons Ratio (z) = -0.22292 0.28866
#
# Static dielectric constant tensor:
#      x y z
#    x 2.006390 0.000000 0.000000 
#    y 0.000000 2.271870 0.000000 
#    z 0.000000 0.000000 1.841410 
# 
# From -- ./inp_files/15737.got.cif
#   From: 2010.05.17/outbox.cif.g08.bks.cpg/sg52_8_cif.got.tgz:15737.got - 2010.06.03 12:15:38.
