data_PCOD9408669
_publ_section_title
;
Structure prediction by ZEFSAII (Michael W. Deem and Ramdas Pophale) SiO2 
 PCOD9408669
Probable space group: P N N A
;
_chemical_formula_sum "Si O2"
_cell_formula_units_Z 60
_cell_length_a 9.622568
_cell_length_b 11.584801
_cell_length_c 24.325680
_cell_angle_alpha 90.000000
_cell_angle_beta 90.000000
_cell_angle_gamma 90.000000
_cell_volume 2711.718202
_symmetry_space_group_name_H-M "P N N A"
_symmetry_group_IT_number 52
_symmetry_cell_setting 'orthorhombic'
loop_
_space_group_symop_operation_xyz
x,y,z
1/2-x,-y,z
x,1/2-y,1/2-z
1/2-x,1/2+y,1/2-z
-x,-y,-z
1/2+x,y,-z
-x,1/2+y,1/2+z
1/2+x,1/2-y,1/2+z
loop_
_atom_site_type_symbol
_atom_site_label
_atom_site_fract_x
_atom_site_fract_y
_atom_site_fract_z
Si Si1 0.557648 0.836526 0.466104
Si Si2 0.405486 0.317402 0.798619
Si Si3 0.469326 0.259340 0.090876
Si Si4 0.415839 0.988970 0.622758
Si Si5 0.174334 0.163274 0.077134
Si Si6 0.072045 0.916448 0.863099
Si Si7 0.250000 0.000000 0.771179
Si Si8 0.774555 0.854266 0.047825
O O1 0.541661 0.817289 0.530447
O O2 0.557025 0.959741 0.437822
O O3 0.432661 0.766886 0.436972
O O4 0.705201 0.774379 0.454317
O O5 0.485531 0.250000 0.750000
O O6 0.475552 0.419701 0.833000
O O7 0.378607 0.210981 0.840017
O O8 0.281343 0.386824 0.766250
O O9 0.525056 0.361401 0.129275
O O10 0.318331 0.207762 0.101792
O O11 0.584815 0.161187 0.082093
O O12 0.250000 0.000000 0.629098
O O13 0.088041 0.085319 0.119582
O O14 0.200154 0.114071 0.015692
O O15 0.121516 0.001140 0.814530
O O16 0.154419 0.924002 0.920785
#
# Coordination Sequence:
#
# PCOD9408669 Si02
#       8
#     8   8   8   8   8   8   4   8
#     4   9  17  30  42  72 117 159 183 223 271 351
#     4  10  20  34  54  82 107 140 192 259 306 330
#     4  10  19  27  47  79 115 159 186 209 288 373
#     4  12  18  29  48  76 114 146 191 244 285 343
#     4   9  18  31  51  80 119 155 181 218 296 368
#     4  10  19  39  58  86 118 144 189 256 292 343
#     4  10  22  36  64  88  96 148 210 256 300 334
#     4   9  16  31  52  77 116 157 185 224 282 357
#
# _framework density 22.126190999999999
#
# number of rings (size 3 to 8) (size 9 to 14) (size 15 to 20)
#    0.000    2.133    4.667    1.200    0.000    0.533 
#    0.000    0.667    0.000    0.800   17.333    0.000 
#    0.000    0.000    0.000    0.000    0.000    0.000 
#
# Total GULP energy -334336.218161 kJ/mol
# GULP energy per Si atom -5572.270303 kJ/mol
# Density = 2.207583 g / cm^3
# Si number density = 22.126191 Si / 1000 Ang^3
#
#
#
# Elastic Constant Matrix: (Units=GPa)
#
#
# Indices 1 2 3 4 5 6 
#
# 1 135.9227 40.0225 20.9430 0.0000 0.0000 0.0000
# 2 40.0225 84.9662 27.1005 0.0000 0.0000 0.0000
# 3 20.9430 27.1005 97.0182 0.0000 0.0000 0.0000
# 4 0.0000 0.0000 0.0000 26.1517 0.0000 0.0000
# 5 0.0000 0.0000 0.0000 0.0000 8.7879 0.0000
# 6 0.0000 0.0000 0.0000 0.0000 0.0000 19.4348
#
#
#
# Elastic Compliance Matrix: (Units=1/GPa)
#
#
# Indices 1 2 3 4 5 6 
#
# 1 0.008597 -0.003796 -0.000796 0.000000 0.000000 0.000000
# 2 -0.003796 0.014597 -0.003258 0.000000 0.000000 0.000000
# 3 -0.000796 -0.003258 0.011389 0.000000 0.000000 0.000000
# 4 0.000000 0.000000 0.000000 0.038238 0.000000 0.000000
# 5 0.000000 0.000000 0.000000 0.000000 0.113793 0.000000
# 6 0.000000 0.000000 0.000000 0.000000 0.000000 0.051454
#
#
# Mechanical properties :
#
#
# Convention : Reuss Voigt Hill
#
# Bulk Modulus (GPa) = 52.95417 54.89323 53.92370
# Shear Modulus (GPa) = 19.22616 26.19760 22.71188
#
# Velocity S-wave (km/s) = 2.95096 3.44468 3.20733
# Velocity P-wave (km/s) = 5.96621 6.37841 6.17575
#
# Compressibility (1/GPa) = 0.01888426
#
# Stress axis : x y z
#
# Youngs Moduli (GPa) = 116.31383 68.50919 87.80313
#
# Poissons Ratio (x) = 0.26006 0.06985
# Poissons Ratio (y) = 0.44153 0.28605
# Poissons Ratio (z) = 0.09253 0.22320
#
# Static dielectric constant tensor:
#      x y z
#    x 1.819730 0.000000 0.000000 
#    y 0.000000 1.926210 0.000000 
#    z 0.000000 0.000000 1.882490 
# 
# From -- ./inp_files/42407.got.cif
#   From: 2010.05.17/outbox.cif.g08.bks.cpg/sg52_22_cif.got.tgz:42407.got - 2010.06.03 12:15:38.
