data_PCOD9408531
_publ_section_title
;
Structure prediction by ZEFSAII (Michael W. Deem and Ramdas Pophale) SiO2 
 PCOD9408531
Probable space group: P N N A
;
_chemical_formula_sum "Si O2"
_cell_formula_units_Z 56
_cell_length_a 24.012328
_cell_length_b 5.179237
_cell_length_c 22.937636
_cell_angle_alpha 90.000000
_cell_angle_beta 90.000000
_cell_angle_gamma 90.000000
_cell_volume 2852.651433
_symmetry_space_group_name_H-M "P N N A"
_symmetry_group_IT_number 52
_symmetry_cell_setting 'orthorhombic'
loop_
_space_group_symop_operation_xyz
x,y,z
1/2-x,-y,z
x,1/2-y,1/2-z
1/2-x,1/2+y,1/2-z
-x,-y,-z
1/2+x,y,-z
-x,1/2+y,1/2+z
1/2+x,1/2-y,1/2+z
loop_
_atom_site_type_symbol
_atom_site_label
_atom_site_fract_x
_atom_site_fract_y
_atom_site_fract_z
Si Si1 0.472116 0.447323 0.154506
Si Si2 0.390492 0.852570 0.936957
Si Si3 0.816318 0.971720 0.956531
Si Si4 0.483950 0.250000 0.750000
Si Si5 0.463538 0.143716 0.549414
Si Si6 0.750000 0.000000 0.709536
Si Si7 0.347357 0.462446 0.115207
Si Si8 0.422244 0.879134 0.814401
O O1 0.476013 0.548235 0.220332
O O2 0.495272 0.639473 0.104873
O O3 0.408835 0.401706 0.138826
O O4 0.520598 0.233819 0.157612
O O5 0.437029 0.070299 0.955978
O O6 0.413266 0.561499 0.943680
O O7 0.379532 0.877928 0.867412
O O8 0.339479 0.904928 0.979696
O O9 0.837477 0.246589 0.933652
O O10 0.750000 0.000000 0.954823
O O11 0.838719 0.744428 0.913802
O O12 0.440896 0.334312 0.700775
O O13 0.500000 0.000000 0.500000
O O14 0.739663 0.250000 0.750000
O O15 0.697793 0.943495 0.666972
O O16 0.411306 0.750000 0.750000
#
# Coordination Sequence:
#
# PCOD9408531 Si02
#       8
#     8   8   8   4   8   4   8   8
#     4  10  22  34  58  85 123 156 198 243 303 372
#     4  11  22  37  62  90 118 162 206 239 313 375
#     4  12  24  45  65  90 120 164 209 267 308 360
#     4  10  18  36  54  82 126 160 198 238 300 368
#     4  11  21  36  55  90 123 152 192 248 304 372
#     4  12  26  46  66  88 118 164 220 264 306 360
#     4  12  26  44  65  90 123 163 208 263 317 347
#     4   9  20  37  56  90 127 165 195 248 304 378
#
# _framework density 19.630860999999999
#
# number of rings (size 3 to 8) (size 9 to 14) (size 15 to 20)
#    0.000    1.143    2.857    3.857    3.000    2.857 
#    0.000    0.000    0.000    0.000    1.857    0.000 
#    0.000    0.000    0.000    0.000    0.000    0.000 
#
# Total GULP energy -311941.594595 kJ/mol
# GULP energy per Si atom -5570.385618 kJ/mol
# Density = 1.958618 g / cm^3
# Si number density = 19.630861 Si / 1000 Ang^3
#
#
#
# Elastic Constant Matrix: (Units=GPa)
#
#
# Indices 1 2 3 4 5 6 
#
# 1 15.7087 0.2317 -3.3954 0.0000 0.0000 0.0000
# 2 0.2317 64.3268 2.8704 0.0000 0.0000 0.0000
# 3 -3.3954 2.8704 91.4187 0.0000 0.0000 0.0000
# 4 0.0000 0.0000 0.0000 35.6647 0.0000 0.0000
# 5 0.0000 0.0000 0.0000 0.0000 30.6258 0.0000
# 6 0.0000 0.0000 0.0000 0.0000 0.0000 11.8917
#
#
#
# Elastic Compliance Matrix: (Units=1/GPa)
#
#
# Indices 1 2 3 4 5 6 
#
# 1 0.064181 -0.000338 0.002394 0.000000 0.000000 0.000000
# 2 -0.000338 0.015569 -0.000501 0.000000 0.000000 0.000000
# 3 0.002394 -0.000501 0.011043 0.000000 0.000000 0.000000
# 4 0.000000 0.000000 0.000000 0.028039 0.000000 0.000000
# 5 0.000000 0.000000 0.000000 0.000000 0.032652 0.000000
# 6 0.000000 0.000000 0.000000 0.000000 0.000000 0.084092
#
#
# Mechanical properties :
#
#
# Convention : Reuss Voigt Hill
#
# Bulk Modulus (GPa) = 10.64919 18.98530 14.81725
# Shear Modulus (GPa) = 18.95599 27.08626 23.02113
#
# Velocity S-wave (km/s) = 3.11082 3.71857 3.42819
# Velocity P-wave (km/s) = 4.28245 5.30369 4.82019
#
# Compressibility (1/GPa) = 0.09390385
#
# Stress axis : x y z
#
# Youngs Moduli (GPa) = 15.58082 64.22935 90.55219
#
# Poissons Ratio (x) = 0.02171 -0.21681
# Poissons Ratio (y) = 0.00527 0.04540
# Poissons Ratio (z) = -0.03731 0.03220
#
# Static dielectric constant tensor:
#      x y z
#    x 1.700380 0.000000 0.000000 
#    y 0.000000 1.866150 0.000000 
#    z 0.000000 0.000000 1.794230 
# 
# From -- ./inp_files/41021.got.cif
#   From: 2010.05.17/outbox.cif.g08.bks.cpg/sg52_21_cif.got.tgz:41021.got - 2010.06.03 12:15:38.
