data_PCOD9408635
_publ_section_title
;
Structure prediction by ZEFSAII (Michael W. Deem and Ramdas Pophale) SiO2 
 PCOD9408635
Probable space group: P N N A
;
_chemical_formula_sum "Si O2"
_cell_formula_units_Z 48
_cell_length_a 18.929672
_cell_length_b 14.983574
_cell_length_c 8.520535
_cell_angle_alpha 90.000000
_cell_angle_beta 90.000000
_cell_angle_gamma 90.000000
_cell_volume 2416.714627
_symmetry_space_group_name_H-M "P N N A"
_symmetry_group_IT_number 52
_symmetry_cell_setting 'orthorhombic'
loop_
_space_group_symop_operation_xyz
x,y,z
1/2-x,-y,z
x,1/2-y,1/2-z
1/2-x,1/2+y,1/2-z
-x,-y,-z
1/2+x,y,-z
-x,1/2+y,1/2+z
1/2+x,1/2-y,1/2+z
loop_
_atom_site_type_symbol
_atom_site_label
_atom_site_fract_x
_atom_site_fract_y
_atom_site_fract_z
Si Si1 0.750000 0.000000 0.659428
Si Si2 0.159899 0.924924 0.617442
Si Si3 0.223929 0.343838 0.671015
Si Si4 0.085909 0.450216 0.648443
Si Si5 0.917643 0.250000 0.250000
Si Si6 0.444596 0.373244 0.454464
Si Si7 0.206587 0.836908 0.154716
O O1 0.814031 0.034754 0.547981
O O2 0.746015 0.083875 0.775251
O O3 0.233114 0.906990 0.710864
O O4 0.107226 0.997380 0.693129
O O5 0.123673 0.827738 0.650298
O O6 0.206715 0.250000 0.750000
O O7 0.016340 0.389533 0.641475
O O8 0.153752 0.390976 0.612328
O O9 0.076295 0.530152 0.525175
O O10 0.224515 0.673025 0.526932
O O11 0.953344 0.307127 0.393698
O O12 0.378194 0.348406 0.345521
O O13 0.225612 0.750000 0.250000
#
# Coordination Sequence:
#
# PCOD9408635 Si02
#       7
#     4   8   8   8   4   8   8
#     4  12  24  36  64 100 132 170 220 284 336 384
#     4  11  20  38  69  91 123 174 227 258 325 414
#     4  12  21  40  67  92 123 171 224 266 324 395
#     4  10  21  37  67  90 119 163 222 264 317 391
#     4  10  18  38  68  90 128 176 226 260 330 412
#     4  10  21  40  62  93 127 174 212 272 329 393
#     4  12  25  39  62  96 136 168 215 284 334 392
#
# _framework density 19.861675000000002
#
# number of rings (size 3 to 8) (size 9 to 14) (size 15 to 20)
#    0.000    1.000    5.833    3.000    0.000    0.667 
#    1.500    0.833    7.333    0.000    0.000    0.000 
#    0.000    0.000    0.000    0.000    0.000    0.000 
#
# Total GULP energy -267420.198641 kJ/mol
# GULP energy per Si atom -5571.254138 kJ/mol
# Density = 1.981647 g / cm^3
# Si number density = 19.861675 Si / 1000 Ang^3
#
#
#
# Elastic Constant Matrix: (Units=GPa)
#
#
# Indices 1 2 3 4 5 6 
#
# 1 95.1894 40.8947 11.2666 0.0000 0.0000 0.0000
# 2 40.8947 129.6362 29.5987 0.0000 0.0000 0.0000
# 3 11.2666 29.5987 56.3569 0.0000 0.0000 0.0000
# 4 0.0000 0.0000 0.0000 26.3394 0.0000 0.0000
# 5 0.0000 0.0000 0.0000 0.0000 71.0009 0.0000
# 6 0.0000 0.0000 0.0000 0.0000 0.0000 34.7825
#
#
#
# Elastic Compliance Matrix: (Units=1/GPa)
#
#
# Indices 1 2 3 4 5 6 
#
# 1 0.012163 -0.003729 -0.000473 0.000000 0.000000 0.000000
# 2 -0.003729 0.009908 -0.004458 0.000000 0.000000 0.000000
# 3 -0.000473 -0.004458 0.020180 0.000000 0.000000 0.000000
# 4 0.000000 0.000000 0.000000 0.037966 0.000000 0.000000
# 5 0.000000 0.000000 0.000000 0.000000 0.014084 0.000000
# 6 0.000000 0.000000 0.000000 0.000000 0.000000 0.028750
#
#
# Mechanical properties :
#
#
# Convention : Reuss Voigt Hill
#
# Bulk Modulus (GPa) = 40.11106 49.41138 44.76122
# Shear Modulus (GPa) = 33.62853 39.71939 36.67396
#
# Velocity S-wave (km/s) = 4.11924 4.47676 4.30172
# Velocity P-wave (km/s) = 6.54700 7.18705 6.87448
#
# Compressibility (1/GPa) = 0.02493078
#
# Stress axis : x y z
#
# Youngs Moduli (GPa) = 82.21384 100.92692 49.55366
#
# Poissons Ratio (x) = 0.37636 0.02345
# Poissons Ratio (y) = 0.30658 0.22092
# Poissons Ratio (z) = 0.03890 0.44996
#
# Static dielectric constant tensor:
#      x y z
#    x 1.713420 0.000000 0.000000 
#    y 0.000000 1.718890 0.000000 
#    z 0.000000 0.000000 1.708190 
# 
# From -- ./inp_files/12337.got.cif
#   From: 2010.05.17/outbox.cif.g08.bks.cpg/sg52_7_cif.got.tgz:12337.got - 2010.06.03 12:15:38.
