data_PCOD9408377
_publ_section_title
;
Structure prediction by ZEFSAII (Michael W. Deem and Ramdas Pophale) SiO2 
 PCOD9408377
Probable space group: P N N A
;
_chemical_formula_sum "Si O2"
_cell_formula_units_Z 48
_cell_length_a 21.393918
_cell_length_b 8.665907
_cell_length_c 12.175329
_cell_angle_alpha 90.000000
_cell_angle_beta 90.000000
_cell_angle_gamma 90.000000
_cell_volume 2257.278039
_symmetry_space_group_name_H-M "P N N A"
_symmetry_group_IT_number 52
_symmetry_cell_setting 'orthorhombic'
loop_
_space_group_symop_operation_xyz
x,y,z
1/2-x,-y,z
x,1/2-y,1/2-z
1/2-x,1/2+y,1/2-z
-x,-y,-z
1/2+x,y,-z
-x,1/2+y,1/2+z
1/2+x,1/2-y,1/2+z
loop_
_atom_site_type_symbol
_atom_site_label
_atom_site_fract_x
_atom_site_fract_y
_atom_site_fract_z
Si Si1 0.499349 0.503493 0.327354
Si Si2 0.904164 0.250000 0.750000
Si Si3 0.809165 0.652391 0.107451
Si Si4 0.195962 0.750000 0.750000
Si Si5 0.364242 0.549734 0.666325
Si Si6 0.496925 0.328799 0.906036
Si Si7 0.388178 0.448437 0.041906
O O1 0.448320 0.372662 0.312667
O O2 0.564491 0.435211 0.366216
O O3 0.513504 0.582818 0.209122
O O4 0.482331 0.652436 0.396935
O O5 0.872712 0.355772 0.845479
O O6 0.741150 0.659275 0.164991
O O7 0.854932 0.604413 0.207489
O O8 0.823952 0.834903 0.090916
O O9 0.829246 0.538554 0.010017
O O10 0.158326 0.626403 0.678186
O O11 0.557274 0.420999 0.949347
O O12 0.429869 0.334118 0.966401
#
# Coordination Sequence:
#
# PCOD9408377 Si02
#       7
#     8   4   8   4   8   8   8
#     4  10  18  33  51  80 110 156 180 236 293 355
#     4  10  22  35  54  74 118 156 218 245 276 326
#     4  10  19  33  50  71 111 159 182 224 284 345
#     4  10  20  35  54  84 120 152 184 225 300 388
#     4  10  19  31  53  82 113 155 177 227 295 381
#     4   9  19  31  50  72 109 144 198 227 283 345
#     4  10  20  35  49  74 107 159 203 240 271 335
#
# _framework density 21.264548999999999
#
# number of rings (size 3 to 8) (size 9 to 14) (size 15 to 20)
#    0.000    2.333    1.667    4.000    4.667    0.667 
#    0.000    0.000    0.000    0.000    0.000    0.000 
#    0.000   21.333    0.000    0.000    0.000    1.000 
#
# Total GULP energy -267410.333406 kJ/mol
# GULP energy per Si atom -5571.048613 kJ/mol
# Density = 2.121615 g / cm^3
# Si number density = 21.264549 Si / 1000 Ang^3
#
#
#
# Elastic Constant Matrix: (Units=GPa)
#
#
# Indices 1 2 3 4 5 6 
#
# 1 42.0363 15.2738 29.9614 0.0000 0.0000 0.0000
# 2 15.2738 119.6793 37.1894 0.0000 0.0000 0.0000
# 3 29.9614 37.1894 79.0723 0.0000 0.0000 0.0000
# 4 0.0000 0.0000 0.0000 40.9011 0.0000 0.0000
# 5 0.0000 0.0000 0.0000 0.0000 22.0157 0.0000
# 6 0.0000 0.0000 0.0000 0.0000 0.0000 21.6510
#
#
#
# Elastic Compliance Matrix: (Units=1/GPa)
#
#
# Indices 1 2 3 4 5 6 
#
# 1 0.032605 -0.000377 -0.012177 0.000000 0.000000 0.000000
# 2 -0.000377 0.009790 -0.004462 0.000000 0.000000 0.000000
# 3 -0.012177 -0.004462 0.019359 0.000000 0.000000 0.000000
# 4 0.000000 0.000000 0.000000 0.024449 0.000000 0.000000
# 5 0.000000 0.000000 0.000000 0.000000 0.045422 0.000000
# 6 0.000000 0.000000 0.000000 0.000000 0.000000 0.046187
#
#
# Mechanical properties :
#
#
# Convention : Reuss Voigt Hill
#
# Bulk Modulus (GPa) = 36.07154 45.07080 40.57117
# Shear Modulus (GPa) = 22.61563 27.47111 25.04337
#
# Velocity S-wave (km/s) = 3.26473 3.59816 3.43549
# Velocity P-wave (km/s) = 5.58671 6.20513 5.90402
#
# Compressibility (1/GPa) = 0.02772269
#
# Stress axis : x y z
#
# Youngs Moduli (GPa) = 30.66986 102.14280 51.65532
#
# Poissons Ratio (x) = 0.03853 0.62901
# Poissons Ratio (y) = 0.01157 0.23047
# Poissons Ratio (z) = 0.37347 0.45572
#
# Static dielectric constant tensor:
#      x y z
#    x 1.773770 0.000000 0.000000 
#    y 0.000000 1.932350 0.000000 
#    z 0.000000 0.000000 1.836730 
# 
# From -- ./inp_files/22340.got.cif
#   From: 2010.05.17/outbox.cif.g08.bks.cpg/sg52_12_cif.got.tgz:22340.got - 2010.06.03 12:15:38.
