data_PCOD9408065
_publ_section_title
;
Structure prediction by ZEFSAII (Michael W. Deem and Ramdas Pophale) SiO2 
 PCOD9408065
Probable space group: P N N A
;
_chemical_formula_sum "Si O2"
_cell_formula_units_Z 52
_cell_length_a 16.128420
_cell_length_b 12.030618
_cell_length_c 13.904895
_cell_angle_alpha 90.000000
_cell_angle_beta 90.000000
_cell_angle_gamma 90.000000
_cell_volume 2698.034354
_symmetry_space_group_name_H-M "P N N A"
_symmetry_group_IT_number 52
_symmetry_cell_setting 'orthorhombic'
loop_
_space_group_symop_operation_xyz
x,y,z
1/2-x,-y,z
x,1/2-y,1/2-z
1/2-x,1/2+y,1/2-z
-x,-y,-z
1/2+x,y,-z
-x,1/2+y,1/2+z
1/2+x,1/2-y,1/2+z
loop_
_atom_site_type_symbol
_atom_site_label
_atom_site_fract_x
_atom_site_fract_y
_atom_site_fract_z
Si Si1 0.202409 0.793498 0.853295
Si Si2 0.023492 0.651770 0.592594
Si Si3 0.250000 0.000000 0.968246
Si Si4 0.843083 0.448787 0.792297
Si Si5 0.119340 0.312865 0.153886
Si Si6 0.589918 0.935974 0.906881
Si Si7 0.730184 0.870242 0.524388
O O1 0.230189 0.750000 0.750000
O O2 0.108439 0.839919 0.848128
O O3 0.255917 0.892201 0.900340
O O4 0.202020 0.694517 0.931056
O O5 0.049017 0.650589 0.480171
O O6 0.962349 0.750094 0.620708
O O7 0.974672 0.536497 0.608470
O O8 0.330415 0.016047 0.035220
O O9 0.750000 0.500000 0.774700
O O10 0.894908 0.559000 0.818653
O O11 0.877756 0.395762 0.695913
O O12 0.833918 0.373648 0.886446
O O13 0.150845 0.250000 0.250000
O O14 0.188339 0.313361 0.070706
O O15 0.750000 0.000000 0.504006
#
# Coordination Sequence:
#
# PCOD9408065 Si02
#       7
#     8   8   4   8   8   8   8
#     4  11  24  39  60  83 121 161 204 242 292 356
#     4  10  21  32  53  86 117 158 192 231 291 364
#     4  10  22  38  62  88 108 158 204 250 288 336
#     4   9  18  32  58  89 111 146 188 252 304 341
#     4  10  17  31  59  83 115 150 194 236 300 352
#     4  10  18  34  58  85 123 143 198 245 290 354
#     4   9  22  39  60  91 115 151 202 257 299 347
#
# _framework density 19.273289999999999
#
# number of rings (size 3 to 8) (size 9 to 14) (size 15 to 20)
#    0.000    2.462    2.308    1.385    1.077    1.231 
#    0.000    3.077    0.000    5.538    0.000    0.000 
#    0.000    0.000    0.000    0.000    0.000    0.000 
#
# Total GULP energy -290160.539707 kJ/mol
# GULP energy per Si atom -5580.010379 kJ/mol
# Density = 1.922942 g / cm^3
# Si number density = 19.273290 Si / 1000 Ang^3
#
#
#
# Elastic Constant Matrix: (Units=GPa)
#
#
# Indices 1 2 3 4 5 6 
#
# 1 39.2652 14.3461 13.0166 0.0000 0.0000 0.0000
# 2 14.3461 60.4038 39.4907 0.0000 0.0000 0.0000
# 3 13.0166 39.4907 135.0304 0.0000 0.0000 0.0000
# 4 0.0000 0.0000 0.0000 19.7362 0.0000 0.0000
# 5 0.0000 0.0000 0.0000 0.0000 6.5256 0.0000
# 6 0.0000 0.0000 0.0000 0.0000 0.0000 24.8027
#
#
#
# Elastic Compliance Matrix: (Units=1/GPa)
#
#
# Indices 1 2 3 4 5 6 
#
# 1 0.027982 -0.006037 -0.000932 0.000000 0.000000 0.000000
# 2 -0.006037 0.021771 -0.005785 0.000000 0.000000 0.000000
# 3 -0.000932 -0.005785 0.009188 0.000000 0.000000 0.000000
# 4 0.000000 0.000000 0.000000 0.050668 0.000000 0.000000
# 5 0.000000 0.000000 0.000000 0.000000 0.153243 0.000000
# 6 0.000000 0.000000 0.000000 0.000000 0.000000 0.040318
#
#
# Mechanical properties :
#
#
# Convention : Reuss Voigt Hill
#
# Bulk Modulus (GPa) = 29.91017 40.93401 35.42209
# Shear Modulus (GPa) = 14.71355 21.40263 18.05809
#
# Velocity S-wave (km/s) = 2.76600 3.33600 3.06428
# Velocity P-wave (km/s) = 5.07481 6.01027 5.56224
#
# Compressibility (1/GPa) = 0.03343345
#
# Stress axis : x y z
#
# Youngs Moduli (GPa) = 35.73682 45.93218 108.84326
#
# Poissons Ratio (x) = 0.27727 0.10144
# Poissons Ratio (y) = 0.21573 0.62969
# Poissons Ratio (z) = 0.03331 0.26573
#
# Static dielectric constant tensor:
#      x y z
#    x 1.678600 0.000000 0.000000 
#    y 0.000000 1.693400 0.000000 
#    z 0.000000 0.000000 1.683800 
# 
# From -- ./inp_files/28216.got.cif
#   From: 2010.05.17/outbox.cif.g08.bks.cpg/sg52_15_cif.got.tgz:28216.got - 2010.06.03 12:15:38.
