data_PCOD9408708
_publ_section_title
;
Structure prediction by ZEFSAII (Michael W. Deem and Ramdas Pophale) SiO2 
 PCOD9408708
Probable space group: P N N A
;
_chemical_formula_sum "Si O2"
_cell_formula_units_Z 48
_cell_length_a 29.035035
_cell_length_b 9.447689
_cell_length_c 7.242713
_cell_angle_alpha 90.000000
_cell_angle_beta 90.000000
_cell_angle_gamma 90.000000
_cell_volume 1986.777435
_symmetry_space_group_name_H-M "P N N A"
_symmetry_group_IT_number 52
_symmetry_cell_setting 'orthorhombic'
loop_
_space_group_symop_operation_xyz
x,y,z
1/2-x,-y,z
x,1/2-y,1/2-z
1/2-x,1/2+y,1/2-z
-x,-y,-z
1/2+x,y,-z
-x,1/2+y,1/2+z
1/2+x,1/2-y,1/2+z
loop_
_atom_site_type_symbol
_atom_site_label
_atom_site_fract_x
_atom_site_fract_y
_atom_site_fract_z
Si Si1 0.205273 0.098158 0.992668
Si Si2 0.052814 0.503525 0.765415
Si Si3 0.109343 0.964984 0.095770
Si Si4 0.796817 0.574024 0.046638
Si Si5 0.363577 0.175309 0.573470
Si Si6 0.451686 0.610709 0.145743
O O1 0.157748 0.044769 0.080319
O O2 0.206004 0.266709 0.028912
O O3 0.200160 0.084950 0.769951
O O4 0.250000 0.000000 0.041389
O O5 0.073449 0.477067 0.562755
O O6 0.090316 0.612754 0.840101
O O7 0.002682 0.573766 0.780820
O O8 0.050360 0.381911 0.923488
O O9 0.122892 0.803973 0.055972
O O10 0.081396 0.987213 0.282246
O O11 0.750000 0.500000 0.993305
O O12 0.835225 0.457583 0.997929
O O13 0.337205 0.250000 0.750000
O O14 0.435226 0.750000 0.250000
#
# Coordination Sequence:
#
# PCOD9408708 Si02
#       6
#     8   8   8   8   8   8
#     4  10  20  33  59 100 135 172 230 283 336 410
#     4  10  23  43  64  93 137 175 226 282 338 407
#     4  11  22  40  69  95 134 180 227 276 345 404
#     4  10  19  30  57  94 136 176 225 281 339 400
#     4  10  19  37  60  89 133 176 225 281 335 403
#     4  11  25  41  65 100 133 175 228 284 342 407
#
# _framework density 24.159725999999999
#
# number of rings (size 3 to 8) (size 9 to 14) (size 15 to 20)
#    0.000    1.667    3.333    3.000    4.667    1.333 
#    0.000    3.333    0.000    2.000    0.000    0.000 
#    0.000    0.000    0.000    0.000    0.000    0.000 
#
# Total GULP energy -268340.804945 kJ/mol
# GULP energy per Si atom -5590.433436 kJ/mol
# Density = 2.410474 g / cm^3
# Si number density = 24.159726 Si / 1000 Ang^3
#
#
#
# Elastic Constant Matrix: (Units=GPa)
#
#
# Indices 1 2 3 4 5 6 
#
# 1 144.3718 29.4727 11.0006 0.0000 0.0000 0.0000
# 2 29.4727 134.5102 7.6826 0.0000 0.0000 0.0000
# 3 11.0006 7.6826 119.6649 0.0000 0.0000 0.0000
# 4 0.0000 0.0000 0.0000 22.3995 0.0000 0.0000
# 5 0.0000 0.0000 0.0000 0.0000 42.3319 0.0000
# 6 0.0000 0.0000 0.0000 0.0000 0.0000 20.3676
#
#
#
# Elastic Compliance Matrix: (Units=1/GPa)
#
#
# Indices 1 2 3 4 5 6 
#
# 1 0.007289 -0.001565 -0.000570 0.000000 0.000000 0.000000
# 2 -0.001565 0.007798 -0.000357 0.000000 0.000000 0.000000
# 3 -0.000570 -0.000357 0.008432 0.000000 0.000000 0.000000
# 4 0.000000 0.000000 0.000000 0.044644 0.000000 0.000000
# 5 0.000000 0.000000 0.000000 0.000000 0.023623 0.000000
# 6 0.000000 0.000000 0.000000 0.000000 0.000000 0.049098
#
#
# Mechanical properties :
#
#
# Convention : Reuss Voigt Hill
#
# Bulk Modulus (GPa) = 53.94687 54.98431 54.46559
# Shear Modulus (GPa) = 32.88518 40.37920 36.63219
#
# Velocity S-wave (km/s) = 3.69339 4.09264 3.89813
# Velocity P-wave (km/s) = 6.36914 6.71871 6.54626
#
# Compressibility (1/GPa) = 0.01853676
#
# Stress axis : x y z
#
# Youngs Moduli (GPa) = 137.18588 128.24470 118.59668
#
# Poissons Ratio (x) = 0.20066 0.06756
# Poissons Ratio (y) = 0.21465 0.04231
# Poissons Ratio (z) = 0.07815 0.04575
#
# Static dielectric constant tensor:
#      x y z
#    x 1.902440 0.000000 0.000000 
#    y 0.000000 1.897740 0.000000 
#    z 0.000000 0.000000 2.023090 
# 
# From -- ./inp_files/15524.got.cif
#   From: 2010.05.17/outbox.cif.g08.bks.cpg/sg52_8_cif.got.tgz:15524.got - 2010.06.03 12:15:38.
