data_PCOD9408172
_publ_section_title
;
Structure prediction by ZEFSAII (Michael W. Deem and Ramdas Pophale) SiO2 
 PCOD9408172
Probable space group: P N N A
;
_chemical_formula_sum "Si O2"
_cell_formula_units_Z 32
_cell_length_a 6.793714
_cell_length_b 15.889814
_cell_length_c 10.413711
_cell_angle_alpha 90.000000
_cell_angle_beta 90.000000
_cell_angle_gamma 90.000000
_cell_volume 1124.168973
_symmetry_space_group_name_H-M "P N N A"
_symmetry_group_IT_number 52
_symmetry_cell_setting 'orthorhombic'
loop_
_space_group_symop_operation_xyz
x,y,z
1/2-x,-y,z
x,1/2-y,1/2-z
1/2-x,1/2+y,1/2-z
-x,-y,-z
1/2+x,y,-z
-x,1/2+y,1/2+z
1/2+x,1/2-y,1/2+z
loop_
_atom_site_type_symbol
_atom_site_label
_atom_site_fract_x
_atom_site_fract_y
_atom_site_fract_z
Si Si1 0.985892 0.930124 0.883299
Si Si2 0.700630 0.764772 0.106679
Si Si3 0.601816 0.662080 0.711218
Si Si4 0.245553 0.085629 0.627159
O O1 0.093481 0.847516 0.938900
O O2 0.110524 0.937745 0.749313
O O3 0.731846 0.098102 0.839280
O O4 0.000000 0.000000 0.000000
O O5 0.623557 0.750000 0.250000
O O6 0.691010 0.670659 0.052031
O O7 0.422991 0.794318 0.869540
O O8 0.707603 0.750000 0.750000
O O9 0.465301 0.611289 0.812365
O O10 0.250000 0.000000 0.546973
#
# Coordination Sequence:
#
# PCOD9408172 Si02
#       4
#     8   8   8   8
#     4  10  18  29  45  69  96 139 185 234 300 363
#     4   7  15  29  47  64  90 131 186 237 282 353
#     4   8  15  30  49  65  91 138 189 232 286 346
#     4   9  18  31  44  68  98 138 192 238 285 345
#
# _framework density 28.465472999999999
#
# number of rings (size 3 to 8) (size 9 to 14) (size 15 to 20)
#    0.000    4.500    0.000    2.250    0.000    5.000 
#    4.500    0.000    0.000    0.000    0.000    0.000 
#    0.000    0.000    0.000   81.000  129.000   35.250 
#
# Total GULP energy -178245.976935 kJ/mol
# GULP energy per Si atom -5570.186779 kJ/mol
# Density = 2.840068 g / cm^3
# Si number density = 28.465473 Si / 1000 Ang^3
#
#
#
# Elastic Constant Matrix: (Units=GPa)
#
#
# Indices 1 2 3 4 5 6 
#
# 1 183.8158 71.2166 61.6052 0.0000 0.0000 0.0000
# 2 71.2166 330.6672 42.8750 0.0000 0.0000 0.0000
# 3 61.6052 42.8750 58.3987 0.0000 0.0000 0.0000
# 4 0.0000 0.0000 0.0000 -38.2282 0.0000 0.0000
# 5 0.0000 0.0000 0.0000 0.0000 29.1917 0.0000
# 6 0.0000 0.0000 0.0000 0.0000 0.0000 49.3030
#
#
#
# Elastic Compliance Matrix: (Units=1/GPa)
#
#
# Indices 1 2 3 4 5 6 
#
# 1 0.008578 -0.000745 -0.008502 0.000000 0.000000 0.000000
# 2 -0.000745 0.003407 -0.001715 0.000000 0.000000 0.000000
# 3 -0.008502 -0.001715 0.027352 0.000000 0.000000 0.000000
# 4 0.000000 0.000000 0.000000 -0.026159 0.000000 0.000000
# 5 0.000000 0.000000 0.000000 0.000000 0.034256 0.000000
# 6 0.000000 0.000000 0.000000 0.000000 0.000000 0.020283
#
#
# Mechanical properties :
#
#
# Convention : Reuss Voigt Hill
#
# Bulk Modulus (GPa) = 57.43158 102.69726 80.06442
# Shear Modulus (GPa) = 52.38451 34.53231 43.45841
#
# Velocity S-wave (km/s) = 4.29451 3.48678 3.91155
# Velocity P-wave (km/s) = 6.69403 7.23646 6.97052
#
# Compressibility (1/GPa) = 0.01741202
#
# Stress axis : x y z
#
# Youngs Moduli (GPa) = 116.57084 293.50590 36.55996
#
# Poissons Ratio (x) = 0.21870 0.31085
# Poissons Ratio (y) = 0.08686 0.06271
# Poissons Ratio (z) = 0.99114 0.50347
#
# Static dielectric constant tensor:
#      x y z
#    x 2.318800 0.000000 0.000000 
#    y 0.000000 2.453320 0.000000 
#    z 0.000000 0.000000 2.494050 
# 
# From -- ./inp_files/17648.got.cif
#   From: 2010.05.17/outbox.cif.g08.bks.cpg/sg52_9_cif.got.tgz:17648.got - 2010.06.03 12:15:38.
