data_PCOD9408441
_publ_section_title
;
Structure prediction by ZEFSAII (Michael W. Deem and Ramdas Pophale) SiO2 
 PCOD9408441
Probable space group: P N N A
;
_chemical_formula_sum "Si O2"
_cell_formula_units_Z 52
_cell_length_a 9.045939
_cell_length_b 14.608780
_cell_length_c 21.632240
_cell_angle_alpha 90.000000
_cell_angle_beta 90.000000
_cell_angle_gamma 90.000000
_cell_volume 2858.703388
_symmetry_space_group_name_H-M "P N N A"
_symmetry_group_IT_number 52
_symmetry_cell_setting 'orthorhombic'
loop_
_space_group_symop_operation_xyz
x,y,z
1/2-x,-y,z
x,1/2-y,1/2-z
1/2-x,1/2+y,1/2-z
-x,-y,-z
1/2+x,y,-z
-x,1/2+y,1/2+z
1/2+x,1/2-y,1/2+z
loop_
_atom_site_type_symbol
_atom_site_label
_atom_site_fract_x
_atom_site_fract_y
_atom_site_fract_z
Si Si1 0.250000 0.000000 0.886692
Si Si2 0.750000 0.500000 0.590164
Si Si3 0.725476 0.803846 0.062674
Si Si4 0.250000 0.500000 0.210734
Si Si5 0.489404 0.469567 0.312796
Si Si6 0.778929 0.208278 0.681336
Si Si7 0.616637 0.270024 0.314829
Si Si8 0.371916 0.806575 0.062908
O O1 0.222438 0.089881 0.927319
O O2 0.114917 0.967925 0.842770
O O3 0.629414 0.546839 0.633829
O O4 0.668450 0.414816 0.559835
O O5 0.788536 0.755827 0.124055
O O6 0.548563 0.797859 0.060300
O O7 0.796213 0.767615 0.999182
O O8 0.395883 0.500467 0.254489
O O9 0.250653 0.599058 0.178147
O O10 0.572728 0.375322 0.304490
O O11 0.738632 0.250000 0.750000
O O12 0.696226 0.261840 0.625597
O O13 0.956929 0.221450 0.677876
O O14 0.695095 0.250000 0.250000
#
# Coordination Sequence:
#
# PCOD9408441 Si02
#       8
#     4   4   8   4   8   8   8   8
#     4  10  21  34  55  92 121 164 201 234 307 374
#     4  11  19  32  60  82 126 159 189 238 287 369
#     4  11  25  37  59  85 123 166 199 254 304 361
#     4  11  20  36  63  92 121 161 200 248 308 355
#     4  10  18  34  55  87 122 156 191 243 293 361
#     4  11  21  38  64  91 120 160 201 249 302 361
#     4  10  19  39  59  84 117 159 197 245 302 357
#     4  12  24  39  57  88 124 160 206 245 300 370
#
# _framework density 18.190066000000002
#
# number of rings (size 3 to 8) (size 9 to 14) (size 15 to 20)
#    0.000    1.231    6.154    2.308    2.154    1.846 
#    2.769    0.000    0.000    3.692    0.000    0.000 
#    0.000    0.000    0.000    0.000    0.000    0.000 
#
# Total GULP energy -289595.461294 kJ/mol
# GULP energy per Si atom -5569.143486 kJ/mol
# Density = 1.814866 g / cm^3
# Si number density = 18.190066 Si / 1000 Ang^3
#
#
#
# Elastic Constant Matrix: (Units=GPa)
#
#
# Indices 1 2 3 4 5 6 
#
# 1 106.7486 11.9547 67.1221 0.0000 0.0000 0.0000
# 2 11.9547 75.1036 35.8236 0.0000 0.0000 0.0000
# 3 67.1221 35.8236 154.1682 0.0000 0.0000 0.0000
# 4 0.0000 0.0000 0.0000 -10.1210 0.0000 0.0000
# 5 0.0000 0.0000 0.0000 0.0000 10.1017 0.0000
# 6 0.0000 0.0000 0.0000 0.0000 0.0000 18.2451
#
#
#
# Elastic Compliance Matrix: (Units=1/GPa)
#
#
# Indices 1 2 3 4 5 6 
#
# 1 0.012932 0.000705 -0.005794 0.000000 0.000000 0.000000
# 2 0.000705 0.015013 -0.003796 0.000000 0.000000 0.000000
# 3 -0.005794 -0.003796 0.009891 0.000000 0.000000 0.000000
# 4 0.000000 0.000000 0.000000 -0.098804 0.000000 0.000000
# 5 0.000000 0.000000 0.000000 0.000000 0.098993 0.000000
# 6 0.000000 0.000000 0.000000 0.000000 0.000000 0.054809
#
#
# Mechanical properties :
#
#
# Convention : Reuss Voigt Hill
#
# Bulk Modulus (GPa) = 49.83255 62.86901 56.35078
# Shear Modulus (GPa) = 42.62817 18.38649 30.50733
#
# Velocity S-wave (km/s) = 4.84621 3.18275 4.09974
# Velocity P-wave (km/s) = 7.66611 6.93858 7.31140
#
# Compressibility (1/GPa) = 0.02006720
#
# Stress axis : x y z
#
# Youngs Moduli (GPa) = 77.32620 66.60830 101.10040
#
# Poissons Ratio (x) = -0.04698 0.58581
# Poissons Ratio (y) = -0.05454 0.38374
# Poissons Ratio (z) = 0.44806 0.25282
#
# Static dielectric constant tensor:
#      x y z
#    x 2.903860 0.000000 0.000000 
#    y 0.000000 1.693800 0.000000 
#    z 0.000000 0.000000 1.690000 
# 
# From -- ./inp_files/36006.got.cif
#   From: 2010.05.17/outbox.cif.g08.bks.cpg/sg52_19_cif.got.tgz:36006.got - 2010.06.03 12:15:38.
