data_PCOD9408628
_publ_section_title
;
Structure prediction by ZEFSAII (Michael W. Deem and Ramdas Pophale) SiO2 
 PCOD9408628
Probable space group: P N N A
;
_chemical_formula_sum "Si O2"
_cell_formula_units_Z 48
_cell_length_a 17.480629
_cell_length_b 13.265216
_cell_length_c 8.314714
_cell_angle_alpha 90.000000
_cell_angle_beta 90.000000
_cell_angle_gamma 90.000000
_cell_volume 1928.051798
_symmetry_space_group_name_H-M "P N N A"
_symmetry_group_IT_number 52
_symmetry_cell_setting 'orthorhombic'
loop_
_space_group_symop_operation_xyz
x,y,z
1/2-x,-y,z
x,1/2-y,1/2-z
1/2-x,1/2+y,1/2-z
-x,-y,-z
1/2+x,y,-z
-x,1/2+y,1/2+z
1/2+x,1/2-y,1/2+z
loop_
_atom_site_type_symbol
_atom_site_label
_atom_site_fract_x
_atom_site_fract_y
_atom_site_fract_z
Si Si1 0.750000 0.500000 0.369673
Si Si2 0.538504 0.636934 0.728443
Si Si3 0.079194 0.436775 0.188444
Si Si4 0.808819 0.705736 0.933034
Si Si5 0.335380 0.193099 0.004221
Si Si6 0.389136 0.601876 0.554537
Si Si7 0.035363 0.750000 0.750000
O O1 0.718693 0.600368 0.456560
O O2 0.667108 0.454676 0.319656
O O3 0.508053 0.750000 0.750000
O O4 0.547130 0.546728 0.855281
O O5 0.623518 0.658823 0.665804
O O6 0.475917 0.592887 0.607778
O O7 0.148539 0.399646 0.077991
O O8 0.112259 0.442425 0.372656
O O9 0.018415 0.343952 0.197696
O O10 0.806667 0.750000 0.750000
O O11 0.722119 0.712430 0.993584
O O12 0.860870 0.783378 0.033806
O O13 0.407068 0.214604 0.889386
#
# Coordination Sequence:
#
# PCOD9408628 Si02
#       7
#     4   8   8   8   8   8   4
#     4  10  20  36  68  92 122 168 220 286 318 364
#     4  12  24  39  64 101 133 170 223 282 325 395
#     4  11  19  39  70  93 126 172 219 267 338 388
#     4   9  19  37  63  94 129 165 207 275 336 384
#     4  11  22  39  64  99 136 163 231 274 330 401
#     4  10  18  38  63  94 125 159 223 274 318 386
#     4  12  22  40  74  96 126 182 220 276 336 398
#
# _framework density 24.895599000000001
#
# number of rings (size 3 to 8) (size 9 to 14) (size 15 to 20)
#    0.000    1.333    5.833    2.000    0.000    0.000 
#    6.000    3.333    3.667    0.000    0.000    0.000 
#    0.000    0.000    0.000    0.000    0.000    0.000 
#
# Total GULP energy -267662.308133 kJ/mol
# GULP energy per Si atom -5576.298086 kJ/mol
# Density = 2.483894 g / cm^3
# Si number density = 24.895599 Si / 1000 Ang^3
#
#
#
# Elastic Constant Matrix: (Units=GPa)
#
#
# Indices 1 2 3 4 5 6 
#
# 1 147.5464 52.6918 16.1392 0.0000 0.0000 0.0000
# 2 52.6918 148.0425 23.2156 0.0000 0.0000 0.0000
# 3 16.1392 23.2156 19.0134 0.0000 0.0000 0.0000
# 4 0.0000 0.0000 0.0000 1.8781 0.0000 0.0000
# 5 0.0000 0.0000 0.0000 0.0000 2.3237 0.0000
# 6 0.0000 0.0000 0.0000 0.0000 0.0000 16.8719
#
#
#
# Elastic Compliance Matrix: (Units=1/GPa)
#
#
# Indices 1 2 3 4 5 6 
#
# 1 0.008016 -0.002209 -0.004107 0.000000 0.000000 0.000000
# 2 -0.002209 0.008963 -0.009069 0.000000 0.000000 0.000000
# 3 -0.004107 -0.009069 0.067154 0.000000 0.000000 0.000000
# 4 0.000000 0.000000 0.000000 0.532447 0.000000 0.000000
# 5 0.000000 0.000000 0.000000 0.000000 0.430357 0.000000
# 6 0.000000 0.000000 0.000000 0.000000 0.000000 0.059270
#
#
# Mechanical properties :
#
#
# Convention : Reuss Voigt Hill
#
# Bulk Modulus (GPa) = 18.73958 55.41061 37.07510
# Shear Modulus (GPa) = 4.32989 19.05178 11.69084
#
# Velocity S-wave (km/s) = 1.32022 2.76935 2.16936
# Velocity P-wave (km/s) = 3.14127 5.70361 4.60428
#
# Compressibility (1/GPa) = 0.05336299
#
# Stress axis : x y z
#
# Youngs Moduli (GPa) = 124.75672 111.56703 14.89116
#
# Poissons Ratio (x) = 0.24644 0.06115
# Poissons Ratio (y) = 0.27558 0.13505
# Poissons Ratio (z) = 0.51235 1.01182
#
# Static dielectric constant tensor:
#      x y z
#    x 1.929330 0.000000 0.000000 
#    y 0.000000 2.128940 0.000000 
#    z 0.000000 0.000000 2.103270 
# 
# From -- ./inp_files/20743.got.cif
#   From: 2010.05.17/outbox.cif.g08.bks.cpg/sg52_11_cif.got.tgz:20743.got - 2010.06.03 12:15:38.
