data_PCOD9408977
_publ_section_title
;
Structure prediction by ZEFSAII (Michael W. Deem and Ramdas Pophale) SiO2 
 PCOD9408977
Probable space group: P N N A
;
_chemical_formula_sum "Si O2"
_cell_formula_units_Z 32
_cell_length_a 11.191474
_cell_length_b 6.957370
_cell_length_c 17.174234
_cell_angle_alpha 90.000000
_cell_angle_beta 90.000000
_cell_angle_gamma 90.000000
_cell_volume 1337.241254
_symmetry_space_group_name_H-M "P N N A"
_symmetry_group_IT_number 52
_symmetry_cell_setting 'orthorhombic'
loop_
_space_group_symop_operation_xyz
x,y,z
1/2-x,-y,z
x,1/2-y,1/2-z
1/2-x,1/2+y,1/2-z
-x,-y,-z
1/2+x,y,-z
-x,1/2+y,1/2+z
1/2+x,1/2-y,1/2+z
loop_
_atom_site_type_symbol
_atom_site_label
_atom_site_fract_x
_atom_site_fract_y
_atom_site_fract_z
Si Si1 0.434542 0.308389 0.533685
Si Si2 0.895221 0.710425 0.664579
Si Si3 0.750000 0.500000 0.352954
Si Si4 0.429959 0.750000 0.750000
Si Si5 0.873272 0.251772 0.864683
O O1 0.500000 0.500000 0.500000
O O2 0.528975 0.213830 0.591820
O O3 0.324037 0.363360 0.589035
O O4 0.390515 0.207340 0.455630
O O5 0.946489 0.750000 0.750000
O O6 0.887989 0.479564 0.650549
O O7 0.761238 0.791334 0.661315
O O8 0.655637 0.390546 0.298505
O O9 0.521889 0.659454 0.812607
#
# Coordination Sequence:
#
# PCOD9408977 Si02
#       5
#     8   8   4   4   8
#     4  10  19  37  60  92 112 157 216 254 291 364
#     4  10  19  34  62  90 113 153 202 253 302 357
#     4  12  24  38  66  94 128 168 206 260 318 374
#     4  12  24  40  58  96 128 162 200 266 318 368
#     4  10  21  38  60  90 120 154 206 260 300 356
#
# _framework density 23.929863000000001
#
# number of rings (size 3 to 8) (size 9 to 14) (size 15 to 20)
#    0.000    1.500    6.250    3.000    1.750    0.000 
#    0.000    0.000    0.000    9.000    0.000    0.000 
#    0.000    0.000    0.000    0.000    0.000    0.000 
#
# Total GULP energy -179025.917476 kJ/mol
# GULP energy per Si atom -5594.559921 kJ/mol
# Density = 2.387540 g / cm^3
# Si number density = 23.929863 Si / 1000 Ang^3
#
#
#
# Elastic Constant Matrix: (Units=GPa)
#
#
# Indices 1 2 3 4 5 6 
#
# 1 167.8587 12.2680 97.4958 0.0000 0.0000 0.0000
# 2 12.2680 82.1690 34.6070 0.0000 0.0000 0.0000
# 3 97.4958 34.6070 257.7951 0.0000 0.0000 0.0000
# 4 0.0000 0.0000 0.0000 29.1957 0.0000 0.0000
# 5 0.0000 0.0000 0.0000 0.0000 46.9108 0.0000
# 6 0.0000 0.0000 0.0000 0.0000 0.0000 -8.5412
#
#
#
# Elastic Compliance Matrix: (Units=1/GPa)
#
#
# Indices 1 2 3 4 5 6 
#
# 1 0.007635 0.000081 -0.002898 0.000000 0.000000 0.000000
# 2 0.000081 0.012900 -0.001762 0.000000 0.000000 0.000000
# 3 -0.002898 -0.001762 0.005212 0.000000 0.000000 0.000000
# 4 0.000000 0.000000 0.000000 0.034252 0.000000 0.000000
# 5 0.000000 0.000000 0.000000 0.000000 0.021317 0.000000
# 6 0.000000 0.000000 0.000000 0.000000 0.000000 -0.117080
#
#
# Mechanical properties :
#
#
# Convention : Reuss Voigt Hill
#
# Bulk Modulus (GPa) = 60.28752 88.50714 74.39733
# Shear Modulus (GPa) = -237.23752 37.74321 -99.74716
#
# Velocity S-wave (km/s) = -9.96764 3.97576 -6.46325
# Velocity P-wave (km/s) = 10.35489 7.62508 4.95388
#
# Compressibility (1/GPa) = 0.01658718
#
# Stress axis : x y z
#
# Youngs Moduli (GPa) = 130.97797 77.51810 191.87492
#
# Poissons Ratio (x) = -0.00626 0.55611
# Poissons Ratio (y) = -0.01058 0.33814
# Poissons Ratio (z) = 0.37961 0.13661
#
# Static dielectric constant tensor:
#      x y z
#    x 1.894370 0.000000 0.000000 
#    y 0.000000 2.032800 0.000000 
#    z 0.000000 0.000000 1.871840 
# 
# From -- ./inp_files/31885.got.cif
#   From: 2010.05.17/outbox.cif.g08.bks.cpg/sg52_16_cif.got.tgz:31885.got - 2010.06.03 12:15:38.
