data_PCOD9408474
_publ_section_title
;
Structure prediction by ZEFSAII (Michael W. Deem and Ramdas Pophale) SiO2 
 PCOD9408474
Probable space group: P N N A
;
_chemical_formula_sum "Si O2"
_cell_formula_units_Z 60
_cell_length_a 14.884539
_cell_length_b 23.506654
_cell_length_c 8.533235
_cell_angle_alpha 90.000000
_cell_angle_beta 90.000000
_cell_angle_gamma 90.000000
_cell_volume 2985.656971
_symmetry_space_group_name_H-M "P N N A"
_symmetry_group_IT_number 52
_symmetry_cell_setting 'orthorhombic'
loop_
_space_group_symop_operation_xyz
x,y,z
1/2-x,-y,z
x,1/2-y,1/2-z
1/2-x,1/2+y,1/2-z
-x,-y,-z
1/2+x,y,-z
-x,1/2+y,1/2+z
1/2+x,1/2-y,1/2+z
loop_
_atom_site_type_symbol
_atom_site_label
_atom_site_fract_x
_atom_site_fract_y
_atom_site_fract_z
Si Si1 0.318047 0.946106 0.244881
Si Si2 0.279616 0.366046 0.458447
Si Si3 0.184781 0.747563 0.932947
Si Si4 0.440697 0.250000 0.250000
Si Si5 0.721215 0.878726 0.485769
Si Si6 0.565522 0.870029 0.706169
Si Si7 0.000916 0.508791 0.311885
Si Si8 0.681460 0.953296 0.199966
O O1 0.287763 0.907514 0.390240
O O2 0.415892 0.972427 0.252611
O O3 0.250000 0.000000 0.235499
O O4 0.303857 0.904142 0.096805
O O5 0.260170 0.305642 0.536105
O O6 0.343988 0.358936 0.308882
O O7 0.338448 0.405824 0.571170
O O8 0.151157 0.750000 0.750000
O O9 0.115127 0.749148 0.082566
O O10 0.236565 0.687940 0.953471
O O11 0.488287 0.188665 0.267413
O O12 0.615544 0.881036 0.540874
O O13 0.728490 0.918370 0.336018
O O14 0.516373 0.925940 0.764888
O O15 0.000000 0.500000 0.500000
O O16 0.907787 0.484918 0.248167
O O17 0.750000 0.000000 0.136126
#
# Coordination Sequence:
#
# PCOD9408474 Si02
#       8
#     8   8   8   4   8   8   8   8
#     4  11  20  39  62  88 128 165 206 260 327 402
#     4  10  18  35  61  86 120 158 211 264 312 376
#     4  10  18  34  61  92 123 168 221 269 317 391
#     4   8  18  32  58  86 122 170 216 264 320 384
#     4  10  21  38  58  87 127 165 206 262 329 379
#     4   9  18  35  57  86 116 161 206 252 315 381
#     4  12  22  37  64  92 126 168 214 264 332 395
#     4  12  24  36  57  92 123 159 212 262 320 386
#
# _framework density 20.096080000000001
#
# number of rings (size 3 to 8) (size 9 to 14) (size 15 to 20)
#    0.000    1.600    5.333    2.400    0.000    0.533 
#    0.000    0.000    0.000    6.400    0.000    0.000 
#    0.000    0.000    0.000    0.000    0.000    0.000 
#
# Total GULP energy -334088.675273 kJ/mol
# GULP energy per Si atom -5568.144588 kJ/mol
# Density = 2.005034 g / cm^3
# Si number density = 20.096080 Si / 1000 Ang^3
#
#
#
# Elastic Constant Matrix: (Units=GPa)
#
#
# Indices 1 2 3 4 5 6 
#
# 1 52.0083 29.6628 -16.5474 0.0000 0.0000 0.0000
# 2 29.6628 182.6278 19.7506 0.0000 0.0000 0.0000
# 3 -16.5474 19.7506 64.1983 0.0000 0.0000 0.0000
# 4 0.0000 0.0000 0.0000 -70.9533 0.0000 0.0000
# 5 0.0000 0.0000 0.0000 0.0000 11.2450 0.0000
# 6 0.0000 0.0000 0.0000 0.0000 0.0000 8.1851
#
#
#
# Elastic Compliance Matrix: (Units=1/GPa)
#
#
# Indices 1 2 3 4 5 6 
#
# 1 0.024449 -0.004813 0.007782 0.000000 0.000000 0.000000
# 2 -0.004813 0.006611 -0.003274 0.000000 0.000000 0.000000
# 3 0.007782 -0.003274 0.018590 0.000000 0.000000 0.000000
# 4 0.000000 0.000000 0.000000 -0.014094 0.000000 0.000000
# 5 0.000000 0.000000 0.000000 0.000000 0.088928 0.000000
# 6 0.000000 0.000000 0.000000 0.000000 0.000000 0.122173
#
#
# Mechanical properties :
#
#
# Convention : Reuss Voigt Hill
#
# Bulk Modulus (GPa) = 20.39124 40.50739 30.44932
# Shear Modulus (GPa) = 18.96716 7.42659 13.19687
#
# Velocity S-wave (km/s) = 3.07550 1.92446 2.56537
# Velocity P-wave (km/s) = 4.77290 5.01385 4.89486
#
# Compressibility (1/GPa) = 0.04904066
#
# Stress axis : x y z
#
# Youngs Moduli (GPa) = 40.90197 151.25325 53.79214
#
# Poissons Ratio (x) = 0.72793 -0.41863
# Poissons Ratio (y) = 0.19685 0.17614
# Poissons Ratio (z) = -0.31831 0.49528
#
# Static dielectric constant tensor:
#      x y z
#    x 1.670300 0.000000 0.000000 
#    y 0.000000 1.748520 0.000000 
#    z 0.000000 0.000000 1.820760 
# 
# From -- ./inp_files/10940.got.cif
#   From: 2010.05.17/outbox.cif.g08.bks.cpg/sg52_6_cif.got.tgz:10940.got - 2010.06.03 12:15:38.
