data_PCOD9408243
_publ_section_title
;
Structure prediction by ZEFSAII (Michael W. Deem and Ramdas Pophale) SiO2 
 PCOD9408243
Probable space group: P N N A
;
_chemical_formula_sum "Si O2"
_cell_formula_units_Z 40
_cell_length_a 5.486603
_cell_length_b 17.215608
_cell_length_c 16.348259
_cell_angle_alpha 90.000000
_cell_angle_beta 90.000000
_cell_angle_gamma 90.000000
_cell_volume 1544.178180
_symmetry_space_group_name_H-M "P N N A"
_symmetry_group_IT_number 52
_symmetry_cell_setting 'orthorhombic'
loop_
_space_group_symop_operation_xyz
x,y,z
1/2-x,-y,z
x,1/2-y,1/2-z
1/2-x,1/2+y,1/2-z
-x,-y,-z
1/2+x,y,-z
-x,1/2+y,1/2+z
1/2+x,1/2-y,1/2+z
loop_
_atom_site_type_symbol
_atom_site_label
_atom_site_fract_x
_atom_site_fract_y
_atom_site_fract_z
Si Si1 0.537787 0.558744 0.817704
Si Si2 0.991541 0.023366 0.143666
Si Si3 0.439285 0.230928 0.345608
Si Si4 0.451515 0.292628 0.660927
Si Si5 0.742822 0.909896 0.465251
O O1 0.750000 0.500000 0.845517
O O2 0.490000 0.531475 0.725880
O O3 0.648568 0.642559 0.835293
O O4 0.287941 0.577536 0.868298
O O5 0.959082 0.113848 0.167460
O O6 0.250000 0.000000 0.105853
O O7 0.750000 0.000000 0.095444
O O8 0.474107 0.250000 0.250000
O O9 0.704613 0.257125 0.379536
O O10 0.208443 0.274394 0.382529
O O11 0.467453 0.250000 0.750000
O O12 0.490455 0.875134 0.496234
O O13 0.750000 0.000000 0.492637
#
# Coordination Sequence:
#
# PCOD9408243 Si02
#       5
#     8   8   8   8   8
#     4  11  21  33  52  71  91 126 172 202 232 280
#     4  11  20  30  46  68  88 120 166 199 226 271
#     4  10  20  32  45  65  92 120 154 196 237 278
#     4  10  18  31  43  60  92 118 147 194 238 270
#     4  10  21  35  48  66  92 119 155 208 248 265
#
# _framework density 25.903745000000001
#
# number of rings (size 3 to 8) (size 9 to 14) (size 15 to 20)
#    0.000    1.600    0.000   10.800    0.000    4.800 
#    0.000    0.000    0.000    0.000    0.000    0.000 
#    0.000    0.000    0.000    0.000    0.000  208.000 
#
# Total GULP energy -222873.258611 kJ/mol
# GULP energy per Si atom -5571.831465 kJ/mol
# Density = 2.584479 g / cm^3
# Si number density = 25.903745 Si / 1000 Ang^3
#
#
#
# Elastic Constant Matrix: (Units=GPa)
#
#
# Indices 1 2 3 4 5 6 
#
# 1 255.5140 50.1059 5.2983 0.0000 0.0000 0.0000
# 2 50.1059 154.1980 -13.1505 0.0000 0.0000 0.0000
# 3 5.2983 -13.1505 43.9012 0.0000 0.0000 0.0000
# 4 0.0000 0.0000 0.0000 -0.6104 0.0000 0.0000
# 5 0.0000 0.0000 0.0000 0.0000 13.3408 0.0000
# 6 0.0000 0.0000 0.0000 0.0000 0.0000 -101.0618
#
#
#
# Elastic Compliance Matrix: (Units=1/GPa)
#
#
# Indices 1 2 3 4 5 6 
#
# 1 0.004218 -0.001451 -0.000944 0.000000 0.000000 0.000000
# 2 -0.001451 0.007154 0.002318 0.000000 0.000000 0.000000
# 3 -0.000944 0.002318 0.023587 0.000000 0.000000 0.000000
# 4 0.000000 0.000000 0.000000 -1.638298 0.000000 0.000000
# 5 0.000000 0.000000 0.000000 0.000000 0.074958 0.000000
# 6 0.000000 0.000000 0.000000 0.000000 0.000000 -0.009895
#
#
# Mechanical properties :
#
#
# Convention : Reuss Voigt Hill
#
# Bulk Modulus (GPa) = 28.73082 59.79119 44.26100
# Shear Modulus (GPa) = -3.27542 9.75769 3.24113
#
# Velocity S-wave (km/s) = -1.12570 1.94296 1.11979
# Velocity P-wave (km/s) = 3.07015 5.30713 4.33540
#
# Compressibility (1/GPa) = 0.03480583
#
# Stress axis : x y z
#
# Youngs Moduli (GPa) = 237.09078 139.77459 42.39676
#
# Poissons Ratio (x) = 0.20282 0.04001
# Poissons Ratio (y) = 0.34403 -0.09828
# Poissons Ratio (z) = 0.22374 -0.32402
#
# Static dielectric constant tensor:
#      x y z
#    x 3.590050 0.000000 0.000000 
#    y 0.000000 2.182890 0.000000 
#    z 0.000000 0.000000 1.619690 
# 
# From -- ./inp_files/38662.got.cif
#   From: 2010.05.17/outbox.cif.g08.bks.cpg/sg52_20_cif.got.tgz:38662.got - 2010.06.03 12:15:38.
