data_PCOD9408108
_publ_section_title
;
Structure prediction by ZEFSAII (Michael W. Deem and Ramdas Pophale) SiO2 
 PCOD9408108
Probable space group: P N N A
;
_chemical_formula_sum "Si O2"
_cell_formula_units_Z 32
_cell_length_a 9.862191
_cell_length_b 8.595663
_cell_length_c 16.713160
_cell_angle_alpha 90.000000
_cell_angle_beta 90.000000
_cell_angle_gamma 90.000000
_cell_volume 1416.809174
_symmetry_space_group_name_H-M "P N N A"
_symmetry_group_IT_number 52
_symmetry_cell_setting 'orthorhombic'
loop_
_space_group_symop_operation_xyz
x,y,z
1/2-x,-y,z
x,1/2-y,1/2-z
1/2-x,1/2+y,1/2-z
-x,-y,-z
1/2+x,y,-z
-x,1/2+y,1/2+z
1/2+x,1/2-y,1/2+z
loop_
_atom_site_type_symbol
_atom_site_label
_atom_site_fract_x
_atom_site_fract_y
_atom_site_fract_z
Si Si1 0.250000 0.000000 0.373908
Si Si2 0.889640 0.810852 0.098708
Si Si3 0.750000 0.000000 0.234736
Si Si4 0.636512 0.757696 0.994155
Si Si5 0.457102 0.450543 0.860107
O O1 0.203795 0.860810 0.431529
O O2 0.111679 0.045935 0.329538
O O3 0.849872 0.899568 0.179178
O O4 0.761424 0.831018 0.040939
O O5 0.913037 0.626216 0.114886
O O6 0.028885 0.859180 0.055218
O O7 0.849336 0.095592 0.293176
O O8 0.556368 0.658205 0.062068
#
# Coordination Sequence:
#
# PCOD9408108 Si02
#       5
#     4   8   4   8   8
#     4  10  17  34  62  95 106 146 218 272 294 343
#     4  11  22  37  62  88 124 158 214 254 317 378
#     4  12  25  38  56  91 132 172 188 260 344 385
#     4  11  18  37  65  92 111 157 213 267 296 371
#     4  11  20  36  64  91 117 158 214 265 312 369
#
# _framework density 22.585963
#
# number of rings (size 3 to 8) (size 9 to 14) (size 15 to 20)
#    0.000    1.000    7.500    2.250    0.000    1.000 
#    0.000    2.500   11.000    0.000    0.000    0.000 
#    0.000    0.000    0.000    0.000    0.000    0.000 
#
# Total GULP energy -178882.823368 kJ/mol
# GULP energy per Si atom -5590.088230 kJ/mol
# Density = 2.253456 g / cm^3
# Si number density = 22.585963 Si / 1000 Ang^3
#
#
#
# Elastic Constant Matrix: (Units=GPa)
#
#
# Indices 1 2 3 4 5 6 
#
# 1 203.5450 8.8900 54.6615 0.0000 0.0000 0.0000
# 2 8.8900 46.0537 7.9599 0.0000 0.0000 0.0000
# 3 54.6615 7.9599 88.2333 0.0000 0.0000 0.0000
# 4 0.0000 0.0000 0.0000 30.9176 0.0000 0.0000
# 5 0.0000 0.0000 0.0000 0.0000 30.4404 0.0000
# 6 0.0000 0.0000 0.0000 0.0000 0.0000 11.2347
#
#
#
# Elastic Compliance Matrix: (Units=1/GPa)
#
#
# Indices 1 2 3 4 5 6 
#
# 1 0.005905 -0.000516 -0.003612 0.000000 0.000000 0.000000
# 2 -0.000516 0.022103 -0.001675 0.000000 0.000000 0.000000
# 3 -0.003612 -0.001675 0.013722 0.000000 0.000000 0.000000
# 4 0.000000 0.000000 0.000000 0.032344 0.000000 0.000000
# 5 0.000000 0.000000 0.000000 0.000000 0.032851 0.000000
# 6 0.000000 0.000000 0.000000 0.000000 0.000000 0.089010
#
#
# Mechanical properties :
#
#
# Convention : Reuss Voigt Hill
#
# Bulk Modulus (GPa) = 33.19372 53.42830 43.31101
# Shear Modulus (GPa) = 22.97989 32.27326 27.62657
#
# Velocity S-wave (km/s) = 3.19320 3.78419 3.50119
# Velocity P-wave (km/s) = 5.32202 6.54220 5.96340
#
# Compressibility (1/GPa) = 0.03012618
#
# Stress axis : x y z
#
# Youngs Moduli (GPa) = 169.33596 45.24327 72.87408
#
# Poissons Ratio (x) = 0.02333 0.26322
# Poissons Ratio (y) = 0.08732 0.12203
# Poissons Ratio (z) = 0.61163 0.07576
#
# Static dielectric constant tensor:
#      x y z
#    x 1.872310 0.000000 0.000000 
#    y 0.000000 1.953880 0.000000 
#    z 0.000000 0.000000 1.837380 
# 
# From -- ./inp_files/25545.got.cif
#   From: 2010.05.17/outbox.cif.g08.bks.cpg/sg52_13_cif.got.tgz:25545.got - 2010.06.03 12:15:38.
