data_PCOD9408840
_publ_section_title
;
Structure prediction by ZEFSAII (Michael W. Deem and Ramdas Pophale) SiO2 
 PCOD9408840
Probable space group: P N N A
;
_chemical_formula_sum "Si O2"
_cell_formula_units_Z 36
_cell_length_a 8.525606
_cell_length_b 12.451504
_cell_length_c 19.318945
_cell_angle_alpha 90.000000
_cell_angle_beta 90.000000
_cell_angle_gamma 90.000000
_cell_volume 2050.833849
_symmetry_space_group_name_H-M "P N N A"
_symmetry_group_IT_number 52
_symmetry_cell_setting 'orthorhombic'
loop_
_space_group_symop_operation_xyz
x,y,z
1/2-x,-y,z
x,1/2-y,1/2-z
1/2-x,1/2+y,1/2-z
-x,-y,-z
1/2+x,y,-z
-x,1/2+y,1/2+z
1/2+x,1/2-y,1/2+z
loop_
_atom_site_type_symbol
_atom_site_label
_atom_site_fract_x
_atom_site_fract_y
_atom_site_fract_z
Si Si1 0.734804 0.800626 0.105879
Si Si2 0.750000 0.500000 0.292518
Si Si3 0.934927 0.848780 0.301298
Si Si4 0.339196 0.388494 0.075040
Si Si5 0.559802 0.261646 0.983714
O O1 0.790785 0.697641 0.151501
O O2 0.573812 0.786914 0.064467
O O3 0.715852 0.899853 0.157466
O O4 0.872597 0.809316 0.047571
O O5 0.883397 0.547676 0.242283
O O6 0.973016 0.750000 0.250000
O O7 0.077818 0.875878 0.351398
O O8 0.250000 0.500000 0.067443
O O9 0.208979 0.297930 0.060406
O O10 0.475838 0.364604 0.019305
#
# Coordination Sequence:
#
# PCOD9408840 Si02
#       5
#     8   4   8   8   8
#     4   9  19  36  58  78 107 139 175 226 263 314
#     4  10  20  36  58  74 106 152 184 198 268 328
#     4   9  20  37  51  74 110 141 175 217 257 314
#     4  10  19  33  54  79 105 135 175 218 268 314
#     4   9  19  35  54  81 107 131 171 231 271 300
#
# _framework density 17.553834999999999
#
# number of rings (size 3 to 8) (size 9 to 14) (size 15 to 20)
#    0.000    2.667    0.000    0.667    3.111    0.889 
#    8.000    0.000    0.000    0.000    0.000    0.000 
#    0.000    0.000    0.000    0.000    0.000    0.000 
#
# Total GULP energy -200446.766436 kJ/mol
# GULP energy per Si atom -5567.965734 kJ/mol
# Density = 1.751388 g / cm^3
# Si number density = 17.553835 Si / 1000 Ang^3
#
#
#
# Elastic Constant Matrix: (Units=GPa)
#
#
# Indices 1 2 3 4 5 6 
#
# 1 99.6854 38.0872 67.8920 0.0000 0.0000 0.0000
# 2 38.0872 61.9685 42.6793 0.0000 0.0000 0.0000
# 3 67.8920 42.6793 122.3746 0.0000 0.0000 0.0000
# 4 0.0000 0.0000 0.0000 15.0933 0.0000 0.0000
# 5 0.0000 0.0000 0.0000 0.0000 32.1386 0.0000
# 6 0.0000 0.0000 0.0000 0.0000 0.0000 8.5801
#
#
#
# Elastic Compliance Matrix: (Units=1/GPa)
#
#
# Indices 1 2 3 4 5 6 
#
# 1 0.017358 -0.005312 -0.007777 0.000000 0.000000 0.000000
# 2 -0.005312 0.022864 -0.005027 0.000000 0.000000 0.000000
# 3 -0.007777 -0.005027 0.014240 0.000000 0.000000 0.000000
# 4 0.000000 0.000000 0.000000 0.066255 0.000000 0.000000
# 5 0.000000 0.000000 0.000000 0.000000 0.031115 0.000000
# 6 0.000000 0.000000 0.000000 0.000000 0.000000 0.116548
#
#
# Mechanical properties :
#
#
# Convention : Reuss Voigt Hill
#
# Bulk Modulus (GPa) = 54.85775 64.59394 59.72584
# Shear Modulus (GPa) = 16.09321 20.18706 18.14014
#
# Velocity S-wave (km/s) = 3.03114 3.39486 3.21814
# Velocity P-wave (km/s) = 6.60071 7.22802 6.92148
#
# Compressibility (1/GPa) = 0.01822897
#
# Stress axis : x y z
#
# Youngs Moduli (GPa) = 57.61003 43.73599 70.22631
#
# Poissons Ratio (x) = 0.23233 0.54618
# Poissons Ratio (y) = 0.30603 0.35303
# Poissons Ratio (z) = 0.44806 0.21986
#
# Static dielectric constant tensor:
#      x y z
#    x 1.583880 0.000000 0.000000 
#    y 0.000000 1.592740 0.000000 
#    z 0.000000 0.000000 1.619410 
# 
# From -- ./inp_files/30891.got.cif
#   From: 2010.05.17/outbox.cif.g08.bks.cpg/sg52_16_cif.got.tgz:30891.got - 2010.06.03 12:15:38.
