data_PCOD9408438
_publ_section_title
;
Structure prediction by ZEFSAII (Michael W. Deem and Ramdas Pophale) SiO2 
 PCOD9408438
Probable space group: P N N A
;
_chemical_formula_sum "Si O2"
_cell_formula_units_Z 56
_cell_length_a 15.853571
_cell_length_b 19.226321
_cell_length_c 9.079022
_cell_angle_alpha 90.000000
_cell_angle_beta 90.000000
_cell_angle_gamma 90.000000
_cell_volume 2767.338973
_symmetry_space_group_name_H-M "P N N A"
_symmetry_group_IT_number 52
_symmetry_cell_setting 'orthorhombic'
loop_
_space_group_symop_operation_xyz
x,y,z
1/2-x,-y,z
x,1/2-y,1/2-z
1/2-x,1/2+y,1/2-z
-x,-y,-z
1/2+x,y,-z
-x,1/2+y,1/2+z
1/2+x,1/2-y,1/2+z
loop_
_atom_site_type_symbol
_atom_site_label
_atom_site_fract_x
_atom_site_fract_y
_atom_site_fract_z
Si Si1 0.609359 0.950773 0.011494
Si Si2 0.460715 0.650738 0.933838
Si Si3 0.318954 0.250000 0.750000
Si Si4 0.585908 0.750000 0.750000
Si Si5 0.439369 0.585306 0.645844
Si Si6 0.098075 0.291142 0.435367
Si Si7 0.220732 0.674679 0.455916
Si Si8 0.459395 0.140929 0.725447
O O1 0.572229 0.916235 0.160610
O O2 0.617917 0.030860 0.055583
O O3 0.535300 0.939711 0.890046
O O4 0.690418 0.904865 0.972223
O O5 0.529636 0.694415 0.839139
O O6 0.421946 0.596849 0.817824
O O7 0.405003 0.712056 0.007639
O O8 0.501961 0.613843 0.074489
O O9 0.271658 0.287993 0.616362
O O10 0.381531 0.191159 0.686455
O O11 0.645257 0.711358 0.632350
O O12 0.424480 0.660114 0.573413
O O13 0.190043 0.312969 0.379844
O O14 0.027664 0.314167 0.317722
#
# Coordination Sequence:
#
# PCOD9408438 Si02
#       8
#     8   8   4   4   8   8   8   8
#     4   9  20  40  56  82 111 156 202 230 283 343
#     4  12  19  35  58  86 115 150 192 246 285 348
#     4  10  18  34  54  78 112 152 180 234 290 338
#     4  12  20  36  56  86 112 150 194 234 288 340
#     4  10  20  36  61  80 111 155 203 236 268 357
#     4  11  22  35  56  89 119 150 186 244 306 339
#     4  11  23  34  56  87 118 149 189 243 297 350
#     4  10  19  36  57  80 117 150 186 239 293 346
#
# _framework density 20.236046999999999
#
# number of rings (size 3 to 8) (size 9 to 14) (size 15 to 20)
#    0.000    1.429    5.714    0.857    4.000    1.143 
#    0.000    0.000    0.000    0.000    0.000    0.000 
#    0.000    0.000    0.000    0.000    0.000    0.000 
#
# Total GULP energy -312471.321695 kJ/mol
# GULP energy per Si atom -5579.845030 kJ/mol
# Density = 2.018999 g / cm^3
# Si number density = 20.236047 Si / 1000 Ang^3
#
#
#
# Elastic Constant Matrix: (Units=GPa)
#
#
# Indices 1 2 3 4 5 6 
#
# 1 62.4721 2.5201 -5.1907 0.0000 0.0000 0.0000
# 2 2.5201 48.5835 9.1355 0.0000 0.0000 0.0000
# 3 -5.1907 9.1355 73.9146 0.0000 0.0000 0.0000
# 4 0.0000 0.0000 0.0000 27.5944 0.0000 0.0000
# 5 0.0000 0.0000 0.0000 0.0000 7.0082 0.0000
# 6 0.0000 0.0000 0.0000 0.0000 0.0000 4.9405
#
#
#
# Elastic Compliance Matrix: (Units=1/GPa)
#
#
# Indices 1 2 3 4 5 6 
#
# 1 0.016156 -0.001076 0.001268 0.000000 0.000000 0.000000
# 2 -0.001076 0.021145 -0.002689 0.000000 0.000000 0.000000
# 3 0.001268 -0.002689 0.013950 0.000000 0.000000 0.000000
# 4 0.000000 0.000000 0.000000 0.036239 0.000000 0.000000
# 5 0.000000 0.000000 0.000000 0.000000 0.142691 0.000000
# 6 0.000000 0.000000 0.000000 0.000000 0.000000 0.202410
#
#
# Mechanical properties :
#
#
# Convention : Reuss Voigt Hill
#
# Bulk Modulus (GPa) = 21.61909 21.98891 21.80400
# Shear Modulus (GPa) = 11.03740 19.80895 15.42318
#
# Velocity S-wave (km/s) = 2.33798 3.13212 2.76373
# Velocity P-wave (km/s) = 4.24204 4.89592 4.58066
#
# Compressibility (1/GPa) = 0.04625541
#
# Stress axis : x y z
#
# Youngs Moduli (GPa) = 61.89691 47.29343 71.68211
#
# Poissons Ratio (x) = 0.05091 -0.09086
# Poissons Ratio (y) = 0.06663 0.19275
# Poissons Ratio (z) = -0.07846 0.12717
#
# Static dielectric constant tensor:
#      x y z
#    x 1.748420 0.000000 0.000000 
#    y 0.000000 1.766650 0.000000 
#    z 0.000000 0.000000 1.739900 
# 
# From -- ./inp_files/12551.got.cif
#   From: 2010.05.17/outbox.cif.g08.bks.cpg/sg52_7_cif.got.tgz:12551.got - 2010.06.03 12:15:38.
