data_PCOD9408021
_publ_section_title
;
Structure prediction by ZEFSAII (Michael W. Deem and Ramdas Pophale) SiO2 
 PCOD9408021
Probable space group: P N N A
;
_chemical_formula_sum "Si O2"
_cell_formula_units_Z 56
_cell_length_a 5.512509
_cell_length_b 16.467585
_cell_length_c 24.801036
_cell_angle_alpha 90.000000
_cell_angle_beta 90.000000
_cell_angle_gamma 90.000000
_cell_volume 2251.381267
_symmetry_space_group_name_H-M "P N N A"
_symmetry_group_IT_number 52
_symmetry_cell_setting 'orthorhombic'
loop_
_space_group_symop_operation_xyz
x,y,z
1/2-x,-y,z
x,1/2-y,1/2-z
1/2-x,1/2+y,1/2-z
-x,-y,-z
1/2+x,y,-z
-x,1/2+y,1/2+z
1/2+x,1/2-y,1/2+z
loop_
_atom_site_type_symbol
_atom_site_label
_atom_site_fract_x
_atom_site_fract_y
_atom_site_fract_z
Si Si1 0.250000 0.000000 0.626631
Si Si2 0.850748 0.852470 0.019530
Si Si3 0.763502 0.094246 0.135216
Si Si4 0.231856 0.175963 0.646569
Si Si5 0.733912 0.168986 0.685878
Si Si6 0.637816 0.165494 0.480171
Si Si7 0.736808 0.594675 0.699459
Si Si8 0.250000 0.500000 0.117997
O O1 0.256066 0.919853 0.663519
O O2 0.490057 0.002319 0.591030
O O3 0.782593 0.852888 0.082248
O O4 0.882641 0.759413 0.999537
O O5 0.616979 0.890278 0.989731
O O6 0.531580 0.105523 0.174334
O O7 0.030927 0.106044 0.160251
O O8 0.750000 0.000000 0.117585
O O9 0.487551 0.210686 0.665447
O O10 0.204668 0.169661 0.582554
O O11 0.986002 0.211727 0.670449
O O12 0.727231 0.150303 0.748567
O O13 0.747810 0.082589 0.653494
O O14 0.370321 0.129815 0.489285
O O15 0.750000 0.500000 0.716926
#
# Coordination Sequence:
#
# PCOD9408021 Si02
#       8
#     4   8   8   8   8   8   8   4
#     4   8  16  26  42  69  96 124 158 207 254 290
#     4  10  21  38  60  79 100 138 180 215 258 317
#     4  10  21  34  53  83 113 137 165 214 268 306
#     4  10  19  31  51  76 103 134 179 220 256 304
#     4  10  17  29  49  74 105 138 176 211 246 302
#     4  10  21  38  57  76  99 134 181 224 265 314
#     4  10  19  32  51  79 115 145 171 206 255 312
#     4   8  14  24  40  65  94 126 162 205 232 280
#
# _framework density 24.873621
#
# number of rings (size 3 to 8) (size 9 to 14) (size 15 to 20)
#    0.000    2.286    0.714    2.571    0.000    0.571 
#    0.000    0.714    0.000    5.143    0.000    0.000 
#    0.000    0.000    0.000    0.000    0.000    0.000 
#
# Total GULP energy -312869.237188 kJ/mol
# GULP energy per Si atom -5586.950664 kJ/mol
# Density = 2.481701 g / cm^3
# Si number density = 24.873621 Si / 1000 Ang^3
#
#
#
# Elastic Constant Matrix: (Units=GPa)
#
#
# Indices 1 2 3 4 5 6 
#
# 1 232.4166 -13.5645 5.9468 0.0000 0.0000 0.0000
# 2 -13.5645 80.6540 -24.4116 0.0000 0.0000 0.0000
# 3 5.9468 -24.4116 58.1044 0.0000 0.0000 0.0000
# 4 0.0000 0.0000 0.0000 20.2507 0.0000 0.0000
# 5 0.0000 0.0000 0.0000 0.0000 37.7113 0.0000
# 6 0.0000 0.0000 0.0000 0.0000 0.0000 -18.6216
#
#
#
# Elastic Compliance Matrix: (Units=1/GPa)
#
#
# Indices 1 2 3 4 5 6 
#
# 1 0.004347 0.000683 -0.000158 0.000000 0.000000 0.000000
# 2 0.000683 0.014312 0.005943 0.000000 0.000000 0.000000
# 3 -0.000158 0.005943 0.019723 0.000000 0.000000 0.000000
# 4 0.000000 0.000000 0.000000 0.049381 0.000000 0.000000
# 5 0.000000 0.000000 0.000000 0.000000 0.026517 0.000000
# 6 0.000000 0.000000 0.000000 0.000000 0.000000 -0.053701
#
#
# Mechanical properties :
#
#
# Convention : Reuss Voigt Hill
#
# Bulk Modulus (GPa) = 19.48572 34.12406 26.80489
# Shear Modulus (GPa) = 77.22143 34.74837 55.98490
#
# Velocity S-wave (km/s) = 5.57789 3.74170 4.74938
# Velocity P-wave (km/s) = 7.02387 5.69349 6.39338
#
# Compressibility (1/GPa) = 0.05131963
#
# Stress axis : x y z
#
# Youngs Moduli (GPa) = 230.06849 69.86963 50.70099
#
# Poissons Ratio (x) = -0.04774 0.00800
# Poissons Ratio (y) = -0.15719 -0.30133
# Poissons Ratio (z) = 0.03631 -0.41525
#
# Static dielectric constant tensor:
#      x y z
#    x 1.975320 0.000000 0.000000 
#    y 0.000000 2.035530 0.000000 
#    z 0.000000 0.000000 1.870240 
# 
# From -- ./inp_files/35266.got.cif
#   From: 2010.05.17/outbox.cif.g08.bks.cpg/sg52_18_cif.got.tgz:35266.got - 2010.06.03 12:15:38.
