data_PCOD9408246
_publ_section_title
;
Structure prediction by ZEFSAII (Michael W. Deem and Ramdas Pophale) SiO2 
 PCOD9408246
Probable space group: P N N A
;
_chemical_formula_sum "Si O2"
_cell_formula_units_Z 36
_cell_length_a 8.446750
_cell_length_b 10.645111
_cell_length_c 16.602571
_cell_angle_alpha 90.000000
_cell_angle_beta 90.000000
_cell_angle_gamma 90.000000
_cell_volume 1492.846592
_symmetry_space_group_name_H-M "P N N A"
_symmetry_group_IT_number 52
_symmetry_cell_setting 'orthorhombic'
loop_
_space_group_symop_operation_xyz
x,y,z
1/2-x,-y,z
x,1/2-y,1/2-z
1/2-x,1/2+y,1/2-z
-x,-y,-z
1/2+x,y,-z
-x,1/2+y,1/2+z
1/2+x,1/2-y,1/2+z
loop_
_atom_site_type_symbol
_atom_site_label
_atom_site_fract_x
_atom_site_fract_y
_atom_site_fract_z
Si Si1 0.870078 0.680138 0.105749
Si Si2 0.639855 0.750000 0.250000
Si Si3 0.531959 0.162504 0.883352
Si Si4 0.432967 0.960825 0.411295
Si Si5 0.168896 0.690158 0.474638
O O1 0.759045 0.724577 0.176915
O O2 0.761724 0.698045 0.024633
O O3 0.943023 0.548870 0.135260
O O4 0.024775 0.760300 0.079767
O O5 0.525177 0.854465 0.207731
O O6 0.541892 0.315932 0.890420
O O7 0.407797 0.114989 0.950707
O O8 0.703143 0.127670 0.916899
O O9 0.250000 0.000000 0.398878
O O10 0.500000 0.000000 0.500000
#
# Coordination Sequence:
#
# PCOD9408246 Si02
#       5
#     8   4   8   8   8
#     4  10  18  31  45  74 100 132 168 202 253 299
#     4  10  24  30  40  64 110 150 162 198 250 304
#     4  10  18  31  45  74 100 132 168 202 253 299
#     4  12  18  28  52  78  98 130 169 212 245 299
#     4   9  16  28  50  66  95 129 163 206 229 303
#
# _framework density 24.115003000000002
#
# number of rings (size 3 to 8) (size 9 to 14) (size 15 to 20)
#    0.000    1.778    6.667    0.000    3.111    0.889 
#    0.000    0.000    0.000    0.000    0.000    0.000 
#    0.000  113.778    0.000    0.000    0.000    0.000 
#
# Total GULP energy -200523.178489 kJ/mol
# GULP energy per Si atom -5570.088291 kJ/mol
# Density = 2.406012 g / cm^3
# Si number density = 24.115003 Si / 1000 Ang^3
#
#
#
# Elastic Constant Matrix: (Units=GPa)
#
#
# Indices 1 2 3 4 5 6 
#
# 1 192.9313 19.0282 63.9089 0.0000 0.0000 0.0000
# 2 19.0282 49.2562 8.8434 0.0000 0.0000 0.0000
# 3 63.9089 8.8434 152.3715 0.0000 0.0000 0.0000
# 4 0.0000 0.0000 0.0000 11.0568 0.0000 0.0000
# 5 0.0000 0.0000 0.0000 0.0000 -15.4708 0.0000
# 6 0.0000 0.0000 0.0000 0.0000 0.0000 9.8878
#
#
#
# Elastic Compliance Matrix: (Units=1/GPa)
#
#
# Indices 1 2 3 4 5 6 
#
# 1 0.006199 -0.001948 -0.002487 0.000000 0.000000 0.000000
# 2 -0.001948 0.021128 -0.000409 0.000000 0.000000 0.000000
# 3 -0.002487 -0.000409 0.007630 0.000000 0.000000 0.000000
# 4 0.000000 0.000000 0.000000 0.090442 0.000000 0.000000
# 5 0.000000 0.000000 0.000000 0.000000 -0.064638 0.000000
# 6 0.000000 0.000000 0.000000 0.000000 0.000000 0.101135
#
#
# Mechanical properties :
#
#
# Convention : Reuss Voigt Hill
#
# Bulk Modulus (GPa) = 39.57531 64.23555 51.90543
# Shear Modulus (GPa) = 27.77657 21.27998 24.52828
#
# Velocity S-wave (km/s) = 3.39756 2.97381 3.19272
# Velocity P-wave (km/s) = 5.64251 6.20374 5.92977
#
# Compressibility (1/GPa) = 0.02526828
#
# Stress axis : x y z
#
# Youngs Moduli (GPa) = 161.31154 47.33030 131.06533
#
# Poissons Ratio (x) = 0.09221 0.32596
# Poissons Ratio (y) = 0.31428 0.05361
# Poissons Ratio (z) = 0.40119 0.01936
#
# Static dielectric constant tensor:
#      x y z
#    x 1.988090 0.000000 0.000000 
#    y 0.000000 2.194970 0.000000 
#    z 0.000000 0.000000 2.036480 
# 
# From -- ./inp_files/31035.got.cif
#   From: 2010.05.17/outbox.cif.g08.bks.cpg/sg52_16_cif.got.tgz:31035.got - 2010.06.03 12:15:38.
