data_PCOD9408384
_publ_section_title
;
Structure prediction by ZEFSAII (Michael W. Deem and Ramdas Pophale) SiO2 
 PCOD9408384
Probable space group: P N N A
;
_chemical_formula_sum "Si O2"
_cell_formula_units_Z 64
_cell_length_a 23.049137
_cell_length_b 17.973410
_cell_length_c 8.900858
_cell_angle_alpha 90.000000
_cell_angle_beta 90.000000
_cell_angle_gamma 90.000000
_cell_volume 3687.372591
_symmetry_space_group_name_H-M "P N N A"
_symmetry_group_IT_number 52
_symmetry_cell_setting 'orthorhombic'
loop_
_space_group_symop_operation_xyz
x,y,z
1/2-x,-y,z
x,1/2-y,1/2-z
1/2-x,1/2+y,1/2-z
-x,-y,-z
1/2+x,y,-z
-x,1/2+y,1/2+z
1/2+x,1/2-y,1/2+z
loop_
_atom_site_type_symbol
_atom_site_label
_atom_site_fract_x
_atom_site_fract_y
_atom_site_fract_z
Si Si1 0.593270 0.774505 0.581658
Si Si2 0.230894 0.775156 0.415362
Si Si3 0.791914 0.677159 0.354879
Si Si4 0.424067 0.675758 0.645741
Si Si5 0.484604 0.187575 0.876599
Si Si6 0.972641 0.097494 0.402369
Si Si7 0.718134 0.420772 0.076701
Si Si8 0.579902 0.065841 0.416708
O O1 0.575411 0.750000 0.750000
O O2 0.661828 0.786137 0.581108
O O3 0.573084 0.711553 0.465262
O O4 0.561021 0.846259 0.513561
O O5 0.249202 0.750000 0.250000
O O6 0.248298 0.705207 0.519373
O O7 0.259376 0.852317 0.473212
O O8 0.796064 0.750000 0.250000
O O9 0.857729 0.666694 0.410371
O O10 0.773128 0.609392 0.247948
O O11 0.428599 0.750000 0.750000
O O12 0.466863 0.679902 0.504554
O O13 0.434605 0.607974 0.760977
O O14 0.499411 0.250000 0.750000
O O15 0.471617 0.118001 0.772259
O O16 0.039438 0.101464 0.455386
O O17 0.942231 0.018281 0.416163
O O18 0.750000 0.500000 0.052490
O O19 0.648618 0.428207 0.056962
#
# Coordination Sequence:
#
# PCOD9408384 Si02
#       8
#     8   8   8   8   8   8   8   8
#     4  10  20  35  54  77 106 140 170 208 263 312
#     4  10  21  35  54  80 108 137 173 219 267 310
#     4   8  18  33  52  76 102 135 174 216 256 305
#     4  10  18  33  53  75 104 136 171 210 258 310
#     4  10  20  31  52  80 102 133 175 215 253 302
#     4  10  21  35  52  78 106 133 174 218 255 309
#     4  10  20  36  58  78 102 142 182 214 257 314
#     4  10  21  36  53  75 106 140 170 213 268 306
#
# _framework density 17.356532000000001
#
# number of rings (size 3 to 8) (size 9 to 14) (size 15 to 20)
#    0.000    2.250    0.000    4.125    0.000    7.500 
#    0.000    0.625    0.000    4.500    0.000    0.000 
#    0.000    0.000    0.000    0.000    0.000    0.000 
#
# Total GULP energy -356491.287580 kJ/mol
# GULP energy per Si atom -5570.176368 kJ/mol
# Density = 1.731703 g / cm^3
# Si number density = 17.356532 Si / 1000 Ang^3
#
#
#
# Elastic Constant Matrix: (Units=GPa)
#
#
# Indices 1 2 3 4 5 6 
#
# 1 80.6717 43.2911 55.0235 0.0000 0.0000 0.0000
# 2 43.2911 73.3872 49.5921 0.0000 0.0000 0.0000
# 3 55.0235 49.5921 109.6918 0.0000 0.0000 0.0000
# 4 0.0000 0.0000 0.0000 19.0285 0.0000 0.0000
# 5 0.0000 0.0000 0.0000 0.0000 12.3467 0.0000
# 6 0.0000 0.0000 0.0000 0.0000 0.0000 44.4113
#
#
#
# Elastic Compliance Matrix: (Units=1/GPa)
#
#
# Indices 1 2 3 4 5 6 
#
# 1 0.021544 -0.007784 -0.007288 0.000000 0.000000 0.000000
# 2 -0.007784 0.022433 -0.006238 0.000000 0.000000 0.000000
# 3 -0.007288 -0.006238 0.015592 0.000000 0.000000 0.000000
# 4 0.000000 0.000000 0.000000 0.052553 0.000000 0.000000
# 5 0.000000 0.000000 0.000000 0.000000 0.080993 0.000000
# 6 0.000000 0.000000 0.000000 0.000000 0.000000 0.022517
#
#
# Mechanical properties :
#
#
# Convention : Reuss Voigt Hill
#
# Bulk Modulus (GPa) = 58.99438 62.17380 60.58409
# Shear Modulus (GPa) = 18.94654 22.88021 20.91338
#
# Velocity S-wave (km/s) = 3.30753 3.63471 3.47497
# Velocity P-wave (km/s) = 6.97495 7.31533 7.14717
#
# Compressibility (1/GPa) = 0.01695077
#
# Stress axis : x y z
#
# Youngs Moduli (GPa) = 46.41738 44.57673 64.13531
#
# Poissons Ratio (x) = 0.34698 0.46739
# Poissons Ratio (y) = 0.36131 0.40005
# Poissons Ratio (z) = 0.33827 0.27805
#
# Static dielectric constant tensor:
#      x y z
#    x 1.594210 0.000000 0.000000 
#    y 0.000000 1.607400 0.000000 
#    z 0.000000 0.000000 1.597960 
# 
# From -- ./inp_files/13609.got.cif
#   From: 2010.05.17/outbox.cif.g08.bks.cpg/sg52_7_cif.got.tgz:13609.got - 2010.06.03 12:15:38.
