data_PCOD9408611
_publ_section_title
;
Structure prediction by ZEFSAII (Michael W. Deem and Ramdas Pophale) SiO2 
 PCOD9408611
Probable space group: P N N A
;
_chemical_formula_sum "Si O2"
_cell_formula_units_Z 32
_cell_length_a 15.253399
_cell_length_b 6.064701
_cell_length_c 18.644684
_cell_angle_alpha 90.000000
_cell_angle_beta 90.000000
_cell_angle_gamma 90.000000
_cell_volume 1724.769454
_symmetry_space_group_name_H-M "P N N A"
_symmetry_group_IT_number 52
_symmetry_cell_setting 'orthorhombic'
loop_
_space_group_symop_operation_xyz
x,y,z
1/2-x,-y,z
x,1/2-y,1/2-z
1/2-x,1/2+y,1/2-z
-x,-y,-z
1/2+x,y,-z
-x,1/2+y,1/2+z
1/2+x,1/2-y,1/2+z
loop_
_atom_site_type_symbol
_atom_site_label
_atom_site_fract_x
_atom_site_fract_y
_atom_site_fract_z
Si Si1 0.250000 0.500000 0.946501
Si Si2 0.963911 0.750000 0.250000
Si Si3 0.357649 0.349729 0.819581
Si Si4 0.573234 0.196816 0.501375
Si Si5 0.499864 0.984246 0.121616
O O1 0.296458 0.341717 0.888734
O O2 0.329813 0.601104 0.990688
O O3 0.900711 0.580742 0.205866
O O4 0.023738 0.866043 0.189709
O O5 0.310900 0.250000 0.750000
O O6 0.436952 0.192995 0.841535
O O7 0.549671 0.358481 0.435296
O O8 0.566179 0.342535 0.573291
O O9 0.500000 0.000000 0.500000
#
# Coordination Sequence:
#
# PCOD9408611 Si02
#       5
#     4   4   8   8   8
#     4  12  22  36  56  84 132 162 202 254 310 372
#     4  10  18  38  56  86 122 158 208 254 304 384
#     4  10  22  34  56  88 126 160 198 242 308 379
#     4  11  22  39  55  85 127 159 205 250 308 380
#     4  10  20  38  58  80 127 158 203 253 309 377
#
# _framework density 18.553204000000001
#
# number of rings (size 3 to 8) (size 9 to 14) (size 15 to 20)
#    0.000    1.500    5.000    0.000    1.750    1.000 
#    0.000    0.000    0.000    0.000    0.000    0.000 
#  168.750    0.000    0.000    0.000    0.000    0.000 
#
# Total GULP energy -178239.252438 kJ/mol
# GULP energy per Si atom -5569.976639 kJ/mol
# Density = 1.851098 g / cm^3
# Si number density = 18.553204 Si / 1000 Ang^3
#
#
#
# Elastic Constant Matrix: (Units=GPa)
#
#
# Indices 1 2 3 4 5 6 
#
# 1 94.5590 48.4709 65.2651 0.0000 0.0000 0.0000
# 2 48.4709 95.8332 51.4007 0.0000 0.0000 0.0000
# 3 65.2651 51.4007 136.0731 0.0000 0.0000 0.0000
# 4 0.0000 0.0000 0.0000 55.6117 0.0000 0.0000
# 5 0.0000 0.0000 0.0000 0.0000 64.7738 0.0000
# 6 0.0000 0.0000 0.0000 0.0000 0.0000 10.2736
#
#
#
# Elastic Compliance Matrix: (Units=1/GPa)
#
#
# Indices 1 2 3 4 5 6 
#
# 1 0.017911 -0.005582 -0.006482 0.000000 0.000000 0.000000
# 2 -0.005582 0.014826 -0.002923 0.000000 0.000000 0.000000
# 3 -0.006482 -0.002923 0.011562 0.000000 0.000000 0.000000
# 4 0.000000 0.000000 0.000000 0.017982 0.000000 0.000000
# 5 0.000000 0.000000 0.000000 0.000000 0.015438 0.000000
# 6 0.000000 0.000000 0.000000 0.000000 0.000000 0.097337
#
#
# Mechanical properties :
#
#
# Convention : Reuss Voigt Hill
#
# Bulk Modulus (GPa) = 69.81089 72.97098 71.39094
# Shear Modulus (GPa) = 23.83162 36.88705 30.35934
#
# Velocity S-wave (km/s) = 3.58788 4.46374 4.04956
# Velocity P-wave (km/s) = 7.40763 8.12297 7.77353
#
# Compressibility (1/GPa) = 0.01432441
#
# Stress axis : x y z
#
# Youngs Moduli (GPa) = 55.83241 67.44911 86.48995
#
# Poissons Ratio (x) = 0.37653 0.56062
# Poissons Ratio (y) = 0.31168 0.25280
# Poissons Ratio (z) = 0.36190 0.19715
#
# Static dielectric constant tensor:
#      x y z
#    x 1.648810 0.000000 0.000000 
#    y 0.000000 1.706280 0.000000 
#    z 0.000000 0.000000 1.683450 
# 
# From -- ./inp_files/32646.got.cif
#   From: 2010.05.17/outbox.cif.g08.bks.cpg/sg52_17_cif.got.tgz:32646.got - 2010.06.03 12:15:38.
