data_PCOD9408804
_publ_section_title
;
Structure prediction by ZEFSAII (Michael W. Deem and Ramdas Pophale) SiO2 
 PCOD9408804
Probable space group: P N N A
;
_chemical_formula_sum "Si O2"
_cell_formula_units_Z 60
_cell_length_a 27.302768
_cell_length_b 14.970203
_cell_length_c 8.205761
_cell_angle_alpha 90.000000
_cell_angle_beta 90.000000
_cell_angle_gamma 90.000000
_cell_volume 3353.924113
_symmetry_space_group_name_H-M "P N N A"
_symmetry_group_IT_number 52
_symmetry_cell_setting 'orthorhombic'
loop_
_space_group_symop_operation_xyz
x,y,z
1/2-x,-y,z
x,1/2-y,1/2-z
1/2-x,1/2+y,1/2-z
-x,-y,-z
1/2+x,y,-z
-x,1/2+y,1/2+z
1/2+x,1/2-y,1/2+z
loop_
_atom_site_type_symbol
_atom_site_label
_atom_site_fract_x
_atom_site_fract_y
_atom_site_fract_z
Si Si1 0.864627 0.939015 0.590915
Si Si2 0.298054 0.941493 0.734507
Si Si3 0.047957 0.553714 0.946646
Si Si4 0.312716 0.750000 0.750000
Si Si5 0.044141 0.937596 0.937995
Si Si6 0.513319 0.745009 0.939594
Si Si7 0.867271 0.955059 0.947803
Si Si8 0.398736 0.746374 0.488885
O O1 0.828318 0.945798 0.435485
O O2 0.842809 0.960956 0.769095
O O3 0.887402 0.838201 0.609132
O O4 0.907687 0.007957 0.543888
O O5 0.282002 0.838801 0.752382
O O6 0.250000 0.000000 0.731197
O O7 0.332290 0.959506 0.893252
O O8 0.053920 0.544036 0.752487
O O9 0.038097 0.657134 0.986207
O O10 0.000000 0.500000 0.000000
O O11 0.351533 0.751213 0.604654
O O12 0.029849 0.835193 0.970148
O O13 0.092359 0.968023 0.034165
O O14 0.000000 0.000000 0.000000
O O15 0.526541 0.750000 0.750000
O O16 0.454019 0.738507 0.949701
O O17 0.895679 0.859205 0.947750
#
# Coordination Sequence:
#
# PCOD9408804 Si02
#       8
#     8   8   8   4   8   8   8   8
#     4  11  22  39  61  89 124 161 202 254 307 365
#     4  10  22  42  66  90 118 154 206 260 318 364
#     4  12  24  37  54  84 123 167 205 243 300 365
#     4   8  18  36  60  90 116 146 198 254 318 352
#     4  12  24  37  54  84 123 167 205 243 300 365
#     4  12  23  35  55  83 120 167 214 246 295 359
#     4  11  22  39  61  89 124 161 202 254 307 365
#     4  10  19  32  58  88 121 158 196 256 302 348
#
# _framework density 17.889492000000001
#
# number of rings (size 3 to 8) (size 9 to 14) (size 15 to 20)
#    0.000    1.067    4.667    3.200    0.000    1.600 
#    0.000    1.333    0.000    0.000    0.000    0.000 
#    0.000    0.000    0.000    0.000    0.000    0.000 
#
# Total GULP energy -334225.014936 kJ/mol
# GULP energy per Si atom -5570.416916 kJ/mol
# Density = 1.784877 g / cm^3
# Si number density = 17.889492 Si / 1000 Ang^3
#
#
#
# Elastic Constant Matrix: (Units=GPa)
#
#
# Indices 1 2 3 4 5 6 
#
# 1 63.4526 35.6470 10.0677 0.0000 0.0000 0.0000
# 2 35.6470 86.3879 -21.7532 0.0000 0.0000 0.0000
# 3 10.0677 -21.7532 82.7901 0.0000 0.0000 0.0000
# 4 0.0000 0.0000 0.0000 5.6060 0.0000 0.0000
# 5 0.0000 0.0000 0.0000 0.0000 14.6959 0.0000
# 6 0.0000 0.0000 0.0000 0.0000 0.0000 36.5425
#
#
#
# Elastic Compliance Matrix: (Units=1/GPa)
#
#
# Indices 1 2 3 4 5 6 
#
# 1 0.022700 -0.010775 -0.005592 0.000000 0.000000 0.000000
# 2 -0.010775 0.017510 0.005911 0.000000 0.000000 0.000000
# 3 -0.005592 0.005911 0.014312 0.000000 0.000000 0.000000
# 4 0.000000 0.000000 0.000000 0.178379 0.000000 0.000000
# 5 0.000000 0.000000 0.000000 0.000000 0.068046 0.000000
# 6 0.000000 0.000000 0.000000 0.000000 0.000000 0.027365
#
#
# Mechanical properties :
#
#
# Convention : Reuss Voigt Hill
#
# Bulk Modulus (GPa) = 29.75169 31.17265 30.46217
# Shear Modulus (GPa) = 13.87238 25.28015 19.57626
#
# Velocity S-wave (km/s) = 2.78771 3.76324 3.31159
# Velocity P-wave (km/s) = 5.19891 6.02873 5.62913
#
# Compressibility (1/GPa) = 0.03361153
#
# Stress axis : x y z
#
# Youngs Moduli (GPa) = 44.05224 57.10897 69.87204
#
# Poissons Ratio (x) = 0.61535 0.39070
# Poissons Ratio (y) = 0.47467 -0.41303
# Poissons Ratio (z) = 0.24632 -0.33758
#
# Static dielectric constant tensor:
#      x y z
#    x 1.555990 0.000000 0.000000 
#    y 0.000000 1.680200 0.000000 
#    z 0.000000 0.000000 1.681000 
# 
# From -- ./inp_files/14447.got.cif
#   From: 2010.05.17/outbox.cif.g08.bks.cpg/sg52_8_cif.got.tgz:14447.got - 2010.06.03 12:15:38.
