data_PCOD9408985
_publ_section_title
;
Structure prediction by ZEFSAII (Michael W. Deem and Ramdas Pophale) SiO2 
 PCOD9408985
Probable space group: P N N A
;
_chemical_formula_sum "Si O2"
_cell_formula_units_Z 36
_cell_length_a 15.953568
_cell_length_b 11.338332
_cell_length_c 7.430049
_cell_angle_alpha 90.000000
_cell_angle_beta 90.000000
_cell_angle_gamma 90.000000
_cell_volume 1343.998163
_symmetry_space_group_name_H-M "P N N A"
_symmetry_group_IT_number 52
_symmetry_cell_setting 'orthorhombic'
loop_
_space_group_symop_operation_xyz
x,y,z
1/2-x,-y,z
x,1/2-y,1/2-z
1/2-x,1/2+y,1/2-z
-x,-y,-z
1/2+x,y,-z
-x,1/2+y,1/2+z
1/2+x,1/2-y,1/2+z
loop_
_atom_site_type_symbol
_atom_site_label
_atom_site_fract_x
_atom_site_fract_y
_atom_site_fract_z
Si Si1 0.233126 0.813488 0.550670
Si Si2 0.548352 0.842183 0.414765
Si Si3 0.444523 0.750000 0.750000
Si Si4 0.190944 0.092667 0.954611
Si Si5 0.379987 0.890612 0.307588
O O1 0.241126 0.750000 0.750000
O O2 0.245980 0.687935 0.452719
O O3 0.311858 0.884143 0.468074
O O4 0.143494 0.873056 0.535352
O O5 0.560680 0.750000 0.250000
O O6 0.503098 0.786329 0.586367
O O7 0.474874 0.929825 0.349477
O O8 0.383425 0.850614 0.836463
O O9 0.250000 0.000000 0.852735
O O10 0.149075 0.039425 0.132469
O O11 0.389601 0.750000 0.250000
#
# Coordination Sequence:
#
# PCOD9408985 Si02
#       5
#     8   8   4   8   8
#     4  10  19  36  66  90 117 164 211 255 311 379
#     4  10  19  34  65  90 116 161 207 255 315 372
#     4  12  20  40  66  88 124 172 200 268 314 370
#     4  11  22  39  64  94 128 169 213 259 319 385
#     4   9  17  36  56  84 121 160 202 249 313 358
#
# _framework density 26.785751999999999
#
# number of rings (size 3 to 8) (size 9 to 14) (size 15 to 20)
#    0.000    1.778    7.778    0.000    4.667    0.000 
#    0.000    5.556    0.000    4.000    0.000    0.000 
#    0.000    0.000    0.000    0.000    0.000    0.000 
#
# Total GULP energy -200647.637220 kJ/mol
# GULP energy per Si atom -5573.545478 kJ/mol
# Density = 2.672479 g / cm^3
# Si number density = 26.785752 Si / 1000 Ang^3
#
#
#
# Elastic Constant Matrix: (Units=GPa)
#
#
# Indices 1 2 3 4 5 6 
#
# 1 248.5630 44.5881 60.2455 0.0000 0.0000 0.0000
# 2 44.5881 89.1745 17.0319 0.0000 0.0000 0.0000
# 3 60.2455 17.0319 154.9082 0.0000 0.0000 0.0000
# 4 0.0000 0.0000 0.0000 13.4968 0.0000 0.0000
# 5 0.0000 0.0000 0.0000 0.0000 14.2182 0.0000
# 6 0.0000 0.0000 0.0000 0.0000 0.0000 26.7772
#
#
#
# Elastic Compliance Matrix: (Units=1/GPa)
#
#
# Indices 1 2 3 4 5 6 
#
# 1 0.004793 -0.002084 -0.001635 0.000000 0.000000 0.000000
# 2 -0.002084 0.012361 -0.000548 0.000000 0.000000 0.000000
# 3 -0.001635 -0.000548 0.007152 0.000000 0.000000 0.000000
# 4 0.000000 0.000000 0.000000 0.074092 0.000000 0.000000
# 5 0.000000 0.000000 0.000000 0.000000 0.070332 0.000000
# 6 0.000000 0.000000 0.000000 0.000000 0.000000 0.037345
#
#
# Mechanical properties :
#
#
# Convention : Reuss Voigt Hill
#
# Bulk Modulus (GPa) = 63.41075 81.81965 72.61520
# Shear Modulus (GPa) = 22.74098 35.61713 29.17905
#
# Velocity S-wave (km/s) = 2.91691 3.65047 3.30411
# Velocity P-wave (km/s) = 5.92193 6.95558 6.45946
#
# Compressibility (1/GPa) = 0.01577020
#
# Stress axis : x y z
#
# Youngs Moduli (GPa) = 208.62372 80.89998 139.82887
#
# Poissons Ratio (x) = 0.16863 0.22862
# Poissons Ratio (y) = 0.43486 0.07668
# Poissons Ratio (z) = 0.34110 0.04437
#
# Static dielectric constant tensor:
#      x y z
#    x 2.083910 0.000000 0.000000 
#    y 0.000000 2.472820 0.000000 
#    z 0.000000 0.000000 2.452400 
# 
# From -- ./inp_files/11780.got.cif
#   From: 2010.05.17/outbox.cif.g08.bks.cpg/sg52_6_cif.got.tgz:11780.got - 2010.06.03 12:15:38.
