data_PCOD9408319
_publ_section_title
;
Structure prediction by ZEFSAII (Michael W. Deem and Ramdas Pophale) SiO2 
 PCOD9408319
Probable space group: P N N A
;
_chemical_formula_sum "Si O2"
_cell_formula_units_Z 44
_cell_length_a 14.167108
_cell_length_b 12.188864
_cell_length_c 11.461078
_cell_angle_alpha 90.000000
_cell_angle_beta 90.000000
_cell_angle_gamma 90.000000
_cell_volume 1979.109868
_symmetry_space_group_name_H-M "P N N A"
_symmetry_group_IT_number 52
_symmetry_cell_setting 'orthorhombic'
loop_
_space_group_symop_operation_xyz
x,y,z
1/2-x,-y,z
x,1/2-y,1/2-z
1/2-x,1/2+y,1/2-z
-x,-y,-z
1/2+x,y,-z
-x,1/2+y,1/2+z
1/2+x,1/2-y,1/2+z
loop_
_atom_site_type_symbol
_atom_site_label
_atom_site_fract_x
_atom_site_fract_y
_atom_site_fract_z
Si Si1 0.600245 0.857301 0.533680
Si Si2 0.192547 0.750000 0.250000
Si Si3 0.990496 0.877630 0.792640
Si Si4 0.186866 0.821333 0.859548
Si Si5 0.820961 0.831013 0.939004
Si Si6 0.398497 0.591440 0.052726
O O1 0.630242 0.814289 0.658267
O O2 0.633302 0.767200 0.441460
O O3 0.488698 0.873272 0.522508
O O4 0.642240 0.977373 0.508476
O O5 0.255460 0.836393 0.176047
O O6 0.987783 0.750000 0.750000
O O7 0.921198 0.883595 0.904222
O O8 0.941571 0.934204 0.681779
O O9 0.100619 0.899920 0.817847
O O10 0.223714 0.750000 0.750000
O O11 0.268063 0.868085 0.944060
O O12 0.833699 0.698200 0.946988
#
# Coordination Sequence:
#
# PCOD9408319 Si02
#       6
#     8   4   8   8   8   8
#     4  10  20  33  59  86 110 141 190 236 276 326
#     4  10  20  32  50  86 112 138 184 238 272 326
#     4   9  15  33  52  77 107 143 178 220 279 332
#     4  10  18  32  52  82 110 147 174 224 274 336
#     4  10  18  33  54  81 107 144 184 224 277 329
#     4  10  18  35  58  87 105 142 191 236 276 321
#
# _framework density 22.232216999999999
#
# number of rings (size 3 to 8) (size 9 to 14) (size 15 to 20)
#    0.000    2.182    8.182    0.000    0.000    2.909 
#    1.636    0.000    0.000    4.364   23.636    0.000 
#    0.000    0.000    0.000    0.000    0.000    0.000 
#
# Total GULP energy -245478.081193 kJ/mol
# GULP energy per Si atom -5579.047300 kJ/mol
# Density = 2.218161 g / cm^3
# Si number density = 22.232217 Si / 1000 Ang^3
#
#
#
# Elastic Constant Matrix: (Units=GPa)
#
#
# Indices 1 2 3 4 5 6 
#
# 1 95.2004 -5.9415 49.0163 0.0000 0.0000 0.0000
# 2 -5.9415 37.3092 -10.5422 0.0000 0.0000 0.0000
# 3 49.0163 -10.5422 86.4530 0.0000 0.0000 0.0000
# 4 0.0000 0.0000 0.0000 11.7805 0.0000 0.0000
# 5 0.0000 0.0000 0.0000 0.0000 41.5068 0.0000
# 6 0.0000 0.0000 0.0000 0.0000 0.0000 9.3697
#
#
#
# Elastic Compliance Matrix: (Units=1/GPa)
#
#
# Indices 1 2 3 4 5 6 
#
# 1 0.014835 -0.000015 -0.008413 0.000000 0.000000 0.000000
# 2 -0.000015 0.027760 0.003393 0.000000 0.000000 0.000000
# 3 -0.008413 0.003393 0.016750 0.000000 0.000000 0.000000
# 4 0.000000 0.000000 0.000000 0.084886 0.000000 0.000000
# 5 0.000000 0.000000 0.000000 0.000000 0.024092 0.000000
# 6 0.000000 0.000000 0.000000 0.000000 0.000000 0.106727
#
#
# Mechanical properties :
#
#
# Convention : Reuss Voigt Hill
#
# Bulk Modulus (GPa) = 20.29349 31.55863 25.92606
# Shear Modulus (GPa) = 16.58131 24.96005 20.77068
#
# Velocity S-wave (km/s) = 2.73394 3.35430 3.05988
# Velocity P-wave (km/s) = 4.37192 5.40626 4.91637
#
# Compressibility (1/GPa) = 0.04927689
#
# Stress axis : x y z
#
# Youngs Moduli (GPa) = 67.40963 36.02363 59.69981
#
# Poissons Ratio (x) = 0.00053 0.50223
# Poissons Ratio (y) = 0.00099 -0.20258
# Poissons Ratio (z) = 0.56709 -0.12224
#
# Static dielectric constant tensor:
#      x y z
#    x 1.914420 0.000000 0.000000 
#    y 0.000000 1.873620 0.000000 
#    z 0.000000 0.000000 1.858530 
# 
# From -- ./inp_files/19453.got.cif
#   From: 2010.05.17/outbox.cif.g08.bks.cpg/sg52_10_cif.got.tgz:19453.got - 2010.06.03 12:15:38.
