data_PCOD9408145
_publ_section_title
;
Structure prediction by ZEFSAII (Michael W. Deem and Ramdas Pophale) SiO2 
 PCOD9408145
Probable space group: P N N A
;
_chemical_formula_sum "Si O2"
_cell_formula_units_Z 40
_cell_length_a 13.002833
_cell_length_b 5.555555
_cell_length_c 29.962497
_cell_angle_alpha 90.000000
_cell_angle_beta 90.000000
_cell_angle_gamma 90.000000
_cell_volume 2164.429477
_symmetry_space_group_name_H-M "P N N A"
_symmetry_group_IT_number 52
_symmetry_cell_setting 'orthorhombic'
loop_
_space_group_symop_operation_xyz
x,y,z
1/2-x,-y,z
x,1/2-y,1/2-z
1/2-x,1/2+y,1/2-z
-x,-y,-z
1/2+x,y,-z
-x,1/2+y,1/2+z
1/2+x,1/2-y,1/2+z
loop_
_atom_site_type_symbol
_atom_site_label
_atom_site_fract_x
_atom_site_fract_y
_atom_site_fract_z
Si Si1 0.131515 0.239142 0.487261
Si Si2 0.071247 0.742029 0.450027
Si Si3 0.142922 0.872584 0.792995
Si Si4 0.750000 0.500000 0.143120
Si Si5 0.086057 0.371349 0.620247
Si Si6 0.750000 0.000000 0.057493
O O1 0.127442 0.488460 0.459268
O O2 0.219723 0.283536 0.524114
O O3 0.025446 0.243803 0.515842
O O4 0.130710 0.992429 0.458983
O O5 0.019165 0.712221 0.401474
O O6 0.091567 0.750000 0.750000
O O7 0.181735 0.663830 0.825018
O O8 0.250000 0.000000 0.777834
O O9 0.083895 0.044741 0.828141
O O10 0.830636 0.659288 0.117095
O O11 0.148585 0.557197 0.587670
#
# Coordination Sequence:
#
# PCOD9408145 Si02
#       6
#     8   8   8   4   8   4
#     4   9  19  31  45  64  88 117 151 208 240 287
#     4   9  19  33  44  62  90 118 154 197 252 276
#     4  10  18  29  41  64  88 119 157 202 246 276
#     4  10  18  27  44  62  84 122 156 204 223 280
#     4  10  20  29  45  66  85 124 165 203 238 295
#     4  10  18  31  46  70  86 116 172 200 249 290
#
# _framework density 18.480620999999999
#
# number of rings (size 3 to 8) (size 9 to 14) (size 15 to 20)
#    0.000    2.400    4.000    0.000    2.800    5.600 
#    0.000    0.000    0.000    0.000    0.000    0.000 
#    0.000    0.000    0.000    0.000    7.600    1.000 
#
# Total GULP energy -222690.456774 kJ/mol
# GULP energy per Si atom -5567.261419 kJ/mol
# Density = 1.843856 g / cm^3
# Si number density = 18.480621 Si / 1000 Ang^3
#
#
#
# Elastic Constant Matrix: (Units=GPa)
#
#
# Indices 1 2 3 4 5 6 
#
# 1 40.7655 21.1725 29.1841 0.0000 0.0000 0.0000
# 2 21.1725 114.5718 49.8163 0.0000 0.0000 0.0000
# 3 29.1841 49.8163 113.4851 0.0000 0.0000 0.0000
# 4 0.0000 0.0000 0.0000 19.5911 0.0000 0.0000
# 5 0.0000 0.0000 0.0000 0.0000 20.2519 0.0000
# 6 0.0000 0.0000 0.0000 0.0000 0.0000 14.4614
#
#
#
# Elastic Compliance Matrix: (Units=1/GPa)
#
#
# Indices 1 2 3 4 5 6 
#
# 1 0.030763 -0.002775 -0.006693 0.000000 0.000000 0.000000
# 2 -0.002775 0.011037 -0.004131 0.000000 0.000000 0.000000
# 3 -0.006693 -0.004131 0.012347 0.000000 0.000000 0.000000
# 4 0.000000 0.000000 0.000000 0.051044 0.000000 0.000000
# 5 0.000000 0.000000 0.000000 0.000000 0.049378 0.000000
# 6 0.000000 0.000000 0.000000 0.000000 0.000000 0.069150
#
#
# Mechanical properties :
#
#
# Convention : Reuss Voigt Hill
#
# Bulk Modulus (GPa) = 37.10793 52.12982 44.61888
# Shear Modulus (GPa) = 19.23818 22.10418 20.67118
#
# Velocity S-wave (km/s) = 3.22994 3.46218 3.34808
# Velocity P-wave (km/s) = 5.83378 6.65217 6.25637
#
# Compressibility (1/GPa) = 0.02694841
#
# Stress axis : x y z
#
# Youngs Moduli (GPa) = 32.50626 90.60200 80.99446
#
# Poissons Ratio (x) = 0.25140 0.54211
# Poissons Ratio (y) = 0.09020 0.33462
# Poissons Ratio (z) = 0.21757 0.37432
#
# Static dielectric constant tensor:
#      x y z
#    x 1.672810 0.000000 0.000000 
#    y 0.000000 1.771010 0.000000 
#    z 0.000000 0.000000 1.720510 
# 
# From -- ./inp_files/44897.got.cif
#   From: 2010.05.17/outbox.cif.g08.bks.cpg/sg52_23_cif.got.tgz:44897.got - 2010.06.03 12:15:38.
