data_PCOD9408740
_publ_section_title
;
Structure prediction by ZEFSAII (Michael W. Deem and Ramdas Pophale) SiO2 
 PCOD9408740
Probable space group: P N N A
;
_chemical_formula_sum "Si O2"
_cell_formula_units_Z 56
_cell_length_a 9.149123
_cell_length_b 18.095984
_cell_length_c 19.508161
_cell_angle_alpha 90.000000
_cell_angle_beta 90.000000
_cell_angle_gamma 90.000000
_cell_volume 3229.817631
_symmetry_space_group_name_H-M "P N N A"
_symmetry_group_IT_number 52
_symmetry_cell_setting 'orthorhombic'
loop_
_space_group_symop_operation_xyz
x,y,z
1/2-x,-y,z
x,1/2-y,1/2-z
1/2-x,1/2+y,1/2-z
-x,-y,-z
1/2+x,y,-z
-x,1/2+y,1/2+z
1/2+x,1/2-y,1/2+z
loop_
_atom_site_type_symbol
_atom_site_label
_atom_site_fract_x
_atom_site_fract_y
_atom_site_fract_z
Si Si1 0.872038 0.217291 0.172461
Si Si2 0.397942 0.162203 0.379899
Si Si3 0.241359 0.135210 0.631515
Si Si4 0.138348 0.945912 0.498902
Si Si5 0.292825 0.709362 0.324214
Si Si6 0.804727 0.920909 0.218117
Si Si7 0.847566 0.426498 0.743307
O O1 0.867890 0.250000 0.250000
O O2 0.828925 0.288228 0.127848
O O3 0.759835 0.148084 0.174286
O O4 0.039109 0.198114 0.154780
O O5 0.572730 0.161729 0.370104
O O6 0.379007 0.126281 0.453742
O O7 0.309582 0.238229 0.370516
O O8 0.338701 0.108567 0.319621
O O9 0.295220 0.080658 0.571532
O O10 0.258342 0.094851 0.705005
O O11 0.250000 0.000000 0.461579
O O12 0.000000 0.000000 0.500000
O O13 0.296240 0.750000 0.250000
O O14 0.219923 0.631252 0.310086
O O15 0.979659 0.928808 0.226000
O O16 0.750000 0.000000 0.192661
O O17 0.750000 0.500000 0.741344
#
# Coordination Sequence:
#
# PCOD9408740 Si02
#       7
#     8   8   8   8   8   8   8
#     4   9  18  32  50  73  97 132 171 212 261 314
#     4  10  21  35  50  70 103 141 175 215 258 304
#     4  10  21  35  50  70 103 140 176 213 257 309
#     4  12  24  37  51  75 106 141 182 216 250 302
#     4   9  18  32  50  72  98 130 172 213 260 313
#     4  10  19  31  52  74 104 134 170 215 264 309
#     4  10  19  32  51  76 103 133 171 216 263 310
#
# _framework density 17.338439999999999
#
# number of rings (size 3 to 8) (size 9 to 14) (size 15 to 20)
#    0.000    2.000    1.429    2.571    4.000    4.571 
#    0.000    0.000    0.000    0.000    0.000    1.000 
#    0.000    6.857    0.000    0.000    0.000    0.000 
#
# Total GULP energy -311789.179262 kJ/mol
# GULP energy per Si atom -5567.663915 kJ/mol
# Density = 1.729898 g / cm^3
# Si number density = 17.338440 Si / 1000 Ang^3
#
#
#
# Elastic Constant Matrix: (Units=GPa)
#
#
# Indices 1 2 3 4 5 6 
#
# 1 100.1254 59.7342 16.1498 0.0000 0.0000 0.0000
# 2 59.7342 128.1382 27.2228 0.0000 0.0000 0.0000
# 3 16.1498 27.2228 32.6908 0.0000 0.0000 0.0000
# 4 0.0000 0.0000 0.0000 17.0220 0.0000 0.0000
# 5 0.0000 0.0000 0.0000 0.0000 75.9677 0.0000
# 6 0.0000 0.0000 0.0000 0.0000 0.0000 38.3846
#
#
#
# Elastic Compliance Matrix: (Units=1/GPa)
#
#
# Indices 1 2 3 4 5 6 
#
# 1 0.013921 -0.006109 -0.001790 0.000000 0.000000 0.000000
# 2 -0.006109 0.012163 -0.007110 0.000000 0.000000 0.000000
# 3 -0.001790 -0.007110 0.037395 0.000000 0.000000 0.000000
# 4 0.000000 0.000000 0.000000 0.058747 0.000000 0.000000
# 5 0.000000 0.000000 0.000000 0.000000 0.013163 0.000000
# 6 0.000000 0.000000 0.000000 0.000000 0.000000 0.026052
#
#
# Mechanical properties :
#
#
# Convention : Reuss Voigt Hill
#
# Bulk Modulus (GPa) = 29.88654 51.90757 40.89706
# Shear Modulus (GPa) = 24.67760 36.79803 30.73782
#
# Velocity S-wave (km/s) = 3.77674 4.61188 4.21505
# Velocity P-wave (km/s) = 6.02436 7.63951 6.87950
#
# Compressibility (1/GPa) = 0.03345988
#
# Stress axis : x y z
#
# Youngs Moduli (GPa) = 71.83433 82.21938 26.74173
#
# Poissons Ratio (x) = 0.50230 0.04786
# Poissons Ratio (y) = 0.43886 0.19014
# Poissons Ratio (z) = 0.12857 0.58459
#
# Static dielectric constant tensor:
#      x y z
#    x 1.694040 0.000000 0.000000 
#    y 0.000000 1.582720 0.000000 
#    z 0.000000 0.000000 1.585980 
# 
# From -- ./inp_files/36141.got.cif
#   From: 2010.05.17/outbox.cif.g08.bks.cpg/sg52_19_cif.got.tgz:36141.got - 2010.06.03 12:15:38.
