data_PCOD9408013
_publ_section_title
;
Structure prediction by ZEFSAII (Michael W. Deem and Ramdas Pophale) SiO2 
 PCOD9408013
Probable space group: P N N A
;
_chemical_formula_sum "Si O2"
_cell_formula_units_Z 56
_cell_length_a 20.375343
_cell_length_b 9.030873
_cell_length_c 16.842193
_cell_angle_alpha 90.000000
_cell_angle_beta 90.000000
_cell_angle_gamma 90.000000
_cell_volume 3099.083680
_symmetry_space_group_name_H-M "P N N A"
_symmetry_group_IT_number 52
_symmetry_cell_setting 'orthorhombic'
loop_
_space_group_symop_operation_xyz
x,y,z
1/2-x,-y,z
x,1/2-y,1/2-z
1/2-x,1/2+y,1/2-z
-x,-y,-z
1/2+x,y,-z
-x,1/2+y,1/2+z
1/2+x,1/2-y,1/2+z
loop_
_atom_site_type_symbol
_atom_site_label
_atom_site_fract_x
_atom_site_fract_y
_atom_site_fract_z
Si Si1 0.992166 0.410052 0.759007
Si Si2 0.140167 0.396737 0.406521
Si Si3 0.439971 0.116087 0.996909
Si Si4 0.456152 0.428067 0.067156
Si Si5 0.495435 0.172346 0.836818
Si Si6 0.664751 0.580790 0.741090
Si Si7 0.683492 0.071881 0.591905
O O1 0.021551 0.250000 0.750000
O O2 0.991283 0.465538 0.849355
O O3 0.914314 0.404493 0.741718
O O4 0.023245 0.508946 0.691874
O O5 0.120447 0.511241 0.476677
O O6 0.176490 0.494326 0.340104
O O7 0.179646 0.246932 0.423642
O O8 0.070456 0.333203 0.369848
O O9 0.447403 0.198419 0.911440
O O10 0.448895 0.250524 0.059143
O O11 0.500000 0.000000 0.000000
O O12 0.383583 0.496497 0.062064
O O13 0.500000 0.500000 0.000000
O O14 0.495034 0.250000 0.750000
O O15 0.690637 0.750000 0.750000
O O16 0.681983 0.474229 0.814600
O O17 0.750000 0.000000 0.558995
#
# Coordination Sequence:
#
# PCOD9408013 Si02
#       7
#     8   8   8   8   8   8   8
#     4   9  16  27  44  69 102 132 167 213 258 311
#     4  10  18  32  50  69 104 149 189 226 266 322
#     4  10  19  31  50  76 103 141 186 230 283 331
#     4  11  20  34  54  76 105 143 181 223 273 328
#     4  10  17  28  47  74 104 136 175 223 277 329
#     4   9  17  31  49  71 101 144 189 223 256 307
#     4  11  23  35  49  75 107 145 190 230 269 320
#
# _framework density 18.069858
#
# number of rings (size 3 to 8) (size 9 to 14) (size 15 to 20)
#    0.000    2.000    0.000    9.857    0.000    1.143 
#    0.000    2.143    0.000    0.000    0.000    0.000 
#    0.000   17.143    0.000    0.000    0.000    0.000 
#
# Total GULP energy -311850.890237 kJ/mol
# GULP energy per Si atom -5568.765897 kJ/mol
# Density = 1.802873 g / cm^3
# Si number density = 18.069858 Si / 1000 Ang^3
#
#
#
# Elastic Constant Matrix: (Units=GPa)
#
#
# Indices 1 2 3 4 5 6 
#
# 1 59.3920 20.7919 35.6257 0.0000 0.0000 0.0000
# 2 20.7919 94.8472 17.0546 0.0000 0.0000 0.0000
# 3 35.6257 17.0546 76.0486 0.0000 0.0000 0.0000
# 4 0.0000 0.0000 0.0000 30.2762 0.0000 0.0000
# 5 0.0000 0.0000 0.0000 0.0000 -3.5314 0.0000
# 6 0.0000 0.0000 0.0000 0.0000 0.0000 20.9664
#
#
#
# Elastic Compliance Matrix: (Units=1/GPa)
#
#
# Indices 1 2 3 4 5 6 
#
# 1 0.024449 -0.003439 -0.010682 0.000000 0.000000 0.000000
# 2 -0.003439 0.011470 -0.000961 0.000000 0.000000 0.000000
# 3 -0.010682 -0.000961 0.018369 0.000000 0.000000 0.000000
# 4 0.000000 0.000000 0.000000 0.033029 0.000000 0.000000
# 5 0.000000 0.000000 0.000000 0.000000 -0.283176 0.000000
# 6 0.000000 0.000000 0.000000 0.000000 0.000000 0.047695
#
#
# Mechanical properties :
#
#
# Convention : Reuss Voigt Hill
#
# Bulk Modulus (GPa) = 41.45328 41.91470 41.68399
# Shear Modulus (GPa) = -45.47197 19.99660 -12.73768
#
# Velocity S-wave (km/s) = -5.02187 3.33021 -2.65790
# Velocity P-wave (km/s) = 3.26116 6.16712 3.70123
#
# Compressibility (1/GPa) = 0.02412354
#
# Stress axis : x y z
#
# Youngs Moduli (GPa) = 40.90200 87.18432 54.43897
#
# Poissons Ratio (x) = 0.29981 0.58152
# Poissons Ratio (y) = 0.14065 0.05233
# Poissons Ratio (z) = 0.43692 0.08381
#
# Static dielectric constant tensor:
#      x y z
#    x 1.814220 0.000000 0.000000 
#    y 0.000000 1.721430 0.000000 
#    z 0.000000 0.000000 1.686320 
# 
# From -- ./inp_files/34073.got.cif
#   From: 2010.05.17/outbox.cif.g08.bks.cpg/sg52_18_cif.got.tgz:34073.got - 2010.06.03 12:15:38.
