data_PCOD9408830
_publ_section_title
;
Structure prediction by ZEFSAII (Michael W. Deem and Ramdas Pophale) SiO2 
 PCOD9408830
Probable space group: P N N A
;
_chemical_formula_sum "Si O2"
_cell_formula_units_Z 44
_cell_length_a 11.387454
_cell_length_b 20.076636
_cell_length_c 7.025487
_cell_angle_alpha 90.000000
_cell_angle_beta 90.000000
_cell_angle_gamma 90.000000
_cell_volume 1606.179265
_symmetry_space_group_name_H-M "P N N A"
_symmetry_group_IT_number 52
_symmetry_cell_setting 'orthorhombic'
loop_
_space_group_symop_operation_xyz
x,y,z
1/2-x,-y,z
x,1/2-y,1/2-z
1/2-x,1/2+y,1/2-z
-x,-y,-z
1/2+x,y,-z
-x,1/2+y,1/2+z
1/2+x,1/2-y,1/2+z
loop_
_atom_site_type_symbol
_atom_site_label
_atom_site_fract_x
_atom_site_fract_y
_atom_site_fract_z
Si Si1 0.613929 0.750000 0.250000
Si Si2 0.360651 0.048459 0.305792
Si Si3 0.452478 0.453688 0.759786
Si Si4 0.668019 0.135235 0.613347
Si Si5 0.761806 0.876956 0.209492
Si Si6 0.082508 0.226881 0.965985
O O1 0.689399 0.814356 0.295144
O O2 0.539716 0.724989 0.427976
O O3 0.399119 0.042043 0.526947
O O4 0.294877 0.119156 0.294182
O O5 0.250000 0.000000 0.269108
O O6 0.476701 0.020518 0.202045
O O7 0.336785 0.429712 0.644731
O O8 0.556016 0.398588 0.783394
O O9 0.668260 0.102118 0.399532
O O10 0.644939 0.212717 0.578768
O O11 0.844576 0.841349 0.055627
O O12 0.065275 0.250000 0.750000
#
# Coordination Sequence:
#
# PCOD9408830 Si02
#       6
#     4   8   8   8   8   8
#     4  12  20  36  58  74 116 160 188 238 300 342
#     4   8  15  24  43  79 114 137 191 244 289 347
#     4   9  15  27  49  75 114 150 182 247 297 331
#     4   9  15  28  49  76 113 144 189 240 285 350
#     4  10  19  33  52  75 116 155 189 248 288 348
#     4  10  21  36  53  84 116 150 202 238 284 364
#
# _framework density 27.394202
#
# number of rings (size 3 to 8) (size 9 to 14) (size 15 to 20)
#    0.000    2.545    4.545    0.000    0.000    0.000 
#    1.636    0.000    0.000    0.000    0.000    1.273 
#   98.182   14.727    0.000    0.000    0.000    0.000 
#
# Total GULP energy -245919.063556 kJ/mol
# GULP energy per Si atom -5589.069626 kJ/mol
# Density = 2.733185 g / cm^3
# Si number density = 27.394202 Si / 1000 Ang^3
#
#
#
# Elastic Constant Matrix: (Units=GPa)
#
#
# Indices 1 2 3 4 5 6 
#
# 1 121.7896 43.7675 46.7495 0.0000 0.0000 0.0000
# 2 43.7675 62.3682 55.3530 0.0000 0.0000 0.0000
# 3 46.7495 55.3530 72.7992 0.0000 0.0000 0.0000
# 4 0.0000 0.0000 0.0000 30.9305 0.0000 0.0000
# 5 0.0000 0.0000 0.0000 0.0000 41.5701 0.0000
# 6 0.0000 0.0000 0.0000 0.0000 0.0000 68.2733
#
#
#
# Elastic Compliance Matrix: (Units=1/GPa)
#
#
# Indices 1 2 3 4 5 6 
#
# 1 0.011308 -0.004584 -0.003776 0.000000 0.000000 0.000000
# 2 -0.004584 0.051167 -0.035961 0.000000 0.000000 0.000000
# 3 -0.003776 -0.035961 0.043504 0.000000 0.000000 0.000000
# 4 0.000000 0.000000 0.000000 0.032330 0.000000 0.000000
# 5 0.000000 0.000000 0.000000 0.000000 0.024056 0.000000
# 6 0.000000 0.000000 0.000000 0.000000 0.000000 0.014647
#
#
# Mechanical properties :
#
#
# Convention : Reuss Voigt Hill
#
# Bulk Modulus (GPa) = 57.68122 60.96634 59.32378
# Shear Modulus (GPa) = 18.42070 35.56059 26.99065
#
# Velocity S-wave (km/s) = 2.59594 3.60683 3.14230
# Velocity P-wave (km/s) = 5.48515 6.29676 5.90492
#
# Compressibility (1/GPa) = 0.01733667
#
# Stress axis : x y z
#
# Youngs Moduli (GPa) = 88.43564 19.54383 22.98616
#
# Poissons Ratio (x) = 0.08959 0.08680
# Poissons Ratio (y) = 0.40539 0.82661
# Poissons Ratio (z) = 0.33393 0.70282
#
# Static dielectric constant tensor:
#      x y z
#    x 2.180360 0.000000 0.000000 
#    y 0.000000 2.232440 0.000000 
#    z 0.000000 0.000000 2.169000 
# 
# From -- ./inp_files/8790.got.cif
#   From: 2010.05.17/outbox.cif.g08.bks.cpg/sg52_5_cif.got.tgz:8790.got - 2010.06.03 12:15:38.
