data_PCOD9408566
_publ_section_title
;
Structure prediction by ZEFSAII (Michael W. Deem and Ramdas Pophale) SiO2 
 PCOD9408566
Probable space group: P N N A
;
_chemical_formula_sum "Si O2"
_cell_formula_units_Z 44
_cell_length_a 8.794248
_cell_length_b 8.479990
_cell_length_c 29.855164
_cell_angle_alpha 90.000000
_cell_angle_beta 90.000000
_cell_angle_gamma 90.000000
_cell_volume 2226.452889
_symmetry_space_group_name_H-M "P N N A"
_symmetry_group_IT_number 52
_symmetry_cell_setting 'orthorhombic'
loop_
_space_group_symop_operation_xyz
x,y,z
1/2-x,-y,z
x,1/2-y,1/2-z
1/2-x,1/2+y,1/2-z
-x,-y,-z
1/2+x,y,-z
-x,1/2+y,1/2+z
1/2+x,1/2-y,1/2+z
loop_
_atom_site_type_symbol
_atom_site_label
_atom_site_fract_x
_atom_site_fract_y
_atom_site_fract_z
Si Si1 0.336752 0.228398 0.850083
Si Si2 0.677786 0.826946 0.450154
Si Si3 0.250000 0.500000 0.788868
Si Si4 0.412719 0.837734 0.010544
Si Si5 0.250000 0.000000 0.090209
Si Si6 0.020686 0.250000 0.750000
Si Si7 0.499237 0.409554 0.338108
O O1 0.371449 0.270874 0.901055
O O2 0.345800 0.382036 0.819693
O O3 0.158650 0.176759 0.849826
O O4 0.442694 0.089382 0.831368
O O5 0.531992 0.802196 0.481517
O O6 0.802576 0.708112 0.470346
O O7 0.750000 0.000000 0.448868
O O8 0.134220 0.393969 0.761192
O O9 0.320916 0.871989 0.056194
O O10 0.500000 0.000000 0.000000
O O11 0.377554 0.078227 0.122050
O O12 0.937494 0.315430 0.705568
#
# Coordination Sequence:
#
# PCOD9408566 Si02
#       7
#     8   8   4   8   4   4   8
#     4  10  20  36  62  92 118 163 203 257 307 373
#     4  12  24  40  60  96 133 165 211 265 320 364
#     4  10  18  36  62  91 120 149 206 256 318 372
#     4  12  24  41  65  91 127 178 217 259 305 388
#     4  12  22  40  64  91 120 167 220 248 310 388
#     4  10  20  38  60  94 118 156 198 270 318 378
#     4  10  22  37  63  87 121 155 209 257 311 383
#
# _framework density 19.762374999999999
#
# number of rings (size 3 to 8) (size 9 to 14) (size 15 to 20)
#    0.000    1.091    4.545    3.818    2.545    0.000 
#    0.000    1.818    0.000    0.000    0.000    0.000 
#    0.000    0.000    0.000    0.000    0.000    0.000 
#
# Total GULP energy -245634.045042 kJ/mol
# GULP energy per Si atom -5582.591933 kJ/mol
# Density = 1.971739 g / cm^3
# Si number density = 19.762375 Si / 1000 Ang^3
#
#
#
# Elastic Constant Matrix: (Units=GPa)
#
#
# Indices 1 2 3 4 5 6 
#
# 1 40.1757 20.0477 10.1289 0.0000 0.0000 0.0000
# 2 20.0477 109.4273 32.3557 0.0000 0.0000 0.0000
# 3 10.1289 32.3557 85.8563 0.0000 0.0000 0.0000
# 4 0.0000 0.0000 0.0000 36.9569 0.0000 0.0000
# 5 0.0000 0.0000 0.0000 0.0000 79.4753 0.0000
# 6 0.0000 0.0000 0.0000 0.0000 0.0000 20.8049
#
#
#
# Elastic Compliance Matrix: (Units=1/GPa)
#
#
# Indices 1 2 3 4 5 6 
#
# 1 0.027570 -0.004602 -0.001518 0.000000 0.000000 0.000000
# 2 -0.004602 0.011053 -0.003622 0.000000 0.000000 0.000000
# 3 -0.001518 -0.003622 0.013192 0.000000 0.000000 0.000000
# 4 0.000000 0.000000 0.000000 0.027059 0.000000 0.000000
# 5 0.000000 0.000000 0.000000 0.000000 0.012583 0.000000
# 6 0.000000 0.000000 0.000000 0.000000 0.000000 0.048066
#
#
# Mechanical properties :
#
#
# Convention : Reuss Voigt Hill
#
# Bulk Modulus (GPa) = 30.93215 40.05823 35.49519
# Shear Modulus (GPa) = 29.44945 38.97589 34.21267
#
# Velocity S-wave (km/s) = 3.86447 4.44579 4.16529
# Velocity P-wave (km/s) = 5.96642 6.83135 6.41349
#
# Compressibility (1/GPa) = 0.03232883
#
# Stress axis : x y z
#
# Youngs Moduli (GPa) = 36.27147 90.47575 75.80579
#
# Poissons Ratio (x) = 0.41637 0.11509
# Poissons Ratio (y) = 0.16692 0.27460
# Poissons Ratio (z) = 0.05507 0.32774
#
# Static dielectric constant tensor:
#      x y z
#    x 1.688690 0.000000 0.000000 
#    y 0.000000 1.664420 0.000000 
#    z 0.000000 0.000000 1.719620 
# 
# From -- ./inp_files/44318.got.cif
#   From: 2010.05.17/outbox.cif.g08.bks.cpg/sg52_23_cif.got.tgz:44318.got - 2010.06.03 12:15:38.
