data_PCOD9408867
_publ_section_title
;
Structure prediction by ZEFSAII (Michael W. Deem and Ramdas Pophale) SiO2 
 PCOD9408867
Probable space group: P N N A
;
_chemical_formula_sum "Si O2"
_cell_formula_units_Z 40
_cell_length_a 16.119751
_cell_length_b 5.582507
_cell_length_c 17.380250
_cell_angle_alpha 90.000000
_cell_angle_beta 90.000000
_cell_angle_gamma 90.000000
_cell_volume 1564.024761
_symmetry_space_group_name_H-M "P N N A"
_symmetry_group_IT_number 52
_symmetry_cell_setting 'orthorhombic'
loop_
_space_group_symop_operation_xyz
x,y,z
1/2-x,-y,z
x,1/2-y,1/2-z
1/2-x,1/2+y,1/2-z
-x,-y,-z
1/2+x,y,-z
-x,1/2+y,1/2+z
1/2+x,1/2-y,1/2+z
loop_
_atom_site_type_symbol
_atom_site_label
_atom_site_fract_x
_atom_site_fract_y
_atom_site_fract_z
Si Si1 0.522140 0.112628 0.331281
Si Si2 0.114339 0.717488 0.520003
Si Si3 0.840899 0.500342 0.798381
Si Si4 0.684847 0.813393 0.333239
Si Si5 0.077319 0.232483 0.499065
O O1 0.521055 0.250000 0.250000
O O2 0.428712 0.016724 0.342136
O O3 0.552104 0.247168 0.409009
O O4 0.594603 0.922307 0.318369
O O5 0.166361 0.645280 0.595363
O O6 0.119663 0.477308 0.469911
O O7 0.015394 0.758854 0.536785
O O8 0.131206 0.989920 0.493484
O O9 0.750000 0.500000 0.837783
O O10 0.839369 0.250000 0.750000
O O11 0.846032 0.750000 0.750000
O O12 0.719674 0.750000 0.250000
O O13 0.750000 0.000000 0.365236
#
# Coordination Sequence:
#
# PCOD9408867 Si02
#       5
#     8   8   8   8   8
#     4  10  19  33  56  84 115 151 192 239 295 355
#     4   9  19  36  55  77 107 148 194 242 288 338
#     4   9  18  32  50  74 104 138 176 224 281 337
#     4  11  22  35  54  85 123 164 206 248 295 356
#     4   9  18  34  57  80 105 143 192 240 292 345
#
# _framework density 25.575042
#
# number of rings (size 3 to 8) (size 9 to 14) (size 15 to 20)
#    0.000    2.400    0.000    2.400    0.000    6.400 
#    0.000    1.000    0.000    0.000    0.000   25.200 
#    0.000    0.000    0.000    0.000    0.000    0.000 
#
# Total GULP energy -222704.465274 kJ/mol
# GULP energy per Si atom -5567.611632 kJ/mol
# Density = 2.551683 g / cm^3
# Si number density = 25.575042 Si / 1000 Ang^3
#
#
#
# Elastic Constant Matrix: (Units=GPa)
#
#
# Indices 1 2 3 4 5 6 
#
# 1 115.6610 30.4207 9.1825 0.0000 0.0000 0.0000
# 2 30.4207 171.7887 8.5039 0.0000 0.0000 0.0000
# 3 9.1825 8.5039 83.3229 0.0000 0.0000 0.0000
# 4 0.0000 0.0000 0.0000 16.9232 0.0000 0.0000
# 5 0.0000 0.0000 0.0000 0.0000 -64.6964 0.0000
# 6 0.0000 0.0000 0.0000 0.0000 0.0000 41.4790
#
#
#
# Elastic Compliance Matrix: (Units=1/GPa)
#
#
# Indices 1 2 3 4 5 6 
#
# 1 0.009127 -0.001574 -0.000845 0.000000 0.000000 0.000000
# 2 -0.001574 0.006122 -0.000451 0.000000 0.000000 0.000000
# 3 -0.000845 -0.000451 0.012141 0.000000 0.000000 0.000000
# 4 0.000000 0.000000 0.000000 0.059090 0.000000 0.000000
# 5 0.000000 0.000000 0.000000 0.000000 -0.015457 0.000000
# 6 0.000000 0.000000 0.000000 0.000000 0.000000 0.024109
#
#
# Mechanical properties :
#
#
# Convention : Reuss Voigt Hill
#
# Bulk Modulus (GPa) = 46.19301 51.88742 49.04022
# Shear Modulus (GPa) = 46.25766 20.25220 33.25493
#
# Velocity S-wave (km/s) = 4.25750 2.81708 3.60986
# Velocity P-wave (km/s) = 6.50149 5.56000 6.04909
#
# Compressibility (1/GPa) = 0.02164830
#
# Stress axis : x y z
#
# Youngs Moduli (GPa) = 109.56324 163.33874 82.36754
#
# Poissons Ratio (x) = 0.25716 0.06961
# Poissons Ratio (y) = 0.17250 0.03717
# Poissons Ratio (z) = 0.09260 0.07372
#
# Static dielectric constant tensor:
#      x y z
#    x 1.982970 0.000000 0.000000 
#    y 0.000000 2.590700 0.000000 
#    z 0.000000 0.000000 2.192700 
# 
# From -- ./inp_files/37544.got.cif
#   From: 2010.05.17/outbox.cif.g08.bks.cpg/sg52_19_cif.got.tgz:37544.got - 2010.06.03 12:15:38.
