data_PCOD9408620
_publ_section_title
;
Structure prediction by ZEFSAII (Michael W. Deem and Ramdas Pophale) SiO2 
 PCOD9408620
Probable space group: P N N A
;
_chemical_formula_sum "Si O2"
_cell_formula_units_Z 56
_cell_length_a 31.554703
_cell_length_b 5.879453
_cell_length_c 13.416756
_cell_angle_alpha 90.000000
_cell_angle_beta 90.000000
_cell_angle_gamma 90.000000
_cell_volume 2489.135516
_symmetry_space_group_name_H-M "P N N A"
_symmetry_group_IT_number 52
_symmetry_cell_setting 'orthorhombic'
loop_
_space_group_symop_operation_xyz
x,y,z
1/2-x,-y,z
x,1/2-y,1/2-z
1/2-x,1/2+y,1/2-z
-x,-y,-z
1/2+x,y,-z
-x,1/2+y,1/2+z
1/2+x,1/2-y,1/2+z
loop_
_atom_site_type_symbol
_atom_site_label
_atom_site_fract_x
_atom_site_fract_y
_atom_site_fract_z
Si Si1 0.733693 0.250000 0.250000
Si Si2 0.986544 0.434784 0.670615
Si Si3 0.309116 0.661168 0.548861
Si Si4 0.110009 0.399098 0.993220
Si Si5 0.250000 0.500000 0.082512
Si Si6 0.898380 0.917448 0.825772
Si Si7 0.468316 0.304328 0.962936
Si Si8 0.328526 0.246079 0.097792
O O1 0.750000 0.500000 0.206133
O O2 0.710088 0.357481 0.343538
O O3 0.005650 0.250000 0.750000
O O4 0.942890 0.511152 0.722944
O O5 0.967446 0.335573 0.566639
O O6 0.015938 0.641170 0.627852
O O7 0.312888 0.427404 0.488226
O O8 0.356976 0.750818 0.568532
O O9 0.278756 0.828464 0.484298
O O10 0.090859 0.222641 0.073538
O O11 0.142027 0.560613 0.051748
O O12 0.075050 0.558906 0.942899
O O13 0.285888 0.357593 0.140776
O O14 0.876192 0.750000 0.750000
O O15 0.863313 0.105774 0.842120
O O16 0.500000 0.500000 0.000000
#
# Coordination Sequence:
#
# PCOD9408620 Si02
#       8
#     4   8   8   8   4   8   8   8
#     4  12  24  40  68 102 134 172 236 294 342 408
#     4  11  24  38  65  99 131 171 230 288 333 408
#     4  10  22  37  66  95 129 167 221 269 335 399
#     4  10  21  40  63  95 128 175 215 270 335 412
#     4  10  18  38  60  98 120 170 208 260 328 404
#     4  11  22  37  64 100 124 164 225 282 331 395
#     4  11  22  41  69  91 135 177 221 274 346 405
#     4  10  21  37  63  95 126 167 212 265 333 402
#
# _framework density 22.497771
#
# number of rings (size 3 to 8) (size 9 to 14) (size 15 to 20)
#    0.000    1.429    3.571    2.143    2.000    0.000 
#    0.000    0.000    9.429    0.000  133.714    0.000 
#    0.000    0.000    0.000    0.000    0.000    0.000 
#
# Total GULP energy -311865.816252 kJ/mol
# GULP energy per Si atom -5569.032433 kJ/mol
# Density = 2.244657 g / cm^3
# Si number density = 22.497771 Si / 1000 Ang^3
#
#
#
# Elastic Constant Matrix: (Units=GPa)
#
#
# Indices 1 2 3 4 5 6 
#
# 1 131.3324 57.5603 16.1654 0.0000 0.0000 0.0000
# 2 57.5603 117.7774 28.4673 0.0000 0.0000 0.0000
# 3 16.1654 28.4673 64.3278 0.0000 0.0000 0.0000
# 4 0.0000 0.0000 0.0000 34.7981 0.0000 0.0000
# 5 0.0000 0.0000 0.0000 0.0000 -6.5421 0.0000
# 6 0.0000 0.0000 0.0000 0.0000 0.0000 58.8400
#
#
#
# Elastic Compliance Matrix: (Units=1/GPa)
#
#
# Indices 1 2 3 4 5 6 
#
# 1 0.009698 -0.004648 -0.000380 0.000000 0.000000 0.000000
# 2 -0.004648 0.011735 -0.004025 0.000000 0.000000 0.000000
# 3 -0.000380 -0.004025 0.017422 0.000000 0.000000 0.000000
# 4 0.000000 0.000000 0.000000 0.028737 0.000000 0.000000
# 5 0.000000 0.000000 0.000000 0.000000 -0.152856 0.000000
# 6 0.000000 0.000000 0.000000 0.000000 0.000000 0.016995
#
#
# Mechanical properties :
#
#
# Convention : Reuss Voigt Hill
#
# Bulk Modulus (GPa) = 48.19547 57.53594 52.86571
# Shear Modulus (GPa) = -115.61912 31.50217 -42.05848
#
# Velocity S-wave (km/s) = -7.17655 3.74603 -4.32841
# Velocity P-wave (km/s) = 6.87035 6.65882 1.19621
#
# Compressibility (1/GPa) = 0.02074884
#
# Stress axis : x y z
#
# Youngs Moduli (GPa) = 103.11318 85.21559 57.39791
#
# Poissons Ratio (x) = 0.39606 0.02183
# Poissons Ratio (y) = 0.47924 0.23104
# Poissons Ratio (z) = 0.03922 0.34301
#
# Static dielectric constant tensor:
#      x y z
#    x 1.893080 0.000000 0.000000 
#    y 0.000000 2.228880 0.000000 
#    z 0.000000 0.000000 1.953970 
# 
# From -- ./inp_files/29731.got.cif
#   From: 2010.05.17/outbox.cif.g08.bks.cpg/sg52_15_cif.got.tgz:29731.got - 2010.06.03 12:15:38.
