data_PCOD9408355
_publ_section_title
;
Structure prediction by ZEFSAII (Michael W. Deem and Ramdas Pophale) SiO2 
 PCOD9408355
Probable space group: P N N A
;
_chemical_formula_sum "Si O2"
_cell_formula_units_Z 32
_cell_length_a 12.290560
_cell_length_b 8.327219
_cell_length_c 14.866695
_cell_angle_alpha 90.000000
_cell_angle_beta 90.000000
_cell_angle_gamma 90.000000
_cell_volume 1521.549513
_symmetry_space_group_name_H-M "P N N A"
_symmetry_group_IT_number 52
_symmetry_cell_setting 'orthorhombic'
loop_
_space_group_symop_operation_xyz
x,y,z
1/2-x,-y,z
x,1/2-y,1/2-z
1/2-x,1/2+y,1/2-z
-x,-y,-z
1/2+x,y,-z
-x,1/2+y,1/2+z
1/2+x,1/2-y,1/2+z
loop_
_atom_site_type_symbol
_atom_site_label
_atom_site_fract_x
_atom_site_fract_y
_atom_site_fract_z
Si Si1 0.766510 0.310442 0.848748
Si Si2 0.288436 0.680853 0.534438
Si Si3 0.347763 0.381605 0.826300
Si Si4 0.978336 0.687403 0.150859
O O1 0.750000 0.500000 0.854749
O O2 0.734232 0.250000 0.750000
O O3 0.895135 0.280168 0.861953
O O4 0.706333 0.222578 0.929643
O O5 0.250000 0.500000 0.547727
O O6 0.201723 0.795320 0.585840
O O7 0.402995 0.720307 0.580593
O O8 0.250000 0.500000 0.793515
O O9 0.371645 0.250000 0.750000
O O10 0.447076 0.498843 0.850592
O O11 0.948114 0.750000 0.250000
#
# Coordination Sequence:
#
# PCOD9408355 Si02
#       4
#     8   8   8   8
#     4  11  25  44  63  87 123 164 205 252 307 365
#     4  11  22  38  63  91 123 159 203 254 305 361
#     4  10  18  32  58  91 124 154 193 251 307 360
#     4  10  22  40  63  92 123 158 203 251 304 367
#
# _framework density 21.031191
#
# number of rings (size 3 to 8) (size 9 to 14) (size 15 to 20)
#    0.000    1.500    0.000    8.250    0.000    6.000 
#    0.000    0.000    0.000    1.500    0.000    0.000 
#    0.000    0.000    0.000    0.000    0.000    0.000 
#
# Total GULP energy -179066.956109 kJ/mol
# GULP energy per Si atom -5595.842378 kJ/mol
# Density = 2.098332 g / cm^3
# Si number density = 21.031191 Si / 1000 Ang^3
#
#
#
# Elastic Constant Matrix: (Units=GPa)
#
#
# Indices 1 2 3 4 5 6 
#
# 1 37.7938 8.9746 59.9800 0.0000 0.0000 0.0000
# 2 8.9746 118.4137 41.9625 0.0000 0.0000 0.0000
# 3 59.9800 41.9625 158.0387 0.0000 0.0000 0.0000
# 4 0.0000 0.0000 0.0000 36.0529 0.0000 0.0000
# 5 0.0000 0.0000 0.0000 0.0000 44.5554 0.0000
# 6 0.0000 0.0000 0.0000 0.0000 0.0000 2.1030
#
#
#
# Elastic Compliance Matrix: (Units=1/GPa)
#
#
# Indices 1 2 3 4 5 6 
#
# 1 0.068590 0.004445 -0.027212 0.000000 0.000000 0.000000
# 2 0.004445 0.009610 -0.004239 0.000000 0.000000 0.000000
# 3 -0.027212 -0.004239 0.017781 0.000000 0.000000 0.000000
# 4 0.000000 0.000000 0.000000 0.027737 0.000000 0.000000
# 5 0.000000 0.000000 0.000000 0.000000 0.022444 0.000000
# 6 0.000000 0.000000 0.000000 0.000000 0.000000 0.475515
#
#
# Mechanical properties :
#
#
# Convention : Reuss Voigt Hill
#
# Bulk Modulus (GPa) = 23.82690 59.56448 41.69569
# Shear Modulus (GPa) = 7.24975 30.09753 18.67364
#
# Velocity S-wave (km/s) = 1.85866 3.78708 2.98300
# Velocity P-wave (km/s) = 3.99501 6.89247 5.63321
#
# Compressibility (1/GPa) = 0.04196936
#
# Stress axis : x y z
#
# Youngs Moduli (GPa) = 14.57932 104.05670 56.24073
#
# Poissons Ratio (x) = -0.46250 1.53043
# Poissons Ratio (y) = -0.06480 0.23838
# Poissons Ratio (z) = 0.39673 0.44105
#
# Static dielectric constant tensor:
#      x y z
#    x 1.759880 0.000000 0.000000 
#    y 0.000000 1.733490 0.000000 
#    z 0.000000 0.000000 1.751540 
# 
# From -- ./inp_files/18870.got.cif
#   From: 2010.05.17/outbox.cif.g08.bks.cpg/sg52_10_cif.got.tgz:18870.got - 2010.06.03 12:15:38.
