data_PCOD9408666
_publ_section_title
;
Structure prediction by ZEFSAII (Michael W. Deem and Ramdas Pophale) SiO2 
 PCOD9408666
Probable space group: P N N A
;
_chemical_formula_sum "Si O2"
_cell_formula_units_Z 32
_cell_length_a 13.563743
_cell_length_b 11.200121
_cell_length_c 8.509217
_cell_angle_alpha 90.000000
_cell_angle_beta 90.000000
_cell_angle_gamma 90.000000
_cell_volume 1292.682490
_symmetry_space_group_name_H-M "P N N A"
_symmetry_group_IT_number 52
_symmetry_cell_setting 'orthorhombic'
loop_
_space_group_symop_operation_xyz
x,y,z
1/2-x,-y,z
x,1/2-y,1/2-z
1/2-x,1/2+y,1/2-z
-x,-y,-z
1/2+x,y,-z
-x,1/2+y,1/2+z
1/2+x,1/2-y,1/2+z
loop_
_atom_site_type_symbol
_atom_site_label
_atom_site_fract_x
_atom_site_fract_y
_atom_site_fract_z
Si Si1 0.789238 0.250000 0.250000
Si Si2 0.057965 0.506932 0.252327
Si Si3 0.678037 0.750000 0.750000
Si Si4 0.135690 0.970757 0.902482
Si Si5 0.810065 0.623286 0.978298
O O1 0.860279 0.171532 0.136655
O O2 0.715315 0.165214 0.346987
O O3 0.108217 0.635830 0.232561
O O4 0.097277 0.479003 0.429717
O O5 0.091038 0.413841 0.116880
O O6 0.940976 0.515249 0.271051
O O7 0.756605 0.731777 0.888284
O O8 0.250000 0.000000 0.899377
O O9 0.750000 0.500000 0.957146
#
# Coordination Sequence:
#
# PCOD9408666 Si02
#       5
#     4   8   4   8   8
#     4  12  24  44  70 110 158 198 242 326 398 432
#     4  10  23  44  77 111 149 203 261 306 388 468
#     4  10  18  42  76 106 144 198 252 300 394 446
#     4  11  24  46  71 111 156 200 256 319 376 465
#     4  10  22  42  73 111 147 197 251 316 376 464
#
# _framework density 24.754725000000001
#
# number of rings (size 3 to 8) (size 9 to 14) (size 15 to 20)
#    0.000    1.500    2.500    3.000    0.000    2.000 
#    4.500   11.250    5.500    0.000    0.000    0.000 
#    0.000    0.000    0.000    0.000    0.000    0.000 
#
# Total GULP energy -178191.356182 kJ/mol
# GULP energy per Si atom -5568.479881 kJ/mol
# Density = 2.469838 g / cm^3
# Si number density = 24.754725 Si / 1000 Ang^3
#
#
#
# Elastic Constant Matrix: (Units=GPa)
#
#
# Indices 1 2 3 4 5 6 
#
# 1 95.6568 -10.9171 -17.1080 0.0000 0.0000 0.0000
# 2 -10.9171 43.7450 -14.0482 0.0000 0.0000 0.0000
# 3 -17.1080 -14.0482 49.4262 0.0000 0.0000 0.0000
# 4 0.0000 0.0000 0.0000 36.7552 0.0000 0.0000
# 5 0.0000 0.0000 0.0000 0.0000 -121.0213 0.0000
# 6 0.0000 0.0000 0.0000 0.0000 0.0000 38.6550
#
#
#
# Elastic Compliance Matrix: (Units=1/GPa)
#
#
# Indices 1 2 3 4 5 6 
#
# 1 0.011980 0.004756 0.005498 0.000000 0.000000 0.000000
# 2 0.004756 0.027044 0.009333 0.000000 0.000000 0.000000
# 3 0.005498 0.009333 0.024788 0.000000 0.000000 0.000000
# 4 0.000000 0.000000 0.000000 0.027207 0.000000 0.000000
# 5 0.000000 0.000000 0.000000 0.000000 -0.008263 0.000000
# 6 0.000000 0.000000 0.000000 0.000000 0.000000 0.025870
#
#
# Mechanical properties :
#
#
# Convention : Reuss Voigt Hill
#
# Bulk Modulus (GPa) = 9.71017 11.63124 10.67071
# Shear Modulus (GPa) = 48.17844 6.27121 27.22483
#
# Velocity S-wave (km/s) = 4.41640 1.59337 3.31990
# Velocity P-wave (km/s) = 5.47149 2.84498 4.36068
#
# Compressibility (1/GPa) = 0.10298476
#
# Stress axis : x y z
#
# Youngs Moduli (GPa) = 83.47141 36.97725 40.34221
#
# Poissons Ratio (x) = -0.17585 -0.22182
# Poissons Ratio (y) = -0.39695 -0.37650
# Poissons Ratio (z) = -0.45896 -0.34509
#
# Static dielectric constant tensor:
#      x y z
#    x 1.919620 0.000000 0.000000 
#    y 0.000000 1.950390 0.000000 
#    z 0.000000 0.000000 2.018250 
# 
# From -- ./inp_files/9616.got.cif
#   From: 2010.05.17/outbox.cif.g08.bks.cpg/sg52_5_cif.got.tgz:9616.got - 2010.06.03 12:15:38.
