data_PCOD9408389
_publ_section_title
;
Structure prediction by ZEFSAII (Michael W. Deem and Ramdas Pophale) SiO2 
 PCOD9408389
Probable space group: P N N A
;
_chemical_formula_sum "Si O2"
_cell_formula_units_Z 56
_cell_length_a 13.548360
_cell_length_b 11.498613
_cell_length_c 17.755547
_cell_angle_alpha 90.000000
_cell_angle_beta 90.000000
_cell_angle_gamma 90.000000
_cell_volume 2766.089587
_symmetry_space_group_name_H-M "P N N A"
_symmetry_group_IT_number 52
_symmetry_cell_setting 'orthorhombic'
loop_
_space_group_symop_operation_xyz
x,y,z
1/2-x,-y,z
x,1/2-y,1/2-z
1/2-x,1/2+y,1/2-z
-x,-y,-z
1/2+x,y,-z
-x,1/2+y,1/2+z
1/2+x,1/2-y,1/2+z
loop_
_atom_site_type_symbol
_atom_site_label
_atom_site_fract_x
_atom_site_fract_y
_atom_site_fract_z
Si Si1 0.515536 0.009256 0.089402
Si Si2 0.182009 0.747481 0.403100
Si Si3 0.642769 0.951776 0.793817
Si Si4 0.341141 0.906106 0.449199
Si Si5 0.028882 0.569675 0.139136
Si Si6 0.697326 0.624903 0.434743
Si Si7 0.121191 0.261151 0.899906
O O1 0.418261 0.987517 0.138511
O O2 0.556884 0.141101 0.103843
O O3 0.596290 0.910075 0.105488
O O4 0.500000 0.000000 0.000000
O O5 0.163310 0.672630 0.330013
O O6 0.282074 0.819882 0.394461
O O7 0.090852 0.834315 0.406917
O O8 0.184619 0.675909 0.480973
O O9 0.576594 0.948661 0.720223
O O10 0.750000 0.000000 0.776176
O O11 0.373121 0.827029 0.519469
O O12 0.250000 0.000000 0.467953
O O13 0.439352 0.958643 0.410850
O O14 0.924024 0.633839 0.149360
O O15 0.750000 0.500000 0.444349
O O16 0.767946 0.712643 0.389524
#
# Coordination Sequence:
#
# PCOD9408389 Si02
#       7
#     8   8   8   8   8   8   8
#     4  11  21  35  58  92 119 149 204 256 313 370
#     4  10  18  33  54  82 119 154 194 243 302 366
#     4  12  24  35  58  88 129 162 191 254 321 387
#     4   9  20  35  58  85 118 159 207 246 293 355
#     4  11  21  37  52  87 121 161 204 233 301 376
#     4   9  18  33  55  88 116 145 203 258 305 339
#     4  10  20  35  63  84 115 160 201 256 293 357
#
# _framework density 20.245187000000001
#
# number of rings (size 3 to 8) (size 9 to 14) (size 15 to 20)
#    0.000    1.714    2.857    2.571    4.000    0.000 
#    0.000    0.000    0.000    4.286    0.000    0.000 
#    0.000    0.000    0.000    0.000    0.000    0.000 
#
# Total GULP energy -311800.801853 kJ/mol
# GULP energy per Si atom -5567.871462 kJ/mol
# Density = 2.019911 g / cm^3
# Si number density = 20.245187 Si / 1000 Ang^3
#
#
#
# Elastic Constant Matrix: (Units=GPa)
#
#
# Indices 1 2 3 4 5 6 
#
# 1 78.1253 24.4500 39.5828 0.0000 0.0000 0.0000
# 2 24.4500 57.6734 15.2335 0.0000 0.0000 0.0000
# 3 39.5828 15.2335 56.0521 0.0000 0.0000 0.0000
# 4 0.0000 0.0000 0.0000 17.9002 0.0000 0.0000
# 5 0.0000 0.0000 0.0000 0.0000 29.7933 0.0000
# 6 0.0000 0.0000 0.0000 0.0000 0.0000 40.8748
#
#
#
# Elastic Compliance Matrix: (Units=1/GPa)
#
#
# Indices 1 2 3 4 5 6 
#
# 1 0.021427 -0.005480 -0.013642 0.000000 0.000000 0.000000
# 2 -0.005480 0.020082 -0.001588 0.000000 0.000000 0.000000
# 3 -0.013642 -0.001588 0.027905 0.000000 0.000000 0.000000
# 4 0.000000 0.000000 0.000000 0.055865 0.000000 0.000000
# 5 0.000000 0.000000 0.000000 0.000000 0.033565 0.000000
# 6 0.000000 0.000000 0.000000 0.000000 0.000000 0.024465
#
#
# Mechanical properties :
#
#
# Convention : Reuss Voigt Hill
#
# Bulk Modulus (GPa) = 35.72110 38.93150 37.32630
# Shear Modulus (GPa) = 21.36208 25.21928 23.29068
#
# Velocity S-wave (km/s) = 3.25186 3.53327 3.39548
# Velocity P-wave (km/s) = 5.63755 5.99308 5.81803
#
# Compressibility (1/GPa) = 0.02799466
#
# Stress axis : x y z
#
# Youngs Moduli (GPa) = 46.67062 49.79661 35.83532
#
# Poissons Ratio (x) = 0.27291 0.48885
# Poissons Ratio (y) = 0.25578 0.05689
# Poissons Ratio (z) = 0.63667 0.07905
#
# Static dielectric constant tensor:
#      x y z
#    x 1.654780 0.000000 0.000000 
#    y 0.000000 1.925330 0.000000 
#    z 0.000000 0.000000 1.697110 
# 
# From -- ./inp_files/27267.got.cif
#   From: 2010.05.17/outbox.cif.g08.bks.cpg/sg52_14_cif.got.tgz:27267.got - 2010.06.03 12:15:38.
