data_PCOD9408302
_publ_section_title
;
Structure prediction by ZEFSAII (Michael W. Deem and Ramdas Pophale) SiO2 
 PCOD9408302
Probable space group: P N N A
;
_chemical_formula_sum "Si O2"
_cell_formula_units_Z 48
_cell_length_a 5.353942
_cell_length_b 27.195701
_cell_length_c 12.806578
_cell_angle_alpha 90.000000
_cell_angle_beta 90.000000
_cell_angle_gamma 90.000000
_cell_volume 1864.691619
_symmetry_space_group_name_H-M "P N N A"
_symmetry_group_IT_number 52
_symmetry_cell_setting 'orthorhombic'
loop_
_space_group_symop_operation_xyz
x,y,z
1/2-x,-y,z
x,1/2-y,1/2-z
1/2-x,1/2+y,1/2-z
-x,-y,-z
1/2+x,y,-z
-x,1/2+y,1/2+z
1/2+x,1/2-y,1/2+z
loop_
_atom_site_type_symbol
_atom_site_label
_atom_site_fract_x
_atom_site_fract_y
_atom_site_fract_z
Si Si1 0.738165 0.098763 0.368720
Si Si2 0.261722 0.942486 0.396607
Si Si3 0.833710 0.850447 0.941697
Si Si4 0.351026 0.210433 0.656359
Si Si5 0.810730 0.449668 0.570154
Si Si6 0.647606 0.745638 0.871962
O O1 0.484744 0.072847 0.335197
O O2 0.734853 0.090072 0.495754
O O3 0.754776 0.154936 0.329974
O O4 0.985528 0.069908 0.336828
O O5 0.250000 0.000000 0.425733
O O6 0.763506 0.797885 0.898629
O O7 0.629396 0.853442 0.036900
O O8 0.745457 0.897610 0.877089
O O9 0.386881 0.250000 0.750000
O O10 0.635188 0.205456 0.616035
O O11 0.131376 0.234959 0.585910
O O12 0.750000 0.500000 0.629495
O O13 0.590187 0.450150 0.479010
O O14 0.590446 0.750000 0.750000
#
# Coordination Sequence:
#
# PCOD9408302 Si02
#       6
#     8   8   8   8   8   8
#     4  10  18  32  50  77 107 140 181 221 270 328
#     4  10  19  33  53  82 116 143 171 225 293 344
#     4  10  19  33  50  80 109 137 177 226 274 318
#     4  10  21  37  54  73 102 146 199 222 259 318
#     4   8  14  25  44  69 100 128 157 202 263 323
#     4  10  21  38  53  71 104 154 191 224 269 329
#
# _framework density 25.741523999999998
#
# number of rings (size 3 to 8) (size 9 to 14) (size 15 to 20)
#    0.000    2.333    0.000    4.500    0.000    0.000 
#   18.000    0.000    0.000    0.000    0.000   37.333 
#    0.000    0.000    0.000    0.000    0.000    0.000 
#
# Total GULP energy -267606.420246 kJ/mol
# GULP energy per Si atom -5575.133755 kJ/mol
# Density = 2.568293 g / cm^3
# Si number density = 25.741524 Si / 1000 Ang^3
#
#
#
# Elastic Constant Matrix: (Units=GPa)
#
#
# Indices 1 2 3 4 5 6 
#
# 1 208.0087 22.9172 2.9504 0.0000 0.0000 0.0000
# 2 22.9172 160.6182 2.6761 0.0000 0.0000 0.0000
# 3 2.9504 2.6761 51.1095 0.0000 0.0000 0.0000
# 4 0.0000 0.0000 0.0000 6.5837 0.0000 0.0000
# 5 0.0000 0.0000 0.0000 0.0000 46.8261 0.0000
# 6 0.0000 0.0000 0.0000 0.0000 0.0000 42.7847
#
#
#
# Elastic Compliance Matrix: (Units=1/GPa)
#
#
# Indices 1 2 3 4 5 6 
#
# 1 0.004887 -0.000693 -0.000246 0.000000 0.000000 0.000000
# 2 -0.000693 0.006330 -0.000291 0.000000 0.000000 0.000000
# 3 -0.000246 -0.000291 0.019595 0.000000 0.000000 0.000000
# 4 0.000000 0.000000 0.000000 0.151890 0.000000 0.000000
# 5 0.000000 0.000000 0.000000 0.000000 0.021356 0.000000
# 6 0.000000 0.000000 0.000000 0.000000 0.000000 0.023373
#
#
# Mechanical properties :
#
#
# Convention : Reuss Voigt Hill
#
# Bulk Modulus (GPa) = 35.27163 52.98042 44.12602
# Shear Modulus (GPa) = 20.89058 45.31843 33.10451
#
# Velocity S-wave (km/s) = 2.85187 4.20041 3.59002
# Velocity P-wave (km/s) = 4.95743 6.64462 5.86204
#
# Compressibility (1/GPa) = 0.02835140
#
# Stress axis : x y z
#
# Youngs Moduli (GPa) = 204.60967 157.98512 51.03269
#
# Poissons Ratio (x) = 0.10952 0.01255
# Poissons Ratio (y) = 0.14184 0.01487
# Poissons Ratio (z) = 0.05030 0.04604
#
# Static dielectric constant tensor:
#      x y z
#    x 2.119840 0.000000 0.000000 
#    y 0.000000 2.044070 0.000000 
#    z 0.000000 0.000000 1.996880 
# 
# From -- ./inp_files/35233.got.cif
#   From: 2010.05.17/outbox.cif.g08.bks.cpg/sg52_18_cif.got.tgz:35233.got - 2010.06.03 12:15:38.
