data_PCOD9408545
_publ_section_title
;
Structure prediction by ZEFSAII (Michael W. Deem and Ramdas Pophale) SiO2 
 PCOD9408545
Probable space group: P N N A
;
_chemical_formula_sum "Si O2"
_cell_formula_units_Z 52
_cell_length_a 13.925625
_cell_length_b 20.343859
_cell_length_c 7.948062
_cell_angle_alpha 90.000000
_cell_angle_beta 90.000000
_cell_angle_gamma 90.000000
_cell_volume 2251.693527
_symmetry_space_group_name_H-M "P N N A"
_symmetry_group_IT_number 52
_symmetry_cell_setting 'orthorhombic'
loop_
_space_group_symop_operation_xyz
x,y,z
1/2-x,-y,z
x,1/2-y,1/2-z
1/2-x,1/2+y,1/2-z
-x,-y,-z
1/2+x,y,-z
-x,1/2+y,1/2+z
1/2+x,1/2-y,1/2+z
loop_
_atom_site_type_symbol
_atom_site_label
_atom_site_fract_x
_atom_site_fract_y
_atom_site_fract_z
Si Si1 0.609851 0.047488 0.453164
Si Si2 0.027162 0.844315 0.617562
Si Si3 0.742216 0.843545 0.363814
Si Si4 0.611820 0.250000 0.750000
Si Si5 0.818173 0.699685 0.453981
Si Si6 0.056195 0.987886 0.221782
Si Si7 0.988611 0.610885 0.509834
O O1 0.531293 0.100292 0.520243
O O2 0.702863 0.089701 0.409118
O O3 0.554093 0.013110 0.298303
O O4 0.620564 0.999947 0.613902
O O5 0.136077 0.838513 0.562602
O O6 0.960441 0.780300 0.613418
O O7 0.028152 0.858696 0.818265
O O8 0.799413 0.777129 0.416885
O O9 0.741600 0.837046 0.160843
O O10 0.677977 0.302865 0.656805
O O11 0.917598 0.661026 0.414207
O O12 0.067431 0.047364 0.089227
O O13 0.063510 0.920294 0.120195
#
# Coordination Sequence:
#
# PCOD9408545 Si02
#       7
#     8   8   8   4   8   8   8
#     4  10  19  37  62  87 118 163 196 252 299 363
#     4  10  21  36  61  87 119 157 199 244 303 368
#     4  11  21  37  59  91 120 159 201 245 313 370
#     4  10  18  36  58  86 118 150 196 240 306 370
#     4  10  20  34  62  85 120 158 191 248 309 367
#     4   9  18  35  63  84 116 160 204 244 304 350
#     4   9  18  36  62  88 114 161 201 248 302 362
#
# _framework density 23.093729
#
# number of rings (size 3 to 8) (size 9 to 14) (size 15 to 20)
#    0.000    2.154    3.077    0.923    0.000    0.000 
#    0.000    8.462    6.769    0.000    0.000    0.000 
#    0.000    0.000    0.000    0.000    0.000    0.000 
#
# Total GULP energy -289564.879296 kJ/mol
# GULP energy per Si atom -5568.555371 kJ/mol
# Density = 2.304117 g / cm^3
# Si number density = 23.093729 Si / 1000 Ang^3
#
#
#
# Elastic Constant Matrix: (Units=GPa)
#
#
# Indices 1 2 3 4 5 6 
#
# 1 82.2205 9.2780 16.7066 0.0000 0.0000 0.0000
# 2 9.2780 55.2343 3.8210 0.0000 0.0000 0.0000
# 3 16.7066 3.8210 63.3741 0.0000 0.0000 0.0000
# 4 0.0000 0.0000 0.0000 50.8685 0.0000 0.0000
# 5 0.0000 0.0000 0.0000 0.0000 15.6009 0.0000
# 6 0.0000 0.0000 0.0000 0.0000 0.0000 -0.0497
#
#
#
# Elastic Compliance Matrix: (Units=1/GPa)
#
#
# Indices 1 2 3 4 5 6 
#
# 1 0.013059 -0.001964 -0.003324 0.000000 0.000000 0.000000
# 2 -0.001964 0.018476 -0.000596 0.000000 0.000000 0.000000
# 3 -0.003324 -0.000596 0.016692 0.000000 0.000000 0.000000
# 4 0.000000 0.000000 0.000000 0.019659 0.000000 0.000000
# 5 0.000000 0.000000 0.000000 0.000000 0.064099 0.000000
# 6 0.000000 0.000000 0.000000 0.000000 0.000000-20.128147
#
#
# Mechanical properties :
#
#
# Convention : Reuss Voigt Hill
#
# Bulk Modulus (GPa) = 27.42862 28.93779 28.18320
# Shear Modulus (GPa) = -0.25035 24.68551 12.21758
#
# Velocity S-wave (km/s) = -0.32961 3.27299 2.30259
# Velocity P-wave (km/s) = 3.42900 5.18084 4.39313
#
# Compressibility (1/GPa) = 0.03645827
#
# Stress axis : x y z
#
# Youngs Moduli (GPa) = 76.57272 54.12488 59.91032
#
# Poissons Ratio (x) = 0.10628 0.19916
# Poissons Ratio (y) = 0.15037 0.03572
# Poissons Ratio (z) = 0.25455 0.03227
#
# Static dielectric constant tensor:
#      x y z
#    x 1.833160 0.000000 0.000000 
#    y 0.000000 1.990220 0.000000 
#    z 0.000000 0.000000 2.021570 
# 
# From -- ./inp_files/10913.got.cif
#   From: 2010.05.17/outbox.cif.g08.bks.cpg/sg52_6_cif.got.tgz:10913.got - 2010.06.03 12:15:38.
