data_PCOD9408123
_publ_section_title
;
Structure prediction by ZEFSAII (Michael W. Deem and Ramdas Pophale) SiO2 
 PCOD9408123
Probable space group: P N N A
;
_chemical_formula_sum "Si O2"
_cell_formula_units_Z 40
_cell_length_a 5.221310
_cell_length_b 22.822629
_cell_length_c 14.556732
_cell_angle_alpha 90.000000
_cell_angle_beta 90.000000
_cell_angle_gamma 90.000000
_cell_volume 1734.638718
_symmetry_space_group_name_H-M "P N N A"
_symmetry_group_IT_number 52
_symmetry_cell_setting 'orthorhombic'
loop_
_space_group_symop_operation_xyz
x,y,z
1/2-x,-y,z
x,1/2-y,1/2-z
1/2-x,1/2+y,1/2-z
-x,-y,-z
1/2+x,y,-z
-x,1/2+y,1/2+z
1/2+x,1/2-y,1/2+z
loop_
_atom_site_type_symbol
_atom_site_label
_atom_site_fract_x
_atom_site_fract_y
_atom_site_fract_z
Si Si1 0.282293 0.715541 0.950609
Si Si2 0.750000 0.500000 0.851615
Si Si3 0.010867 0.610478 0.890152
Si Si4 0.114389 0.417402 0.726319
Si Si5 0.375515 0.193635 0.289206
Si Si6 0.750000 0.000000 0.063517
O O1 0.219872 0.644639 0.951260
O O2 0.386682 0.720812 0.847204
O O3 0.512930 0.739183 0.013436
O O4 0.607570 0.451960 0.913956
O O5 0.562958 0.536827 0.783663
O O6 0.152913 0.596265 0.794168
O O7 0.795886 0.657681 0.861136
O O8 0.213743 0.445380 0.632894
O O9 0.965532 0.355754 0.717919
O O10 0.234214 0.250000 0.250000
O O11 0.500000 0.000000 0.000000
#
# Coordination Sequence:
#
# PCOD9408123 Si02
#       6
#     8   4   8   8   8   4
#     4  11  22  43  64  94 134 169 210 272 340 385
#     4  10  17  36  64  95 124 172 226 268 319 396
#     4  10  20  36  70  92 130 172 223 274 327 408
#     4  10  21  39  64  95 133 176 229 277 334 409
#     4  10  23  42  71  96 127 180 237 273 333 420
#     4  12  25  40  68  99 140 178 220 286 359 404
#
# _framework density 23.059557000000002
#
# number of rings (size 3 to 8) (size 9 to 14) (size 15 to 20)
#    0.000    1.600    4.000    0.600    2.800    3.200 
#    0.000    3.000    0.000    0.000    0.000    0.000 
#    0.000    0.000    0.000    0.000    0.000    0.000 
#
# Total GULP energy -223200.598134 kJ/mol
# GULP energy per Si atom -5580.014953 kJ/mol
# Density = 2.300707 g / cm^3
# Si number density = 23.059557 Si / 1000 Ang^3
#
#
#
# Elastic Constant Matrix: (Units=GPa)
#
#
# Indices 1 2 3 4 5 6 
#
# 1 121.9888 17.6673 32.9763 0.0000 0.0000 0.0000
# 2 17.6673 108.4724 26.2405 0.0000 0.0000 0.0000
# 3 32.9763 26.2405 91.9596 0.0000 0.0000 0.0000
# 4 0.0000 0.0000 0.0000 21.6842 0.0000 0.0000
# 5 0.0000 0.0000 0.0000 0.0000 34.4763 0.0000
# 6 0.0000 0.0000 0.0000 0.0000 0.0000 17.2631
#
#
#
# Elastic Compliance Matrix: (Units=1/GPa)
#
#
# Indices 1 2 3 4 5 6 
#
# 1 0.009133 -0.000747 -0.003062 0.000000 0.000000 0.000000
# 2 -0.000747 0.009964 -0.002575 0.000000 0.000000 0.000000
# 3 -0.003062 -0.002575 0.012707 0.000000 0.000000 0.000000
# 4 0.000000 0.000000 0.000000 0.046117 0.000000 0.000000
# 5 0.000000 0.000000 0.000000 0.000000 0.029005 0.000000
# 6 0.000000 0.000000 0.000000 0.000000 0.000000 0.057927
#
#
# Mechanical properties :
#
#
# Convention : Reuss Voigt Hill
#
# Bulk Modulus (GPa) = 52.53259 52.90988 52.72124
# Shear Modulus (GPa) = 27.17879 31.05383 29.11631
#
# Velocity S-wave (km/s) = 3.43685 3.67369 3.55724
# Velocity P-wave (km/s) = 6.21128 6.40230 6.30751
#
# Compressibility (1/GPa) = 0.01903580
#
# Stress axis : x y z
#
# Youngs Moduli (GPa) = 109.48848 100.36578 78.69528
#
# Poissons Ratio (x) = 0.07496 0.24097
# Poissons Ratio (y) = 0.08177 0.20266
# Poissons Ratio (z) = 0.33526 0.25847
#
# Static dielectric constant tensor:
#      x y z
#    x 1.961640 0.000000 0.000000 
#    y 0.000000 1.925270 0.000000 
#    z 0.000000 0.000000 1.871570 
# 
# From -- ./inp_files/23635.got.cif
#   From: 2010.05.17/outbox.cif.g08.bks.cpg/sg52_12_cif.got.tgz:23635.got - 2010.06.03 12:15:38.
