data_PCOD9408330
_publ_section_title
;
Structure prediction by ZEFSAII (Michael W. Deem and Ramdas Pophale) SiO2 
 PCOD9408330
Probable space group: P N N A
;
_chemical_formula_sum "Si O2"
_cell_formula_units_Z 32
_cell_length_a 13.753530
_cell_length_b 17.997267
_cell_length_c 5.036974
_cell_angle_alpha 90.000000
_cell_angle_beta 90.000000
_cell_angle_gamma 90.000000
_cell_volume 1246.781783
_symmetry_space_group_name_H-M "P N N A"
_symmetry_group_IT_number 52
_symmetry_cell_setting 'orthorhombic'
loop_
_space_group_symop_operation_xyz
x,y,z
1/2-x,-y,z
x,1/2-y,1/2-z
1/2-x,1/2+y,1/2-z
-x,-y,-z
1/2+x,y,-z
-x,1/2+y,1/2+z
1/2+x,1/2-y,1/2+z
loop_
_atom_site_type_symbol
_atom_site_label
_atom_site_fract_x
_atom_site_fract_y
_atom_site_fract_z
Si Si1 0.231187 0.915073 0.153697
Si Si2 0.479753 0.200874 0.508855
Si Si3 0.011831 0.945038 0.253660
Si Si4 0.743360 0.669912 0.149086
O O1 0.116022 0.910744 0.180049
O O2 0.273411 0.855966 0.358529
O O3 0.250000 0.000000 0.226716
O O4 0.265135 0.894249 0.861702
O O5 0.525027 0.250000 0.750000
O O6 0.536045 0.130272 0.379689
O O7 0.375513 0.175641 0.633788
O O8 0.458616 0.250000 0.250000
O O9 0.000000 0.000000 0.500000
O O10 0.000000 0.000000 0.000000
O O11 0.778510 0.750000 0.250000
#
# Coordination Sequence:
#
# PCOD9408330 Si02
#       4
#     8   8   8   8
#     4  11  22  36  56  83 112 143 178 224 275 324
#     4  10  18  32  54  81 106 137 185 234 268 310
#     4  11  21  35  56  82 110 142 178 222 274 327
#     4  10  18  33  56  82 105 138 186 232 263 307
#
# _framework density 25.666079
#
# number of rings (size 3 to 8) (size 9 to 14) (size 15 to 20)
#    0.000    1.500    0.000   12.000    0.000    0.000 
#    0.000    0.000    0.000   15.000    0.000    0.000 
#    0.000    0.000    0.000    0.000    0.000    0.000 
#
# Total GULP energy -178550.380690 kJ/mol
# GULP energy per Si atom -5579.699397 kJ/mol
# Density = 2.560766 g / cm^3
# Si number density = 25.666079 Si / 1000 Ang^3
#
#
#
# Elastic Constant Matrix: (Units=GPa)
#
#
# Indices 1 2 3 4 5 6 
#
# 1 51.1435 -8.8280 2.4520 0.0000 0.0000 0.0000
# 2 -8.8280 184.0715 74.0837 0.0000 0.0000 0.0000
# 3 2.4520 74.0837 208.9656 0.0000 0.0000 0.0000
# 4 0.0000 0.0000 0.0000 84.4088 0.0000 0.0000
# 5 0.0000 0.0000 0.0000 0.0000 -4.2795 0.0000
# 6 0.0000 0.0000 0.0000 0.0000 0.0000 26.1595
#
#
#
# Elastic Compliance Matrix: (Units=1/GPa)
#
#
# Indices 1 2 3 4 5 6 
#
# 1 0.019795 0.001216 -0.000664 0.000000 0.000000 0.000000
# 2 0.001216 0.006412 -0.002287 0.000000 0.000000 0.000000
# 3 -0.000664 -0.002287 0.005604 0.000000 0.000000 0.000000
# 4 0.000000 0.000000 0.000000 0.011847 0.000000 0.000000
# 5 0.000000 0.000000 0.000000 0.000000 -0.233671 0.000000
# 6 0.000000 0.000000 0.000000 0.000000 0.000000 0.038227
#
#
# Mechanical properties :
#
#
# Convention : Reuss Voigt Hill
#
# Bulk Modulus (GPa) = 35.28403 64.39954 49.84179
# Shear Modulus (GPa) = -36.00482 46.35596 5.17557
#
# Velocity S-wave (km/s) = -3.74948 4.25446 1.42158
# Velocity P-wave (km/s) = 2.22882 7.01994 4.70701
#
# Compressibility (1/GPa) = 0.02834144
#
# Stress axis : x y z
#
# Youngs Moduli (GPa) = 50.51886 155.96720 178.43801
#
# Poissons Ratio (x) = -0.18972 0.11839
# Poissons Ratio (y) = -0.06145 0.40815
# Poissons Ratio (z) = 0.03352 0.35675
#
# Static dielectric constant tensor:
#      x y z
#    x 2.190490 0.000000 0.000000 
#    y 0.000000 2.054980 0.000000 
#    z 0.000000 0.000000 2.000730 
# 
# From -- ./inp_files/2974.got.cif
#   From: 2010.05.17/outbox.cif.g08.bks.cpg/sg52_2_cif.got.tgz:2974.got - 2010.06.03 12:15:38.
