data_PCOD9408983
_publ_section_title
;
Structure prediction by ZEFSAII (Michael W. Deem and Ramdas Pophale) SiO2 
 PCOD9408983
Probable space group: P N N A
;
_chemical_formula_sum "Si O2"
_cell_formula_units_Z 32
_cell_length_a 9.521931
_cell_length_b 8.828402
_cell_length_c 20.547707
_cell_angle_alpha 90.000000
_cell_angle_beta 90.000000
_cell_angle_gamma 90.000000
_cell_volume 1727.310825
_symmetry_space_group_name_H-M "P N N A"
_symmetry_group_IT_number 52
_symmetry_cell_setting 'orthorhombic'
loop_
_space_group_symop_operation_xyz
x,y,z
1/2-x,-y,z
x,1/2-y,1/2-z
1/2-x,1/2+y,1/2-z
-x,-y,-z
1/2+x,y,-z
-x,1/2+y,1/2+z
1/2+x,1/2-y,1/2+z
loop_
_atom_site_type_symbol
_atom_site_label
_atom_site_fract_x
_atom_site_fract_y
_atom_site_fract_z
Si Si1 0.755751 0.818361 0.435944
Si Si2 0.250000 0.500000 0.159387
Si Si3 0.661168 0.651474 0.309991
Si Si4 0.941635 0.131746 0.547849
Si Si5 0.611928 0.250000 0.750000
O O1 0.676307 0.738200 0.377632
O O2 0.679783 0.790526 0.504946
O O3 0.919495 0.772971 0.436549
O O4 0.750000 0.000000 0.423854
O O5 0.126263 0.557251 0.111446
O O6 0.300389 0.640124 0.203513
O O7 0.750000 0.500000 0.313349
O O8 0.722189 0.750000 0.250000
O O9 0.496667 0.644040 0.291014
O O10 0.000000 0.000000 0.500000
#
# Coordination Sequence:
#
# PCOD9408983 Si02
#       5
#     8   4   8   8   4
#     4  10  19  35  63  91 118 163 214 264 316 381
#     4  12  22  40  62  94 134 168 222 262 332 388
#     4  10  23  40  62  89 127 165 216 261 322 386
#     4  10  19  34  64  91 120 165 216 262 314 389
#     4  10  26  38  64  94 130 170 218 266 324 392
#
# _framework density 18.525908000000001
#
# number of rings (size 3 to 8) (size 9 to 14) (size 15 to 20)
#    0.750    1.000    3.750    3.750    3.500    2.000 
#    0.000    1.250    2.750    0.000    0.000    0.000 
#    0.000    0.000    0.000    0.000    0.000    0.000 
#
# Total GULP energy -178258.518715 kJ/mol
# GULP energy per Si atom -5570.578710 kJ/mol
# Density = 1.848374 g / cm^3
# Si number density = 18.525908 Si / 1000 Ang^3
#
#
#
# Elastic Constant Matrix: (Units=GPa)
#
#
# Indices 1 2 3 4 5 6 
#
# 1 116.4311 22.8028 54.4715 0.0000 0.0000 0.0000
# 2 22.8028 52.0261 42.2449 0.0000 0.0000 0.0000
# 3 54.4715 42.2449 129.6439 0.0000 0.0000 0.0000
# 4 0.0000 0.0000 0.0000 24.0530 0.0000 0.0000
# 5 0.0000 0.0000 0.0000 0.0000 58.5724 0.0000
# 6 0.0000 0.0000 0.0000 0.0000 0.0000 23.8360
#
#
#
# Elastic Compliance Matrix: (Units=1/GPa)
#
#
# Indices 1 2 3 4 5 6 
#
# 1 0.010767 -0.001422 -0.004061 0.000000 0.000000 0.000000
# 2 -0.001422 0.026324 -0.007980 0.000000 0.000000 0.000000
# 3 -0.004061 -0.007980 0.012020 0.000000 0.000000 0.000000
# 4 0.000000 0.000000 0.000000 0.041575 0.000000 0.000000
# 5 0.000000 0.000000 0.000000 0.000000 0.017073 0.000000
# 6 0.000000 0.000000 0.000000 0.000000 0.000000 0.041953
#
#
# Mechanical properties :
#
#
# Convention : Reuss Voigt Hill
#
# Bulk Modulus (GPa) = 45.07453 59.68216 52.37835
# Shear Modulus (GPa) = 27.16898 33.19775 30.18336
#
# Velocity S-wave (km/s) = 3.83370 4.23775 4.04078
# Velocity P-wave (km/s) = 6.63172 7.49868 7.07848
#
# Compressibility (1/GPa) = 0.02218548
#
# Stress axis : x y z
#
# Youngs Moduli (GPa) = 92.87693 37.98753 83.19500
#
# Poissons Ratio (x) = 0.05402 0.33781
# Poissons Ratio (y) = 0.13207 0.66393
# Poissons Ratio (z) = 0.37713 0.30316
#
# Static dielectric constant tensor:
#      x y z
#    x 1.725400 0.000000 0.000000 
#    y 0.000000 2.837730 0.000000 
#    z 0.000000 0.000000 1.647910 
# 
# From -- ./inp_files/35489.got.cif
#   From: 2010.05.17/outbox.cif.g08.bks.cpg/sg52_18_cif.got.tgz:35489.got - 2010.06.03 12:15:38.
