data_PCOD9408012
_publ_section_title
;
Structure prediction by ZEFSAII (Michael W. Deem and Ramdas Pophale) SiO2 
 PCOD9408012
Probable space group: P N N A
;
_chemical_formula_sum "Si O2"
_cell_formula_units_Z 48
_cell_length_a 8.841897
_cell_length_b 7.597209
_cell_length_c 30.431846
_cell_angle_alpha 90.000000
_cell_angle_beta 90.000000
_cell_angle_gamma 90.000000
_cell_volume 2044.220895
_symmetry_space_group_name_H-M "P N N A"
_symmetry_group_IT_number 52
_symmetry_cell_setting 'orthorhombic'
loop_
_space_group_symop_operation_xyz
x,y,z
1/2-x,-y,z
x,1/2-y,1/2-z
1/2-x,1/2+y,1/2-z
-x,-y,-z
1/2+x,y,-z
-x,1/2+y,1/2+z
1/2+x,1/2-y,1/2+z
loop_
_atom_site_type_symbol
_atom_site_label
_atom_site_fract_x
_atom_site_fract_y
_atom_site_fract_z
Si Si1 0.953689 0.840619 0.858139
Si Si2 0.846332 0.316854 0.884940
Si Si3 0.927776 0.524565 0.180879
Si Si4 0.411637 0.225171 0.551548
Si Si5 0.062897 0.297722 0.959216
Si Si6 0.073419 0.047836 0.232859
O O1 0.776064 0.813707 0.865436
O O2 0.983232 0.970177 0.817286
O O3 0.007665 0.658846 0.836543
O O4 0.028618 0.831730 0.906220
O O5 0.750000 0.500000 0.893174
O O6 0.983824 0.346014 0.851433
O O7 0.925543 0.241424 0.928021
O O8 0.750000 0.500000 0.176611
O O9 0.978266 0.556310 0.230784
O O10 0.233772 0.265328 0.547333
O O11 0.510457 0.254498 0.507955
O O12 0.427524 0.009279 0.553017
O O13 0.062009 0.250000 0.250000
O O14 0.250000 0.000000 0.235502
#
# Coordination Sequence:
#
# PCOD9408012 Si02
#       6
#     8   8   8   8   8   8
#     4  10  19  32  49  73 106 145 182 226 276 337
#     4  10  17  28  47  72 103 139 179 221 275 331
#     4  10  18  31  50  74 105 140 181 228 281 327
#     4  10  18  27  43  71 108 142 181 225 280 341
#     4  10  18  26  44  72 107 145 177 226 284 334
#     4  10  21  39  59  81 110 149 193 236 284 337
#
# _framework density 23.480827999999999
#
# number of rings (size 3 to 8) (size 9 to 14) (size 15 to 20)
#    0.000    2.000    3.333    4.500    2.333    0.000 
#    0.000    9.167    0.000    0.000    0.000    4.667 
#    0.000    0.000    0.000    0.000    0.000    0.000 
#
# Total GULP energy -267889.531114 kJ/mol
# GULP energy per Si atom -5581.031898 kJ/mol
# Density = 2.342738 g / cm^3
# Si number density = 23.480828 Si / 1000 Ang^3
#
#
#
# Elastic Constant Matrix: (Units=GPa)
#
#
# Indices 1 2 3 4 5 6 
#
# 1 160.1458 -8.3453 91.8298 0.0000 0.0000 0.0000
# 2 -8.3453 45.1906 10.4947 0.0000 0.0000 0.0000
# 3 91.8298 10.4947 218.5701 0.0000 0.0000 0.0000
# 4 0.0000 0.0000 0.0000 1.9438 0.0000 0.0000
# 5 0.0000 0.0000 0.0000 0.0000 34.3360 0.0000
# 6 0.0000 0.0000 0.0000 0.0000 0.0000 -5.5693
#
#
#
# Elastic Compliance Matrix: (Units=1/GPa)
#
#
# Indices 1 2 3 4 5 6 
#
# 1 0.008480 0.002420 -0.003679 0.000000 0.000000 0.000000
# 2 0.002420 0.023069 -0.002125 0.000000 0.000000 0.000000
# 3 -0.003679 -0.002125 0.006223 0.000000 0.000000 0.000000
# 4 0.000000 0.000000 0.000000 0.514463 0.000000 0.000000
# 5 0.000000 0.000000 0.000000 0.000000 0.029124 0.000000
# 6 0.000000 0.000000 0.000000 0.000000 0.000000 -0.179556
#
#
# Mechanical properties :
#
#
# Convention : Reuss Voigt Hill
#
# Bulk Modulus (GPa) = 32.25245 67.98501 50.11873
# Shear Modulus (GPa) = 11.93590 28.13724 20.03657
#
# Velocity S-wave (km/s) = 2.25705 3.46541 2.92433
# Velocity P-wave (km/s) = 4.53408 6.71032 5.72653
#
# Compressibility (1/GPa) = 0.03100540
#
# Stress axis : x y z
#
# Youngs Moduli (GPa) = 117.92408 43.34852 160.69688
#
# Poissons Ratio (x) = -0.10492 0.59120
# Poissons Ratio (y) = -0.28542 0.34141
# Poissons Ratio (z) = 0.43384 0.09210
#
# Static dielectric constant tensor:
#      x y z
#    x 1.774860 0.000000 0.000000 
#    y 0.000000 1.378070 0.000000 
#    z 0.000000 0.000000 1.961240 
# 
# From -- ./inp_files/42210.got.cif
#   From: 2010.05.17/outbox.cif.g08.bks.cpg/sg52_22_cif.got.tgz:42210.got - 2010.06.03 12:15:38.
