data_PCOD9408601
_publ_section_title
;
Structure prediction by ZEFSAII (Michael W. Deem and Ramdas Pophale) SiO2 
 PCOD9408601
Probable space group: P N N A
;
_chemical_formula_sum "Si O2"
_cell_formula_units_Z 48
_cell_length_a 16.346085
_cell_length_b 11.733900
_cell_length_c 12.610168
_cell_angle_alpha 90.000000
_cell_angle_beta 90.000000
_cell_angle_gamma 90.000000
_cell_volume 2418.672174
_symmetry_space_group_name_H-M "P N N A"
_symmetry_group_IT_number 52
_symmetry_cell_setting 'orthorhombic'
loop_
_space_group_symop_operation_xyz
x,y,z
1/2-x,-y,z
x,1/2-y,1/2-z
1/2-x,1/2+y,1/2-z
-x,-y,-z
1/2+x,y,-z
-x,1/2+y,1/2+z
1/2+x,1/2-y,1/2+z
loop_
_atom_site_type_symbol
_atom_site_label
_atom_site_fract_x
_atom_site_fract_y
_atom_site_fract_z
Si Si1 0.635883 0.918952 0.719050
Si Si2 0.750000 0.000000 0.328891
Si Si3 0.820852 0.660309 0.835574
Si Si4 0.746886 0.234596 0.450235
Si Si5 0.339022 0.437895 0.464457
Si Si6 0.129928 0.409004 0.657942
Si Si7 0.992627 0.250000 0.750000
O O1 0.727265 0.871497 0.698470
O O2 0.626354 0.935531 0.846043
O O3 0.568730 0.828886 0.682296
O O4 0.631120 0.042078 0.665778
O O5 0.764298 0.112099 0.400091
O O6 0.671053 0.020727 0.253886
O O7 0.852621 0.750000 0.750000
O O8 0.813215 0.714952 0.950275
O O9 0.821643 0.310382 0.493718
O O10 0.699634 0.315989 0.369381
O O11 0.250000 0.500000 0.454454
O O12 0.383096 0.510800 0.555627
O O13 0.050888 0.337671 0.689264
#
# Coordination Sequence:
#
# PCOD9408601 Si02
#       7
#     8   4   8   8   8   8   4
#     4  11  21  37  65  91 124 161 199 258 324 372
#     4  12  20  36  60  90 116 162 216 254 288 372
#     4  11  19  37  65  97 119 155 214 264 302 374
#     4  11  20  34  63  94 116 154 212 263 301 349
#     4  10  18  37  64  95 114 159 220 255 301 372
#     4  11  23  38  61  86 123 167 209 254 304 372
#     4  12  24  42  58  88 136 168 192 262 336 374
#
# _framework density 19.845600000000001
#
# number of rings (size 3 to 8) (size 9 to 14) (size 15 to 20)
#    0.000    1.000    8.333    2.000    0.000    0.667 
#    0.000    0.833    7.333    0.000    0.000    0.000 
#    0.000    0.000    0.000    0.000    0.000    0.000 
#
# Total GULP energy -268045.218605 kJ/mol
# GULP energy per Si atom -5584.275388 kJ/mol
# Density = 1.980043 g / cm^3
# Si number density = 19.845600 Si / 1000 Ang^3
#
#
#
# Elastic Constant Matrix: (Units=GPa)
#
#
# Indices 1 2 3 4 5 6 
#
# 1 47.3564 11.4000 1.7141 0.0000 0.0000 0.0000
# 2 11.4000 113.9404 20.9335 0.0000 0.0000 0.0000
# 3 1.7141 20.9335 73.4067 0.0000 0.0000 0.0000
# 4 0.0000 0.0000 0.0000 39.8108 0.0000 0.0000
# 5 0.0000 0.0000 0.0000 0.0000 0.6021 0.0000
# 6 0.0000 0.0000 0.0000 0.0000 0.0000 36.4888
#
#
#
# Elastic Compliance Matrix: (Units=1/GPa)
#
#
# Indices 1 2 3 4 5 6 
#
# 1 0.021639 -0.002187 0.000118 0.000000 0.000000 0.000000
# 2 -0.002187 0.009483 -0.002653 0.000000 0.000000 0.000000
# 3 0.000118 -0.002653 0.014377 0.000000 0.000000 0.000000
# 4 0.000000 0.000000 0.000000 0.025119 0.000000 0.000000
# 5 0.000000 0.000000 0.000000 0.000000 1.660912 0.000000
# 6 0.000000 0.000000 0.000000 0.000000 0.000000 0.027406
#
#
# Mechanical properties :
#
#
# Convention : Reuss Voigt Hill
#
# Bulk Modulus (GPa) = 27.73556 33.64430 30.68993
# Shear Modulus (GPa) = 2.80836 28.75740 15.78288
#
# Velocity S-wave (km/s) = 1.19087 3.81078 2.82314
# Velocity P-wave (km/s) = 3.98709 6.02931 5.11124
#
# Compressibility (1/GPa) = 0.03605480
#
# Stress axis : x y z
#
# Youngs Moduli (GPa) = 46.21373 105.45463 69.55756
#
# Poissons Ratio (x) = 0.23060 -0.00823
# Poissons Ratio (y) = 0.10106 0.18455
# Poissons Ratio (z) = -0.00547 0.27979
#
# Static dielectric constant tensor:
#      x y z
#    x 1.703520 0.000000 0.000000 
#    y 0.000000 1.737260 0.000000 
#    z 0.000000 0.000000 1.710830 
# 
# From -- ./inp_files/28191.got.cif
#   From: 2010.05.17/outbox.cif.g08.bks.cpg/sg52_15_cif.got.tgz:28191.got - 2010.06.03 12:15:38.
