data_PCOD9408014
_publ_section_title
;
Structure prediction by ZEFSAII (Michael W. Deem and Ramdas Pophale) SiO2 
 PCOD9408014
Probable space group: P N N A
;
_chemical_formula_sum "Si O2"
_cell_formula_units_Z 52
_cell_length_a 17.046363
_cell_length_b 14.817327
_cell_length_c 9.253024
_cell_angle_alpha 90.000000
_cell_angle_beta 90.000000
_cell_angle_gamma 90.000000
_cell_volume 2337.143003
_symmetry_space_group_name_H-M "P N N A"
_symmetry_group_IT_number 52
_symmetry_cell_setting 'orthorhombic'
loop_
_space_group_symop_operation_xyz
x,y,z
1/2-x,-y,z
x,1/2-y,1/2-z
1/2-x,1/2+y,1/2-z
-x,-y,-z
1/2+x,y,-z
-x,1/2+y,1/2+z
1/2+x,1/2-y,1/2+z
loop_
_atom_site_type_symbol
_atom_site_label
_atom_site_fract_x
_atom_site_fract_y
_atom_site_fract_z
Si Si1 0.914816 0.975821 0.654863
Si Si2 0.656279 0.857719 0.737347
Si Si3 0.424853 0.486779 0.708661
Si Si4 0.581563 0.222713 0.587364
Si Si5 0.750000 0.000000 0.163735
Si Si6 0.688472 0.112146 0.900346
Si Si7 0.484847 0.136098 0.041973
O O1 0.901801 0.882422 0.569171
O O2 0.878884 0.944679 0.814559
O O3 0.008699 0.988401 0.668593
O O4 0.872247 0.069986 0.615455
O O5 0.664739 0.750000 0.750000
O O6 0.740011 0.891472 0.789504
O O7 0.585638 0.870705 0.848850
O O8 0.332572 0.481448 0.744020
O O9 0.450594 0.403760 0.606308
O O10 0.445874 0.574075 0.608504
O O11 0.553800 0.250000 0.750000
O O12 0.657343 0.286759 0.575225
O O13 0.517573 0.263717 0.479659
O O14 0.724238 0.077075 0.049761
#
# Coordination Sequence:
#
# PCOD9408014 Si02
#       7
#     8   8   8   8   4   8   8
#     4  10  19  32  48  72 102 130 161 204 249 305
#     4  11  21  31  46  73 102 133 165 205 249 298
#     4  10  17  28  47  74  99 124 155 203 258 284
#     4  10  18  29  48  73  98 130 159 199 247 302
#     4  12  16  26  48  78 106 118 158 210 260 302
#     4  11  17  27  47  75 106 124 149 201 255 303
#     4  10  17  30  46  69 101 127 161 198 246 299
#
# _framework density 22.249386000000001
#
# number of rings (size 3 to 8) (size 9 to 14) (size 15 to 20)
#    0.000    1.538    7.692    2.308    0.000    0.000 
#    0.000    0.769    0.000    0.000   24.000    0.000 
#    0.000    0.000    0.000    0.000    0.000    0.000 
#
# Total GULP energy -289619.860423 kJ/mol
# GULP energy per Si atom -5569.612700 kJ/mol
# Density = 2.219875 g / cm^3
# Si number density = 22.249386 Si / 1000 Ang^3
#
#
#
# Elastic Constant Matrix: (Units=GPa)
#
#
# Indices 1 2 3 4 5 6 
#
# 1 178.2670 35.6453 12.8808 0.0000 0.0000 0.0000
# 2 35.6453 155.0363 8.1408 0.0000 0.0000 0.0000
# 3 12.8808 8.1408 17.5383 0.0000 0.0000 0.0000
# 4 0.0000 0.0000 0.0000 17.4674 0.0000 0.0000
# 5 0.0000 0.0000 0.0000 0.0000 9.4746 0.0000
# 6 0.0000 0.0000 0.0000 0.0000 0.0000 36.1107
#
#
#
# Elastic Compliance Matrix: (Units=1/GPa)
#
#
# Indices 1 2 3 4 5 6 
#
# 1 0.006135 -0.001203 -0.003948 0.000000 0.000000 0.000000
# 2 -0.001203 0.006847 -0.002295 0.000000 0.000000 0.000000
# 3 -0.003948 -0.002295 0.060982 0.000000 0.000000 0.000000
# 4 0.000000 0.000000 0.000000 0.057249 0.000000 0.000000
# 5 0.000000 0.000000 0.000000 0.000000 0.105545 0.000000
# 6 0.000000 0.000000 0.000000 0.000000 0.000000 0.027693
#
#
# Mechanical properties :
#
#
# Convention : Reuss Voigt Hill
#
# Bulk Modulus (GPa) = 16.92787 51.57504 34.25145
# Shear Modulus (GPa) = 16.72050 32.22220 24.47135
#
# Velocity S-wave (km/s) = 2.74433 3.80969 3.32002
# Velocity P-wave (km/s) = 4.20316 6.52552 5.48858
#
# Compressibility (1/GPa) = 0.05907418
#
# Stress axis : x y z
#
# Youngs Moduli (GPa) = 162.98828 146.04395 16.39821
#
# Poissons Ratio (x) = 0.17574 0.06473
# Poissons Ratio (y) = 0.19613 0.03763
# Poissons Ratio (z) = 0.64340 0.33510
#
# Static dielectric constant tensor:
#      x y z
#    x 1.828790 0.000000 0.000000 
#    y 0.000000 1.950050 0.000000 
#    z 0.000000 0.000000 1.872460 
# 
# From -- ./inp_files/20780.got.cif
#   From: 2010.05.17/outbox.cif.g08.bks.cpg/sg52_11_cif.got.tgz:20780.got - 2010.06.03 12:15:38.
