data_PCOD9408052
_publ_section_title
;
Structure prediction by ZEFSAII (Michael W. Deem and Ramdas Pophale) SiO2 
 PCOD9408052
Probable space group: P N N A
;
_chemical_formula_sum "Si O2"
_cell_formula_units_Z 48
_cell_length_a 19.769973
_cell_length_b 15.160041
_cell_length_c 8.583308
_cell_angle_alpha 90.000000
_cell_angle_beta 90.000000
_cell_angle_gamma 90.000000
_cell_volume 2572.534151
_symmetry_space_group_name_H-M "P N N A"
_symmetry_group_IT_number 52
_symmetry_cell_setting 'orthorhombic'
loop_
_space_group_symop_operation_xyz
x,y,z
1/2-x,-y,z
x,1/2-y,1/2-z
1/2-x,1/2+y,1/2-z
-x,-y,-z
1/2+x,y,-z
-x,1/2+y,1/2+z
1/2+x,1/2-y,1/2+z
loop_
_atom_site_type_symbol
_atom_site_label
_atom_site_fract_x
_atom_site_fract_y
_atom_site_fract_z
Si Si1 0.391990 0.841529 0.347417
Si Si2 0.190138 0.559696 0.448802
Si Si3 0.013959 0.246454 0.934015
Si Si4 0.142630 0.748840 0.058588
Si Si5 0.939436 0.940503 0.940237
Si Si6 0.239505 0.594466 0.093250
O O1 0.390715 0.750000 0.250000
O O2 0.438429 0.821801 0.495387
O O3 0.428320 0.915010 0.240946
O O4 0.314381 0.865655 0.382032
O O5 0.250000 0.500000 0.516430
O O6 0.175830 0.659818 0.500669
O O7 0.125753 0.498779 0.475987
O O8 0.207299 0.572539 0.263934
O O9 0.011099 0.250000 0.750000
O O10 0.936018 0.254151 0.991730
O O11 0.047956 0.153731 0.980185
O O12 0.142935 0.750000 0.250000
O O13 0.188930 0.664943 0.016196
O O14 0.000000 0.000000 0.000000
O O15 0.250000 0.500000 0.012032
#
# Coordination Sequence:
#
# PCOD9408052 Si02
#       6
#     8   8   8   8   8   8
#     4  10  20  35  60  90 115 153 205 256 298 366
#     4  10  17  30  56  89 110 145 199 253 298 349
#     4  10  22  38  55  84 130 167 196 246 328 375
#     4   9  18  31  52  80 117 153 191 250 303 355
#     4  11  20  35  59  91 122 150 206 261 306 371
#     4  10  18  32  56  88 114 143 210 257 291 347
#
# _framework density 18.658643999999999
#
# number of rings (size 3 to 8) (size 9 to 14) (size 15 to 20)
#    0.000    2.000    5.000    1.500    2.333    0.000 
#    0.000    3.333    0.000    6.000    0.000    0.000 
#    0.000    0.000    0.000    0.000    0.000    0.000 
#
# Total GULP energy -267228.534110 kJ/mol
# GULP energy per Si atom -5567.261127 kJ/mol
# Density = 1.861618 g / cm^3
# Si number density = 18.658644 Si / 1000 Ang^3
#
#
#
# Elastic Constant Matrix: (Units=GPa)
#
#
# Indices 1 2 3 4 5 6 
#
# 1 173.6640 80.2019 31.7801 0.0000 0.0000 0.0000
# 2 80.2019 122.1859 18.5912 0.0000 0.0000 0.0000
# 3 31.7801 18.5912 16.7346 0.0000 0.0000 0.0000
# 4 0.0000 0.0000 0.0000 17.4540 0.0000 0.0000
# 5 0.0000 0.0000 0.0000 0.0000 15.3919 0.0000
# 6 0.0000 0.0000 0.0000 0.0000 0.0000 39.8111
#
#
#
# Elastic Compliance Matrix: (Units=1/GPa)
#
#
# Indices 1 2 3 4 5 6 
#
# 1 0.010700 -0.004731 -0.015064 0.000000 0.000000 0.000000
# 2 -0.004731 0.011941 -0.004281 0.000000 0.000000 0.000000
# 3 -0.015064 -0.004281 0.093119 0.000000 0.000000 0.000000
# 4 0.000000 0.000000 0.000000 0.057293 0.000000 0.000000
# 5 0.000000 0.000000 0.000000 0.000000 0.064969 0.000000
# 6 0.000000 0.000000 0.000000 0.000000 0.000000 0.025119
#
#
# Mechanical properties :
#
#
# Convention : Reuss Voigt Hill
#
# Bulk Modulus (GPa) = 14.79103 63.74788 39.26946
# Shear Modulus (GPa) = 14.97771 26.66548 20.82160
#
# Velocity S-wave (km/s) = 2.83631 3.78447 3.34417
# Velocity P-wave (km/s) = 4.32095 7.30314 6.00027
#
# Compressibility (1/GPa) = 0.06760853
#
# Stress axis : x y z
#
# Youngs Moduli (GPa) = 93.45915 83.74354 10.73894
#
# Poissons Ratio (x) = 0.39622 0.16177
# Poissons Ratio (y) = 0.44218 0.04597
# Poissons Ratio (z) = 1.40783 0.35850
#
# Static dielectric constant tensor:
#      x y z
#    x 1.614920 0.000000 0.000000 
#    y 0.000000 1.695220 0.000000 
#    z 0.000000 0.000000 1.654470 
# 
# From -- ./inp_files/12058.got.cif
#   From: 2010.05.17/outbox.cif.g08.bks.cpg/sg52_7_cif.got.tgz:12058.got - 2010.06.03 12:15:38.
