data_PCOD9408647
_publ_section_title
;
Structure prediction by ZEFSAII (Michael W. Deem and Ramdas Pophale) SiO2 
 PCOD9408647
Probable space group: P N N A
;
_chemical_formula_sum "Si O2"
_cell_formula_units_Z 48
_cell_length_a 10.099460
_cell_length_b 16.733263
_cell_length_c 14.973146
_cell_angle_alpha 90.000000
_cell_angle_beta 90.000000
_cell_angle_gamma 90.000000
_cell_volume 2530.415562
_symmetry_space_group_name_H-M "P N N A"
_symmetry_group_IT_number 52
_symmetry_cell_setting 'orthorhombic'
loop_
_space_group_symop_operation_xyz
x,y,z
1/2-x,-y,z
x,1/2-y,1/2-z
1/2-x,1/2+y,1/2-z
-x,-y,-z
1/2+x,y,-z
-x,1/2+y,1/2+z
1/2+x,1/2-y,1/2+z
loop_
_atom_site_type_symbol
_atom_site_label
_atom_site_fract_x
_atom_site_fract_y
_atom_site_fract_z
Si Si1 0.990675 0.929246 0.678488
Si Si2 0.250000 0.500000 0.768391
Si Si3 0.098669 0.257427 0.520761
Si Si4 0.967291 0.812480 0.827828
Si Si5 0.250000 0.000000 0.431080
Si Si6 0.275697 0.676166 0.682658
Si Si7 0.361311 0.346423 0.973290
O O1 0.109392 0.992960 0.681768
O O2 0.953544 0.897033 0.776576
O O3 0.061353 0.860008 0.619883
O O4 0.860523 0.956810 0.628331
O O5 0.265912 0.586085 0.720303
O O6 0.123730 0.319536 0.600137
O O7 0.220524 0.196338 0.532100
O O8 0.102124 0.296918 0.422238
O O9 0.963016 0.207590 0.529545
O O10 0.926683 0.750000 0.750000
O O11 0.124529 0.806347 0.846511
O O12 0.328779 0.066609 0.487134
O O13 0.309333 0.750000 0.750000
#
# Coordination Sequence:
#
# PCOD9408647 Si02
#       7
#     8   4   8   8   4   8   8
#     4  11  23  41  63  90 132 171 210 265 337 392
#     4  10  23  42  69  92 124 182 224 267 321 406
#     4  12  22  40  66  95 121 172 219 268 321 395
#     4  10  18  40  63  86 123 171 210 259 320 389
#     4  12  25  38  57 102 136 166 206 281 345 390
#     4  10  22  41  66  96 128 168 227 273 327 395
#     4  12  23  38  63  95 131 163 218 266 337 394
#
# _framework density 18.969217
#
# number of rings (size 3 to 8) (size 9 to 14) (size 15 to 20)
#    0.000    1.000    5.000    3.000    4.667    0.000 
#    3.000    5.000    0.000    0.000    0.000    0.000 
#    0.000    0.000    0.000    0.000    0.000    0.000 
#
# Total GULP energy -267590.628596 kJ/mol
# GULP energy per Si atom -5574.804762 kJ/mol
# Density = 1.892604 g / cm^3
# Si number density = 18.969217 Si / 1000 Ang^3
#
#
#
# Elastic Constant Matrix: (Units=GPa)
#
#
# Indices 1 2 3 4 5 6 
#
# 1 74.5116 28.2054 22.7889 0.0000 0.0000 0.0000
# 2 28.2054 87.9132 35.8964 0.0000 0.0000 0.0000
# 3 22.7889 35.8964 103.9087 0.0000 0.0000 0.0000
# 4 0.0000 0.0000 0.0000 12.3160 0.0000 0.0000
# 5 0.0000 0.0000 0.0000 0.0000 -2.6119 0.0000
# 6 0.0000 0.0000 0.0000 0.0000 0.0000 33.0658
#
#
#
# Elastic Compliance Matrix: (Units=1/GPa)
#
#
# Indices 1 2 3 4 5 6 
#
# 1 0.015616 -0.004205 -0.001972 0.000000 0.000000 0.000000
# 2 -0.004205 0.014375 -0.004044 0.000000 0.000000 0.000000
# 3 -0.001972 -0.004044 0.011453 0.000000 0.000000 0.000000
# 4 0.000000 0.000000 0.000000 0.081195 0.000000 0.000000
# 5 0.000000 0.000000 0.000000 0.000000 -0.382870 0.000000
# 6 0.000000 0.000000 0.000000 0.000000 0.000000 0.030243
#
#
# Mechanical properties :
#
#
# Convention : Reuss Voigt Hill
#
# Bulk Modulus (GPa) = 47.61347 48.90165 48.25756
# Shear Modulus (GPa) = -24.68578 20.51685 -2.08447
#
# Velocity S-wave (km/s) = -3.61135 3.29232 -1.04941
# Velocity P-wave (km/s) = 2.78671 6.34728 4.90172
#
# Compressibility (1/GPa) = 0.02100246
#
# Stress axis : x y z
#
# Youngs Moduli (GPa) = 64.03882 69.56504 87.31060
#
# Poissons Ratio (x) = 0.29250 0.17219
# Poissons Ratio (y) = 0.26926 0.35307
# Poissons Ratio (z) = 0.12630 0.28131
#
# Static dielectric constant tensor:
#      x y z
#    x 1.627640 0.000000 0.000000 
#    y 0.000000 1.738740 0.000000 
#    z 0.000000 0.000000 1.720320 
# 
# From -- ./inp_files/24782.got.cif
#   From: 2010.05.17/outbox.cif.g08.bks.cpg/sg52_13_cif.got.tgz:24782.got - 2010.06.03 12:15:38.
