data_PCOD9408791
_publ_section_title
;
Structure prediction by ZEFSAII (Michael W. Deem and Ramdas Pophale) SiO2 
 PCOD9408791
Probable space group: P N N A
;
_chemical_formula_sum "Si O2"
_cell_formula_units_Z 64
_cell_length_a 9.251571
_cell_length_b 13.490738
_cell_length_c 31.378458
_cell_angle_alpha 90.000000
_cell_angle_beta 90.000000
_cell_angle_gamma 90.000000
_cell_volume 3916.361674
_symmetry_space_group_name_H-M "P N N A"
_symmetry_group_IT_number 52
_symmetry_cell_setting 'orthorhombic'
loop_
_space_group_symop_operation_xyz
x,y,z
1/2-x,-y,z
x,1/2-y,1/2-z
1/2-x,1/2+y,1/2-z
-x,-y,-z
1/2+x,y,-z
-x,1/2+y,1/2+z
1/2+x,1/2-y,1/2+z
loop_
_atom_site_type_symbol
_atom_site_label
_atom_site_fract_x
_atom_site_fract_y
_atom_site_fract_z
Si Si1 0.074348 0.889776 0.724677
Si Si2 0.796418 0.885222 0.132649
Si Si3 0.923022 0.614622 0.221258
Si Si4 0.776585 0.882284 0.863440
Si Si5 0.964465 0.311915 0.687928
Si Si6 0.822925 0.109190 0.955567
Si Si7 0.171529 0.107928 0.961738
Si Si8 0.962421 0.188750 0.182525
O O1 0.249165 0.876898 0.724963
O O2 0.023875 0.872062 0.773355
O O3 0.012242 0.802703 0.695221
O O4 0.041865 0.001207 0.710468
O O5 0.956582 0.872577 0.150541
O O6 0.789383 0.847581 0.084271
O O7 0.699656 0.824436 0.165515
O O8 0.750000 0.000000 0.134464
O O9 0.990445 0.640307 0.267330
O O10 0.985327 0.698204 0.190046
O O11 0.700882 0.825831 0.824146
O O12 0.717469 0.846978 0.909384
O O13 0.942849 0.856632 0.855420
O O14 0.750000 0.000000 0.859514
O O15 0.996081 0.101117 0.963203
O O16 0.750000 0.000000 0.952819
O O17 0.741899 0.156931 0.996337
O O18 0.250000 0.000000 0.960439
#
# Coordination Sequence:
#
# PCOD9408791 Si02
#       8
#     8   8   8   8   8   8   8   8
#     4  10  19  34  50  76  96 131 166 217 254 287
#     4  11  19  29  50  70  96 132 172 200 241 292
#     4  10  19  32  55  70 101 127 171 212 252 292
#     4  11  23  33  48  71 106 134 166 206 244 291
#     4  11  19  35  47  76  94 135 169 208 243 291
#     4  10  20  32  45  68 100 133 165 199 247 295
#     4  10  20  30  47  69  98 133 167 200 244 299
#     4  11  21  33  50  72 101 130 173 209 243 294
#
# _framework density 16.341698000000001
#
# number of rings (size 3 to 8) (size 9 to 14) (size 15 to 20)
#    0.000    1.500    3.750    4.500    7.000    2.000 
#    0.000    1.875    0.000    0.000    0.000    0.000 
#    0.000    6.000    0.000    0.000    0.000    0.000 
#
# Total GULP energy -356598.656995 kJ/mol
# GULP energy per Si atom -5571.854016 kJ/mol
# Density = 1.630450 g / cm^3
# Si number density = 16.341698 Si / 1000 Ang^3
#
#
#
# Elastic Constant Matrix: (Units=GPa)
#
#
# Indices 1 2 3 4 5 6 
#
# 1 46.8000 9.8638 11.0955 0.0000 0.0000 0.0000
# 2 9.8638 76.9327 21.9394 0.0000 0.0000 0.0000
# 3 11.0955 21.9394 78.8512 0.0000 0.0000 0.0000
# 4 0.0000 0.0000 0.0000 11.1410 0.0000 0.0000
# 5 0.0000 0.0000 0.0000 0.0000 17.7780 0.0000
# 6 0.0000 0.0000 0.0000 0.0000 0.0000 19.4629
#
#
#
# Elastic Compliance Matrix: (Units=1/GPa)
#
#
# Indices 1 2 3 4 5 6 
#
# 1 0.022426 -0.002146 -0.002559 0.000000 0.000000 0.000000
# 2 -0.002146 0.014324 -0.003684 0.000000 0.000000 0.000000
# 3 -0.002559 -0.003684 0.014067 0.000000 0.000000 0.000000
# 4 0.000000 0.000000 0.000000 0.089759 0.000000 0.000000
# 5 0.000000 0.000000 0.000000 0.000000 0.056249 0.000000
# 6 0.000000 0.000000 0.000000 0.000000 0.000000 0.051380
#
#
# Mechanical properties :
#
#
# Convention : Reuss Voigt Hill
#
# Bulk Modulus (GPa) = 29.37588 32.04236 30.70912
# Shear Modulus (GPa) = 18.09444 20.32207 19.20825
#
# Velocity S-wave (km/s) = 3.33116 3.53026 3.43215
# Velocity P-wave (km/s) = 5.72805 6.02223 5.87698
#
# Compressibility (1/GPa) = 0.03404154
#
# Stress axis : x y z
#
# Youngs Moduli (GPa) = 44.59038 69.81326 71.08807
#
# Poissons Ratio (x) = 0.14980 0.18189
# Poissons Ratio (y) = 0.09568 0.26185
# Poissons Ratio (z) = 0.11409 0.25716
#
# Static dielectric constant tensor:
#      x y z
#    x 1.563930 0.000000 0.000000 
#    y 0.000000 1.539820 0.000000 
#    z 0.000000 0.000000 1.584640 
# 
# From -- ./inp_files/44652.got.cif
#   From: 2010.05.17/outbox.cif.g08.bks.cpg/sg52_23_cif.got.tgz:44652.got - 2010.06.03 12:15:38.
