data_PCOD9408800
_publ_section_title
;
Structure prediction by ZEFSAII (Michael W. Deem and Ramdas Pophale) SiO2 
 PCOD9408800
Probable space group: P N N A
;
_chemical_formula_sum "Si O2"
_cell_formula_units_Z 64
_cell_length_a 12.420574
_cell_length_b 12.547668
_cell_length_c 18.080072
_cell_angle_alpha 90.000000
_cell_angle_beta 90.000000
_cell_angle_gamma 90.000000
_cell_volume 2817.765461
_symmetry_space_group_name_H-M "P N N A"
_symmetry_group_IT_number 52
_symmetry_cell_setting 'orthorhombic'
loop_
_space_group_symop_operation_xyz
x,y,z
1/2-x,-y,z
x,1/2-y,1/2-z
1/2-x,1/2+y,1/2-z
-x,-y,-z
1/2+x,y,-z
-x,1/2+y,1/2+z
1/2+x,1/2-y,1/2+z
loop_
_atom_site_type_symbol
_atom_site_label
_atom_site_fract_x
_atom_site_fract_y
_atom_site_fract_z
Si Si1 0.853910 0.131629 0.714064
Si Si2 0.848914 0.914233 0.928659
Si Si3 0.168073 0.325567 0.112290
Si Si4 0.762210 0.833800 0.440864
Si Si5 0.987416 0.299028 0.915494
Si Si6 0.956797 0.090853 0.443400
Si Si7 0.805391 0.612412 0.403026
Si Si8 0.476920 0.424825 0.349979
O O1 0.863709 0.250000 0.750000
O O2 0.736554 0.125038 0.678693
O O3 0.944748 0.316926 0.607648
O O4 0.929694 0.124491 0.642431
O O5 0.831038 0.803545 0.885295
O O6 0.750000 0.000000 0.921062
O O7 0.954798 0.973732 0.900297
O O8 0.859990 0.884716 0.015049
O O9 0.049681 0.376262 0.112485
O O10 0.219617 0.347725 0.030093
O O11 0.886118 0.829543 0.411376
O O12 0.666825 0.914825 0.418092
O O13 0.730508 0.716099 0.408866
O O14 0.903246 0.439906 0.721699
O O15 0.952816 0.311000 0.999302
O O16 0.000000 0.000000 0.500000
O O17 0.750000 0.500000 0.398952
O O18 0.897556 0.605261 0.340265
#
# Coordination Sequence:
#
# PCOD9408800 Si02
#       8
#     8   8   8   8   8   8   8   8
#     4  10  19  37  61  81 121 165 205 249 302 386
#     4  10  19  32  56  92 125 157 196 255 317 377
#     4  10  21  37  58  88 125 160 200 257 314 374
#     4   9  19  36  59  86 120 152 201 261 316 365
#     4   9  19  36  57  85 116 151 206 256 307 365
#     4  11  23  38  62  88 118 160 210 267 317 360
#     4   9  19  30  56  91 125 157 190 254 322 378
#     4  10  20  33  57  89 120 163 201 243 307 392
#
# _framework density 22.713032999999999
#
# number of rings (size 3 to 8) (size 9 to 14) (size 15 to 20)
#    0.000    2.250    1.250    2.625    5.250    2.000 
#    0.000    5.000    2.750    3.750    0.000    0.000 
#    0.000    0.000    0.000    0.000    0.000    0.000 
#
# Total GULP energy -356586.190909 kJ/mol
# GULP energy per Si atom -5571.659233 kJ/mol
# Density = 2.266134 g / cm^3
# Si number density = 22.713033 Si / 1000 Ang^3
#
#
#
# Elastic Constant Matrix: (Units=GPa)
#
#
# Indices 1 2 3 4 5 6 
#
# 1 135.6751 42.8558 32.3685 0.0000 0.0000 0.0000
# 2 42.8558 76.2001 7.6475 0.0000 0.0000 0.0000
# 3 32.3685 7.6475 61.2452 0.0000 0.0000 0.0000
# 4 0.0000 0.0000 0.0000 11.2004 0.0000 0.0000
# 5 0.0000 0.0000 0.0000 0.0000 37.6176 0.0000
# 6 0.0000 0.0000 0.0000 0.0000 0.0000 30.8641
#
#
#
# Elastic Compliance Matrix: (Units=1/GPa)
#
#
# Indices 1 2 3 4 5 6 
#
# 1 0.010147 -0.005234 -0.004709 0.000000 0.000000 0.000000
# 2 -0.005234 0.015990 0.000770 0.000000 0.000000 0.000000
# 3 -0.004709 0.000770 0.018721 0.000000 0.000000 0.000000
# 4 0.000000 0.000000 0.000000 0.089283 0.000000 0.000000
# 5 0.000000 0.000000 0.000000 0.000000 0.026583 0.000000
# 6 0.000000 0.000000 0.000000 0.000000 0.000000 0.032400
#
#
# Mechanical properties :
#
#
# Convention : Reuss Voigt Hill
#
# Bulk Modulus (GPa) = 37.72150 48.76266 43.24208
# Shear Modulus (GPa) = 22.69540 28.61965 25.65752
#
# Velocity S-wave (km/s) = 3.16448 3.55358 3.36466
# Velocity P-wave (km/s) = 5.47684 6.19297 5.84588
#
# Compressibility (1/GPa) = 0.02651008
#
# Stress axis : x y z
#
# Youngs Moduli (GPa) = 98.54648 62.53914 53.41693
#
# Poissons Ratio (x) = 0.32736 0.25156
# Poissons Ratio (y) = 0.51583 -0.04112
# Poissons Ratio (z) = 0.46410 -0.04814
#
# Static dielectric constant tensor:
#      x y z
#    x 1.941410 0.000000 0.000000 
#    y 0.000000 1.976540 0.000000 
#    z 0.000000 0.000000 1.830790 
# 
# From -- ./inp_files/32408.got.cif
#   From: 2010.05.17/outbox.cif.g08.bks.cpg/sg52_17_cif.got.tgz:32408.got - 2010.06.03 12:15:38.
