data_PCOD9408041
_publ_section_title
;
Structure prediction by ZEFSAII (Michael W. Deem and Ramdas Pophale) SiO2 
 PCOD9408041
Probable space group: P N N A
;
_chemical_formula_sum "Si O2"
_cell_formula_units_Z 48
_cell_length_a 8.347473
_cell_length_b 25.400532
_cell_length_c 12.142017
_cell_angle_alpha 90.000000
_cell_angle_beta 90.000000
_cell_angle_gamma 90.000000
_cell_volume 2574.474961
_symmetry_space_group_name_H-M "P N N A"
_symmetry_group_IT_number 52
_symmetry_cell_setting 'orthorhombic'
loop_
_space_group_symop_operation_xyz
x,y,z
1/2-x,-y,z
x,1/2-y,1/2-z
1/2-x,1/2+y,1/2-z
-x,-y,-z
1/2+x,y,-z
-x,1/2+y,1/2+z
1/2+x,1/2-y,1/2+z
loop_
_atom_site_type_symbol
_atom_site_label
_atom_site_fract_x
_atom_site_fract_y
_atom_site_fract_z
Si Si1 0.171249 0.384718 0.112469
Si Si2 0.493252 0.484039 0.871141
Si Si3 0.120025 0.739701 0.410340
Si Si4 0.822286 0.914625 0.353937
Si Si5 0.484518 0.774462 0.363741
Si Si6 0.977206 0.333311 0.768692
O O1 0.041718 0.337972 0.135850
O O2 0.335105 0.364733 0.167358
O O3 0.136203 0.444072 0.154676
O O4 0.170041 0.392471 0.979672
O O5 0.342148 0.446136 0.849936
O O6 0.453947 0.540670 0.821804
O O7 0.500000 0.500000 0.000000
O O8 0.303824 0.752362 0.381924
O O9 0.075545 0.684614 0.352839
O O10 0.011234 0.781885 0.345091
O O11 0.089039 0.751928 0.536811
O O12 0.860920 0.866243 0.275372
O O13 0.543354 0.750000 0.250000
#
# Coordination Sequence:
#
# PCOD9408041 Si02
#       6
#     8   8   8   8   8   8
#     4  10  17  30  51  72 111 150 179 225 287 335
#     4   9  19  30  45  78 115 145 185 230 277 354
#     4  10  21  38  53  80 113 149 195 235 277 345
#     4  10  18  30  51  77 113 151 182 228 289 341
#     4  11  21  38  56  79 115 152 190 239 287 339
#     4  10  19  34  52  75 114 151 180 231 278 334
#
# _framework density 18.644577999999999
#
# number of rings (size 3 to 8) (size 9 to 14) (size 15 to 20)
#    0.000    2.000    5.000    2.000    2.333    2.000 
#    6.000    0.000    0.000    0.000    0.000    1.167 
#    0.000    0.000    0.000    0.000    0.000    0.000 
#
# Total GULP energy -267311.162715 kJ/mol
# GULP energy per Si atom -5568.982557 kJ/mol
# Density = 1.860214 g / cm^3
# Si number density = 18.644578 Si / 1000 Ang^3
#
#
#
# Elastic Constant Matrix: (Units=GPa)
#
#
# Indices 1 2 3 4 5 6 
#
# 1 30.8693 23.1617 9.3258 0.0000 0.0000 0.0000
# 2 23.1617 88.5137 27.4244 0.0000 0.0000 0.0000
# 3 9.3258 27.4244 81.6165 0.0000 0.0000 0.0000
# 4 0.0000 0.0000 0.0000 25.8770 0.0000 0.0000
# 5 0.0000 0.0000 0.0000 0.0000 56.7538 0.0000
# 6 0.0000 0.0000 0.0000 0.0000 0.0000 33.5244
#
#
#
# Elastic Compliance Matrix: (Units=1/GPa)
#
#
# Indices 1 2 3 4 5 6 
#
# 1 0.040412 -0.010207 -0.001188 0.000000 0.000000 0.000000
# 2 -0.010207 0.015188 -0.003937 0.000000 0.000000 0.000000
# 3 -0.001188 -0.003937 0.013711 0.000000 0.000000 0.000000
# 4 0.000000 0.000000 0.000000 0.038644 0.000000 0.000000
# 5 0.000000 0.000000 0.000000 0.000000 0.017620 0.000000
# 6 0.000000 0.000000 0.000000 0.000000 0.000000 0.029829
#
#
# Mechanical properties :
#
#
# Convention : Reuss Voigt Hill
#
# Bulk Modulus (GPa) = 25.87494 35.64704 30.76099
# Shear Modulus (GPa) = 25.13182 32.63686 28.88434
#
# Velocity S-wave (km/s) = 3.67542 4.18841 3.94027
# Velocity P-wave (km/s) = 5.64975 6.52312 6.10208
#
# Compressibility (1/GPa) = 0.03864744
#
# Stress axis : x y z
#
# Youngs Moduli (GPa) = 24.74531 65.83983 72.93328
#
# Poissons Ratio (x) = 0.67200 0.08665
# Poissons Ratio (y) = 0.25256 0.28716
# Poissons Ratio (z) = 0.02940 0.25923
#
# Static dielectric constant tensor:
#      x y z
#    x 1.419790 0.000000 0.000000 
#    y 0.000000 1.694770 0.000000 
#    z 0.000000 0.000000 1.635450 
# 
# From -- ./inp_files/16963.got.cif
#   From: 2010.05.17/outbox.cif.g08.bks.cpg/sg52_9_cif.got.tgz:16963.got - 2010.06.03 12:15:38.
