data_PCOD9408106
_publ_section_title
;
Structure prediction by ZEFSAII (Michael W. Deem and Ramdas Pophale) SiO2 
 PCOD9408106
Probable space group: P N N A
;
_chemical_formula_sum "Si O2"
_cell_formula_units_Z 64
_cell_length_a 12.013324
_cell_length_b 19.946074
_cell_length_c 15.150737
_cell_angle_alpha 90.000000
_cell_angle_beta 90.000000
_cell_angle_gamma 90.000000
_cell_volume 3630.399139
_symmetry_space_group_name_H-M "P N N A"
_symmetry_group_IT_number 52
_symmetry_cell_setting 'orthorhombic'
loop_
_space_group_symop_operation_xyz
x,y,z
1/2-x,-y,z
x,1/2-y,1/2-z
1/2-x,1/2+y,1/2-z
-x,-y,-z
1/2+x,y,-z
-x,1/2+y,1/2+z
1/2+x,1/2-y,1/2+z
loop_
_atom_site_type_symbol
_atom_site_label
_atom_site_fract_x
_atom_site_fract_y
_atom_site_fract_z
Si Si1 0.771492 0.722631 0.997725
Si Si2 0.631441 0.783178 0.154215
Si Si3 0.173128 0.812475 0.314073
Si Si4 0.728868 0.924632 0.823584
Si Si5 0.414346 0.697432 0.854289
Si Si6 0.489150 0.069149 0.055776
Si Si7 0.841729 0.646251 0.322781
Si Si8 0.915213 0.838347 0.913834
O O1 0.733345 0.688967 0.907700
O O2 0.828159 0.791363 0.964404
O O3 0.675360 0.739182 0.070468
O O4 0.865818 0.681826 0.050024
O O5 0.654207 0.750000 0.250000
O O6 0.711630 0.848973 0.152588
O O7 0.500924 0.797937 0.146947
O O8 0.204488 0.750000 0.250000
O O9 0.193985 0.877786 0.256716
O O10 0.044039 0.806301 0.337993
O O11 0.628391 0.926146 0.894573
O O12 0.840731 0.893444 0.865174
O O13 0.750000 0.000000 0.795024
O O14 0.358610 0.648515 0.782340
O O15 0.385060 0.777262 0.844056
O O16 0.586823 0.089881 0.126489
O O17 0.503685 0.127517 0.984449
O O18 0.500000 0.000000 0.000000
#
# Coordination Sequence:
#
# PCOD9408106 Si02
#       8
#     8   8   8   8   8   8   8   8
#     4  11  22  36  60  95 126 162 207 267 323 376
#     4  11  22  37  60  92 128 158 197 266 327 379
#     4  12  22  37  62  92 126 164 217 267 319 383
#     4  12  26  43  59  89 130 171 211 259 327 390
#     4  10  17  34  60  85 120 162 209 252 320 379
#     4  12  23  39  62  87 123 171 215 252 312 394
#     4  10  18  36  57  88 124 161 203 257 310 377
#     4  12  24  35  56  90 133 162 202 258 315 381
#
# _framework density 17.628917000000001
#
# number of rings (size 3 to 8) (size 9 to 14) (size 15 to 20)
#    0.000    0.750   10.000    1.500    1.750    0.000 
#    0.000    0.000    0.000    0.750    3.250    0.000 
#    0.000    0.000    0.000    0.000    0.000    0.000 
#
# Total GULP energy -356742.667554 kJ/mol
# GULP energy per Si atom -5574.104181 kJ/mol
# Density = 1.758879 g / cm^3
# Si number density = 17.628917 Si / 1000 Ang^3
#
#
#
# Elastic Constant Matrix: (Units=GPa)
#
#
# Indices 1 2 3 4 5 6 
#
# 1 74.8497 37.4071 41.3145 0.0000 0.0000 0.0000
# 2 37.4071 72.1344 52.6457 0.0000 0.0000 0.0000
# 3 41.3145 52.6457 127.0068 0.0000 0.0000 0.0000
# 4 0.0000 0.0000 0.0000 32.9016 0.0000 0.0000
# 5 0.0000 0.0000 0.0000 0.0000 33.7298 0.0000
# 6 0.0000 0.0000 0.0000 0.0000 0.0000 16.4918
#
#
#
# Elastic Compliance Matrix: (Units=1/GPa)
#
#
# Indices 1 2 3 4 5 6 
#
# 1 0.018785 -0.007573 -0.002972 0.000000 0.000000 0.000000
# 2 -0.007573 0.022929 -0.007041 0.000000 0.000000 0.000000
# 3 -0.002972 -0.007041 0.011759 0.000000 0.000000 0.000000
# 4 0.000000 0.000000 0.000000 0.030394 0.000000 0.000000
# 5 0.000000 0.000000 0.000000 0.000000 0.029647 0.000000
# 6 0.000000 0.000000 0.000000 0.000000 0.000000 0.060636
#
#
# Mechanical properties :
#
#
# Convention : Reuss Voigt Hill
#
# Bulk Modulus (GPa) = 54.63872 59.63616 57.13744
# Shear Modulus (GPa) = 23.21043 26.13287 24.67165
#
# Velocity S-wave (km/s) = 3.63245 3.85435 3.74505
# Velocity P-wave (km/s) = 6.97524 7.32872 7.15416
#
# Compressibility (1/GPa) = 0.01830204
#
# Stress axis : x y z
#
# Youngs Moduli (GPa) = 53.23431 43.61375 85.04292
#
# Poissons Ratio (x) = 0.33027 0.25272
# Poissons Ratio (y) = 0.40312 0.59877
# Poissons Ratio (z) = 0.15820 0.30708
#
# Static dielectric constant tensor:
#      x y z
#    x 1.652570 0.000000 0.000000 
#    y 0.000000 1.590170 0.000000 
#    z 0.000000 0.000000 1.655600 
# 
# From -- ./inp_files/26359.got.cif
#   From: 2010.05.17/outbox.cif.g08.bks.cpg/sg52_14_cif.got.tgz:26359.got - 2010.06.03 12:15:38.
