data_PCOD9408072
_publ_section_title
;
Structure prediction by ZEFSAII (Michael W. Deem and Ramdas Pophale) SiO2 
 PCOD9408072
Probable space group: P N N A
;
_chemical_formula_sum "Si O2"
_cell_formula_units_Z 52
_cell_length_a 11.423472
_cell_length_b 13.572751
_cell_length_c 14.689746
_cell_angle_alpha 90.000000
_cell_angle_beta 90.000000
_cell_angle_gamma 90.000000
_cell_volume 2277.614871
_symmetry_space_group_name_H-M "P N N A"
_symmetry_group_IT_number 52
_symmetry_cell_setting 'orthorhombic'
loop_
_space_group_symop_operation_xyz
x,y,z
1/2-x,-y,z
x,1/2-y,1/2-z
1/2-x,1/2+y,1/2-z
-x,-y,-z
1/2+x,y,-z
-x,1/2+y,1/2+z
1/2+x,1/2-y,1/2+z
loop_
_atom_site_type_symbol
_atom_site_label
_atom_site_fract_x
_atom_site_fract_y
_atom_site_fract_z
Si Si1 0.570686 0.920138 0.829245
Si Si2 0.406982 0.630619 0.413446
Si Si3 0.405667 0.233977 0.033005
Si Si4 0.993086 0.750000 0.750000
Si Si5 0.805934 0.606104 0.396749
Si Si6 0.701435 0.688113 0.138468
Si Si7 0.047521 0.158978 0.677342
O O1 0.636912 0.830245 0.879573
O O2 0.436245 0.908953 0.861377
O O3 0.550936 0.912167 0.721052
O O4 0.608467 0.023467 0.869941
O O5 0.532474 0.654361 0.464337
O O6 0.414336 0.703379 0.328515
O O7 0.318617 0.636918 0.497762
O O8 0.505851 0.300416 0.080335
O O9 0.331777 0.306647 0.968550
O O10 0.083382 0.675694 0.802652
O O11 0.750000 0.500000 0.388056
O O12 0.743394 0.697269 0.348105
O O13 0.817255 0.626379 0.164343
O O14 0.044268 0.250000 0.750000
#
# Coordination Sequence:
#
# PCOD9408072 Si02
#       7
#     8   8   8   4   8   8   8
#     4  10  18  31  51  81 115 135 177 235 286 322
#     4  10  19  33  50  78 113 145 175 234 284 328
#     4   9  18  30  51  78 114 141 177 226 288 331
#     4  10  20  32  52  78 110 146 188 228 286 320
#     4  11  18  29  54  84 111 135 178 230 286 335
#     4  11  17  31  52  77 106 149 188 225 271 337
#     4  10  17  32  50  78 113 146 178 227 277 335
#
# _framework density 22.830901000000001
#
# number of rings (size 3 to 8) (size 9 to 14) (size 15 to 20)
#    0.000    1.846    5.385    4.615    0.000    0.000 
#    0.000    0.000    8.462    3.692    4.000    0.000 
#    0.000    0.000    0.000    0.000    0.000    0.000 
#
# Total GULP energy -289653.626211 kJ/mol
# GULP energy per Si atom -5570.262043 kJ/mol
# Density = 2.277894 g / cm^3
# Si number density = 22.830901 Si / 1000 Ang^3
#
#
#
# Elastic Constant Matrix: (Units=GPa)
#
#
# Indices 1 2 3 4 5 6 
#
# 1 30.5049 -4.8232 6.9761 0.0000 0.0000 0.0000
# 2 -4.8232 19.9483 25.4775 0.0000 0.0000 0.0000
# 3 6.9761 25.4775 82.9205 0.0000 0.0000 0.0000
# 4 0.0000 0.0000 0.0000 32.6600 0.0000 0.0000
# 5 0.0000 0.0000 0.0000 0.0000 47.3784 0.0000
# 6 0.0000 0.0000 0.0000 0.0000 0.0000 20.4649
#
#
#
# Elastic Compliance Matrix: (Units=1/GPa)
#
#
# Indices 1 2 3 4 5 6 
#
# 1 0.038590 0.022181 -0.010062 0.000000 0.000000 0.000000
# 2 0.022181 0.095256 -0.031134 0.000000 0.000000 0.000000
# 3 -0.010062 -0.031134 0.022472 0.000000 0.000000 0.000000
# 4 0.000000 0.000000 0.000000 0.030619 0.000000 0.000000
# 5 0.000000 0.000000 0.000000 0.000000 0.021107 0.000000
# 6 0.000000 0.000000 0.000000 0.000000 0.000000 0.048864
#
#
# Mechanical properties :
#
#
# Convention : Reuss Voigt Hill
#
# Bulk Modulus (GPa) = 8.45387 20.95938 14.70663
# Shear Modulus (GPa) = 14.95372 27.15020 21.05196
#
# Velocity S-wave (km/s) = 2.56203 3.45220 3.03987
# Velocity P-wave (km/s) = 3.53028 5.00904 4.33320
#
# Compressibility (1/GPa) = 0.11828896
#
# Stress axis : x y z
#
# Youngs Moduli (GPa) = 25.91363 10.49807 44.49966
#
# Poissons Ratio (x) = -0.23286 0.44774
# Poissons Ratio (y) = -0.57479 1.38543
# Poissons Ratio (z) = 0.26074 0.32684
#
# Static dielectric constant tensor:
#      x y z
#    x 1.948470 0.000000 0.000000 
#    y 0.000000 1.901280 0.000000 
#    z 0.000000 0.000000 1.992320 
# 
# From -- ./inp_files/27393.got.cif
#   From: 2010.05.17/outbox.cif.g08.bks.cpg/sg52_14_cif.got.tgz:27393.got - 2010.06.03 12:15:38.
