data_PCOD9408685
_publ_section_title
;
Structure prediction by ZEFSAII (Michael W. Deem and Ramdas Pophale) SiO2 
 PCOD9408685
Probable space group: P N N A
;
_chemical_formula_sum "Si O2"
_cell_formula_units_Z 52
_cell_length_a 27.150624
_cell_length_b 7.989282
_cell_length_c 11.825341
_cell_angle_alpha 90.000000
_cell_angle_beta 90.000000
_cell_angle_gamma 90.000000
_cell_volume 2565.081918
_symmetry_space_group_name_H-M "P N N A"
_symmetry_group_IT_number 52
_symmetry_cell_setting 'orthorhombic'
loop_
_space_group_symop_operation_xyz
x,y,z
1/2-x,-y,z
x,1/2-y,1/2-z
1/2-x,1/2+y,1/2-z
-x,-y,-z
1/2+x,y,-z
-x,1/2+y,1/2+z
1/2+x,1/2-y,1/2+z
loop_
_atom_site_type_symbol
_atom_site_label
_atom_site_fract_x
_atom_site_fract_y
_atom_site_fract_z
Si Si1 0.768268 0.805257 0.377011
Si Si2 0.566024 0.250000 0.250000
Si Si3 0.569153 0.648663 0.501027
Si Si4 0.504039 0.039268 0.833960
Si Si5 0.631093 0.390017 0.050636
Si Si6 0.454602 0.995823 0.411390
Si Si7 0.161836 0.735960 0.614020
O O1 0.781852 0.750000 0.250000
O O2 0.817265 0.792081 0.451872
O O3 0.719227 0.703454 0.409837
O O4 0.750000 0.000000 0.372941
O O5 0.531073 0.123151 0.182532
O O6 0.600641 0.344804 0.162529
O O7 0.546402 0.501598 0.575755
O O8 0.532728 0.670573 0.392919
O O9 0.565397 0.812873 0.580036
O O10 0.622487 0.617197 0.446737
O O11 0.527248 0.059408 0.711110
O O12 0.647248 0.582776 0.065597
O O13 0.590865 0.382430 0.952345
O O14 0.500000 0.000000 0.500000
O O15 0.156274 0.750000 0.750000
#
# Coordination Sequence:
#
# PCOD9408685 Si02
#       7
#     8   4   8   8   8   8   8
#     4   9  17  31  49  76 106 135 177 225 278 330
#     4  12  18  32  46  72 108 138 172 210 260 328
#     4  10  21  34  52  74 108 144 176 223 264 319
#     4  11  21  34  51  76 112 142 187 215 260 335
#     4  10  19  29  51  71 106 141 171 219 273 318
#     4  11  20  34  50  76 109 145 177 215 268 323
#     4   9  18  31  49  75 105 136 174 220 274 324
#
# _framework density 20.272255999999999
#
# number of rings (size 3 to 8) (size 9 to 14) (size 15 to 20)
#    0.000    1.846    3.846    0.923    2.154    0.000 
#    0.000    0.000    0.000    0.000    0.000    0.000 
#  133.846    0.000    0.000    0.000    0.000    0.000 
#
# Total GULP energy -290243.315263 kJ/mol
# GULP energy per Si atom -5581.602217 kJ/mol
# Density = 2.022611 g / cm^3
# Si number density = 20.272256 Si / 1000 Ang^3
#
#
#
# Elastic Constant Matrix: (Units=GPa)
#
#
# Indices 1 2 3 4 5 6 
#
# 1 182.3206 16.1960 67.3153 0.0000 0.0000 0.0000
# 2 16.1960 28.4816 3.9544 0.0000 0.0000 0.0000
# 3 67.3153 3.9544 108.9640 0.0000 0.0000 0.0000
# 4 0.0000 0.0000 0.0000 18.7143 0.0000 0.0000
# 5 0.0000 0.0000 0.0000 0.0000 12.9646 0.0000
# 6 0.0000 0.0000 0.0000 0.0000 0.0000 23.3627
#
#
#
# Elastic Compliance Matrix: (Units=1/GPa)
#
#
# Indices 1 2 3 4 5 6 
#
# 1 0.007459 -0.003620 -0.004477 0.000000 0.000000 0.000000
# 2 -0.003620 0.037045 0.000892 0.000000 0.000000 0.000000
# 3 -0.004477 0.000892 0.011911 0.000000 0.000000 0.000000
# 4 0.000000 0.000000 0.000000 0.053435 0.000000 0.000000
# 5 0.000000 0.000000 0.000000 0.000000 0.077133 0.000000
# 6 0.000000 0.000000 0.000000 0.000000 0.000000 0.042803
#
#
# Mechanical properties :
#
#
# Convention : Reuss Voigt Hill
#
# Bulk Modulus (GPa) = 23.80656 54.96641 39.38648
# Shear Modulus (GPa) = 19.36499 26.49503 22.93001
#
# Velocity S-wave (km/s) = 3.09406 3.61911 3.36684
# Velocity P-wave (km/s) = 4.95310 6.68109 5.88091
#
# Compressibility (1/GPa) = 0.04200522
#
# Stress axis : x y z
#
# Youngs Moduli (GPa) = 134.06019 26.99410 83.95852
#
# Poissons Ratio (x) = 0.09772 0.37587
# Poissons Ratio (y) = 0.48532 -0.07489
# Poissons Ratio (z) = 0.60016 -0.02408
#
# Static dielectric constant tensor:
#      x y z
#    x 1.763620 0.000000 0.000000 
#    y 0.000000 1.844940 0.000000 
#    z 0.000000 0.000000 1.695400 
# 
# From -- ./inp_files/22817.got.cif
#   From: 2010.05.17/outbox.cif.g08.bks.cpg/sg52_12_cif.got.tgz:22817.got - 2010.06.03 12:15:38.
