data_PCOD9408168
_publ_section_title
;
Structure prediction by ZEFSAII (Michael W. Deem and Ramdas Pophale) SiO2 
 PCOD9408168
Probable space group: P N N A
;
_chemical_formula_sum "Si O2"
_cell_formula_units_Z 64
_cell_length_a 9.648646
_cell_length_b 26.635108
_cell_length_c 14.442426
_cell_angle_alpha 90.000000
_cell_angle_beta 90.000000
_cell_angle_gamma 90.000000
_cell_volume 3711.598460
_symmetry_space_group_name_H-M "P N N A"
_symmetry_group_IT_number 52
_symmetry_cell_setting 'orthorhombic'
loop_
_space_group_symop_operation_xyz
x,y,z
1/2-x,-y,z
x,1/2-y,1/2-z
1/2-x,1/2+y,1/2-z
-x,-y,-z
1/2+x,y,-z
-x,1/2+y,1/2+z
1/2+x,1/2-y,1/2+z
loop_
_atom_site_type_symbol
_atom_site_label
_atom_site_fract_x
_atom_site_fract_y
_atom_site_fract_z
Si Si1 0.187446 0.853362 0.800612
Si Si2 0.185628 0.803971 0.407278
Si Si3 0.901217 0.973880 0.578268
Si Si4 0.963744 0.792621 0.679964
Si Si5 0.810273 0.266134 0.428546
Si Si6 0.397178 0.692204 0.833542
Si Si7 0.770321 0.613812 0.030355
Si Si8 0.150099 0.547752 0.800843
O O1 0.177783 0.824308 0.898836
O O2 0.332489 0.835139 0.755327
O O3 0.165357 0.912480 0.783524
O O4 0.070657 0.827797 0.734605
O O5 0.329291 0.818321 0.359495
O O6 0.210623 0.753224 0.467310
O O7 0.161846 0.850713 0.477027
O O8 0.059118 0.797411 0.337589
O O9 0.859400 0.920120 0.537626
O O10 0.995347 0.969631 0.670330
O O11 0.750000 0.000000 0.590100
O O12 0.000000 0.000000 0.500000
O O13 0.913738 0.750000 0.750000
O O14 0.050633 0.762875 0.602715
O O15 0.691376 0.241044 0.363496
O O16 0.364080 0.653180 0.915179
O O17 0.701811 0.578102 0.107613
O O18 0.250000 0.500000 0.788238
#
# Coordination Sequence:
#
# PCOD9408168 Si02
#       8
#     8   8   8   8   8   8   8   8
#     4   9  19  34  48  60  95 135 159 187 243 294
#     4  11  19  28  48  75  95 123 167 204 230 279
#     4  12  20  30  43  62  93 125 165 209 234 274
#     4   9  18  32  45  63  95 130 157 190 236 290
#     4   9  17  32  46  63  90 130 162 189 237 290
#     4   9  18  27  47  68  92 119 161 199 230 274
#     4  10  18  29  43  61  97 127 159 188 240 273
#     4  11  20  32  45  65  88 123 165 200 232 282
#
# _framework density 17.243243
#
# number of rings (size 3 to 8) (size 9 to 14) (size 15 to 20)
#    0.000    2.000    2.500    4.875    0.000    1.000 
#    0.000    0.000    0.000    0.000    0.000    0.000 
#    0.000    9.000    0.000    0.000    0.000    0.000 
#
# Total GULP energy -356511.083556 kJ/mol
# GULP energy per Si atom -5570.485681 kJ/mol
# Density = 1.720400 g / cm^3
# Si number density = 17.243243 Si / 1000 Ang^3
#
#
#
# Elastic Constant Matrix: (Units=GPa)
#
#
# Indices 1 2 3 4 5 6 
#
# 1 92.1103 30.4406 12.8043 0.0000 0.0000 0.0000
# 2 30.4406 106.9307 20.5363 0.0000 0.0000 0.0000
# 3 12.8043 20.5363 18.1595 0.0000 0.0000 0.0000
# 4 0.0000 0.0000 0.0000 27.1301 0.0000 0.0000
# 5 0.0000 0.0000 0.0000 0.0000 5.8626 0.0000
# 6 0.0000 0.0000 0.0000 0.0000 0.0000 13.5267
#
#
#
# Elastic Compliance Matrix: (Units=1/GPa)
#
#
# Indices 1 2 3 4 5 6 
#
# 1 0.012494 -0.002382 -0.006115 0.000000 0.000000 0.000000
# 2 -0.002382 0.012401 -0.012344 0.000000 0.000000 0.000000
# 3 -0.006115 -0.012344 0.073339 0.000000 0.000000 0.000000
# 4 0.000000 0.000000 0.000000 0.036859 0.000000 0.000000
# 5 0.000000 0.000000 0.000000 0.000000 0.170573 0.000000
# 6 0.000000 0.000000 0.000000 0.000000 0.000000 0.073928
#
#
# Mechanical properties :
#
#
# Convention : Reuss Voigt Hill
#
# Bulk Modulus (GPa) = 17.68334 38.30699 27.99516
# Shear Modulus (GPa) = 11.36035 19.53184 15.44609
#
# Velocity S-wave (km/s) = 2.56955 3.36925 2.99620
# Velocity P-wave (km/s) = 4.36817 6.11553 5.31416
#
# Compressibility (1/GPa) = 0.05655042
#
# Stress axis : x y z
#
# Youngs Moduli (GPa) = 80.03882 80.64049 13.63528
#
# Poissons Ratio (x) = 0.19211 0.08339
# Poissons Ratio (y) = 0.19067 0.16831
# Poissons Ratio (z) = 0.48947 0.99543
#
# Static dielectric constant tensor:
#      x y z
#    x 1.627820 0.000000 0.000000 
#    y 0.000000 1.633470 0.000000 
#    z 0.000000 0.000000 1.610930 
# 
# From -- ./inp_files/31679.got.cif
#   From: 2010.05.17/outbox.cif.g08.bks.cpg/sg52_16_cif.got.tgz:31679.got - 2010.06.03 12:15:38.
