data_PCOD9408269
_publ_section_title
;
Structure prediction by ZEFSAII (Michael W. Deem and Ramdas Pophale) SiO2 
 PCOD9408269
Probable space group: P N N A
;
_chemical_formula_sum "Si O2"
_cell_formula_units_Z 32
_cell_length_a 16.333751
_cell_length_b 5.060928
_cell_length_c 14.281441
_cell_angle_alpha 90.000000
_cell_angle_beta 90.000000
_cell_angle_gamma 90.000000
_cell_volume 1180.560150
_symmetry_space_group_name_H-M "P N N A"
_symmetry_group_IT_number 52
_symmetry_cell_setting 'orthorhombic'
loop_
_space_group_symop_operation_xyz
x,y,z
1/2-x,-y,z
x,1/2-y,1/2-z
1/2-x,1/2+y,1/2-z
-x,-y,-z
1/2+x,y,-z
-x,1/2+y,1/2+z
1/2+x,1/2-y,1/2+z
loop_
_atom_site_type_symbol
_atom_site_label
_atom_site_fract_x
_atom_site_fract_y
_atom_site_fract_z
Si Si1 0.561514 0.070867 0.913229
Si Si2 0.168901 0.336444 0.859629
Si Si3 0.598722 0.830116 0.148857
Si Si4 0.657141 0.897661 0.648467
O O1 0.489906 0.046761 0.834058
O O2 0.602713 0.350802 0.885401
O O3 0.629503 0.847289 0.913937
O O4 0.500000 0.000000 0.000000
O O5 0.250000 0.500000 0.882144
O O6 0.167537 0.250000 0.750000
O O7 0.097490 0.535966 0.893009
O O8 0.153866 0.048605 0.901372
O O9 0.635815 0.750000 0.250000
O O10 0.647044 0.750000 0.750000
O O11 0.750000 0.000000 0.643051
#
# Coordination Sequence:
#
# PCOD9408269 Si02
#       4
#     8   8   8   8
#     4  12  26  46  70 108 155 193 240 319 416 495
#     4  10  18  31  52  81 118 161 217 278 329 396
#     4  10  20  35  58  87 122 176 235 290 359 449
#     4  12  25  48  81 114 148 200 271 339 397 468
#
# _framework density 27.105778000000001
#
# number of rings (size 3 to 8) (size 9 to 14) (size 15 to 20)
#    0.000    1.000    0.000    9.750    0.000    2.000 
#    0.000    7.500    0.000    0.000    0.000    0.000 
#    0.000    0.000    0.000    0.000    0.000    0.000 
#
# Total GULP energy -178328.011573 kJ/mol
# GULP energy per Si atom -5572.750362 kJ/mol
# Density = 2.704408 g / cm^3
# Si number density = 27.105778 Si / 1000 Ang^3
#
#
#
# Elastic Constant Matrix: (Units=GPa)
#
#
# Indices 1 2 3 4 5 6 
#
# 1 150.9144 98.1111 51.5962 0.0000 0.0000 0.0000
# 2 98.1111 302.1532 69.9776 0.0000 0.0000 0.0000
# 3 51.5962 69.9776 123.6615 0.0000 0.0000 0.0000
# 4 0.0000 0.0000 0.0000 24.8655 0.0000 0.0000
# 5 0.0000 0.0000 0.0000 0.0000 7.9119 0.0000
# 6 0.0000 0.0000 0.0000 0.0000 0.0000 63.4218
#
#
#
# Elastic Compliance Matrix: (Units=1/GPa)
#
#
# Indices 1 2 3 4 5 6 
#
# 1 0.008985 -0.002358 -0.002414 0.000000 0.000000 0.000000
# 2 -0.002358 0.004428 -0.001522 0.000000 0.000000 0.000000
# 3 -0.002414 -0.001522 0.009955 0.000000 0.000000 0.000000
# 4 0.000000 0.000000 0.000000 0.040216 0.000000 0.000000
# 5 0.000000 0.000000 0.000000 0.000000 0.126392 0.000000
# 6 0.000000 0.000000 0.000000 0.000000 0.000000 0.015767
#
#
# Mechanical properties :
#
#
# Convention : Reuss Voigt Hill
#
# Bulk Modulus (GPa) = 92.77158 112.89987 102.83573
# Shear Modulus (GPa) = 22.53018 43.04281 32.78649
#
# Velocity S-wave (km/s) = 2.88617 3.98924 3.48167
# Velocity P-wave (km/s) = 6.73845 7.93478 7.36096
#
# Compressibility (1/GPa) = 0.01077916
#
# Stress axis : x y z
#
# Youngs Moduli (GPa) = 111.29847 225.84947 100.45236
#
# Poissons Ratio (x) = 0.53262 0.24252
# Poissons Ratio (y) = 0.26247 0.15285
# Poissons Ratio (z) = 0.26871 0.34365
#
# Static dielectric constant tensor:
#      x y z
#    x 2.205950 0.000000 0.000000 
#    y 0.000000 2.329540 0.000000 
#    z 0.000000 0.000000 2.500380 
# 
# From -- ./inp_files/32589.got.cif
#   From: 2010.05.17/outbox.cif.g08.bks.cpg/sg52_17_cif.got.tgz:32589.got - 2010.06.03 12:15:38.
