data_PCOD9408398
_publ_section_title
;
Structure prediction by ZEFSAII (Michael W. Deem and Ramdas Pophale) SiO2 
 PCOD9408398
Probable space group: P N N A
;
_chemical_formula_sum "Si O2"
_cell_formula_units_Z 48
_cell_length_a 5.549247
_cell_length_b 22.262955
_cell_length_c 15.835389
_cell_angle_alpha 90.000000
_cell_angle_beta 90.000000
_cell_angle_gamma 90.000000
_cell_volume 1956.345703
_symmetry_space_group_name_H-M "P N N A"
_symmetry_group_IT_number 52
_symmetry_cell_setting 'orthorhombic'
loop_
_space_group_symop_operation_xyz
x,y,z
1/2-x,-y,z
x,1/2-y,1/2-z
1/2-x,1/2+y,1/2-z
-x,-y,-z
1/2+x,y,-z
-x,1/2+y,1/2+z
1/2+x,1/2-y,1/2+z
loop_
_atom_site_type_symbol
_atom_site_label
_atom_site_fract_x
_atom_site_fract_y
_atom_site_fract_z
Si Si1 0.939101 0.729760 0.396790
Si Si2 0.750000 0.500000 0.633656
Si Si3 0.711494 0.372317 0.274173
Si Si4 0.612110 0.416303 0.955327
Si Si5 0.713141 0.100914 0.725278
Si Si6 0.750000 0.000000 0.139442
Si Si7 0.939728 0.724813 0.916266
O O1 0.873349 0.666860 0.354052
O O2 0.957032 0.734257 0.498554
O O3 0.702992 0.769300 0.375209
O O4 0.202847 0.752045 0.367809
O O5 0.745414 0.442137 0.694816
O O6 0.496219 0.499776 0.589073
O O7 0.479732 0.370972 0.212041
O O8 0.744430 0.441433 0.301673
O O9 0.982719 0.356490 0.243798
O O10 0.637443 0.435143 0.858196
O O11 0.607697 0.343083 0.947403
O O12 0.356106 0.433784 0.995557
#
# Coordination Sequence:
#
# PCOD9408398 Si02
#       7
#     8   4   8   8   8   4   8
#     4  10  18  33  56  75 101 137 181 206 252 310
#     4   8  16  34  52  73 107 134 166 204 262 314
#     4  10  19  35  54  83 107 131 171 217 263 305
#     4  12  21  38  57  73 101 145 182 208 256 316
#     4  10  21  35  55  81 105 136 170 219 261 306
#     4   8  16  30  54  73 105 142 160 196 264 326
#     4  10  19  35  53  71  99 147 180 204 249 315
#
# _framework density 24.535543000000001
#
# number of rings (size 3 to 8) (size 9 to 14) (size 15 to 20)
#    0.000    2.000    3.333    2.000    0.000    0.000 
#    0.000    5.833    0.000    4.000    0.000    0.000 
#    0.000    0.000    0.000    0.000    0.000    0.000 
#
# Total GULP energy -267770.705544 kJ/mol
# GULP energy per Si atom -5578.556366 kJ/mol
# Density = 2.447970 g / cm^3
# Si number density = 24.535543 Si / 1000 Ang^3
#
#
#
# Elastic Constant Matrix: (Units=GPa)
#
#
# Indices 1 2 3 4 5 6 
#
# 1 304.2812 22.3476 26.7097 0.0000 0.0000 0.0000
# 2 22.3476 69.7786 10.7482 0.0000 0.0000 0.0000
# 3 26.7097 10.7482 68.2836 0.0000 0.0000 0.0000
# 4 0.0000 0.0000 0.0000 185.1756 0.0000 0.0000
# 5 0.0000 0.0000 0.0000 0.0000 96.2548 0.0000
# 6 0.0000 0.0000 0.0000 0.0000 0.0000 30.0156
#
#
#
# Elastic Compliance Matrix: (Units=1/GPa)
#
#
# Indices 1 2 3 4 5 6 
#
# 1 0.003460 -0.000922 -0.001208 0.000000 0.000000 0.000000
# 2 -0.000922 0.014933 -0.001990 0.000000 0.000000 0.000000
# 3 -0.001208 -0.001990 0.015431 0.000000 0.000000 0.000000
# 4 0.000000 0.000000 0.000000 0.005400 0.000000 0.000000
# 5 0.000000 0.000000 0.000000 0.000000 0.010389 0.000000
# 6 0.000000 0.000000 0.000000 0.000000 0.000000 0.033316
#
#
# Mechanical properties :
#
#
# Convention : Reuss Voigt Hill
#
# Bulk Modulus (GPa) = 39.08810 62.43938 50.76374
# Shear Modulus (GPa) = 50.15176 87.79172 68.97174
#
# Velocity S-wave (km/s) = 4.52602 5.98825 5.30773
# Velocity P-wave (km/s) = 6.57867 8.56247 7.63528
#
# Compressibility (1/GPa) = 0.02558324
#
# Stress axis : x y z
#
# Youngs Moduli (GPa) = 288.99876 66.96653 64.80597
#
# Poissons Ratio (x) = 0.06175 0.07831
# Poissons Ratio (y) = 0.26647 0.12895
# Poissons Ratio (z) = 0.34921 0.13325
#
# Static dielectric constant tensor:
#      x y z
#    x 4.003190 0.000000 0.000000 
#    y 0.000000 1.992250 0.000000 
#    z 0.000000 0.000000 1.912600 
# 
# From -- ./inp_files/23718.got.cif
#   From: 2010.05.17/outbox.cif.g08.bks.cpg/sg52_12_cif.got.tgz:23718.got - 2010.06.03 12:15:38.
