data_PCOD9408823
_publ_section_title
;
Structure prediction by ZEFSAII (Michael W. Deem and Ramdas Pophale) SiO2 
 PCOD9408823
Probable space group: P N N A
;
_chemical_formula_sum "Si O2"
_cell_formula_units_Z 28
_cell_length_a 5.085187
_cell_length_b 38.087091
_cell_length_c 7.514800
_cell_angle_alpha 90.000000
_cell_angle_beta 90.000000
_cell_angle_gamma 90.000000
_cell_volume 1455.466314
_symmetry_space_group_name_H-M "P N N A"
_symmetry_group_IT_number 52
_symmetry_cell_setting 'orthorhombic'
loop_
_space_group_symop_operation_xyz
x,y,z
1/2-x,-y,z
x,1/2-y,1/2-z
1/2-x,1/2+y,1/2-z
-x,-y,-z
1/2+x,y,-z
-x,1/2+y,1/2+z
1/2+x,1/2-y,1/2+z
loop_
_atom_site_type_symbol
_atom_site_label
_atom_site_fract_x
_atom_site_fract_y
_atom_site_fract_z
Si Si1 0.304595 0.857789 0.621370
Si Si2 0.750000 0.500000 0.373649
Si Si3 0.806293 0.433124 0.123068
Si Si4 0.808582 0.217179 0.377243
O O1 0.601402 0.857734 0.547090
O O2 0.243170 0.894956 0.712173
O O3 0.242172 0.820802 0.714039
O O4 0.500000 0.500000 0.500000
O O5 0.757004 0.465560 0.250994
O O6 0.596140 0.434788 0.961437
O O7 0.767327 0.250000 0.250000
O O8 0.597727 0.218421 0.537647
#
# Coordination Sequence:
#
# PCOD9408823 Si02
#       4
#     8   4   8   8
#     4   8  16  30  51  73  95 125 169 211 239 277
#     4  12  24  36  50  78 112 132 152 206 268 300
#     4  10  19  36  58  75  93 133 180 206 232 295
#     4  10  19  33  51  75 103 133 166 206 250 295
#
# _framework density 19.237821
#
# number of rings (size 3 to 8) (size 9 to 14) (size 15 to 20)
#    0.000    2.286    0.000    3.429    0.000    0.000 
#    0.000    2.857    0.000    0.000    0.000    0.000 
#    0.000    0.000    0.000    0.000    0.000    0.000 
#
# Total GULP energy -156134.802676 kJ/mol
# GULP energy per Si atom -5576.242953 kJ/mol
# Density = 1.919403 g / cm^3
# Si number density = 19.237821 Si / 1000 Ang^3
#
#
#
# Elastic Constant Matrix: (Units=GPa)
#
#
# Indices 1 2 3 4 5 6 
#
# 1 92.8509 0.1322 0.3666 0.0000 0.0000 0.0000
# 2 0.1322 229.7312 47.4378 0.0000 0.0000 0.0000
# 3 0.3666 47.4378 18.8452 0.0000 0.0000 0.0000
# 4 0.0000 0.0000 0.0000 21.1977 0.0000 0.0000
# 5 0.0000 0.0000 0.0000 0.0000 20.1764 0.0000
# 6 0.0000 0.0000 0.0000 0.0000 0.0000 26.8606
#
#
#
# Elastic Compliance Matrix: (Units=1/GPa)
#
#
# Indices 1 2 3 4 5 6 
#
# 1 0.010771 0.000077 -0.000404 0.000000 0.000000 0.000000
# 2 0.000077 0.009065 -0.022821 0.000000 0.000000 0.000000
# 3 -0.000404 -0.022821 0.110516 0.000000 0.000000 0.000000
# 4 0.000000 0.000000 0.000000 0.047175 0.000000 0.000000
# 5 0.000000 0.000000 0.000000 0.000000 0.049563 0.000000
# 6 0.000000 0.000000 0.000000 0.000000 0.000000 0.037229
#
#
# Mechanical properties :
#
#
# Convention : Reuss Voigt Hill
#
# Bulk Modulus (GPa) = 11.89648 48.58894 30.24271
# Shear Modulus (GPa) = 14.76522 33.21300 23.98911
#
# Velocity S-wave (km/s) = 2.77340 4.15956 3.53509
# Velocity P-wave (km/s) = 4.05623 6.95565 5.69359
#
# Compressibility (1/GPa) = 0.08405848
#
# Stress axis : x y z
#
# Youngs Moduli (GPa) = 92.83809 110.31265 9.04844
#
# Poissons Ratio (x) = -0.00851 0.00365
# Poissons Ratio (y) = -0.00717 0.20649
# Poissons Ratio (z) = 0.03749 2.51740
#
# Static dielectric constant tensor:
#      x y z
#    x 1.650360 0.000000 0.000000 
#    y 0.000000 1.746880 0.000000 
#    z 0.000000 0.000000 1.623600 
# 
# From -- ./inp_files/6694.got.cif
#   From: 2010.05.17/outbox.cif.g08.bks.cpg/sg52_4_cif.got.tgz:6694.got - 2010.06.03 12:15:38.
