data_PCOD9408895
_publ_section_title
;
Structure prediction by ZEFSAII (Michael W. Deem and Ramdas Pophale) SiO2 
 PCOD9408895
Probable space group: P N N A
;
_chemical_formula_sum "Si O2"
_cell_formula_units_Z 60
_cell_length_a 20.548142
_cell_length_b 12.012350
_cell_length_c 9.547466
_cell_angle_alpha 90.000000
_cell_angle_beta 90.000000
_cell_angle_gamma 90.000000
_cell_volume 2356.615101
_symmetry_space_group_name_H-M "P N N A"
_symmetry_group_IT_number 52
_symmetry_cell_setting 'orthorhombic'
loop_
_space_group_symop_operation_xyz
x,y,z
1/2-x,-y,z
x,1/2-y,1/2-z
1/2-x,1/2+y,1/2-z
-x,-y,-z
1/2+x,y,-z
-x,1/2+y,1/2+z
1/2+x,1/2-y,1/2+z
loop_
_atom_site_type_symbol
_atom_site_label
_atom_site_fract_x
_atom_site_fract_y
_atom_site_fract_z
Si Si1 0.321485 0.962098 0.195917
Si Si2 0.394729 0.750000 0.250000
Si Si3 0.511396 0.669971 0.436790
Si Si4 0.322881 0.853805 0.891078
Si Si5 0.434972 0.521432 0.767942
Si Si6 0.737723 0.128122 0.401389
Si Si7 0.556668 0.621899 0.732102
Si Si8 0.872540 0.323304 0.109892
O O1 0.348815 0.854794 0.276293
O O2 0.250000 0.000000 0.238143
O O3 0.377634 0.053090 0.219936
O O4 0.317265 0.925640 0.032016
O O5 0.443471 0.714078 0.376257
O O6 0.539146 0.583311 0.323519
O O7 0.516927 0.611488 0.585570
O O8 0.563178 0.769073 0.450775
O O9 0.389296 0.892746 0.815673
O O10 0.268211 0.875820 0.770690
O O11 0.317426 0.722363 0.928082
O O12 0.499457 0.576441 0.832732
O O13 0.386653 0.454148 0.870247
O O14 0.803003 0.186831 0.462152
O O15 0.750000 0.000000 0.443381
O O16 0.571476 0.750000 0.750000
O O17 0.863021 0.250000 0.250000
#
# Coordination Sequence:
#
# PCOD9408895 Si02
#       8
#     8   4   8   8   8   8   8   8
#     4  12  28  47  74 100 144 199 253 296 362 460
#     4  12  24  50  76 104 138 196 254 304 372 438
#     4  11  21  43  75 103 135 188 242 307 372 437
#     4  11  23  38  68 104 143 194 241 296 374 433
#     4  11  20  40  67 102 136 182 241 299 359 432
#     4  11  22  36  60 107 155 182 231 301 374 443
#     4  12  27  45  73 110 142 181 252 313 364 442
#     4  10  19  33  63  97 147 178 226 288 369 436
#
# _framework density 25.460245
#
# number of rings (size 3 to 8) (size 9 to 14) (size 15 to 20)
#    0.000    0.800    7.333    1.600    4.667    0.000 
#    0.000    4.667    0.000    0.000    0.000    0.000 
#    0.000    0.000    0.000    0.000    0.000    0.000 
#
# Total GULP energy -335191.028464 kJ/mol
# GULP energy per Si atom -5586.517141 kJ/mol
# Density = 2.540230 g / cm^3
# Si number density = 25.460245 Si / 1000 Ang^3
#
#
#
# Elastic Constant Matrix: (Units=GPa)
#
#
# Indices 1 2 3 4 5 6 
#
# 1 215.8290 106.9216 24.2401 0.0000 0.0000 0.0000
# 2 106.9216 193.4118 8.0522 0.0000 0.0000 0.0000
# 3 24.2401 8.0522 51.0388 0.0000 0.0000 0.0000
# 4 0.0000 0.0000 0.0000 28.1793 0.0000 0.0000
# 5 0.0000 0.0000 0.0000 0.0000 0.6187 0.0000
# 6 0.0000 0.0000 0.0000 0.0000 0.0000 49.1620
#
#
#
# Elastic Compliance Matrix: (Units=1/GPa)
#
#
# Indices 1 2 3 4 5 6 
#
# 1 0.006712 -0.003601 -0.002619 0.000000 0.000000 0.000000
# 2 -0.003601 0.007137 0.000584 0.000000 0.000000 0.000000
# 3 -0.002619 0.000584 0.020745 0.000000 0.000000 0.000000
# 4 0.000000 0.000000 0.000000 0.035487 0.000000 0.000000
# 5 0.000000 0.000000 0.000000 0.000000 1.616287 0.000000
# 6 0.000000 0.000000 0.000000 0.000000 0.000000 0.020341
#
#
# Mechanical properties :
#
#
# Convention : Reuss Voigt Hill
#
# Bulk Modulus (GPa) = 42.88035 82.07860 62.47947
# Shear Modulus (GPa) = 2.89728 36.99639 19.94684
#
# Velocity S-wave (km/s) = 1.06791 3.81610 2.80205
# Velocity P-wave (km/s) = 4.28943 7.19199 5.92131
#
# Compressibility (1/GPa) = 0.02332071
#
# Stress axis : x y z
#
# Youngs Moduli (GPa) = 148.99756 140.11897 48.20488
#
# Poissons Ratio (x) = 0.50460 0.12627
# Poissons Ratio (y) = 0.53657 -0.02817
# Poissons Ratio (z) = 0.39028 -0.08188
#
# Static dielectric constant tensor:
#      x y z
#    x 2.010190 0.000000 0.000000 
#    y 0.000000 2.049240 0.000000 
#    z 0.000000 0.000000 2.171800 
# 
# From -- ./inp_files/21779.got.cif
#   From: 2010.05.17/outbox.cif.g08.bks.cpg/sg52_11_cif.got.tgz:21779.got - 2010.06.03 12:15:38.
