data_PCOD9408785
_publ_section_title
;
Structure prediction by ZEFSAII (Michael W. Deem and Ramdas Pophale) SiO2 
 PCOD9408785
Probable space group: P N N A
;
_chemical_formula_sum "Si O2"
_cell_formula_units_Z 40
_cell_length_a 26.631691
_cell_length_b 8.201263
_cell_length_c 9.099578
_cell_angle_alpha 90.000000
_cell_angle_beta 90.000000
_cell_angle_gamma 90.000000
_cell_volume 1987.470698
_symmetry_space_group_name_H-M "P N N A"
_symmetry_group_IT_number 52
_symmetry_cell_setting 'orthorhombic'
loop_
_space_group_symop_operation_xyz
x,y,z
1/2-x,-y,z
x,1/2-y,1/2-z
1/2-x,1/2+y,1/2-z
-x,-y,-z
1/2+x,y,-z
-x,1/2+y,1/2+z
1/2+x,1/2-y,1/2+z
loop_
_atom_site_type_symbol
_atom_site_label
_atom_site_fract_x
_atom_site_fract_y
_atom_site_fract_z
Si Si1 0.831582 0.231847 0.928968
Si Si2 0.474091 0.747742 0.922796
Si Si3 0.674741 0.250000 0.750000
Si Si4 0.601922 0.033965 0.583563
Si Si5 0.570810 0.940952 0.913130
Si Si6 0.250000 0.000000 0.102758
O O1 0.826727 0.250000 0.750000
O O2 0.858298 0.400257 0.976097
O O3 0.779920 0.146645 0.978431
O O4 0.874359 0.102610 0.967852
O O5 0.464314 0.750000 0.750000
O O6 0.533377 0.788308 0.939719
O O7 0.445169 0.592129 0.987478
O O8 0.450528 0.902581 0.006176
O O9 0.637666 0.187299 0.623010
O O10 0.709442 0.099337 0.799958
O O11 0.578620 0.975515 0.739911
#
# Coordination Sequence:
#
# PCOD9408785 Si02
#       6
#     8   8   4   8   8   4
#     4  10  19  32  54  84 121 143 184 244 304 350
#     4  11  22  36  58  83 113 163 207 234 291 358
#     4  12  18  32  56  84 122 146 184 252 298 352
#     4  11  20  38  56  82 122 158 189 250 299 344
#     4  10  21  38  55  79 120 153 191 250 290 339
#     4  12  18  30  54  96 118 140 190 246 322 350
#
# _framework density 20.126082
#
# number of rings (size 3 to 8) (size 9 to 14) (size 15 to 20)
#    0.000    1.200    7.000    1.800    0.000    3.200 
#    0.000    3.000    0.000    0.000    0.000   28.000 
#    0.000    0.000    0.000    0.000    0.000    0.000 
#
# Total GULP energy -222809.126862 kJ/mol
# GULP energy per Si atom -5570.228172 kJ/mol
# Density = 2.008027 g / cm^3
# Si number density = 20.126082 Si / 1000 Ang^3
#
#
#
# Elastic Constant Matrix: (Units=GPa)
#
#
# Indices 1 2 3 4 5 6 
#
# 1 131.5733 42.4789 24.1422 0.0000 0.0000 0.0000
# 2 42.4789 98.9420 11.9601 0.0000 0.0000 0.0000
# 3 24.1422 11.9601 22.0774 0.0000 0.0000 0.0000
# 4 0.0000 0.0000 0.0000 19.3560 0.0000 0.0000
# 5 0.0000 0.0000 0.0000 0.0000 12.5553 0.0000
# 6 0.0000 0.0000 0.0000 0.0000 0.0000 58.8642
#
#
#
# Elastic Compliance Matrix: (Units=1/GPa)
#
#
# Indices 1 2 3 4 5 6 
#
# 1 0.010436 -0.003318 -0.009614 0.000000 0.000000 0.000000
# 2 -0.003318 0.011870 -0.002802 0.000000 0.000000 0.000000
# 3 -0.009614 -0.002802 0.057326 0.000000 0.000000 0.000000
# 4 0.000000 0.000000 0.000000 0.051663 0.000000 0.000000
# 5 0.000000 0.000000 0.000000 0.000000 0.079648 0.000000
# 6 0.000000 0.000000 0.000000 0.000000 0.000000 0.016988
#
#
# Mechanical properties :
#
#
# Convention : Reuss Voigt Hill
#
# Bulk Modulus (GPa) = 20.76254 45.52834 33.14544
# Shear Modulus (GPa) = 18.15180 29.75588 23.95384
#
# Velocity S-wave (km/s) = 3.00643 3.84926 3.45365
# Velocity P-wave (km/s) = 4.73182 6.51356 5.69283
#
# Compressibility (1/GPa) = 0.04816367
#
# Stress axis : x y z
#
# Youngs Moduli (GPa) = 95.82483 84.24430 17.44401
#
# Poissons Ratio (x) = 0.27954 0.16771
# Poissons Ratio (y) = 0.31797 0.04888
# Poissons Ratio (z) = 0.92127 0.23605
#
# Static dielectric constant tensor:
#      x y z
#    x 1.747200 0.000000 0.000000 
#    y 0.000000 1.842660 0.000000 
#    z 0.000000 0.000000 1.674380 
# 
# From -- ./inp_files/14055.got.cif
#   From: 2010.05.17/outbox.cif.g08.bks.cpg/sg52_8_cif.got.tgz:14055.got - 2010.06.03 12:15:38.
