data_PCOD9408994
_publ_section_title
;
Structure prediction by ZEFSAII (Michael W. Deem and Ramdas Pophale) SiO2 
 PCOD9408994
Probable space group: P N N A
;
_chemical_formula_sum "Si O2"
_cell_formula_units_Z 60
_cell_length_a 13.037267
_cell_length_b 11.959931
_cell_length_c 24.307671
_cell_angle_alpha 90.000000
_cell_angle_beta 90.000000
_cell_angle_gamma 90.000000
_cell_volume 3790.169073
_symmetry_space_group_name_H-M "P N N A"
_symmetry_group_IT_number 52
_symmetry_cell_setting 'orthorhombic'
loop_
_space_group_symop_operation_xyz
x,y,z
1/2-x,-y,z
x,1/2-y,1/2-z
1/2-x,1/2+y,1/2-z
-x,-y,-z
1/2+x,y,-z
-x,1/2+y,1/2+z
1/2+x,1/2-y,1/2+z
loop_
_atom_site_type_symbol
_atom_site_label
_atom_site_fract_x
_atom_site_fract_y
_atom_site_fract_z
Si Si1 0.813670 0.777434 0.637826
Si Si2 0.053340 0.250000 0.750000
Si Si3 0.634050 0.041708 0.315701
Si Si4 0.526958 0.384030 0.072657
Si Si5 0.634282 0.034614 0.834692
Si Si6 0.355451 0.562795 0.036396
Si Si7 0.419131 0.296094 0.358309
Si Si8 0.468221 0.870230 0.272280
O O1 0.860399 0.652590 0.634085
O O2 0.829109 0.846726 0.582667
O O3 0.693278 0.759100 0.649692
O O4 0.874375 0.841086 0.686511
O O5 0.117190 0.143907 0.727331
O O6 0.982213 0.281673 0.698102
O O7 0.598463 0.080555 0.376257
O O8 0.750000 0.000000 0.315172
O O9 0.556832 0.941339 0.300369
O O10 0.436540 0.474399 0.062067
O O11 0.474625 0.269266 0.092526
O O12 0.592272 0.382522 0.016935
O O13 0.573064 0.058574 0.779002
O O14 0.750000 0.000000 0.819265
O O15 0.591834 0.928538 0.867488
O O16 0.250000 0.500000 0.021329
O O17 0.505290 0.750000 0.250000
#
# Coordination Sequence:
#
# PCOD9408994 Si02
#       8
#     8   4   8   8   8   8   8   8
#     4  10  20  32  54  83 111 144 177 217 280 335
#     4  10  22  34  54  82 112 142 182 216 276 324
#     4  11  22  37  53  76 108 151 184 222 261 322
#     4  10  22  35  54  78 105 136 185 230 275 320
#     4   9  19  31  52  79 113 141 171 214 274 333
#     4  11  20  36  55  78 104 138 180 235 283 324
#     4  10  19  35  53  82 111 144 172 225 275 333
#     4  10  20  33  50  79 113 145 178 214 265 330
#
# _framework density 15.830427999999999
#
# number of rings (size 3 to 8) (size 9 to 14) (size 15 to 20)
#    0.000    1.867    4.000    0.400    5.600    0.533 
#    0.000    0.667    0.000    0.000    0.000    0.933 
#    0.000    0.000    0.000    0.000    0.000    0.000 
#
# Total GULP energy -334545.179503 kJ/mol
# GULP energy per Si atom -5575.752992 kJ/mol
# Density = 1.579440 g / cm^3
# Si number density = 15.830428 Si / 1000 Ang^3
#
#
#
# Elastic Constant Matrix: (Units=GPa)
#
#
# Indices 1 2 3 4 5 6 
#
# 1 96.1862 55.0640 37.2157 0.0000 0.0000 0.0000
# 2 55.0640 96.6585 45.6922 0.0000 0.0000 0.0000
# 3 37.2157 45.6922 73.5408 0.0000 0.0000 0.0000
# 4 0.0000 0.0000 0.0000 24.8493 0.0000 0.0000
# 5 0.0000 0.0000 0.0000 0.0000 18.9402 0.0000
# 6 0.0000 0.0000 0.0000 0.0000 0.0000 25.3084
#
#
#
# Elastic Compliance Matrix: (Units=1/GPa)
#
#
# Indices 1 2 3 4 5 6 
#
# 1 0.016023 -0.007497 -0.003451 0.000000 0.000000 0.000000
# 2 -0.007497 0.018156 -0.007487 0.000000 0.000000 0.000000
# 3 -0.003451 -0.007487 0.019996 0.000000 0.000000 0.000000
# 4 0.000000 0.000000 0.000000 0.040243 0.000000 0.000000
# 5 0.000000 0.000000 0.000000 0.000000 0.052798 0.000000
# 6 0.000000 0.000000 0.000000 0.000000 0.000000 0.039513
#
#
# Mechanical properties :
#
#
# Convention : Reuss Voigt Hill
#
# Bulk Modulus (GPa) = 57.78259 60.25882 59.02071
# Shear Modulus (GPa) = 21.79934 22.38048 22.08991
#
# Velocity S-wave (km/s) = 3.71489 3.76408 3.73957
# Velocity P-wave (km/s) = 7.41490 7.55241 7.48397
#
# Compressibility (1/GPa) = 0.01730625
#
# Stress axis : x y z
#
# Youngs Moduli (GPa) = 62.40865 55.07969 50.01083
#
# Poissons Ratio (x) = 0.41293 0.17258
# Poissons Ratio (y) = 0.46787 0.37441
# Poissons Ratio (z) = 0.21536 0.41235
#
# Static dielectric constant tensor:
#      x y z
#    x 1.519510 0.000000 0.000000 
#    y 0.000000 1.540000 0.000000 
#    z 0.000000 0.000000 1.499070 
# 
# From -- ./inp_files/36876.got.cif
#   From: 2010.05.17/outbox.cif.g08.bks.cpg/sg52_19_cif.got.tgz:36876.got - 2010.06.03 12:15:38.
