data_PCOD9408446
_publ_section_title
;
Structure prediction by ZEFSAII (Michael W. Deem and Ramdas Pophale) SiO2 
 PCOD9408446
Probable space group: P N N A
;
_chemical_formula_sum "Si O2"
_cell_formula_units_Z 32
_cell_length_a 15.224090
_cell_length_b 7.401210
_cell_length_c 11.953183
_cell_angle_alpha 90.000000
_cell_angle_beta 90.000000
_cell_angle_gamma 90.000000
_cell_volume 1346.845061
_symmetry_space_group_name_H-M "P N N A"
_symmetry_group_IT_number 52
_symmetry_cell_setting 'orthorhombic'
loop_
_space_group_symop_operation_xyz
x,y,z
1/2-x,-y,z
x,1/2-y,1/2-z
1/2-x,1/2+y,1/2-z
-x,-y,-z
1/2+x,y,-z
-x,1/2+y,1/2+z
1/2+x,1/2-y,1/2+z
loop_
_atom_site_type_symbol
_atom_site_label
_atom_site_fract_x
_atom_site_fract_y
_atom_site_fract_z
Si Si1 0.250000 0.000000 0.694409
Si Si2 0.233717 0.783204 0.379579
Si Si3 0.440567 0.291124 0.001353
Si Si4 0.623028 0.301797 0.027407
Si Si5 0.898766 0.250000 0.250000
O O1 0.301540 0.852539 0.617475
O O2 0.169517 0.915616 0.760075
O O3 0.221431 0.750000 0.250000
O O4 0.149372 0.714586 0.447726
O O5 0.323754 0.704196 0.429945
O O6 0.250000 0.000000 0.393748
O O7 0.529063 0.218864 0.060829
O O8 0.416195 0.504779 0.014403
O O9 0.448185 0.263706 0.867348
#
# Coordination Sequence:
#
# PCOD9408446 Si02
#       5
#     4   8   8   8   4
#     4  10  18  36  58  78 110 142 180 220 266 322
#     4  10  19  36  54  76 104 143 180 216 263 313
#     4   9  18  32  53  80 105 134 182 217 263 321
#     4   9  16  34  55  75 103 144 178 211 263 325
#     4  10  18  34  56  82 104 142 178 226 268 316
#
# _framework density 23.759231
#
# number of rings (size 3 to 8) (size 9 to 14) (size 15 to 20)
#    0.000    2.500    6.250    0.000    1.750    0.000 
#    4.500    0.000    0.000    3.000    0.000    0.000 
#    0.000    0.000    0.000    0.000    0.000    0.000 
#
# Total GULP energy -178158.671680 kJ/mol
# GULP energy per Si atom -5567.458490 kJ/mol
# Density = 2.370515 g / cm^3
# Si number density = 23.759231 Si / 1000 Ang^3
#
#
#
# Elastic Constant Matrix: (Units=GPa)
#
#
# Indices 1 2 3 4 5 6 
#
# 1 185.1049 -1.9370 52.3548 0.0000 0.0000 0.0000
# 2 -1.9370 36.9693 2.4178 0.0000 0.0000 0.0000
# 3 52.3548 2.4178 92.1408 0.0000 0.0000 0.0000
# 4 0.0000 0.0000 0.0000 17.7292 0.0000 0.0000
# 5 0.0000 0.0000 0.0000 0.0000 31.6587 0.0000
# 6 0.0000 0.0000 0.0000 0.0000 0.0000 6.0732
#
#
#
# Elastic Compliance Matrix: (Units=1/GPa)
#
#
# Indices 1 2 3 4 5 6 
#
# 1 0.006449 0.000579 -0.003680 0.000000 0.000000 0.000000
# 2 0.000579 0.027148 -0.001041 0.000000 0.000000 0.000000
# 3 -0.003680 -0.001041 0.012971 0.000000 0.000000 0.000000
# 4 0.000000 0.000000 0.000000 0.056404 0.000000 0.000000
# 5 0.000000 0.000000 0.000000 0.000000 0.031587 0.000000
# 6 0.000000 0.000000 0.000000 0.000000 0.000000 0.164659
#
#
# Mechanical properties :
#
#
# Convention : Reuss Voigt Hill
#
# Bulk Modulus (GPa) = 26.12075 46.65402 36.38738
# Shear Modulus (GPa) = 15.61215 28.51749 22.06482
#
# Velocity S-wave (km/s) = 2.56617 3.46825 3.05074
# Velocity P-wave (km/s) = 4.44951 5.97638 5.26855
#
# Compressibility (1/GPa) = 0.03828374
#
# Stress axis : x y z
#
# Youngs Moduli (GPa) = 155.05956 36.83526 77.09475
#
# Poissons Ratio (x) = -0.02131 0.28368
# Poissons Ratio (y) = -0.08971 0.08026
# Poissons Ratio (z) = 0.57056 0.03835
#
# Static dielectric constant tensor:
#      x y z
#    x 1.992930 0.000000 0.000000 
#    y 0.000000 2.023640 0.000000 
#    z 0.000000 0.000000 1.894870 
# 
# From -- ./inp_files/9637.got.cif
#   From: 2010.05.17/outbox.cif.g08.bks.cpg/sg52_5_cif.got.tgz:9637.got - 2010.06.03 12:15:38.
