data_PCOD9408773
_publ_section_title
;
Structure prediction by ZEFSAII (Michael W. Deem and Ramdas Pophale) SiO2 
 PCOD9408773
Probable space group: P N N A
;
_chemical_formula_sum "Si O2"
_cell_formula_units_Z 60
_cell_length_a 26.655340
_cell_length_b 8.978270
_cell_length_c 13.946373
_cell_angle_alpha 90.000000
_cell_angle_beta 90.000000
_cell_angle_gamma 90.000000
_cell_volume 3337.629801
_symmetry_space_group_name_H-M "P N N A"
_symmetry_group_IT_number 52
_symmetry_cell_setting 'orthorhombic'
loop_
_space_group_symop_operation_xyz
x,y,z
1/2-x,-y,z
x,1/2-y,1/2-z
1/2-x,1/2+y,1/2-z
-x,-y,-z
1/2+x,y,-z
-x,1/2+y,1/2+z
1/2+x,1/2-y,1/2+z
loop_
_atom_site_type_symbol
_atom_site_label
_atom_site_fract_x
_atom_site_fract_y
_atom_site_fract_z
Si Si1 0.444475 0.935311 0.479303
Si Si2 0.922624 0.194848 0.642694
Si Si3 0.355033 0.461399 0.879768
Si Si4 0.480037 0.860696 0.939074
Si Si5 0.389293 0.526937 0.669171
Si Si6 0.750000 0.000000 0.011472
Si Si7 0.797855 0.746027 0.352970
Si Si8 0.655857 0.824625 0.004803
O O1 0.403498 0.991694 0.556811
O O2 0.449664 0.757475 0.493705
O O3 0.500000 0.000000 0.500000
O O4 0.427972 0.017807 0.380680
O O5 0.916074 0.250000 0.750000
O O6 0.877314 0.258290 0.579418
O O7 0.972931 0.272135 0.602974
O O8 0.375788 0.449976 0.770512
O O9 0.312936 0.589664 0.884499
O O10 0.331156 0.314197 0.925744
O O11 0.445064 0.915252 0.851215
O O12 0.500000 0.000000 0.000000
O O13 0.351313 0.664949 0.663897
O O14 0.376381 0.426060 0.577371
O O15 0.769901 0.864025 0.076209
O O16 0.701532 0.923937 0.964252
O O17 0.770873 0.750000 0.250000
#
# Coordination Sequence:
#
# PCOD9408773 Si02
#       8
#     8   8   8   8   8   4   8   8
#     4   9  20  34  52  80 114 149 193 230 269 337
#     4  10  22  38  58  80 112 153 194 244 286 335
#     4  10  19  33  55  80 116 151 184 227 276 345
#     4  11  20  34  56  82 119 155 192 228 275 340
#     4  10  19  32  52  82 117 153 182 220 278 341
#     4  10  22  36  58  78 108 146 182 242 302 336
#     4   9  19  32  52  79 109 147 181 221 275 348
#     4  10  21  39  54  81 110 145 192 243 289 346
#
# _framework density 17.976831000000001
#
# number of rings (size 3 to 8) (size 9 to 14) (size 15 to 20)
#    0.000    2.133    2.667    0.400    3.733    3.733 
#    0.000    0.667    0.000    3.200    0.000    0.000 
#    0.000    0.000    0.000    0.000    0.000    0.000 
#
# Total GULP energy -334193.295161 kJ/mol
# GULP energy per Si atom -5569.888253 kJ/mol
# Density = 1.793591 g / cm^3
# Si number density = 17.976831 Si / 1000 Ang^3
#
#
#
# Elastic Constant Matrix: (Units=GPa)
#
#
# Indices 1 2 3 4 5 6 
#
# 1 65.5865 22.9971 16.3920 0.0000 0.0000 0.0000
# 2 22.9971 98.4909 33.4278 0.0000 0.0000 0.0000
# 3 16.3920 33.4278 83.2015 0.0000 0.0000 0.0000
# 4 0.0000 0.0000 0.0000 17.1023 0.0000 0.0000
# 5 0.0000 0.0000 0.0000 0.0000 3.9148 0.0000
# 6 0.0000 0.0000 0.0000 0.0000 0.0000 27.5038
#
#
#
# Elastic Compliance Matrix: (Units=1/GPa)
#
#
# Indices 1 2 3 4 5 6 
#
# 1 0.016895 -0.003260 -0.002019 0.000000 0.000000 0.000000
# 2 -0.003260 0.012385 -0.004334 0.000000 0.000000 0.000000
# 3 -0.002019 -0.004334 0.014158 0.000000 0.000000 0.000000
# 4 0.000000 0.000000 0.000000 0.058472 0.000000 0.000000
# 5 0.000000 0.000000 0.000000 0.000000 0.255443 0.000000
# 6 0.000000 0.000000 0.000000 0.000000 0.000000 0.036359
#
#
# Mechanical properties :
#
#
# Convention : Reuss Voigt Hill
#
# Bulk Modulus (GPa) = 41.29985 43.65697 42.47841
# Shear Modulus (GPa) = 11.87629 21.33497 16.60563
#
# Velocity S-wave (km/s) = 2.57309 3.44874 3.04258
# Velocity P-wave (km/s) = 5.64372 6.34005 6.00199
#
# Compressibility (1/GPa) = 0.02421316
#
# Stress axis : x y z
#
# Youngs Moduli (GPa) = 59.19064 80.74151 70.63162
#
# Poissons Ratio (x) = 0.26318 0.14260
# Poissons Ratio (y) = 0.19294 0.30610
# Poissons Ratio (z) = 0.11950 0.34992
#
# Static dielectric constant tensor:
#      x y z
#    x 1.651490 0.000000 0.000000 
#    y 0.000000 1.589780 0.000000 
#    z 0.000000 0.000000 1.611550 
# 
# From -- ./inp_files/23187.got.cif
#   From: 2010.05.17/outbox.cif.g08.bks.cpg/sg52_12_cif.got.tgz:23187.got - 2010.06.03 12:15:38.
