data_PCOD9408442
_publ_section_title
;
Structure prediction by ZEFSAII (Michael W. Deem and Ramdas Pophale) SiO2 
 PCOD9408442
Probable space group: P N N A
;
_chemical_formula_sum "Si O2"
_cell_formula_units_Z 52
_cell_length_a 19.354117
_cell_length_b 13.179038
_cell_length_c 8.056929
_cell_angle_alpha 90.000000
_cell_angle_beta 90.000000
_cell_angle_gamma 90.000000
_cell_volume 2055.069950
_symmetry_space_group_name_H-M "P N N A"
_symmetry_group_IT_number 52
_symmetry_cell_setting 'orthorhombic'
loop_
_space_group_symop_operation_xyz
x,y,z
1/2-x,-y,z
x,1/2-y,1/2-z
1/2-x,1/2+y,1/2-z
-x,-y,-z
1/2+x,y,-z
-x,1/2+y,1/2+z
1/2+x,1/2-y,1/2+z
loop_
_atom_site_type_symbol
_atom_site_label
_atom_site_fract_x
_atom_site_fract_y
_atom_site_fract_z
Si Si1 0.601095 0.157270 0.851638
Si Si2 0.883037 0.908001 0.195810
Si Si3 0.651850 0.750000 0.250000
Si Si4 0.838281 0.398263 0.506229
Si Si5 0.137980 0.939446 0.539129
Si Si6 0.750058 0.635426 0.800843
Si Si7 0.043985 0.941750 0.215539
O O1 0.568322 0.250000 0.750000
O O2 0.669095 0.131961 0.740271
O O3 0.553316 0.057621 0.848301
O O4 0.622718 0.177397 0.046649
O O5 0.964974 0.912882 0.223061
O O6 0.847943 0.000207 0.095775
O O7 0.857467 0.948586 0.377172
O O8 0.692113 0.690440 0.393394
O O9 0.615379 0.847367 0.335580
O O10 0.792219 0.422290 0.660783
O O11 0.913185 0.372503 0.584880
O O12 0.211986 0.902234 0.466538
O O13 0.082333 0.937880 0.391738
O O14 0.730164 0.750000 0.750000
#
# Coordination Sequence:
#
# PCOD9408442 Si02
#       7
#     8   8   4   8   8   8   8
#     4  10  22  41  65  88 133 182 218 268 350 404
#     4  10  21  41  61  95 132 166 223 277 323 395
#     4  10  18  34  56 100 120 158 214 264 336 374
#     4   9  18  32  59  87 124 159 211 267 321 388
#     4  10  21  37  67  90 135 164 216 283 335 390
#     4  10  19  37  62  92 129 169 215 276 333 404
#     4  10  21  40  60  93 132 168 215 277 322 397
#
# _framework density 25.303273999999998
#
# number of rings (size 3 to 8) (size 9 to 14) (size 15 to 20)
#    0.000    2.154    1.538    2.308    0.000    5.538 
#   12.462    6.923    3.385    0.000    0.000    0.000 
#    0.000    0.000    0.000    0.000    0.000    0.000 
#
# Total GULP energy -289627.840356 kJ/mol
# GULP energy per Si atom -5569.766161 kJ/mol
# Density = 2.524568 g / cm^3
# Si number density = 25.303274 Si / 1000 Ang^3
#
#
#
# Elastic Constant Matrix: (Units=GPa)
#
#
# Indices 1 2 3 4 5 6 
#
# 1 95.0491 3.6647 15.0149 0.0000 0.0000 0.0000
# 2 3.6647 84.9047 17.8700 0.0000 0.0000 0.0000
# 3 15.0149 17.8700 125.5799 0.0000 0.0000 0.0000
# 4 0.0000 0.0000 0.0000 41.3317 0.0000 0.0000
# 5 0.0000 0.0000 0.0000 0.0000 -911.5214 0.0000
# 6 0.0000 0.0000 0.0000 0.0000 0.0000 9.7155
#
#
#
# Elastic Compliance Matrix: (Units=1/GPa)
#
#
# Indices 1 2 3 4 5 6 
#
# 1 0.010727 -0.000199 -0.001254 0.000000 0.000000 0.000000
# 2 -0.000199 0.012145 -0.001704 0.000000 0.000000 0.000000
# 3 -0.001254 -0.001704 0.008356 0.000000 0.000000 0.000000
# 4 0.000000 0.000000 0.000000 0.024195 0.000000 0.000000
# 5 0.000000 0.000000 0.000000 0.000000 -0.001097 0.000000
# 6 0.000000 0.000000 0.000000 0.000000 0.000000 0.102928
#
#
# Mechanical properties :
#
#
# Convention : Reuss Voigt Hill
#
# Bulk Modulus (GPa) = 40.14114 42.07032 41.10573
# Shear Modulus (GPa) = 29.09133 -154.16257 -62.53562
#
# Velocity S-wave (km/s) = 3.39441 -7.81397 -4.97676
# Velocity P-wave (km/s) = 5.59117 8.04664 4.09190
#
# Compressibility (1/GPa) = 0.02491210
#
# Stress axis : x y z
#
# Youngs Moduli (GPa) = 93.22546 82.33678 119.68073
#
# Poissons Ratio (x) = 0.01639 0.15011
# Poissons Ratio (y) = 0.01855 0.20399
# Poissons Ratio (z) = 0.11692 0.14034
#
# Static dielectric constant tensor:
#      x y z
#    x 2.044220 0.000000 0.000000 
#    y 0.000000 2.117850 0.000000 
#    z 0.000000 0.000000 2.133490 
# 
# From -- ./inp_files/13363.got.cif
#   From: 2010.05.17/outbox.cif.g08.bks.cpg/sg52_7_cif.got.tgz:13363.got - 2010.06.03 12:15:38.
