data_PCOD9408466
_publ_section_title
;
Structure prediction by ZEFSAII (Michael W. Deem and Ramdas Pophale) SiO2 
 PCOD9408466
Probable space group: P N N A
;
_chemical_formula_sum "Si O2"
_cell_formula_units_Z 44
_cell_length_a 14.267892
_cell_length_b 15.893351
_cell_length_c 7.396153
_cell_angle_alpha 90.000000
_cell_angle_beta 90.000000
_cell_angle_gamma 90.000000
_cell_volume 1677.185792
_symmetry_space_group_name_H-M "P N N A"
_symmetry_group_IT_number 52
_symmetry_cell_setting 'orthorhombic'
loop_
_space_group_symop_operation_xyz
x,y,z
1/2-x,-y,z
x,1/2-y,1/2-z
1/2-x,1/2+y,1/2-z
-x,-y,-z
1/2+x,y,-z
-x,1/2+y,1/2+z
1/2+x,1/2-y,1/2+z
loop_
_atom_site_type_symbol
_atom_site_label
_atom_site_fract_x
_atom_site_fract_y
_atom_site_fract_z
Si Si1 0.408379 0.091854 0.360169
Si Si2 0.951242 0.461905 0.270804
Si Si3 0.866096 0.185772 0.102899
Si Si4 0.267899 0.812592 0.389865
Si Si5 0.036216 0.250000 0.750000
Si Si6 0.328181 0.621595 0.733493
O O1 0.423207 0.073335 0.572447
O O2 0.300810 0.113877 0.313315
O O3 0.471363 0.175121 0.322411
O O4 0.451097 0.010988 0.257363
O O5 0.943348 0.386771 0.416396
O O6 0.875497 0.534366 0.307860
O O7 0.905788 0.250000 0.250000
O O8 0.778172 0.133141 0.178944
O O9 0.811648 0.248064 0.968836
O O10 0.318786 0.750000 0.250000
O O11 0.326873 0.856489 0.550220
O O12 0.111056 0.305527 0.637717
#
# Coordination Sequence:
#
# PCOD9408466 Si02
#       6
#     8   8   8   8   4   8
#     4  10  20  33  60  90 120 158 190 258 317 359
#     4  10  20  35  62  90 116 155 213 249 309 371
#     4  10  18  34  60  87 108 157 211 251 294 372
#     4  11  21  37  62  90 124 164 205 257 318 369
#     4  10  18  36  60  88 124 160 200 248 314 370
#     4  10  19  36  65  86 118 161 218 251 299 377
#
# _framework density 26.234423
#
# number of rings (size 3 to 8) (size 9 to 14) (size 15 to 20)
#    0.000    1.818    7.273    0.545    0.000    0.000 
#    0.000    0.909   32.000    0.000    0.000    0.000 
#    0.000    0.000    0.000    0.000    0.000    0.000 
#
# Total GULP energy -245520.164150 kJ/mol
# GULP energy per Si atom -5580.003731 kJ/mol
# Density = 2.617471 g / cm^3
# Si number density = 26.234423 Si / 1000 Ang^3
#
#
#
# Elastic Constant Matrix: (Units=GPa)
#
#
# Indices 1 2 3 4 5 6 
#
# 1 69.3503 24.2847 6.6719 0.0000 0.0000 0.0000
# 2 24.2847 147.1478 8.6215 0.0000 0.0000 0.0000
# 3 6.6719 8.6215 49.9623 0.0000 0.0000 0.0000
# 4 0.0000 0.0000 0.0000 47.8168 0.0000 0.0000
# 5 0.0000 0.0000 0.0000 0.0000 29.7637 0.0000
# 6 0.0000 0.0000 0.0000 0.0000 0.0000 22.0232
#
#
#
# Elastic Compliance Matrix: (Units=1/GPa)
#
#
# Indices 1 2 3 4 5 6 
#
# 1 0.015436 -0.002451 -0.001638 0.000000 0.000000 0.000000
# 2 -0.002451 0.007255 -0.000924 0.000000 0.000000 0.000000
# 3 -0.001638 -0.000924 0.020393 0.000000 0.000000 0.000000
# 4 0.000000 0.000000 0.000000 0.020913 0.000000 0.000000
# 5 0.000000 0.000000 0.000000 0.000000 0.033598 0.000000
# 6 0.000000 0.000000 0.000000 0.000000 0.000000 0.045407
#
#
# Mechanical properties :
#
#
# Convention : Reuss Voigt Hill
#
# Bulk Modulus (GPa) = 30.25238 38.40185 34.32711
# Shear Modulus (GPa) = 30.47885 35.04622 32.76253
#
# Velocity S-wave (km/s) = 3.41220 3.65894 3.53772
# Velocity P-wave (km/s) = 5.20392 5.70265 5.45898
#
# Compressibility (1/GPa) = 0.03305525
#
# Stress axis : x y z
#
# Youngs Moduli (GPa) = 64.78539 137.84297 49.03550
#
# Poissons Ratio (x) = 0.33791 0.08033
# Poissons Ratio (y) = 0.15882 0.04533
# Poissons Ratio (z) = 0.10613 0.12743
#
# Static dielectric constant tensor:
#      x y z
#    x 2.027670 0.000000 0.000000 
#    y 0.000000 2.047090 0.000000 
#    z 0.000000 0.000000 2.260900 
# 
# From -- ./inp_files/11960.got.cif
#   From: 2010.05.17/outbox.cif.g08.bks.cpg/sg52_6_cif.got.tgz:11960.got - 2010.06.03 12:15:38.
