data_PCOD9408763
_publ_section_title
;
Structure prediction by ZEFSAII (Michael W. Deem and Ramdas Pophale) SiO2 
 PCOD9408763
Probable space group: P N N A
;
_chemical_formula_sum "Si O2"
_cell_formula_units_Z 56
_cell_length_a 20.572632
_cell_length_b 8.884621
_cell_length_c 16.248616
_cell_angle_alpha 90.000000
_cell_angle_beta 90.000000
_cell_angle_gamma 90.000000
_cell_volume 2969.922655
_symmetry_space_group_name_H-M "P N N A"
_symmetry_group_IT_number 52
_symmetry_cell_setting 'orthorhombic'
loop_
_space_group_symop_operation_xyz
x,y,z
1/2-x,-y,z
x,1/2-y,1/2-z
1/2-x,1/2+y,1/2-z
-x,-y,-z
1/2+x,y,-z
-x,1/2+y,1/2+z
1/2+x,1/2-y,1/2+z
loop_
_atom_site_type_symbol
_atom_site_label
_atom_site_fract_x
_atom_site_fract_y
_atom_site_fract_z
Si Si1 0.990929 0.826210 0.163076
Si Si2 0.920717 0.674160 0.504384
Si Si3 0.390392 0.171459 0.048684
Si Si4 0.848500 0.616601 0.872974
Si Si5 0.015180 0.090086 0.277573
Si Si6 0.791649 0.212889 0.657671
Si Si7 0.965111 0.373910 0.055901
O O1 0.975247 0.750000 0.250000
O O2 0.936100 0.817183 0.093080
O O3 0.056494 0.772247 0.116881
O O4 0.010798 0.988470 0.197802
O O5 0.906240 0.499877 0.523654
O O6 0.870987 0.796242 0.543766
O O7 0.987154 0.728951 0.548792
O O8 0.321336 0.171218 0.093090
O O9 0.399309 0.298942 0.977990
O O10 0.911823 0.606427 0.814174
O O11 0.820873 0.446603 0.873716
O O12 0.786096 0.708067 0.841504
O O13 0.991276 0.250000 0.250000
O O14 0.969041 0.051286 0.354739
O O15 0.814453 0.250000 0.750000
O O16 0.000000 0.500000 0.000000
#
# Coordination Sequence:
#
# PCOD9408763 Si02
#       7
#     8   8   8   8   8   8   8
#     4  11  20  32  53  81 108 141 181 229 280 328
#     4  10  21  36  52  76 111 149 187 229 282 340
#     4  11  20  34  52  77 112 146 182 225 273 339
#     4  10  22  38  53  76 113 150 184 225 279 344
#     4  11  19  31  51  76 106 140 176 224 273 322
#     4  11  23  36  55  82 109 146 191 227 272 340
#     4  10  19  32  50  73 106 144 180 220 277 337
#
# _framework density 18.855709999999998
#
# number of rings (size 3 to 8) (size 9 to 14) (size 15 to 20)
#    0.000    1.429    0.000   10.286    0.000    2.857 
#    0.000    0.000    0.000    0.000    0.000    9.000 
#    0.000    0.000    0.000    0.000    0.000    0.000 
#
# Total GULP energy -311886.648919 kJ/mol
# GULP energy per Si atom -5569.404445 kJ/mol
# Density = 1.881279 g / cm^3
# Si number density = 18.855710 Si / 1000 Ang^3
#
#
#
# Elastic Constant Matrix: (Units=GPa)
#
#
# Indices 1 2 3 4 5 6 
#
# 1 53.3386 24.7877 35.8095 0.0000 0.0000 0.0000
# 2 24.7877 73.6845 36.7282 0.0000 0.0000 0.0000
# 3 35.8095 36.7282 117.7514 0.0000 0.0000 0.0000
# 4 0.0000 0.0000 0.0000 37.3840 0.0000 0.0000
# 5 0.0000 0.0000 0.0000 0.0000 29.1169 0.0000
# 6 0.0000 0.0000 0.0000 0.0000 0.0000 24.6048
#
#
#
# Elastic Compliance Matrix: (Units=1/GPa)
#
#
# Indices 1 2 3 4 5 6 
#
# 1 0.025337 -0.005545 -0.005976 0.000000 0.000000 0.000000
# 2 -0.005545 0.017283 -0.003705 0.000000 0.000000 0.000000
# 3 -0.005976 -0.003705 0.011465 0.000000 0.000000 0.000000
# 4 0.000000 0.000000 0.000000 0.026749 0.000000 0.000000
# 5 0.000000 0.000000 0.000000 0.000000 0.034344 0.000000
# 6 0.000000 0.000000 0.000000 0.000000 0.000000 0.040642
#
#
# Mechanical properties :
#
#
# Convention : Reuss Voigt Hill
#
# Bulk Modulus (GPa) = 42.31005 48.82504 45.56755
# Shear Modulus (GPa) = 25.75327 28.05108 26.90218
#
# Velocity S-wave (km/s) = 3.69969 3.86122 3.78132
# Velocity P-wave (km/s) = 6.38262 6.76971 6.57901
#
# Compressibility (1/GPa) = 0.02363505
#
# Stress axis : x y z
#
# Youngs Moduli (GPa) = 39.46831 57.85949 87.21991
#
# Poissons Ratio (x) = 0.32082 0.52120
# Poissons Ratio (y) = 0.21884 0.32312
# Poissons Ratio (z) = 0.23585 0.21435
#
# Static dielectric constant tensor:
#      x y z
#    x 1.676670 0.000000 0.000000 
#    y 0.000000 1.850120 0.000000 
#    z 0.000000 0.000000 1.735890 
# 
# From -- ./inp_files/28774.got.cif
#   From: 2010.05.17/outbox.cif.g08.bks.cpg/sg52_15_cif.got.tgz:28774.got - 2010.06.03 12:15:38.
