data_PCOD9408836
_publ_section_title
;
Structure prediction by ZEFSAII (Michael W. Deem and Ramdas Pophale) SiO2 
 PCOD9408836
Probable space group: P N N A
;
_chemical_formula_sum "Si O2"
_cell_formula_units_Z 44
_cell_length_a 23.766817
_cell_length_b 15.499969
_cell_length_c 5.591565
_cell_angle_alpha 90.000000
_cell_angle_beta 90.000000
_cell_angle_gamma 90.000000
_cell_volume 2059.848263
_symmetry_space_group_name_H-M "P N N A"
_symmetry_group_IT_number 52
_symmetry_cell_setting 'orthorhombic'
loop_
_space_group_symop_operation_xyz
x,y,z
1/2-x,-y,z
x,1/2-y,1/2-z
1/2-x,1/2+y,1/2-z
-x,-y,-z
1/2+x,y,-z
-x,1/2+y,1/2+z
1/2+x,1/2-y,1/2+z
loop_
_atom_site_type_symbol
_atom_site_label
_atom_site_fract_x
_atom_site_fract_y
_atom_site_fract_z
Si Si1 0.448144 0.567663 0.458809
Si Si2 0.016283 0.100844 0.542132
Si Si3 0.250000 0.500000 0.909661
Si Si4 0.405048 0.170830 0.576156
Si Si5 0.291276 0.158697 0.286094
Si Si6 0.649821 0.960434 0.087994
O O1 0.500000 0.500000 0.500000
O O2 0.445852 0.611192 0.721927
O O3 0.389296 0.517592 0.417964
O O4 0.460353 0.623645 0.222329
O O5 0.958439 0.151931 0.586900
O O6 0.000000 0.000000 0.500000
O O7 0.304841 0.510898 0.744710
O O8 0.258779 0.415337 0.070516
O O9 0.415763 0.250000 0.750000
O O10 0.347216 0.182654 0.436138
O O11 0.393977 0.086839 0.737949
O O12 0.260789 0.250000 0.250000
O O13 0.314677 0.112454 0.049231
#
# Coordination Sequence:
#
# PCOD9408836 Si02
#       6
#     8   8   4   8   8   8
#     4  10  19  33  59  86 121 165 202 249 311 395
#     4  10  19  33  53  88 120 164 199 238 318 388
#     4  10  26  38  60  96 124 176 224 292 332 418
#     4  11  21  33  57  95 126 157 204 277 336 393
#     4  11  22  39  64  93 129 165 222 289 357 394
#     4  11  21  39  58  92 126 162 223 267 337 400
#
# _framework density 21.360797999999999
#
# number of rings (size 3 to 8) (size 9 to 14) (size 15 to 20)
#    0.000    1.455    5.455    2.727    2.545    0.000 
#    0.000    0.000    0.000    1.091    9.455    0.000 
#    0.000    0.000    0.000    0.000    0.000    0.000 
#
# Total GULP energy -245622.716033 kJ/mol
# GULP energy per Si atom -5582.334455 kJ/mol
# Density = 2.131218 g / cm^3
# Si number density = 21.360798 Si / 1000 Ang^3
#
#
#
# Elastic Constant Matrix: (Units=GPa)
#
#
# Indices 1 2 3 4 5 6 
#
# 1 62.8958 48.2074 10.8049 0.0000 0.0000 0.0000
# 2 48.2074 78.2096 18.2211 0.0000 0.0000 0.0000
# 3 10.8049 18.2211 103.9748 0.0000 0.0000 0.0000
# 4 0.0000 0.0000 0.0000 28.7272 0.0000 0.0000
# 5 0.0000 0.0000 0.0000 0.0000 -230.5930 0.0000
# 6 0.0000 0.0000 0.0000 0.0000 0.0000 1.9837
#
#
#
# Elastic Compliance Matrix: (Units=1/GPa)
#
#
# Indices 1 2 3 4 5 6 
#
# 1 0.030139 -0.018607 0.000129 0.000000 0.000000 0.000000
# 2 -0.018607 0.024818 -0.002416 0.000000 0.000000 0.000000
# 3 0.000129 -0.002416 0.010028 0.000000 0.000000 0.000000
# 4 0.000000 0.000000 0.000000 0.034810 0.000000 0.000000
# 5 0.000000 0.000000 0.000000 0.000000 -0.004337 0.000000
# 6 0.000000 0.000000 0.000000 0.000000 0.000000 0.504096
#
#
# Mechanical properties :
#
#
# Convention : Reuss Voigt Hill
#
# Bulk Modulus (GPa) = 43.10958 44.39413 43.75186
# Shear Modulus (GPa) = 7.70327 -28.78662 -10.54168
#
# Velocity S-wave (km/s) = 1.90108 -3.67500 -2.22391
# Velocity P-wave (km/s) = 5.00442 1.67946 3.73262
#
# Compressibility (1/GPa) = 0.02319670
#
# Stress axis : x y z
#
# Youngs Moduli (GPa) = 33.17952 40.29289 99.72421
#
# Poissons Ratio (x) = 0.74974 -0.01285
# Poissons Ratio (y) = 0.61738 0.24090
# Poissons Ratio (z) = -0.00427 0.09733
#
# Static dielectric constant tensor:
#      x y z
#    x 1.755400 0.000000 0.000000 
#    y 0.000000 1.774440 0.000000 
#    z 0.000000 0.000000 1.890430 
# 
# From -- ./inp_files/5733.got.cif
#   From: 2010.05.17/outbox.cif.g08.bks.cpg/sg52_3_cif.got.tgz:5733.got - 2010.06.03 12:15:38.
