data_PCOD9408082
_publ_section_title
;
Structure prediction by ZEFSAII (Michael W. Deem and Ramdas Pophale) SiO2 
 PCOD9408082
Probable space group: P N N A
;
_chemical_formula_sum "Si O2"
_cell_formula_units_Z 40
_cell_length_a 12.463877
_cell_length_b 8.904827
_cell_length_c 14.234672
_cell_angle_alpha 90.000000
_cell_angle_beta 90.000000
_cell_angle_gamma 90.000000
_cell_volume 1579.887291
_symmetry_space_group_name_H-M "P N N A"
_symmetry_group_IT_number 52
_symmetry_cell_setting 'orthorhombic'
loop_
_space_group_symop_operation_xyz
x,y,z
1/2-x,-y,z
x,1/2-y,1/2-z
1/2-x,1/2+y,1/2-z
-x,-y,-z
1/2+x,y,-z
-x,1/2+y,1/2+z
1/2+x,1/2-y,1/2+z
loop_
_atom_site_type_symbol
_atom_site_label
_atom_site_fract_x
_atom_site_fract_y
_atom_site_fract_z
Si Si1 0.374293 0.499358 0.926878
Si Si2 0.109988 0.409745 0.290957
Si Si3 0.917111 0.122285 0.623657
Si Si4 0.122322 0.690171 0.657649
Si Si5 0.881717 0.440646 0.530372
O O1 0.250000 0.500000 0.900039
O O2 0.452370 0.621139 0.881949
O O3 0.420923 0.340980 0.891419
O O4 0.382354 0.490343 0.039236
O O5 0.144984 0.250000 0.250000
O O6 0.125888 0.547592 0.218894
O O7 0.154314 0.432965 0.395829
O O8 0.980262 0.399254 0.303985
O O9 0.885033 0.288422 0.592375
O O10 0.184757 0.750000 0.750000
O O11 0.171642 0.605258 0.568840
O O12 0.000000 0.500000 0.500000
#
# Coordination Sequence:
#
# PCOD9408082 Si02
#       5
#     8   8   8   8   8
#     4  10  20  34  58  88 117 152 199 245 298 359
#     4  10  17  32  58  85 116 152 197 244 300 358
#     4  10  19  35  60  84 114 158 195 238 304 355
#     4   9  16  33  54  79 119 155 184 246 298 341
#     4   9  19  30  54  90 113 147 202 244 286 362
#
# _framework density 25.318259999999999
#
# number of rings (size 3 to 8) (size 9 to 14) (size 15 to 20)
#    0.000    2.400    4.000    0.600    2.800    0.000 
#    0.000    2.000    0.000   10.800    0.000    0.000 
#    0.000    0.000    0.000    0.000    0.000    0.000 
#
# Total GULP energy -223144.726060 kJ/mol
# GULP energy per Si atom -5578.618151 kJ/mol
# Density = 2.526063 g / cm^3
# Si number density = 25.318260 Si / 1000 Ang^3
#
#
#
# Elastic Constant Matrix: (Units=GPa)
#
#
# Indices 1 2 3 4 5 6 
#
# 1 88.3228 28.0525 9.3491 0.0000 0.0000 0.0000
# 2 28.0525 113.7172 64.0133 0.0000 0.0000 0.0000
# 3 9.3491 64.0133 232.9934 0.0000 0.0000 0.0000
# 4 0.0000 0.0000 0.0000 51.7988 0.0000 0.0000
# 5 0.0000 0.0000 0.0000 0.0000 -11.2746 0.0000
# 6 0.0000 0.0000 0.0000 0.0000 0.0000 29.1055
#
#
#
# Elastic Compliance Matrix: (Units=1/GPa)
#
#
# Indices 1 2 3 4 5 6 
#
# 1 0.012316 -0.003265 0.000403 0.000000 0.000000 0.000000
# 2 -0.003265 0.011268 -0.002965 0.000000 0.000000 0.000000
# 3 0.000403 -0.002965 0.005090 0.000000 0.000000 0.000000
# 4 0.000000 0.000000 0.000000 0.019305 0.000000 0.000000
# 5 0.000000 0.000000 0.000000 0.000000 -0.088695 0.000000
# 6 0.000000 0.000000 0.000000 0.000000 0.000000 0.034358
#
#
# Mechanical properties :
#
#
# Convention : Reuss Voigt Hill
#
# Bulk Modulus (GPa) = 58.75138 70.87370 64.81254
# Shear Modulus (GPa) = 455.73948 36.16717 245.95333
#
# Velocity S-wave (km/s) = 13.43112 3.78365 9.86689
# Velocity P-wave (km/s) = 16.24137 6.86600 12.46844
#
# Compressibility (1/GPa) = 0.01702088
#
# Stress axis : x y z
#
# Youngs Moduli (GPa) = 81.19197 88.74578 196.44944
#
# Poissons Ratio (x) = 0.28976 -0.07914
# Poissons Ratio (y) = 0.26510 0.58244
# Poissons Ratio (z) = -0.03271 0.26312
#
# Static dielectric constant tensor:
#      x y z
#    x 2.056320 0.000000 0.000000 
#    y 0.000000 2.011120 0.000000 
#    z 0.000000 0.000000 2.055550 
# 
# From -- ./inp_files/26887.got.cif
#   From: 2010.05.17/outbox.cif.g08.bks.cpg/sg52_14_cif.got.tgz:26887.got - 2010.06.03 12:15:38.
