data_PCOD9408659
_publ_section_title
;
Structure prediction by ZEFSAII (Michael W. Deem and Ramdas Pophale) SiO2 
 PCOD9408659
Probable space group: P N N A
;
_chemical_formula_sum "Si O2"
_cell_formula_units_Z 56
_cell_length_a 15.094890
_cell_length_b 27.739517
_cell_length_c 6.279658
_cell_angle_alpha 90.000000
_cell_angle_beta 90.000000
_cell_angle_gamma 90.000000
_cell_volume 2629.449531
_symmetry_space_group_name_H-M "P N N A"
_symmetry_group_IT_number 52
_symmetry_cell_setting 'orthorhombic'
loop_
_space_group_symop_operation_xyz
x,y,z
1/2-x,-y,z
x,1/2-y,1/2-z
1/2-x,1/2+y,1/2-z
-x,-y,-z
1/2+x,y,-z
-x,1/2+y,1/2+z
1/2+x,1/2-y,1/2+z
loop_
_atom_site_type_symbol
_atom_site_label
_atom_site_fract_x
_atom_site_fract_y
_atom_site_fract_z
Si Si1 0.993876 0.109302 0.652507
Si Si2 0.842942 0.199580 0.360397
Si Si3 0.423943 0.537005 0.545150
Si Si4 0.504640 0.319028 0.546625
Si Si5 0.874996 0.621245 0.773859
Si Si6 0.577167 0.750000 0.750000
Si Si7 0.294973 0.099882 0.516647
Si Si8 0.250000 0.500000 0.739190
O O1 0.897740 0.098206 0.554277
O O2 0.044746 0.063038 0.740391
O O3 0.064346 0.129157 0.482313
O O4 0.980877 0.142645 0.860766
O O5 0.812188 0.250000 0.250000
O O6 0.932139 0.183708 0.234372
O O7 0.863244 0.213343 0.608377
O O8 0.786063 0.150311 0.350179
O O9 0.500000 0.500000 0.500000
O O10 0.413157 0.575783 0.357391
O O11 0.333272 0.510348 0.590930
O O12 0.601182 0.332662 0.630017
O O13 0.488828 0.269697 0.427914
O O14 0.774494 0.609423 0.827397
O O15 0.268873 0.049300 0.627651
#
# Coordination Sequence:
#
# PCOD9408659 Si02
#       8
#     8   8   8   8   8   4   8   4
#     4  11  23  46  69  96 139 188 226 299 359 422
#     4  10  22  42  76 100 134 188 240 287 366 432
#     4  11  27  44  69  98 143 188 247 286 362 428
#     4  10  20  40  72 100 134 178 241 291 355 429
#     4  11  24  43  66 104 138 186 237 292 356 440
#     4  10  18  40  74 104 128 180 242 292 360 436
#     4  12  25  44  74  99 149 187 236 301 366 430
#     4  12  28  44  70 112 140 190 248 302 354 444
#
# _framework density 21.297234
#
# number of rings (size 3 to 8) (size 9 to 14) (size 15 to 20)
#    0.000    1.143    4.286    0.857    6.000    1.143 
#    0.000    0.000   20.429    0.000    0.000    0.000 
#    0.000    0.000    0.000    0.000    0.000    0.000 
#
# Total GULP energy -312163.244621 kJ/mol
# GULP energy per Si atom -5574.343654 kJ/mol
# Density = 2.124876 g / cm^3
# Si number density = 21.297234 Si / 1000 Ang^3
#
#
#
# Elastic Constant Matrix: (Units=GPa)
#
#
# Indices 1 2 3 4 5 6 
#
# 1 86.9239 12.0877 14.3953 0.0000 0.0000 0.0000
# 2 12.0877 100.5242 17.0210 0.0000 0.0000 0.0000
# 3 14.3953 17.0210 66.4796 0.0000 0.0000 0.0000
# 4 0.0000 0.0000 0.0000 29.0991 0.0000 0.0000
# 5 0.0000 0.0000 0.0000 0.0000 22.9496 0.0000
# 6 0.0000 0.0000 0.0000 0.0000 0.0000 31.6003
#
#
#
# Elastic Compliance Matrix: (Units=1/GPa)
#
#
# Indices 1 2 3 4 5 6 
#
# 1 0.012038 -0.001052 -0.002337 0.000000 0.000000 0.000000
# 2 -0.001052 0.010491 -0.002458 0.000000 0.000000 0.000000
# 3 -0.002337 -0.002458 0.016178 0.000000 0.000000 0.000000
# 4 0.000000 0.000000 0.000000 0.034365 0.000000 0.000000
# 5 0.000000 0.000000 0.000000 0.000000 0.043574 0.000000
# 6 0.000000 0.000000 0.000000 0.000000 0.000000 0.031645
#
#
# Mechanical properties :
#
#
# Convention : Reuss Voigt Hill
#
# Bulk Modulus (GPa) = 37.02140 37.88176 37.45158
# Shear Modulus (GPa) = 29.58782 30.75805 30.17293
#
# Velocity S-wave (km/s) = 3.73135 3.80442 3.76806
# Velocity P-wave (km/s) = 5.99874 6.09294 6.04602
#
# Compressibility (1/GPa) = 0.02701140
#
# Stress axis : x y z
#
# Youngs Moduli (GPa) = 83.07268 95.32384 61.81350
#
# Poissons Ratio (x) = 0.10026 0.14448
# Poissons Ratio (y) = 0.08737 0.15195
# Poissons Ratio (z) = 0.19417 0.23432
#
# Static dielectric constant tensor:
#      x y z
#    x 1.771180 0.000000 0.000000 
#    y 0.000000 1.867060 0.000000 
#    z 0.000000 0.000000 1.745720 
# 
# From -- ./inp_files/2662.got.cif
#   From: 2010.05.17/outbox.cif.g08.bks.cpg/sg52_2_cif.got.tgz:2662.got - 2010.06.03 12:15:38.
