data_PCOD9408166
_publ_section_title
;
Structure prediction by ZEFSAII (Michael W. Deem and Ramdas Pophale) SiO2 
 PCOD9408166
Probable space group: P N N A
;
_chemical_formula_sum "Si O2"
_cell_formula_units_Z 48
_cell_length_a 9.048136
_cell_length_b 7.339097
_cell_length_c 28.703070
_cell_angle_alpha 90.000000
_cell_angle_beta 90.000000
_cell_angle_gamma 90.000000
_cell_volume 1906.031605
_symmetry_space_group_name_H-M "P N N A"
_symmetry_group_IT_number 52
_symmetry_cell_setting 'orthorhombic'
loop_
_space_group_symop_operation_xyz
x,y,z
1/2-x,-y,z
x,1/2-y,1/2-z
1/2-x,1/2+y,1/2-z
-x,-y,-z
1/2+x,y,-z
-x,1/2+y,1/2+z
1/2+x,1/2-y,1/2+z
loop_
_atom_site_type_symbol
_atom_site_label
_atom_site_fract_x
_atom_site_fract_y
_atom_site_fract_z
Si Si1 0.606179 0.198265 0.550650
Si Si2 0.676170 0.311532 0.108953
Si Si3 0.353458 0.250000 0.250000
Si Si4 0.411629 0.002913 0.706052
Si Si5 0.976141 0.180437 0.142254
Si Si6 0.571163 0.768636 0.534578
Si Si7 0.750000 0.500000 0.674482
O O1 0.564166 0.200981 0.604364
O O2 0.763814 0.294065 0.544988
O O3 0.488560 0.288962 0.515828
O O4 0.598893 0.987453 0.536039
O O5 0.750000 0.500000 0.088673
O O6 0.609457 0.381739 0.158450
O O7 0.555289 0.237525 0.073209
O O8 0.811847 0.177309 0.120570
O O9 0.460356 0.085223 0.264296
O O10 0.261662 0.320905 0.293539
O O11 0.250000 0.000000 0.729497
O O12 0.449481 0.204758 0.689010
O O13 0.090517 0.015685 0.149435
#
# Coordination Sequence:
#
# PCOD9408166 Si02
#       7
#     8   8   4   8   8   8   4
#     4  10  19  28  54  89 133 164 214 262 317 375
#     4   9  17  35  57  89 128 165 209 263 322 377
#     4  12  26  44  66  94 128 164 220 270 334 412
#     4   9  21  40  67  94 125 163 211 274 328 393
#     4  10  21  41  61  90 130 168 214 272 327 393
#     4  10  18  28  54  95 126 171 209 267 316 366
#     4  12  28  42  66  92 130 174 216 272 338 398
#
# _framework density 25.183212000000001
#
# number of rings (size 3 to 8) (size 9 to 14) (size 15 to 20)
#    0.000    2.333    3.333    2.000    4.667    2.667 
#    0.000    0.000    0.000    4.000    0.000    0.000 
#    0.000    0.000    0.000    0.000    0.000    0.000 
#
# Total GULP energy -268224.879009 kJ/mol
# GULP energy per Si atom -5588.018313 kJ/mol
# Density = 2.512589 g / cm^3
# Si number density = 25.183212 Si / 1000 Ang^3
#
#
#
# Elastic Constant Matrix: (Units=GPa)
#
#
# Indices 1 2 3 4 5 6 
#
# 1 173.5894 33.1745 29.4931 0.0000 0.0000 0.0000
# 2 33.1745 77.6571 2.5866 0.0000 0.0000 0.0000
# 3 29.4931 2.5866 34.8472 0.0000 0.0000 0.0000
# 4 0.0000 0.0000 0.0000 6.2833 0.0000 0.0000
# 5 0.0000 0.0000 0.0000 0.0000 44.6748 0.0000
# 6 0.0000 0.0000 0.0000 0.0000 0.0000 35.1912
#
#
#
# Elastic Compliance Matrix: (Units=1/GPa)
#
#
# Indices 1 2 3 4 5 6 
#
# 1 0.007340 -0.002936 -0.005995 0.000000 0.000000 0.000000
# 2 -0.002936 0.014083 0.001440 0.000000 0.000000 0.000000
# 3 -0.005995 0.001440 0.033663 0.000000 0.000000 0.000000
# 4 0.000000 0.000000 0.000000 0.159152 0.000000 0.000000
# 5 0.000000 0.000000 0.000000 0.000000 0.022384 0.000000
# 6 0.000000 0.000000 0.000000 0.000000 0.000000 0.028416
#
#
# Mechanical properties :
#
#
# Convention : Reuss Voigt Hill
#
# Bulk Modulus (GPa) = 24.93451 46.28910 35.61180
# Shear Modulus (GPa) = 17.04219 31.95250 24.49735
#
# Velocity S-wave (km/s) = 2.60422 3.56589 3.12230
# Velocity P-wave (km/s) = 4.35492 5.94768 5.21250
#
# Compressibility (1/GPa) = 0.04010506
#
# Stress axis : x y z
#
# Youngs Moduli (GPa) = 136.23398 71.00545 29.70585
#
# Poissons Ratio (x) = 0.20848 0.17807
# Poissons Ratio (y) = 0.39999 -0.04276
# Poissons Ratio (z) = 0.81667 -0.10222
#
# Static dielectric constant tensor:
#      x y z
#    x 2.020520 0.000000 0.000000 
#    y 0.000000 2.056840 0.000000 
#    z 0.000000 0.000000 1.951470 
# 
# From -- ./inp_files/44427.got.cif
#   From: 2010.05.17/outbox.cif.g08.bks.cpg/sg52_23_cif.got.tgz:44427.got - 2010.06.03 12:15:38.
