data_PCOD9408541
_publ_section_title
;
Structure prediction by ZEFSAII (Michael W. Deem and Ramdas Pophale) SiO2 
 PCOD9408541
Probable space group: P N N A
;
_chemical_formula_sum "Si O2"
_cell_formula_units_Z 44
_cell_length_a 19.151490
_cell_length_b 11.250651
_cell_length_c 10.205455
_cell_angle_alpha 90.000000
_cell_angle_beta 90.000000
_cell_angle_gamma 90.000000
_cell_volume 2198.936018
_symmetry_space_group_name_H-M "P N N A"
_symmetry_group_IT_number 52
_symmetry_cell_setting 'orthorhombic'
loop_
_space_group_symop_operation_xyz
x,y,z
1/2-x,-y,z
x,1/2-y,1/2-z
1/2-x,1/2+y,1/2-z
-x,-y,-z
1/2+x,y,-z
-x,1/2+y,1/2+z
1/2+x,1/2-y,1/2+z
loop_
_atom_site_type_symbol
_atom_site_label
_atom_site_fract_x
_atom_site_fract_y
_atom_site_fract_z
Si Si1 0.927049 0.121688 0.890477
Si Si2 0.903455 0.750000 0.750000
Si Si3 0.079087 0.498926 0.943115
Si Si4 0.932266 0.490628 0.344966
Si Si5 0.332683 0.495433 0.193313
Si Si6 0.943126 0.738718 0.454121
O O1 0.984095 0.018814 0.850874
O O2 0.977943 0.235487 0.895723
O O3 0.862666 0.100292 0.796918
O O4 0.909396 0.097061 0.041128
O O5 0.859529 0.628090 0.767319
O O6 0.944684 0.737910 0.612387
O O7 0.083789 0.554163 0.799583
O O8 0.093079 0.359520 0.914808
O O9 0.132227 0.537384 0.054490
O O10 0.000000 0.500000 0.000000
O O11 0.906997 0.621478 0.394561
O O12 0.250000 0.500000 0.187451
#
# Coordination Sequence:
#
# PCOD9408541 Si02
#       6
#     8   4   8   8   8   8
#     4   9  17  34  53  80 107 136 186 229 280 324
#     4  10  18  36  58  84 106 148 188 236 288 328
#     4  11  20  32  53  83 113 143 186 237 284 320
#     4   9  16  31  53  81 103 131 180 238 274 320
#     4  11  22  38  54  80 119 154 187 226 291 355
#     4   9  18  29  57  82 108 137 180 240 276 322
#
# _framework density 20.009677
#
# number of rings (size 3 to 8) (size 9 to 14) (size 15 to 20)
#    1.091    1.091    3.636    0.545    2.545    0.000 
#    3.273    0.909    0.000    0.000    0.000    0.000 
#    0.000    0.000    0.000    0.000    0.000    0.000 
#
# Total GULP energy -245029.286782 kJ/mol
# GULP energy per Si atom -5568.847427 kJ/mol
# Density = 1.996413 g / cm^3
# Si number density = 20.009677 Si / 1000 Ang^3
#
#
#
# Elastic Constant Matrix: (Units=GPa)
#
#
# Indices 1 2 3 4 5 6 
#
# 1 99.6130 -0.2255 62.3117 0.0000 0.0000 0.0000
# 2 -0.2255 27.3392 1.3294 0.0000 0.0000 0.0000
# 3 62.3117 1.3294 201.4082 0.0000 0.0000 0.0000
# 4 0.0000 0.0000 0.0000 13.2756 0.0000 0.0000
# 5 0.0000 0.0000 0.0000 0.0000 17.4414 0.0000
# 6 0.0000 0.0000 0.0000 0.0000 0.0000 14.1308
#
#
#
# Elastic Compliance Matrix: (Units=1/GPa)
#
#
# Indices 1 2 3 4 5 6 
#
# 1 0.012450 0.000290 -0.003854 0.000000 0.000000 0.000000
# 2 0.000290 0.036596 -0.000331 0.000000 0.000000 0.000000
# 3 -0.003854 -0.000331 0.006160 0.000000 0.000000 0.000000
# 4 0.000000 0.000000 0.000000 0.075326 0.000000 0.000000
# 5 0.000000 0.000000 0.000000 0.000000 0.057335 0.000000
# 6 0.000000 0.000000 0.000000 0.000000 0.000000 0.070767
#
#
# Mechanical properties :
#
#
# Convention : Reuss Voigt Hill
#
# Bulk Modulus (GPa) = 21.09003 50.57683 35.83343
# Shear Modulus (GPa) = 17.71611 26.63255 22.17433
#
# Velocity S-wave (km/s) = 2.97876 3.65222 3.33255
# Velocity P-wave (km/s) = 4.73217 6.56628 5.72318
#
# Compressibility (1/GPa) = 0.04741577
#
# Stress axis : x y z
#
# Youngs Moduli (GPa) = 80.32013 27.32539 162.35074
#
# Poissons Ratio (x) = -0.00793 0.62566
# Poissons Ratio (y) = -0.02330 0.05379
# Poissons Ratio (z) = 0.30953 0.00905
#
# Static dielectric constant tensor:
#      x y z
#    x 1.672100 0.000000 0.000000 
#    y 0.000000 1.834420 0.000000 
#    z 0.000000 0.000000 1.780000 
# 
# From -- ./inp_files/11990.got.cif
#   From: 2010.05.17/outbox.cif.g08.bks.cpg/sg52_6_cif.got.tgz:11990.got - 2010.06.03 12:15:38.
