data_PCOD9408266
_publ_section_title
;
Structure prediction by ZEFSAII (Michael W. Deem and Ramdas Pophale) SiO2 
 PCOD9408266
Probable space group: P N N A
;
_chemical_formula_sum "Si O2"
_cell_formula_units_Z 56
_cell_length_a 17.014436
_cell_length_b 8.022903
_cell_length_c 24.052048
_cell_angle_alpha 90.000000
_cell_angle_beta 90.000000
_cell_angle_gamma 90.000000
_cell_volume 3283.228892
_symmetry_space_group_name_H-M "P N N A"
_symmetry_group_IT_number 52
_symmetry_cell_setting 'orthorhombic'
loop_
_space_group_symop_operation_xyz
x,y,z
1/2-x,-y,z
x,1/2-y,1/2-z
1/2-x,1/2+y,1/2-z
-x,-y,-z
1/2+x,y,-z
-x,1/2+y,1/2+z
1/2+x,1/2-y,1/2+z
loop_
_atom_site_type_symbol
_atom_site_label
_atom_site_fract_x
_atom_site_fract_y
_atom_site_fract_z
Si Si1 0.234343 0.301756 0.309892
Si Si2 0.529846 0.436321 0.918413
Si Si3 0.431992 0.474780 0.404816
Si Si4 0.822841 0.344410 0.909004
Si Si5 0.454279 0.747831 0.531140
Si Si6 0.453167 0.721566 0.313112
Si Si7 0.197972 0.338887 0.478315
O O1 0.250000 0.500000 0.321283
O O2 0.267210 0.250000 0.250000
O O3 0.271453 0.176203 0.354036
O O4 0.141427 0.271180 0.309518
O O5 0.620783 0.500194 0.920929
O O6 0.476040 0.595978 0.930119
O O7 0.517907 0.356696 0.858144
O O8 0.515981 0.308994 0.969781
O O9 0.383604 0.305849 0.399063
O O10 0.501553 0.415315 0.445726
O O11 0.464927 0.548988 0.347362
O O12 0.365012 0.598660 0.430723
O O13 0.761574 0.294777 0.957166
O O14 0.361473 0.719865 0.525555
O O15 0.482610 0.750000 0.250000
O O16 0.250000 0.500000 0.492855
#
# Coordination Sequence:
#
# PCOD9408266 Si02
#       7
#     8   8   8   8   8   8   8
#     4  11  21  31  45  69 100 144 191 218 242 281
#     4  10  22  34  50  76 103 146 173 213 262 300
#     4  10  18  34  52  72 102 145 176 209 251 309
#     4  10  19  32  49  70 107 140 175 211 254 295
#     4  10  20  35  53  73 101 141 176 211 265 313
#     4  11  22  34  49  72 104 140 188 217 244 295
#     4  10  18  31  52  77 102 135 171 210 258 307
#
# _framework density 17.056380000000001
#
# number of rings (size 3 to 8) (size 9 to 14) (size 15 to 20)
#    0.000    1.714    4.286    0.857    4.000    1.714 
#    0.000    2.143    0.000    0.000    0.000    0.000 
#    0.000    2.286    0.857    0.000    0.000    0.000 
#
# Total GULP energy -311871.451207 kJ/mol
# GULP energy per Si atom -5569.133057 kJ/mol
# Density = 1.701756 g / cm^3
# Si number density = 17.056380 Si / 1000 Ang^3
#
#
#
# Elastic Constant Matrix: (Units=GPa)
#
#
# Indices 1 2 3 4 5 6 
#
# 1 62.7209 30.8807 44.5481 0.0000 0.0000 0.0000
# 2 30.8807 69.1182 41.0403 0.0000 0.0000 0.0000
# 3 44.5481 41.0403 109.4785 0.0000 0.0000 0.0000
# 4 0.0000 0.0000 0.0000 25.1956 0.0000 0.0000
# 5 0.0000 0.0000 0.0000 0.0000 14.7160 0.0000
# 6 0.0000 0.0000 0.0000 0.0000 0.0000 38.4838
#
#
#
# Elastic Compliance Matrix: (Units=1/GPa)
#
#
# Indices 1 2 3 4 5 6 
#
# 1 0.024479 -0.006460 -0.007539 0.000000 0.000000 0.000000
# 2 -0.006460 0.020315 -0.004987 0.000000 0.000000 0.000000
# 3 -0.007539 -0.004987 0.014071 0.000000 0.000000 0.000000
# 4 0.000000 0.000000 0.000000 0.039689 0.000000 0.000000
# 5 0.000000 0.000000 0.000000 0.000000 0.067953 0.000000
# 6 0.000000 0.000000 0.000000 0.000000 0.000000 0.025985
#
#
# Mechanical properties :
#
#
# Convention : Reuss Voigt Hill
#
# Bulk Modulus (GPa) = 47.86210 52.69509 50.27859
# Shear Modulus (GPa) = 21.05880 24.00231 22.53056
#
# Velocity S-wave (km/s) = 3.51758 3.75538 3.63843
# Velocity P-wave (km/s) = 6.67981 7.05447 6.86970
#
# Compressibility (1/GPa) = 0.02089336
#
# Stress axis : x y z
#
# Youngs Moduli (GPa) = 40.85119 49.22381 71.06631
#
# Poissons Ratio (x) = 0.31800 0.53577
# Poissons Ratio (y) = 0.26391 0.35440
# Poissons Ratio (z) = 0.30798 0.24547
#
# Static dielectric constant tensor:
#      x y z
#    x 1.592790 0.000000 0.000000 
#    y 0.000000 1.376040 0.000000 
#    z 0.000000 0.000000 1.618680 
# 
# From -- ./inp_files/37656.got.cif
#   From: 2010.05.17/outbox.cif.g08.bks.cpg/sg52_19_cif.got.tgz:37656.got - 2010.06.03 12:15:38.
