data_PCOD9408062
_publ_section_title
;
Structure prediction by ZEFSAII (Michael W. Deem and Ramdas Pophale) SiO2 
 PCOD9408062
Probable space group: P N N A
;
_chemical_formula_sum "Si O2"
_cell_formula_units_Z 48
_cell_length_a 10.706975
_cell_length_b 17.072454
_cell_length_c 12.526175
_cell_angle_alpha 90.000000
_cell_angle_beta 90.000000
_cell_angle_gamma 90.000000
_cell_volume 2289.713869
_symmetry_space_group_name_H-M "P N N A"
_symmetry_group_IT_number 52
_symmetry_cell_setting 'orthorhombic'
loop_
_space_group_symop_operation_xyz
x,y,z
1/2-x,-y,z
x,1/2-y,1/2-z
1/2-x,1/2+y,1/2-z
-x,-y,-z
1/2+x,y,-z
-x,1/2+y,1/2+z
1/2+x,1/2-y,1/2+z
loop_
_atom_site_type_symbol
_atom_site_label
_atom_site_fract_x
_atom_site_fract_y
_atom_site_fract_z
Si Si1 0.246840 0.614196 0.019209
Si Si2 0.921037 0.519553 0.863091
Si Si3 0.374833 0.897195 0.687339
Si Si4 0.557865 0.387574 0.416916
Si Si5 0.619987 0.035782 0.879901
Si Si6 0.411174 0.232731 0.365055
O O1 0.157389 0.550743 0.078917
O O2 0.387023 0.592568 0.061020
O O3 0.189941 0.695318 0.057161
O O4 0.258731 0.609123 0.892261
O O5 0.874464 0.547802 0.746935
O O6 0.053892 0.478946 0.840641
O O7 0.349569 0.887807 0.814025
O O8 0.475031 0.828336 0.658956
O O9 0.600760 0.393253 0.538941
O O10 0.481486 0.467566 0.396128
O O11 0.469998 0.312809 0.405599
O O12 0.750000 0.000000 0.915362
O O13 0.351045 0.250000 0.250000
#
# Coordination Sequence:
#
# PCOD9408062 Si02
#       6
#     8   8   8   8   8   8
#     4  10  17  31  56  81 107 147 182 224 278 334
#     4   9  18  32  53  85 108 136 188 234 266 336
#     4   9  18  33  52  81 113 144 181 226 294 332
#     4   9  20  35  53  79 110 145 181 241 282 337
#     4  10  18  34  58  79 104 140 192 233 282 331
#     4   9  19  34  51  78 111 149 191 221 274 351
#
# _framework density 20.963318000000001
#
# number of rings (size 3 to 8) (size 9 to 14) (size 15 to 20)
#    0.000    2.667    1.667    1.500    0.000    1.333 
#    3.000    0.000    3.667    0.000    0.000    0.000 
#    0.000    0.000    0.000    0.000    0.000    0.000 
#
# Total GULP energy -267267.053319 kJ/mol
# GULP energy per Si atom -5568.063611 kJ/mol
# Density = 2.091560 g / cm^3
# Si number density = 20.963318 Si / 1000 Ang^3
#
#
#
# Elastic Constant Matrix: (Units=GPa)
#
#
# Indices 1 2 3 4 5 6 
#
# 1 14.0763 8.3971 40.1879 0.0000 0.0000 0.0000
# 2 8.3971 66.5915 60.5448 0.0000 0.0000 0.0000
# 3 40.1879 60.5448 169.4238 0.0000 0.0000 0.0000
# 4 0.0000 0.0000 0.0000 23.3439 0.0000 0.0000
# 5 0.0000 0.0000 0.0000 0.0000 29.1891 0.0000
# 6 0.0000 0.0000 0.0000 0.0000 0.0000 14.8858
#
#
#
# Elastic Compliance Matrix: (Units=1/GPa)
#
#
# Indices 1 2 3 4 5 6 
#
# 1 0.266505 0.035358 -0.075851 0.000000 0.000000 0.000000
# 2 0.035358 0.026935 -0.018013 0.000000 0.000000 0.000000
# 3 -0.075851 -0.018013 0.030331 0.000000 0.000000 0.000000
# 4 0.000000 0.000000 0.000000 0.042838 0.000000 0.000000
# 5 0.000000 0.000000 0.000000 0.000000 0.034259 0.000000
# 6 0.000000 0.000000 0.000000 0.000000 0.000000 0.067178
#
#
# Mechanical properties :
#
#
# Convention : Reuss Voigt Hill
#
# Bulk Modulus (GPa) = 4.83653 52.03902 28.43777
# Shear Modulus (GPa) = 7.64551 22.88121 15.26336
#
# Velocity S-wave (km/s) = 1.91181 3.30735 2.70126
# Velocity P-wave (km/s) = 2.68058 6.28192 4.82949
#
# Compressibility (1/GPa) = 0.20675990
#
# Stress axis : x y z
#
# Youngs Moduli (GPa) = 3.75228 37.12596 32.96912
#
# Poissons Ratio (x) = -1.31270 2.50075
# Poissons Ratio (y) = -0.13267 0.59386
# Poissons Ratio (z) = 0.28461 0.66873
#
# Static dielectric constant tensor:
#      x y z
#    x 1.816800 0.000000 0.000000 
#    y 0.000000 1.770990 0.000000 
#    z 0.000000 0.000000 1.822740 
# 
# From -- ./inp_files/18199.got.cif
#   From: 2010.05.17/outbox.cif.g08.bks.cpg/sg52_10_cif.got.tgz:18199.got - 2010.06.03 12:15:38.
