data_PCOD9408068
_publ_section_title
;
Structure prediction by ZEFSAII (Michael W. Deem and Ramdas Pophale) SiO2 
 PCOD9408068
Probable space group: P N N A
;
_chemical_formula_sum "Si O2"
_cell_formula_units_Z 48
_cell_length_a 14.735472
_cell_length_b 9.126226
_cell_length_c 17.711011
_cell_angle_alpha 90.000000
_cell_angle_beta 90.000000
_cell_angle_gamma 90.000000
_cell_volume 2381.763435
_symmetry_space_group_name_H-M "P N N A"
_symmetry_group_IT_number 52
_symmetry_cell_setting 'orthorhombic'
loop_
_space_group_symop_operation_xyz
x,y,z
1/2-x,-y,z
x,1/2-y,1/2-z
1/2-x,1/2+y,1/2-z
-x,-y,-z
1/2+x,y,-z
-x,1/2+y,1/2+z
1/2+x,1/2-y,1/2+z
loop_
_atom_site_type_symbol
_atom_site_label
_atom_site_fract_x
_atom_site_fract_y
_atom_site_fract_z
Si Si1 0.149833 0.192174 0.049271
Si Si2 0.870081 0.250000 0.750000
Si Si3 0.555639 0.747991 0.034063
Si Si4 0.656741 0.050431 0.448713
Si Si5 0.150605 0.495351 0.606849
Si Si6 0.750000 0.500000 0.674368
Si Si7 0.987120 0.732262 0.374613
O O1 0.045760 0.235086 0.066045
O O2 0.194344 0.108253 0.118469
O O3 0.189354 0.346179 0.018427
O O4 0.156101 0.088660 0.974645
O O5 0.811256 0.390002 0.724079
O O6 0.938907 0.211032 0.682664
O O7 0.596127 0.586937 0.026798
O O8 0.620467 0.842785 0.085882
O O9 0.542884 0.812564 0.949910
O O10 0.588198 0.148752 0.399139
O O11 0.750000 0.000000 0.410018
O O12 0.250000 0.500000 0.641949
O O13 0.072379 0.407535 0.650924
#
# Coordination Sequence:
#
# PCOD9408068 Si02
#       7
#     8   4   8   8   8   4   8
#     4  10  20  36  58  90 122 150 198 262 323 354
#     4  12  28  44  62  80 130 176 216 236 294 374
#     4  10  18  34  59  90 119 152 191 264 325 354
#     4  10  21  35  63  98 121 150 200 267 328 362
#     4  10  17  31  61  90 116 146 197 257 315 359
#     4  12  26  44  62  92 118 176 212 256 294 380
#     4  10  22  39  54  85 125 165 199 247 303 372
#
# _framework density 20.153134999999999
#
# number of rings (size 3 to 8) (size 9 to 14) (size 15 to 20)
#    0.000    2.000    0.833    8.000    2.333    2.667 
#    0.000    0.833    0.000    0.000    0.000    0.000 
#    0.000    0.000    0.000    0.000    0.000    0.000 
#
# Total GULP energy -267680.728836 kJ/mol
# GULP energy per Si atom -5576.681851 kJ/mol
# Density = 2.010727 g / cm^3
# Si number density = 20.153135 Si / 1000 Ang^3
#
#
#
# Elastic Constant Matrix: (Units=GPa)
#
#
# Indices 1 2 3 4 5 6 
#
# 1 107.4553 43.8839 49.9070 0.0000 0.0000 0.0000
# 2 43.8839 116.3185 25.7451 0.0000 0.0000 0.0000
# 3 49.9070 25.7451 45.4857 0.0000 0.0000 0.0000
# 4 0.0000 0.0000 0.0000 2.8865 0.0000 0.0000
# 5 0.0000 0.0000 0.0000 0.0000 61.9606 0.0000
# 6 0.0000 0.0000 0.0000 0.0000 0.0000 29.6149
#
#
#
# Elastic Compliance Matrix: (Units=1/GPa)
#
#
# Indices 1 2 3 4 5 6 
#
# 1 0.019883 -0.003056 -0.020086 0.000000 0.000000 0.000000
# 2 -0.003056 0.010298 -0.002476 0.000000 0.000000 0.000000
# 3 -0.020086 -0.002476 0.045425 0.000000 0.000000 0.000000
# 4 0.000000 0.000000 0.000000 0.346435 0.000000 0.000000
# 5 0.000000 0.000000 0.000000 0.000000 0.016139 0.000000
# 6 0.000000 0.000000 0.000000 0.000000 0.000000 0.033767
#
#
# Mechanical properties :
#
#
# Convention : Reuss Voigt Hill
#
# Bulk Modulus (GPa) = 41.03370 56.48126 48.75748
# Shear Modulus (GPa) = 9.41078 28.87396 19.14237
#
# Velocity S-wave (km/s) = 2.16328 3.78925 3.08530
# Velocity P-wave (km/s) = 5.16186 6.87251 6.07767
#
# Compressibility (1/GPa) = 0.02437021
#
# Stress axis : x y z
#
# Youngs Moduli (GPa) = 50.29433 97.10706 22.01436
#
# Poissons Ratio (x) = 0.29672 0.44218
# Poissons Ratio (y) = 0.15368 0.05451
# Poissons Ratio (z) = 1.01022 0.24044
#
# Static dielectric constant tensor:
#      x y z
#    x 1.774350 0.000000 0.000000 
#    y 0.000000 1.741980 0.000000 
#    z 0.000000 0.000000 1.731610 
# 
# From -- ./inp_files/33118.got.cif
#   From: 2010.05.17/outbox.cif.g08.bks.cpg/sg52_17_cif.got.tgz:33118.got - 2010.06.03 12:15:38.
