data_PCOD9408729
_publ_section_title
;
Structure prediction by ZEFSAII (Michael W. Deem and Ramdas Pophale) SiO2 
 PCOD9408729
Probable space group: P N N A
;
_chemical_formula_sum "Si O2"
_cell_formula_units_Z 64
_cell_length_a 10.076957
_cell_length_b 22.853017
_cell_length_c 18.404865
_cell_angle_alpha 90.000000
_cell_angle_beta 90.000000
_cell_angle_gamma 90.000000
_cell_volume 4238.435557
_symmetry_space_group_name_H-M "P N N A"
_symmetry_group_IT_number 52
_symmetry_cell_setting 'orthorhombic'
loop_
_space_group_symop_operation_xyz
x,y,z
1/2-x,-y,z
x,1/2-y,1/2-z
1/2-x,1/2+y,1/2-z
-x,-y,-z
1/2+x,y,-z
-x,1/2+y,1/2+z
1/2+x,1/2-y,1/2+z
loop_
_atom_site_type_symbol
_atom_site_label
_atom_site_fract_x
_atom_site_fract_y
_atom_site_fract_z
Si Si1 0.481447 0.421160 0.422206
Si Si2 0.139612 0.315115 0.215450
Si Si3 0.283749 0.869410 0.145633
Si Si4 0.165219 0.815184 0.715876
Si Si5 0.736824 0.134406 0.144189
Si Si6 0.350286 0.754910 0.430133
Si Si7 0.470179 0.442065 0.593487
Si Si8 0.332380 0.255076 0.929991
O O1 0.342606 0.400121 0.389543
O O2 0.594680 0.379668 0.389414
O O3 0.477160 0.420775 0.509636
O O4 0.513376 0.488419 0.403157
O O5 0.138165 0.250000 0.250000
O O6 0.228404 0.353649 0.269082
O O7 0.176885 0.303535 0.132175
O O8 0.987132 0.336706 0.219950
O O9 0.314807 0.808590 0.103817
O O10 0.409683 0.910860 0.134481
O O11 0.164608 0.750000 0.750000
O O12 0.256792 0.852600 0.769591
O O13 0.198741 0.803573 0.631970
O O14 0.797719 0.191659 0.104540
O O15 0.832633 0.080541 0.125733
O O16 0.258818 0.763611 0.499986
O O17 0.509079 0.756039 0.444857
#
# Coordination Sequence:
#
# PCOD9408729 Si02
#       8
#     8   8   8   8   8   8   8   8
#     4  11  24  30  45  72  95 119 166 205 230 254
#     4   8  15  31  49  66  89 125 158 182 225 287
#     4  11  19  33  49  66  93 131 159 189 231 276
#     4   8  15  31  49  66  89 125 158 182 225 287
#     4  11  19  33  49  66  93 131 159 189 231 276
#     4  10  19  31  50  72  95 124 157 188 228 283
#     4  11  20  36  47  62  95 131 160 197 230 270
#     4  10  19  31  50  72  95 124 157 188 228 283
#
# _framework density 15.099912
#
# number of rings (size 3 to 8) (size 9 to 14) (size 15 to 20)
#    0.000    2.000    2.500    4.500    1.750    2.000 
#    2.250    1.875    0.000    0.000    0.000    0.000 
#    0.000    6.000    0.000    0.000    0.000    0.000 
#
# Total GULP energy -356711.298826 kJ/mol
# GULP energy per Si atom -5573.614044 kJ/mol
# Density = 1.506554 g / cm^3
# Si number density = 15.099912 Si / 1000 Ang^3
#
#
#
# Elastic Constant Matrix: (Units=GPa)
#
#
# Indices 1 2 3 4 5 6 
#
# 1 33.6066 -2.9888 31.7207 0.0000 0.0000 0.0000
# 2 -2.9888 29.3315 27.3833 0.0000 0.0000 0.0000
# 3 31.7207 27.3833 110.8151 0.0000 0.0000 0.0000
# 4 0.0000 0.0000 0.0000 18.4881 0.0000 0.0000
# 5 0.0000 0.0000 0.0000 0.0000 20.9405 0.0000
# 6 0.0000 0.0000 0.0000 0.0000 0.0000 1.2993
#
#
#
# Elastic Compliance Matrix: (Units=1/GPa)
#
#
# Indices 1 2 3 4 5 6 
#
# 1 0.051729 0.024821 -0.020941 0.000000 0.000000 0.000000
# 2 0.024821 0.056227 -0.020999 0.000000 0.000000 0.000000
# 3 -0.020941 -0.020999 0.020207 0.000000 0.000000 0.000000
# 4 0.000000 0.000000 0.000000 0.054089 0.000000 0.000000
# 5 0.000000 0.000000 0.000000 0.000000 0.047754 0.000000
# 6 0.000000 0.000000 0.000000 0.000000 0.000000 0.769663
#
#
# Mechanical properties :
#
#
# Convention : Reuss Voigt Hill
#
# Bulk Modulus (GPa) = 10.64672 31.77593 21.21133
# Shear Modulus (GPa) = 4.69388 15.98810 10.34099
#
# Velocity S-wave (km/s) = 1.76502 3.25748 2.61978
# Velocity P-wave (km/s) = 3.34961 5.93614 4.81963
#
# Compressibility (1/GPa) = 0.09392560
#
# Stress axis : x y z
#
# Youngs Moduli (GPa) = 19.33140 17.78519 49.48692
#
# Poissons Ratio (x) = -0.44145 1.03630
# Poissons Ratio (y) = -0.47983 1.03918
# Poissons Ratio (z) = 0.40482 0.37347
#
# Static dielectric constant tensor:
#      x y z
#    x 1.492490 0.000000 0.000000 
#    y 0.000000 1.487960 0.000000 
#    z 0.000000 0.000000 1.525460 
# 
# From -- ./inp_files/31602.got.cif
#   From: 2010.05.17/outbox.cif.g08.bks.cpg/sg52_16_cif.got.tgz:31602.got - 2010.06.03 12:15:38.
