data_PCOD9408091
_publ_section_title
;
Structure prediction by ZEFSAII (Michael W. Deem and Ramdas Pophale) SiO2 
 PCOD9408091
Probable space group: P N N A
;
_chemical_formula_sum "Si O2"
_cell_formula_units_Z 52
_cell_length_a 20.482424
_cell_length_b 11.708511
_cell_length_c 13.378993
_cell_angle_alpha 90.000000
_cell_angle_beta 90.000000
_cell_angle_gamma 90.000000
_cell_volume 3208.532531
_symmetry_space_group_name_H-M "P N N A"
_symmetry_group_IT_number 52
_symmetry_cell_setting 'orthorhombic'
loop_
_space_group_symop_operation_xyz
x,y,z
1/2-x,-y,z
x,1/2-y,1/2-z
1/2-x,1/2+y,1/2-z
-x,-y,-z
1/2+x,y,-z
-x,1/2+y,1/2+z
1/2+x,1/2-y,1/2+z
loop_
_atom_site_type_symbol
_atom_site_label
_atom_site_fract_x
_atom_site_fract_y
_atom_site_fract_z
Si Si1 0.931524 0.304007 0.855512
Si Si2 0.460040 0.750000 0.250000
Si Si3 0.250000 0.000000 0.035499
Si Si4 0.103881 0.491622 0.482673
Si Si5 0.250000 0.000000 0.354918
Si Si6 0.995286 0.313722 0.463007
Si Si7 0.221897 0.749842 0.367899
Si Si8 0.612187 0.016061 0.747064
O O1 0.953580 0.250000 0.750000
O O2 0.856940 0.261388 0.875362
O O3 0.927536 0.436555 0.828407
O O4 0.974643 0.272122 0.949857
O O5 0.500354 0.735600 0.351866
O O6 0.413444 0.857710 0.261676
O O7 0.178945 0.007849 0.983229
O O8 0.254717 0.126935 0.089143
O O9 0.058947 0.585978 0.534760
O O10 0.104458 0.517490 0.363054
O O11 0.064645 0.372763 0.489666
O O12 0.251798 0.125957 0.408194
O O13 0.186337 0.001663 0.285785
O O14 0.238346 0.750000 0.250000
#
# Coordination Sequence:
#
# PCOD9408091 Si02
#       8
#     8   4   4   8   4   8   8   8
#     4  10  17  33  53  76 105 139 170 215 266 318
#     4  10  24  34  50  74 108 144 186 214 256 306
#     4  12  19  30  54  82 101 140 179 218 260 333
#     4  10  19  32  53  79 109 133 178 221 267 306
#     4  10  21  28  46  76 123 140 155 204 284 337
#     4  10  20  35  50  78 107 140 176 223 258 314
#     4  10  18  27  44  76 109 138 165 202 268 329
#     4  10  19  33  50  79 108 144 168 211 266 340
#
# _framework density 16.206785
#
# number of rings (size 3 to 8) (size 9 to 14) (size 15 to 20)
#    0.000    1.846    3.077    3.692    5.385    0.615 
#    0.000    0.000    0.000    0.000    2.000    4.308 
#    0.000    0.000    0.000    0.000    0.000    0.000 
#
# Total GULP energy -289478.536298 kJ/mol
# GULP energy per Si atom -5566.894929 kJ/mol
# Density = 1.616990 g / cm^3
# Si number density = 16.206785 Si / 1000 Ang^3
#
#
#
# Elastic Constant Matrix: (Units=GPa)
#
#
# Indices 1 2 3 4 5 6 
#
# 1 79.4169 23.5109 30.6448 0.0000 0.0000 0.0000
# 2 23.5109 129.1256 31.5996 0.0000 0.0000 0.0000
# 3 30.6448 31.5996 68.4424 0.0000 0.0000 0.0000
# 4 0.0000 0.0000 0.0000 26.0740 0.0000 0.0000
# 5 0.0000 0.0000 0.0000 0.0000 17.8131 0.0000
# 6 0.0000 0.0000 0.0000 0.0000 0.0000 27.6602
#
#
#
# Elastic Compliance Matrix: (Units=1/GPa)
#
#
# Indices 1 2 3 4 5 6 
#
# 1 0.015401 -0.001259 -0.006315 0.000000 0.000000 0.000000
# 2 -0.001259 0.008834 -0.003515 0.000000 0.000000 0.000000
# 3 -0.006315 -0.003515 0.019061 0.000000 0.000000 0.000000
# 4 0.000000 0.000000 0.000000 0.038352 0.000000 0.000000
# 5 0.000000 0.000000 0.000000 0.000000 0.056138 0.000000
# 6 0.000000 0.000000 0.000000 0.000000 0.000000 0.036153
#
#
# Mechanical properties :
#
#
# Convention : Reuss Voigt Hill
#
# Bulk Modulus (GPa) = 47.35030 49.83285 48.59158
# Shear Modulus (GPa) = 24.61163 27.05810 25.83487
#
# Velocity S-wave (km/s) = 3.90115 4.09045 3.99692
# Velocity P-wave (km/s) = 7.04072 7.28862 7.16574
#
# Compressibility (1/GPa) = 0.02111919
#
# Stress axis : x y z
#
# Youngs Moduli (GPa) = 64.93054 113.20191 52.46329
#
# Poissons Ratio (x) = 0.14251 0.33128
# Poissons Ratio (y) = 0.08174 0.18440
# Poissons Ratio (z) = 0.41001 0.39789
#
# Static dielectric constant tensor:
#      x y z
#    x 1.554690 0.000000 0.000000 
#    y 0.000000 1.626810 0.000000 
#    z 0.000000 0.000000 1.518090 
# 
# From -- ./inp_files/28250.got.cif
#   From: 2010.05.17/outbox.cif.g08.bks.cpg/sg52_15_cif.got.tgz:28250.got - 2010.06.03 12:15:38.
