data_PCOD9408309
_publ_section_title
;
Structure prediction by ZEFSAII (Michael W. Deem and Ramdas Pophale) SiO2 
 PCOD9408309
Probable space group: P N N A
;
_chemical_formula_sum "Si O2"
_cell_formula_units_Z 48
_cell_length_a 27.346872
_cell_length_b 5.236353
_cell_length_c 16.970733
_cell_angle_alpha 90.000000
_cell_angle_beta 90.000000
_cell_angle_gamma 90.000000
_cell_volume 2430.172907
_symmetry_space_group_name_H-M "P N N A"
_symmetry_group_IT_number 52
_symmetry_cell_setting 'orthorhombic'
loop_
_space_group_symop_operation_xyz
x,y,z
1/2-x,-y,z
x,1/2-y,1/2-z
1/2-x,1/2+y,1/2-z
-x,-y,-z
1/2+x,y,-z
-x,1/2+y,1/2+z
1/2+x,1/2-y,1/2+z
loop_
_atom_site_type_symbol
_atom_site_label
_atom_site_fract_x
_atom_site_fract_y
_atom_site_fract_z
Si Si1 0.946814 0.500989 0.702868
Si Si2 0.595455 0.514965 0.524664
Si Si3 0.808230 0.487447 0.602153
Si Si4 0.808192 0.010487 0.693093
Si Si5 0.949507 0.517316 0.046053
Si Si6 0.445033 0.497822 0.771015
O O1 0.928224 0.750000 0.750000
O O2 0.929183 0.494167 0.612945
O O3 0.005866 0.503829 0.715826
O O4 0.930600 0.250000 0.750000
O O5 0.652350 0.451185 0.536215
O O6 0.571985 0.293249 0.472917
O O7 0.583858 0.787543 0.486204
O O8 0.750000 0.500000 0.589263
O O9 0.817809 0.183220 0.615737
O O10 0.819542 0.709229 0.670980
O O11 0.825147 0.250000 0.750000
O O12 0.750000 0.000000 0.707816
O O13 0.959719 0.492564 0.138442
O O14 0.000000 0.500000 0.000000
O O15 0.416931 0.750000 0.750000
O O16 0.415465 0.250000 0.750000
#
# Coordination Sequence:
#
# PCOD9408309 Si02
#       6
#     8   8   8   8   8   8
#     4  10  20  35  51  73 106 147 191 229 277 335
#     4  12  24  39  58  85 116 156 202 243 294 355
#     4  10  22  37  54  77 112 152 196 250 296 342
#     4  10  18  32  51  74 103 144 194 246 297 338
#     4  12  23  38  59  85 118 152 193 243 295 357
#     4  10  19  35  55  78 108 145 181 223 282 341
#
# _framework density 19.75168
#
# number of rings (size 3 to 8) (size 9 to 14) (size 15 to 20)
#    0.000    1.333    0.000    9.500    0.000    2.000 
#    0.000    0.000    0.000    0.000    0.000    0.000 
#    0.000   13.333    0.000    0.000    0.000    0.000 
#
# Total GULP energy -267327.976218 kJ/mol
# GULP energy per Si atom -5569.332838 kJ/mol
# Density = 1.970672 g / cm^3
# Si number density = 19.751680 Si / 1000 Ang^3
#
#
#
# Elastic Constant Matrix: (Units=GPa)
#
#
# Indices 1 2 3 4 5 6 
#
# 1 57.9774 -3.5169 2.3789 0.0000 0.0000 0.0000
# 2 -3.5169 167.4928 25.5067 0.0000 0.0000 0.0000
# 3 2.3789 25.5067 78.0139 0.0000 0.0000 0.0000
# 4 0.0000 0.0000 0.0000 50.7456 0.0000 0.0000
# 5 0.0000 0.0000 0.0000 0.0000 13.4577 0.0000
# 6 0.0000 0.0000 0.0000 0.0000 0.0000 -89.8427
#
#
#
# Elastic Compliance Matrix: (Units=1/GPa)
#
#
# Indices 1 2 3 4 5 6 
#
# 1 0.017304 0.000467 -0.000680 0.000000 0.000000 0.000000
# 2 0.000467 0.006296 -0.002073 0.000000 0.000000 0.000000
# 3 -0.000680 -0.002073 0.013517 0.000000 0.000000 0.000000
# 4 0.000000 0.000000 0.000000 0.019706 0.000000 0.000000
# 5 0.000000 0.000000 0.000000 0.000000 0.074307 0.000000
# 6 0.000000 0.000000 0.000000 0.000000 0.000000 -0.011131
#
#
# Mechanical properties :
#
#
# Convention : Reuss Voigt Hill
#
# Bulk Modulus (GPa) = 30.72694 39.13571 34.93133
# Shear Modulus (GPa) = 36.92230 13.47982 25.20106
#
# Velocity S-wave (km/s) = 4.32826 2.61524 3.57584
# Velocity P-wave (km/s) = 6.36937 5.38295 5.89682
#
# Compressibility (1/GPa) = 0.03254473
#
# Stress axis : x y z
#
# Youngs Moduli (GPa) = 57.78893 158.83486 73.98289
#
# Poissons Ratio (x) = -0.07417 0.05033
# Poissons Ratio (y) = -0.02698 0.15334
# Poissons Ratio (z) = 0.03932 0.32921
#
# Static dielectric constant tensor:
#      x y z
#    x 1.586780 0.000000 0.000000 
#    y 0.000000 1.862480 0.000000 
#    z 0.000000 0.000000 1.736520 
# 
# From -- ./inp_files/29615.got.cif
#   From: 2010.05.17/outbox.cif.g08.bks.cpg/sg52_15_cif.got.tgz:29615.got - 2010.06.03 12:15:38.
