data_PCOD9408459
_publ_section_title
;
Structure prediction by ZEFSAII (Michael W. Deem and Ramdas Pophale) SiO2 
 PCOD9408459
Probable space group: P N N A
;
_chemical_formula_sum "Si O2"
_cell_formula_units_Z 64
_cell_length_a 6.920010
_cell_length_b 15.657714
_cell_length_c 22.006578
_cell_angle_alpha 90.000000
_cell_angle_beta 90.000000
_cell_angle_gamma 90.000000
_cell_volume 2384.446560
_symmetry_space_group_name_H-M "P N N A"
_symmetry_group_IT_number 52
_symmetry_cell_setting 'orthorhombic'
loop_
_space_group_symop_operation_xyz
x,y,z
1/2-x,-y,z
x,1/2-y,1/2-z
1/2-x,1/2+y,1/2-z
-x,-y,-z
1/2+x,y,-z
-x,1/2+y,1/2+z
1/2+x,1/2-y,1/2+z
loop_
_atom_site_type_symbol
_atom_site_label
_atom_site_fract_x
_atom_site_fract_y
_atom_site_fract_z
Si Si1 0.675473 0.848030 0.055480
Si Si2 0.745637 0.401356 0.316806
Si Si3 0.696606 0.398493 0.708958
Si Si4 0.595669 0.325146 0.071243
Si Si5 0.535464 0.418264 0.830429
Si Si6 0.456807 0.084628 0.537738
Si Si7 0.091821 0.115409 0.694051
Si Si8 0.753334 0.396605 0.580334
O O1 0.784892 0.899638 0.110127
O O2 0.781986 0.759203 0.062763
O O3 0.454282 0.852598 0.073637
O O4 0.659926 0.876674 0.985448
O O5 0.750000 0.500000 0.298678
O O6 0.597587 0.362948 0.266201
O O7 0.970176 0.376448 0.305740
O O8 0.750000 0.500000 0.708496
O O9 0.689163 0.380745 0.781661
O O10 0.808878 0.367368 0.648427
O O11 0.744287 0.404688 0.065120
O O12 0.510399 0.328679 0.138499
O O13 0.465728 0.340678 0.012628
O O14 0.587364 0.408747 0.901684
O O15 0.325476 0.377082 0.818049
O O16 0.488417 0.518998 0.817797
O O17 0.500000 0.000000 0.500000
O O18 0.750000 0.500000 0.582375
#
# Coordination Sequence:
#
# PCOD9408459 Si02
#       8
#     8   8   8   8   8   8   8   8
#     4  11  23  37  56  84 121 156 192 250 311 369
#     4  10  18  34  59  82 109 150 199 239 290 351
#     4   9  18  31  53  85 115 136 182 247 295 334
#     4  11  23  37  55  84 122 153 193 243 314 363
#     4   9  16  32  54  83 109 142 185 243 292 335
#     4  11  21  36  60  85 111 155 200 247 291 364
#     4   9  16  33  57  78 110 143 189 243 287 345
#     4  10  21  39  60  85 114 156 207 249 297 360
#
# _framework density 26.840610000000002
#
# number of rings (size 3 to 8) (size 9 to 14) (size 15 to 20)
#    0.000    2.000    3.750    1.875    0.000    3.500 
#    0.000    0.000    0.000    2.250    0.000    0.000 
#    0.000    0.000    0.000    0.000    0.000    0.000 
#
# Total GULP energy -356602.131160 kJ/mol
# GULP energy per Si atom -5571.908299 kJ/mol
# Density = 2.677952 g / cm^3
# Si number density = 26.840610 Si / 1000 Ang^3
#
#
#
# Elastic Constant Matrix: (Units=GPa)
#
#
# Indices 1 2 3 4 5 6 
#
# 1 40.0617 1.2769 59.7172 0.0000 0.0000 0.0000
# 2 1.2769 59.7304 37.3368 0.0000 0.0000 0.0000
# 3 59.7172 37.3368 340.1788 0.0000 0.0000 0.0000
# 4 0.0000 0.0000 0.0000 792.6865 0.0000 0.0000
# 5 0.0000 0.0000 0.0000 0.0000 59.8484 0.0000
# 6 0.0000 0.0000 0.0000 0.0000 0.0000 27.4586
#
#
#
# Elastic Compliance Matrix: (Units=1/GPa)
#
#
# Indices 1 2 3 4 5 6 
#
# 1 0.034390 0.003262 -0.006395 0.000000 0.000000 0.000000
# 2 0.003262 0.018285 -0.002580 0.000000 0.000000 0.000000
# 3 -0.006395 -0.002580 0.004345 0.000000 0.000000 0.000000
# 4 0.000000 0.000000 0.000000 0.001262 0.000000 0.000000
# 5 0.000000 0.000000 0.000000 0.000000 0.016709 0.000000
# 6 0.000000 0.000000 0.000000 0.000000 0.000000 0.036418
#
#
# Mechanical properties :
#
#
# Convention : Reuss Voigt Hill
#
# Bulk Modulus (GPa) = 21.93197 70.73698 46.33447
# Shear Modulus (GPa) = 36.22340 198.77471 117.49905
#
# Velocity S-wave (km/s) = 3.67764 8.61500 6.62357
# Velocity P-wave (km/s) = 5.12077 11.19684 8.70608
#
# Compressibility (1/GPa) = 0.04559555
#
# Stress axis : x y z
#
# Youngs Moduli (GPa) = 29.07797 54.69090 230.12843
#
# Poissons Ratio (x) = -0.17842 1.47171
# Poissons Ratio (y) = -0.09486 0.59363
# Poissons Ratio (z) = 0.18596 0.14108
#
# Static dielectric constant tensor:
#      x y z
#    x 2.398740 0.000000 0.000000 
#    y 0.000000 2.059130 0.000000 
#    z 0.000000 0.000000 2.300520 
# 
# From -- ./inp_files/36185.got.cif
#   From: 2010.05.17/outbox.cif.g08.bks.cpg/sg52_19_cif.got.tgz:36185.got - 2010.06.03 12:15:38.
