data_PCOD9408473
_publ_section_title
;
Structure prediction by ZEFSAII (Michael W. Deem and Ramdas Pophale) SiO2 
 PCOD9408473
Probable space group: P N N A
;
_chemical_formula_sum "Si O2"
_cell_formula_units_Z 56
_cell_length_a 14.518512
_cell_length_b 5.323672
_cell_length_c 29.353816
_cell_angle_alpha 90.000000
_cell_angle_beta 90.000000
_cell_angle_gamma 90.000000
_cell_volume 2268.809153
_symmetry_space_group_name_H-M "P N N A"
_symmetry_group_IT_number 52
_symmetry_cell_setting 'orthorhombic'
loop_
_space_group_symop_operation_xyz
x,y,z
1/2-x,-y,z
x,1/2-y,1/2-z
1/2-x,1/2+y,1/2-z
-x,-y,-z
1/2+x,y,-z
-x,1/2+y,1/2+z
1/2+x,1/2-y,1/2+z
loop_
_atom_site_type_symbol
_atom_site_label
_atom_site_fract_x
_atom_site_fract_y
_atom_site_fract_z
Si Si1 0.601123 0.062701 0.168972
Si Si2 0.786071 0.750000 0.250000
Si Si3 0.113222 0.867009 0.198482
Si Si4 0.250000 0.500000 0.513723
Si Si5 0.930237 0.255518 0.027156
Si Si6 0.627360 0.338977 0.956561
Si Si7 0.369900 0.623793 0.149811
Si Si8 0.416666 0.440837 0.876493
O O1 0.654850 0.083452 0.215406
O O2 0.493543 0.094222 0.183207
O O3 0.625647 0.302630 0.139398
O O4 0.626858 0.812345 0.142479
O O5 0.750000 0.500000 0.222683
O O6 0.116557 0.750000 0.250000
O O7 0.159824 0.648559 0.168113
O O8 0.150739 0.144438 0.184348
O O9 0.155842 0.577084 0.537847
O O10 0.285926 0.727775 0.482658
O O11 0.924575 0.448562 0.069415
O O12 0.036067 0.163813 0.033710
O O13 0.907594 0.403557 0.980450
O O14 0.652825 0.336851 0.903392
O O15 0.480980 0.588759 0.145218
#
# Coordination Sequence:
#
# PCOD9408473 Si02
#       8
#     8   4   8   4   8   8   8   8
#     4  10  20  38  56  80 114 159 209 267 324 387
#     4  12  24  38  50  74 108 162 214 258 322 396
#     4  10  18  34  61  92 122 155 203 271 328 390
#     4  12  24  40  66 100 126 176 234 278 326 410
#     4  10  23  43  65  94 134 177 222 282 336 400
#     4  10  23  43  65  94 137 181 220 279 340 400
#     4   9  20  34  60  94 126 164 211 260 330 400
#     4   9  20  37  61  86 117 163 213 264 331 387
#
# _framework density 24.682552999999999
#
# number of rings (size 3 to 8) (size 9 to 14) (size 15 to 20)
#    0.000    2.000    0.714    2.143    4.000    0.000 
#    3.857    0.000    0.000    0.000    0.000    2.000 
#    0.000    0.000    0.000    0.000    0.000    0.000 
#
# Total GULP energy -312258.723138 kJ/mol
# GULP energy per Si atom -5576.048627 kJ/mol
# Density = 2.462637 g / cm^3
# Si number density = 24.682553 Si / 1000 Ang^3
#
#
#
# Elastic Constant Matrix: (Units=GPa)
#
#
# Indices 1 2 3 4 5 6 
#
# 1 98.6982 26.9895 10.9781 0.0000 0.0000 0.0000
# 2 26.9895 125.4740 29.1093 0.0000 0.0000 0.0000
# 3 10.9781 29.1093 94.2808 0.0000 0.0000 0.0000
# 4 0.0000 0.0000 0.0000 20.2328 0.0000 0.0000
# 5 0.0000 0.0000 0.0000 0.0000 0.7881 0.0000
# 6 0.0000 0.0000 0.0000 0.0000 0.0000 24.5287
#
#
#
# Elastic Compliance Matrix: (Units=1/GPa)
#
#
# Indices 1 2 3 4 5 6 
#
# 1 0.010795 -0.002187 -0.000582 0.000000 0.000000 0.000000
# 2 -0.002187 0.009028 -0.002533 0.000000 0.000000 0.000000
# 3 -0.000582 -0.002533 0.011456 0.000000 0.000000 0.000000
# 4 0.000000 0.000000 0.000000 0.049425 0.000000 0.000000
# 5 0.000000 0.000000 0.000000 0.000000 1.268933 0.000000
# 6 0.000000 0.000000 0.000000 0.000000 0.000000 0.040769
#
#
# Mechanical properties :
#
#
# Convention : Reuss Voigt Hill
#
# Bulk Modulus (GPa) = 48.36525 50.28964 49.32744
# Shear Modulus (GPa) = 3.55139 25.86831 14.70985
#
# Velocity S-wave (km/s) = 1.20081 3.24086 2.44388
# Velocity P-wave (km/s) = 4.64328 5.86711 5.29070
#
# Compressibility (1/GPa) = 0.02067600
#
# Stress axis : x y z
#
# Youngs Moduli (GPa) = 92.63859 110.76932 87.28809
#
# Poissons Ratio (x) = 0.24225 0.05078
# Poissons Ratio (y) = 0.20260 0.22107
# Poissons Ratio (z) = 0.05389 0.28054
#
# Static dielectric constant tensor:
#      x y z
#    x 2.170290 0.000000 0.000000 
#    y 0.000000 2.094580 0.000000 
#    z 0.000000 0.000000 1.935250 
# 
# From -- ./inp_files/45016.got.cif
#   From: 2010.05.17/outbox.cif.g08.bks.cpg/sg52_23_cif.got.tgz:45016.got - 2010.06.03 12:15:38.
