data_PCOD9408272
_publ_section_title
;
Structure prediction by ZEFSAII (Michael W. Deem and Ramdas Pophale) SiO2 
 PCOD9408272
Probable space group: P N N A
;
_chemical_formula_sum "Si O2"
_cell_formula_units_Z 56
_cell_length_a 9.218538
_cell_length_b 18.029447
_cell_length_c 16.107963
_cell_angle_alpha 90.000000
_cell_angle_beta 90.000000
_cell_angle_gamma 90.000000
_cell_volume 2677.226282
_symmetry_space_group_name_H-M "P N N A"
_symmetry_group_IT_number 52
_symmetry_cell_setting 'orthorhombic'
loop_
_space_group_symop_operation_xyz
x,y,z
1/2-x,-y,z
x,1/2-y,1/2-z
1/2-x,1/2+y,1/2-z
-x,-y,-z
1/2+x,y,-z
-x,1/2+y,1/2+z
1/2+x,1/2-y,1/2+z
loop_
_atom_site_type_symbol
_atom_site_label
_atom_site_fract_x
_atom_site_fract_y
_atom_site_fract_z
Si Si1 0.250000 0.500000 0.120085
Si Si2 0.448351 0.712262 0.924343
Si Si3 0.743052 0.721408 0.557345
Si Si4 0.250000 0.500000 0.864162
Si Si5 0.003725 0.400944 0.790450
Si Si6 0.090290 0.315806 0.196058
Si Si7 0.508018 0.905704 0.440976
Si Si8 0.734522 0.911013 0.830782
O O1 0.126521 0.549002 0.167513
O O2 0.351754 0.557879 0.073335
O O3 0.571705 0.771310 0.943458
O O4 0.459769 0.678785 0.832105
O O5 0.309100 0.745463 0.972105
O O6 0.498746 0.638896 0.975240
O O7 0.797480 0.776223 0.632123
O O8 0.776333 0.638088 0.588569
O O9 0.350271 0.552056 0.806365
O O10 0.363044 0.461305 0.926288
O O11 0.930247 0.393104 0.700042
O O12 0.027774 0.250000 0.250000
O O13 0.162790 0.375869 0.257559
O O14 0.972991 0.351142 0.136754
O O15 0.750000 0.000000 0.839458
#
# Coordination Sequence:
#
# PCOD9408272 Si02
#       8
#     4   8   8   4   8   8   8   8
#     4  10  18  31  52  86 114 165 192 230 286 385
#     4  11  21  36  55  85 119 161 198 247 296 370
#     4  10  22  37  62  86 120 155 205 252 308 360
#     4  10  22  29  46  84 124 151 174 244 314 361
#     4  11  19  33  56  84 124 152 201 244 308 372
#     4   9  17  33  59  84 106 151 207 244 282 362
#     4  10  19  32  48  80 119 157 191 233 293 367
#     4  11  19  37  64  90 108 158 213 256 291 364
#
# _framework density 20.917171
#
# number of rings (size 3 to 8) (size 9 to 14) (size 15 to 20)
#    0.000    1.714    3.571    2.571    0.000    3.429 
#    0.000    0.714   15.714    0.000    0.000    0.000 
#    0.000    0.000    0.000    0.000    0.000    0.000 
#
# Total GULP energy -312092.324531 kJ/mol
# GULP energy per Si atom -5573.077224 kJ/mol
# Density = 2.086956 g / cm^3
# Si number density = 20.917171 Si / 1000 Ang^3
#
#
#
# Elastic Constant Matrix: (Units=GPa)
#
#
# Indices 1 2 3 4 5 6 
#
# 1 74.7387 14.1899 7.7279 0.0000 0.0000 0.0000
# 2 14.1899 103.1769 21.4116 0.0000 0.0000 0.0000
# 3 7.7279 21.4116 28.0189 0.0000 0.0000 0.0000
# 4 0.0000 0.0000 0.0000 19.2276 0.0000 0.0000
# 5 0.0000 0.0000 0.0000 0.0000 18.0286 0.0000
# 6 0.0000 0.0000 0.0000 0.0000 0.0000 24.2726
#
#
#
# Elastic Compliance Matrix: (Units=1/GPa)
#
#
# Indices 1 2 3 4 5 6 
#
# 1 0.013924 -0.001329 -0.002825 0.000000 0.000000 0.000000
# 2 -0.001329 0.011646 -0.008533 0.000000 0.000000 0.000000
# 3 -0.002825 -0.008533 0.042990 0.000000 0.000000 0.000000
# 4 0.000000 0.000000 0.000000 0.052009 0.000000 0.000000
# 5 0.000000 0.000000 0.000000 0.000000 0.055467 0.000000
# 6 0.000000 0.000000 0.000000 0.000000 0.000000 0.041199
#
#
# Mechanical properties :
#
#
# Convention : Reuss Voigt Hill
#
# Bulk Modulus (GPa) = 23.15534 32.51038 27.83286
# Shear Modulus (GPa) = 19.45495 23.14609 21.30052
#
# Velocity S-wave (km/s) = 3.05305 3.33011 3.19459
# Velocity P-wave (km/s) = 4.84997 5.51020 5.19060
#
# Compressibility (1/GPa) = 0.04318659
#
# Stress axis : x y z
#
# Youngs Moduli (GPa) = 71.81676 85.86925 23.26114
#
# Poissons Ratio (x) = 0.11410 0.06571
# Poissons Ratio (y) = 0.09543 0.19849
# Poissons Ratio (z) = 0.20289 0.73272
#
# Static dielectric constant tensor:
#      x y z
#    x 1.771740 0.000000 0.000000 
#    y 0.000000 1.869260 0.000000 
#    z 0.000000 0.000000 1.829750 
# 
# From -- ./inp_files/36155.got.cif
#   From: 2010.05.17/outbox.cif.g08.bks.cpg/sg52_19_cif.got.tgz:36155.got - 2010.06.03 12:15:38.
