data_PCOD9408909
_publ_section_title
;
Structure prediction by ZEFSAII (Michael W. Deem and Ramdas Pophale) SiO2 
 PCOD9408909
Probable space group: P N N A
;
_chemical_formula_sum "Si O2"
_cell_formula_units_Z 52
_cell_length_a 22.120796
_cell_length_b 22.249006
_cell_length_c 5.648128
_cell_angle_alpha 90.000000
_cell_angle_beta 90.000000
_cell_angle_gamma 90.000000
_cell_volume 2779.815000
_symmetry_space_group_name_H-M "P N N A"
_symmetry_group_IT_number 52
_symmetry_cell_setting 'orthorhombic'
loop_
_space_group_symop_operation_xyz
x,y,z
1/2-x,-y,z
x,1/2-y,1/2-z
1/2-x,1/2+y,1/2-z
-x,-y,-z
1/2+x,y,-z
-x,1/2+y,1/2+z
1/2+x,1/2-y,1/2+z
loop_
_atom_site_type_symbol
_atom_site_label
_atom_site_fract_x
_atom_site_fract_y
_atom_site_fract_z
Si Si1 0.170429 0.414967 0.483927
Si Si2 0.053965 0.471328 0.229165
Si Si3 0.250000 0.500000 0.183852
Si Si4 0.440692 0.417241 0.562967
Si Si5 0.480900 0.215061 0.001250
Si Si6 0.874508 0.784031 0.000470
Si Si7 0.143257 0.506474 0.852506
O O1 0.107038 0.438372 0.374068
O O2 0.223140 0.444984 0.333013
O O3 0.164985 0.344303 0.498556
O O4 0.173536 0.448883 0.732069
O O5 0.045172 0.536834 0.347912
O O6 0.994905 0.431037 0.252107
O O7 0.082389 0.481701 0.973913
O O8 0.192987 0.525980 0.039910
O O9 0.444983 0.347866 0.498840
O O10 0.378304 0.441706 0.674700
O O11 0.468466 0.250000 0.250000
O O12 0.553287 0.201968 0.002768
O O13 0.469033 0.250000 0.750000
O O14 0.862784 0.750000 0.250000
O O15 0.863629 0.750000 0.750000
#
# Coordination Sequence:
#
# PCOD9408909 Si02
#       7
#     8   8   4   8   8   8   8
#     4  10  20  37  57  88 120 154 204 255 313 371
#     4   9  19  32  54  87 122 153 187 244 304 365
#     4  10  22  38  58  88 114 148 206 272 324 356
#     4  10  19  34  53  89 123 154 200 237 305 371
#     4  10  22  36  56  86 128 172 201 236 294 372
#     4  10  22  37  58  90 126 167 199 241 301 373
#     4  10  21  34  60  88 110 159 194 259 315 368
#
# _framework density 18.706281000000001
#
# number of rings (size 3 to 8) (size 9 to 14) (size 15 to 20)
#    0.000    2.154    1.538    0.923    6.462    1.231 
#    0.000    0.000    0.000    0.000   16.000    0.000 
#    0.000    0.000    0.000    0.000    0.000    0.000 
#
# Total GULP energy -289815.355693 kJ/mol
# GULP energy per Si atom -5573.372225 kJ/mol
# Density = 1.866370 g / cm^3
# Si number density = 18.706281 Si / 1000 Ang^3
#
#
#
# Elastic Constant Matrix: (Units=GPa)
#
#
# Indices 1 2 3 4 5 6 
#
# 1 45.1365 34.0337 25.8419 0.0000 0.0000 0.0000
# 2 34.0337 150.8689 62.0043 0.0000 0.0000 0.0000
# 3 25.8419 62.0043 104.5539 0.0000 0.0000 0.0000
# 4 0.0000 0.0000 0.0000 5.6287 0.0000 0.0000
# 5 0.0000 0.0000 0.0000 0.0000 5.4114 0.0000
# 6 0.0000 0.0000 0.0000 0.0000 0.0000 21.8003
#
#
#
# Elastic Compliance Matrix: (Units=1/GPa)
#
#
# Indices 1 2 3 4 5 6 
#
# 1 0.028026 -0.004595 -0.004202 0.000000 0.000000 0.000000
# 2 -0.004595 0.009518 -0.004509 0.000000 0.000000 0.000000
# 3 -0.004202 -0.004509 0.013277 0.000000 0.000000 0.000000
# 4 0.000000 0.000000 0.000000 0.177661 0.000000 0.000000
# 5 0.000000 0.000000 0.000000 0.000000 0.184796 0.000000
# 6 0.000000 0.000000 0.000000 0.000000 0.000000 0.045871
#
#
# Mechanical properties :
#
#
# Convention : Reuss Voigt Hill
#
# Bulk Modulus (GPa) = 41.30721 60.47990 50.89356
# Shear Modulus (GPa) = 10.12497 18.48004 14.30250
#
# Velocity S-wave (km/s) = 2.32902 3.14651 2.76811
# Velocity P-wave (km/s) = 5.41871 6.75294 6.12228
#
# Compressibility (1/GPa) = 0.02420885
#
# Stress axis : x y z
#
# Youngs Moduli (GPa) = 35.68167 105.06545 75.31961
#
# Poissons Ratio (x) = 0.48281 0.31647
# Poissons Ratio (y) = 0.16397 0.33959
# Poissons Ratio (z) = 0.14992 0.47370
#
# Static dielectric constant tensor:
#      x y z
#    x 1.661750 0.000000 0.000000 
#    y 0.000000 1.621120 0.000000 
#    z 0.000000 0.000000 1.757600 
# 
# From -- ./inp_files/5919.got.cif
#   From: 2010.05.17/outbox.cif.g08.bks.cpg/sg52_3_cif.got.tgz:5919.got - 2010.06.03 12:15:38.
