data_PCOD9408064
_publ_section_title
;
Structure prediction by ZEFSAII (Michael W. Deem and Ramdas Pophale) SiO2 
 PCOD9408064
Probable space group: P N N A
;
_chemical_formula_sum "Si O2"
_cell_formula_units_Z 32
_cell_length_a 8.020022
_cell_length_b 10.716373
_cell_length_c 15.898187
_cell_angle_alpha 90.000000
_cell_angle_beta 90.000000
_cell_angle_gamma 90.000000
_cell_volume 1366.378382
_symmetry_space_group_name_H-M "P N N A"
_symmetry_group_IT_number 52
_symmetry_cell_setting 'orthorhombic'
loop_
_space_group_symop_operation_xyz
x,y,z
1/2-x,-y,z
x,1/2-y,1/2-z
1/2-x,1/2+y,1/2-z
-x,-y,-z
1/2+x,y,-z
-x,1/2+y,1/2+z
1/2+x,1/2-y,1/2+z
loop_
_atom_site_type_symbol
_atom_site_label
_atom_site_fract_x
_atom_site_fract_y
_atom_site_fract_z
Si Si1 0.628401 0.824295 0.873401
Si Si2 0.287226 0.858501 0.963786
Si Si3 0.509644 0.921852 0.702419
Si Si4 0.133595 0.824073 0.670118
O O1 0.473512 0.833876 0.935957
O O2 0.583127 0.916084 0.796622
O O3 0.622818 0.681664 0.842472
O O4 0.779057 0.850350 0.935254
O O5 0.174467 0.760848 0.910567
O O6 0.250000 0.000000 0.937987
O O7 0.318837 0.869552 0.701261
O O8 0.484820 0.055727 0.659556
O O9 0.062324 0.750000 0.750000
#
# Coordination Sequence:
#
# PCOD9408064 Si02
#       4
#     8   8   8   8
#     4  10  20  36  59  82 117 151 197 246 297 350
#     4  11  21  34  56  89 113 147 192 251 293 348
#     4   9  18  35  58  80 110 163 200 234 295 367
#     4  10  17  31  58  83 108 146 209 242 276 357
#
# _framework density 23.419574999999998
#
# number of rings (size 3 to 8) (size 9 to 14) (size 15 to 20)
#    0.000    2.000    5.000    2.250    0.000    1.000 
#    0.000    0.000   16.500    0.000    0.000    0.000 
#    0.000    0.000    0.000    0.000    0.000    0.000 
#
# Total GULP energy -178719.725273 kJ/mol
# GULP energy per Si atom -5584.991415 kJ/mol
# Density = 2.336627 g / cm^3
# Si number density = 23.419575 Si / 1000 Ang^3
#
#
#
# Elastic Constant Matrix: (Units=GPa)
#
#
# Indices 1 2 3 4 5 6 
#
# 1 50.4925 9.1692 28.6671 0.0000 0.0000 0.0000
# 2 9.1692 117.4488 17.5092 0.0000 0.0000 0.0000
# 3 28.6671 17.5092 107.4898 0.0000 0.0000 0.0000
# 4 0.0000 0.0000 0.0000 27.4390 0.0000 0.0000
# 5 0.0000 0.0000 0.0000 0.0000 28.7036 0.0000
# 6 0.0000 0.0000 0.0000 0.0000 0.0000 7.8447
#
#
#
# Elastic Compliance Matrix: (Units=1/GPa)
#
#
# Indices 1 2 3 4 5 6 
#
# 1 0.023435 -0.000920 -0.006100 0.000000 0.000000 0.000000
# 2 -0.000920 0.008762 -0.001182 0.000000 0.000000 0.000000
# 3 -0.006100 -0.001182 0.011123 0.000000 0.000000 0.000000
# 4 0.000000 0.000000 0.000000 0.036444 0.000000 0.000000
# 5 0.000000 0.000000 0.000000 0.000000 0.034839 0.000000
# 6 0.000000 0.000000 0.000000 0.000000 0.000000 0.127474
#
#
# Mechanical properties :
#
#
# Convention : Reuss Voigt Hill
#
# Bulk Modulus (GPa) = 37.15292 42.90247 40.02770
# Shear Modulus (GPa) = 18.69478 27.46985 23.08231
#
# Velocity S-wave (km/s) = 2.82840 3.42854 3.14283
# Velocity P-wave (km/s) = 5.15412 5.83370 5.50441
#
# Compressibility (1/GPa) = 0.02691578
#
# Stress axis : x y z
#
# Youngs Moduli (GPa) = 42.67038 114.12419 89.90662
#
# Poissons Ratio (x) = 0.10502 0.54845
# Poissons Ratio (y) = 0.03926 0.10626
# Poissons Ratio (z) = 0.26030 0.13488
#
# Static dielectric constant tensor:
#      x y z
#    x 1.947100 0.000000 0.000000 
#    y 0.000000 1.976910 0.000000 
#    z 0.000000 0.000000 1.915120 
# 
# From -- ./inp_files/24065.got.cif
#   From: 2010.05.17/outbox.cif.g08.bks.cpg/sg52_13_cif.got.tgz:24065.got - 2010.06.03 12:15:38.
