data_PCOD9408852
_publ_section_title
;
Structure prediction by ZEFSAII (Michael W. Deem and Ramdas Pophale) SiO2 
 PCOD9408852
Probable space group: P N N A
;
_chemical_formula_sum "Si O2"
_cell_formula_units_Z 36
_cell_length_a 12.900683
_cell_length_b 7.110071
_cell_length_c 21.400093
_cell_angle_alpha 90.000000
_cell_angle_beta 90.000000
_cell_angle_gamma 90.000000
_cell_volume 1962.918653
_symmetry_space_group_name_H-M "P N N A"
_symmetry_group_IT_number 52
_symmetry_cell_setting 'orthorhombic'
loop_
_space_group_symop_operation_xyz
x,y,z
1/2-x,-y,z
x,1/2-y,1/2-z
1/2-x,1/2+y,1/2-z
-x,-y,-z
1/2+x,y,-z
-x,1/2+y,1/2+z
1/2+x,1/2-y,1/2+z
loop_
_atom_site_type_symbol
_atom_site_label
_atom_site_fract_x
_atom_site_fract_y
_atom_site_fract_z
Si Si1 0.348829 0.861736 0.027571
Si Si2 0.750000 0.500000 0.089624
Si Si3 0.330109 0.674045 0.679678
Si Si4 0.495403 0.120075 0.090632
Si Si5 0.385683 0.445366 0.022638
O O1 0.413972 0.287588 0.073534
O O2 0.330415 0.641736 0.041870
O O3 0.250000 0.000000 0.024496
O O4 0.413741 0.875492 0.962638
O O5 0.700834 0.344151 0.133674
O O6 0.670827 0.606697 0.042674
O O7 0.250000 0.500000 0.673201
O O8 0.328120 0.750000 0.750000
O O9 0.054899 0.377554 0.655738
O O10 0.428157 0.935706 0.079385
O O11 0.500000 0.500000 0.000000
#
# Coordination Sequence:
#
# PCOD9408852 Si02
#       5
#     8   4   8   8   8
#     4  10  19  33  54  87 114 147 185 241 303 344
#     4  12  22  38  56  86 128 146 196 232 298 352
#     4  12  26  40  58  84 118 166 198 236 284 361
#     4  10  22  34  55  87 117 151 193 241 299 350
#     4  10  20  32  54  82 115 151 178 240 297 343
#
# _framework density 18.340036000000001
#
# number of rings (size 3 to 8) (size 9 to 14) (size 15 to 20)
#    0.000    1.333    5.556    2.000    9.333    0.000 
#    0.000    0.000    0.000    0.000    8.667    0.000 
#    0.000    0.000    0.000    0.000    0.000    0.000 
#
# Total GULP energy -200589.958813 kJ/mol
# GULP energy per Si atom -5571.943300 kJ/mol
# Density = 1.829829 g / cm^3
# Si number density = 18.340036 Si / 1000 Ang^3
#
#
#
# Elastic Constant Matrix: (Units=GPa)
#
#
# Indices 1 2 3 4 5 6 
#
# 1 82.7818 36.8508 47.4481 0.0000 0.0000 0.0000
# 2 36.8508 113.2258 39.9040 0.0000 0.0000 0.0000
# 3 47.4481 39.9040 79.6228 0.0000 0.0000 0.0000
# 4 0.0000 0.0000 0.0000 18.0718 0.0000 0.0000
# 5 0.0000 0.0000 0.0000 0.0000 29.0038 0.0000
# 6 0.0000 0.0000 0.0000 0.0000 0.0000 40.3332
#
#
#
# Elastic Compliance Matrix: (Units=1/GPa)
#
#
# Indices 1 2 3 4 5 6 
#
# 1 0.018985 -0.002662 -0.009979 0.000000 0.000000 0.000000
# 2 -0.002662 0.011100 -0.003977 0.000000 0.000000 0.000000
# 3 -0.009979 -0.003977 0.020499 0.000000 0.000000 0.000000
# 4 0.000000 0.000000 0.000000 0.055335 0.000000 0.000000
# 5 0.000000 0.000000 0.000000 0.000000 0.034478 0.000000
# 6 0.000000 0.000000 0.000000 0.000000 0.000000 0.024793
#
#
# Mechanical properties :
#
#
# Convention : Reuss Voigt Hill
#
# Bulk Modulus (GPa) = 57.64329 58.22626 57.93478
# Shear Modulus (GPa) = 24.48490 27.57691 26.03091
#
# Velocity S-wave (km/s) = 3.65780 3.88189 3.77151
# Velocity P-wave (km/s) = 7.02409 7.20481 7.11502
#
# Compressibility (1/GPa) = 0.01734807
#
# Stress axis : x y z
#
# Youngs Moduli (GPa) = 52.67414 90.09256 48.78337
#
# Poissons Ratio (x) = 0.23981 0.48682
# Poissons Ratio (y) = 0.14021 0.19399
# Poissons Ratio (z) = 0.52564 0.35826
#
# Static dielectric constant tensor:
#      x y z
#    x 1.722480 0.000000 0.000000 
#    y 0.000000 1.725180 0.000000 
#    z 0.000000 0.000000 1.597930 
# 
# From -- ./inp_files/32792.got.cif
#   From: 2010.05.17/outbox.cif.g08.bks.cpg/sg52_17_cif.got.tgz:32792.got - 2010.06.03 12:15:38.
