data_PCOD9408164
_publ_section_title
;
Structure prediction by ZEFSAII (Michael W. Deem and Ramdas Pophale) SiO2 
 PCOD9408164
Probable space group: P N N A
;
_chemical_formula_sum "Si O2"
_cell_formula_units_Z 40
_cell_length_a 9.254541
_cell_length_b 13.971658
_cell_length_c 17.638959
_cell_angle_alpha 90.000000
_cell_angle_beta 90.000000
_cell_angle_gamma 90.000000
_cell_volume 2280.740008
_symmetry_space_group_name_H-M "P N N A"
_symmetry_group_IT_number 52
_symmetry_cell_setting 'orthorhombic'
loop_
_space_group_symop_operation_xyz
x,y,z
1/2-x,-y,z
x,1/2-y,1/2-z
1/2-x,1/2+y,1/2-z
-x,-y,-z
1/2+x,y,-z
-x,1/2+y,1/2+z
1/2+x,1/2-y,1/2+z
loop_
_atom_site_type_symbol
_atom_site_label
_atom_site_fract_x
_atom_site_fract_y
_atom_site_fract_z
Si Si1 0.649371 0.774386 0.138228
Si Si2 0.550179 0.911321 0.825030
Si Si3 0.131083 0.125388 0.137075
Si Si4 0.675021 0.101473 0.040645
Si Si5 0.789044 0.609562 0.225067
O O1 0.477574 0.785544 0.145979
O O2 0.708814 0.816481 0.059960
O O3 0.727948 0.675698 0.158234
O O4 0.706963 0.848877 0.201462
O O5 0.706794 0.863494 0.832341
O O6 0.458234 0.888166 0.901220
O O7 0.455678 0.882411 0.751775
O O8 0.572025 0.026654 0.825905
O O9 0.135295 0.103711 0.047124
O O10 0.750000 0.000000 0.057256
O O11 0.750000 0.500000 0.212935
#
# Coordination Sequence:
#
# PCOD9408164 Si02
#       5
#     8   8   8   8   8
#     4  10  20  32  51  76 102 147 181 217 271 334
#     4  10  18  28  49  79 110 141 167 222 278 323
#     4  11  18  28  51  84 110 131 167 231 282 325
#     4  11  17  29  49  81 118 142 164 208 284 342
#     4  10  19  36  52  68 103 146 193 221 259 331
#
# _framework density 17.538167000000001
#
# number of rings (size 3 to 8) (size 9 to 14) (size 15 to 20)
#    0.000    1.600    6.000    3.000    0.000    0.000 
#    0.000    8.000    0.000    1.200    0.000    0.000 
#    0.000    0.000    0.000    0.000    0.000    0.000 
#
# Total GULP energy -222958.222703 kJ/mol
# GULP energy per Si atom -5573.955568 kJ/mol
# Density = 1.749825 g / cm^3
# Si number density = 17.538167 Si / 1000 Ang^3
#
#
#
# Elastic Constant Matrix: (Units=GPa)
#
#
# Indices 1 2 3 4 5 6 
#
# 1 142.1063 35.9171 11.9309 0.0000 0.0000 0.0000
# 2 35.9171 94.1839 18.2370 0.0000 0.0000 0.0000
# 3 11.9309 18.2370 17.7843 0.0000 0.0000 0.0000
# 4 0.0000 0.0000 0.0000 12.5793 0.0000 0.0000
# 5 0.0000 0.0000 0.0000 0.0000 14.5258 0.0000
# 6 0.0000 0.0000 0.0000 0.0000 0.0000 16.7959
#
#
#
# Elastic Compliance Matrix: (Units=1/GPa)
#
#
# Indices 1 2 3 4 5 6 
#
# 1 0.007894 -0.002477 -0.002756 0.000000 0.000000 0.000000
# 2 -0.002477 0.014025 -0.012721 0.000000 0.000000 0.000000
# 3 -0.002756 -0.012721 0.071123 0.000000 0.000000 0.000000
# 4 0.000000 0.000000 0.000000 0.079496 0.000000 0.000000
# 5 0.000000 0.000000 0.000000 0.000000 0.068843 0.000000
# 6 0.000000 0.000000 0.000000 0.000000 0.000000 0.059538
#
#
# Mechanical properties :
#
#
# Convention : Reuss Voigt Hill
#
# Bulk Modulus (GPa) = 17.50235 42.91604 30.20920
# Shear Modulus (GPa) = 14.05000 21.31283 17.68141
#
# Velocity S-wave (km/s) = 2.83346 3.48979 3.17861
# Velocity P-wave (km/s) = 4.55037 6.38446 5.54379
#
# Compressibility (1/GPa) = 0.05713518
#
# Stress axis : x y z
#
# Youngs Moduli (GPa) = 126.67201 71.30039 14.06019
#
# Poissons Ratio (x) = 0.17660 0.03875
# Poissons Ratio (y) = 0.31375 0.17885
# Poissons Ratio (z) = 0.34913 0.90698
#
# Static dielectric constant tensor:
#      x y z
#    x 1.679160 0.000000 0.000000 
#    y 0.000000 1.607010 0.000000 
#    z 0.000000 0.000000 1.613330 
# 
# From -- ./inp_files/31069.got.cif
#   From: 2010.05.17/outbox.cif.g08.bks.cpg/sg52_16_cif.got.tgz:31069.got - 2010.06.03 12:15:38.
