data_PCOD9408519
_publ_section_title
;
Structure prediction by ZEFSAII (Michael W. Deem and Ramdas Pophale) SiO2 
 PCOD9408519
Probable space group: P N N A
;
_chemical_formula_sum "Si O2"
_cell_formula_units_Z 56
_cell_length_a 19.645891
_cell_length_b 9.528416
_cell_length_c 16.246445
_cell_angle_alpha 90.000000
_cell_angle_beta 90.000000
_cell_angle_gamma 90.000000
_cell_volume 3041.240634
_symmetry_space_group_name_H-M "P N N A"
_symmetry_group_IT_number 52
_symmetry_cell_setting 'orthorhombic'
loop_
_space_group_symop_operation_xyz
x,y,z
1/2-x,-y,z
x,1/2-y,1/2-z
1/2-x,1/2+y,1/2-z
-x,-y,-z
1/2+x,y,-z
-x,1/2+y,1/2+z
1/2+x,1/2-y,1/2+z
loop_
_atom_site_type_symbol
_atom_site_label
_atom_site_fract_x
_atom_site_fract_y
_atom_site_fract_z
Si Si1 0.509562 0.662351 0.019690
Si Si2 0.676617 0.000506 0.649294
Si Si3 0.624666 0.792906 0.913038
Si Si4 0.588306 0.448754 0.697899
Si Si5 0.936281 0.171106 0.168929
Si Si6 0.174588 0.514002 0.560573
Si Si7 0.640608 0.260024 0.555365
O O1 0.547068 0.704914 0.103988
O O2 0.435327 0.725482 0.027264
O O3 0.500000 0.500000 0.000000
O O4 0.554162 0.738243 0.951087
O O5 0.662854 0.844227 0.618338
O O6 0.750000 0.000000 0.692807
O O7 0.615897 0.047391 0.709648
O O8 0.678120 0.114541 0.575680
O O9 0.604947 0.900619 0.841513
O O10 0.665975 0.874401 0.984863
O O11 0.509088 0.404103 0.689443
O O12 0.632692 0.343585 0.641460
O O13 0.910010 0.250000 0.250000
O O14 0.883367 0.063722 0.125342
O O15 0.250000 0.500000 0.597513
O O16 0.166078 0.365241 0.514331
#
# Coordination Sequence:
#
# PCOD9408519 Si02
#       7
#     8   8   8   8   8   8   8
#     4  10  18  35  61  87 113 144 193 250 292 334
#     4  12  23  34  52  84 127 164 194 234 289 349
#     4  10  21  35  56  87 116 153 198 245 288 347
#     4  10  21  36  54  83 118 156 196 237 285 350
#     4  10  21  38  64  86 113 152 194 247 303 353
#     4  10  21  39  63  84 113 153 200 245 297 359
#     4  10  20  36  58  82 113 153 201 238 289 347
#
# _framework density 18.413537999999999
#
# number of rings (size 3 to 8) (size 9 to 14) (size 15 to 20)
#    0.000    1.714    1.429    4.286    0.000    8.000 
#    0.000    0.000    3.143    0.000    0.000    0.000 
#    0.000    0.000    0.000    0.000    0.000    0.000 
#
# Total GULP energy -312310.125896 kJ/mol
# GULP energy per Si atom -5576.966534 kJ/mol
# Density = 1.837163 g / cm^3
# Si number density = 18.413538 Si / 1000 Ang^3
#
#
#
# Elastic Constant Matrix: (Units=GPa)
#
#
# Indices 1 2 3 4 5 6 
#
# 1 74.1812 23.3007 30.4748 0.0000 0.0000 0.0000
# 2 23.3007 128.5471 40.3555 0.0000 0.0000 0.0000
# 3 30.4748 40.3555 67.0895 0.0000 0.0000 0.0000
# 4 0.0000 0.0000 0.0000 25.4290 0.0000 0.0000
# 5 0.0000 0.0000 0.0000 0.0000 11.8851 0.0000
# 6 0.0000 0.0000 0.0000 0.0000 0.0000 -2.9998
#
#
#
# Elastic Compliance Matrix: (Units=1/GPa)
#
#
# Indices 1 2 3 4 5 6 
#
# 1 0.016639 -0.000793 -0.007081 0.000000 0.000000 0.000000
# 2 -0.000793 0.009628 -0.005431 0.000000 0.000000 0.000000
# 3 -0.007081 -0.005431 0.021389 0.000000 0.000000 0.000000
# 4 0.000000 0.000000 0.000000 0.039325 0.000000 0.000000
# 5 0.000000 0.000000 0.000000 0.000000 0.084139 0.000000
# 6 0.000000 0.000000 0.000000 0.000000 0.000000 -0.333352
#
#
# Mechanical properties :
#
#
# Convention : Reuss Voigt Hill
#
# Bulk Modulus (GPa) = 47.51677 50.89777 49.20727
# Shear Modulus (GPa) = -38.87800 18.57530 -10.15135
#
# Velocity S-wave (km/s) = -4.59996 3.17958 -2.35052
# Velocity P-wave (km/s) = 1.53346 6.41726 4.40623
#
# Compressibility (1/GPa) = 0.02104520
#
# Stress axis : x y z
#
# Youngs Moduli (GPa) = 60.10139 103.86321 46.75318
#
# Poissons Ratio (x) = 0.08236 0.33106
# Poissons Ratio (y) = 0.04766 0.25393
# Poissons Ratio (z) = 0.42557 0.56411
#
# Static dielectric constant tensor:
#      x y z
#    x 1.633600 0.000000 0.000000 
#    y 0.000000 0.396700 0.000000 
#    z 0.000000 0.000000 1.638180 
# 
# From -- ./inp_files/28753.got.cif
#   From: 2010.05.17/outbox.cif.g08.bks.cpg/sg52_15_cif.got.tgz:28753.got - 2010.06.03 12:15:38.
