data_PCOD9408907
_publ_section_title
;
Structure prediction by ZEFSAII (Michael W. Deem and Ramdas Pophale) SiO2 
 PCOD9408907
Probable space group: P N N A
;
_chemical_formula_sum "Si O2"
_cell_formula_units_Z 64
_cell_length_a 12.782598
_cell_length_b 7.506517
_cell_length_c 28.538705
_cell_angle_alpha 90.000000
_cell_angle_beta 90.000000
_cell_angle_gamma 90.000000
_cell_volume 2738.368345
_symmetry_space_group_name_H-M "P N N A"
_symmetry_group_IT_number 52
_symmetry_cell_setting 'orthorhombic'
loop_
_space_group_symop_operation_xyz
x,y,z
1/2-x,-y,z
x,1/2-y,1/2-z
1/2-x,1/2+y,1/2-z
-x,-y,-z
1/2+x,y,-z
-x,1/2+y,1/2+z
1/2+x,1/2-y,1/2+z
loop_
_atom_site_type_symbol
_atom_site_label
_atom_site_fract_x
_atom_site_fract_y
_atom_site_fract_z
Si Si1 0.370339 0.225003 0.871327
Si Si2 0.001758 0.869067 0.212186
Si Si3 0.741410 0.283524 0.601631
Si Si4 0.644333 0.587579 0.218681
Si Si5 0.834372 0.852383 0.798085
Si Si6 0.371286 0.794286 0.870445
Si Si7 0.539383 0.715754 0.553879
Si Si8 0.967728 0.718317 0.549045
O O1 0.412491 0.326219 0.825600
O O2 0.247225 0.266456 0.876449
O O3 0.443284 0.271763 0.914329
O O4 0.370496 0.010386 0.866878
O O5 0.064798 0.750000 0.250000
O O6 0.936299 0.748473 0.176268
O O7 0.921867 0.973162 0.245339
O O8 0.071062 0.016518 0.186173
O O9 0.750000 0.500000 0.601456
O O10 0.710290 0.246150 0.656440
O O11 0.852650 0.225080 0.579309
O O12 0.645881 0.223396 0.568217
O O13 0.750000 0.500000 0.201917
O O14 0.684542 0.750000 0.250000
O O15 0.863537 0.750000 0.750000
O O16 0.750000 0.000000 0.783748
O O17 0.442581 0.736839 0.913177
O O18 0.541308 0.498717 0.550103
O O19 0.509102 0.776394 0.501731
#
# Coordination Sequence:
#
# PCOD9408907 Si02
#       8
#     8   8   8   8   8   8   8   8
#     4  10  20  33  53  82 118 157 196 249 306 374
#     4  12  24  38  59  87 122 163 208 253 313 380
#     4   9  18  33  53  81 118 158 201 254 313 364
#     4  12  23  37  58  86 121 165 204 251 312 381
#     4  11  23  39  61  87 123 167 208 261 310 373
#     4  10  19  34  53  82 120 158 198 247 310 365
#     4   9  18  31  52  80 118 158 196 252 310 371
#     4   9  18  30  51  80 117 153 198 245 317 368
#
# _framework density 23.371582
#
# number of rings (size 3 to 8) (size 9 to 14) (size 15 to 20)
#    0.000    1.750    1.250    5.625    3.500    0.000 
#    0.000    0.000    0.000    0.000    0.000    6.125 
#    0.000    0.000    0.000    0.000    0.000    0.000 
#
# Total GULP energy -357455.427044 kJ/mol
# GULP energy per Si atom -5585.241048 kJ/mol
# Density = 2.331839 g / cm^3
# Si number density = 23.371582 Si / 1000 Ang^3
#
#
#
# Elastic Constant Matrix: (Units=GPa)
#
#
# Indices 1 2 3 4 5 6 
#
# 1 121.2349 2.9711 62.0140 0.0000 0.0000 0.0000
# 2 2.9711 41.5429 13.8532 0.0000 0.0000 0.0000
# 3 62.0140 13.8532 181.8797 0.0000 0.0000 0.0000
# 4 0.0000 0.0000 0.0000 6.7663 0.0000 0.0000
# 5 0.0000 0.0000 0.0000 0.0000 34.0202 0.0000
# 6 0.0000 0.0000 0.0000 0.0000 0.0000 3.4906
#
#
#
# Elastic Compliance Matrix: (Units=1/GPa)
#
#
# Indices 1 2 3 4 5 6 
#
# 1 0.009999 0.000433 -0.003442 0.000000 0.000000 0.000000
# 2 0.000433 0.024718 -0.002030 0.000000 0.000000 0.000000
# 3 -0.003442 -0.002030 0.006826 0.000000 0.000000 0.000000
# 4 0.000000 0.000000 0.000000 0.147792 0.000000 0.000000
# 5 0.000000 0.000000 0.000000 0.000000 0.029394 0.000000
# 6 0.000000 0.000000 0.000000 0.000000 0.000000 0.286485
#
#
# Mechanical properties :
#
#
# Convention : Reuss Voigt Hill
#
# Bulk Modulus (GPa) = 31.78298 55.81489 43.79893
# Shear Modulus (GPa) = 9.50968 26.57671 18.04319
#
# Velocity S-wave (km/s) = 2.01934 3.37581 2.78153
# Velocity P-wave (km/s) = 4.36640 6.25525 5.39415
#
# Compressibility (1/GPa) = 0.03146339
#
# Stress axis : x y z
#
# Youngs Moduli (GPa) = 100.01466 40.45711 146.49034
#
# Poissons Ratio (x) = -0.01751 0.50423
# Poissons Ratio (y) = -0.04328 0.29741
# Poissons Ratio (z) = 0.34426 0.08214
#
# Static dielectric constant tensor:
#      x y z
#    x 1.881430 0.000000 0.000000 
#    y 0.000000 2.010020 0.000000 
#    z 0.000000 0.000000 1.866130 
# 
# From -- ./inp_files/44853.got.cif
#   From: 2010.05.17/outbox.cif.g08.bks.cpg/sg52_23_cif.got.tgz:44853.got - 2010.06.03 12:15:38.
