data_PCOD9408654
_publ_section_title
;
Structure prediction by ZEFSAII (Michael W. Deem and Ramdas Pophale) SiO2 
 PCOD9408654
Probable space group: P N N A
;
_chemical_formula_sum "Si O2"
_cell_formula_units_Z 48
_cell_length_a 19.063251
_cell_length_b 15.189205
_cell_length_c 8.500477
_cell_angle_alpha 90.000000
_cell_angle_beta 90.000000
_cell_angle_gamma 90.000000
_cell_volume 2461.360951
_symmetry_space_group_name_H-M "P N N A"
_symmetry_group_IT_number 52
_symmetry_cell_setting 'orthorhombic'
loop_
_space_group_symop_operation_xyz
x,y,z
1/2-x,-y,z
x,1/2-y,1/2-z
1/2-x,1/2+y,1/2-z
-x,-y,-z
1/2+x,y,-z
-x,1/2+y,1/2+z
1/2+x,1/2-y,1/2+z
loop_
_atom_site_type_symbol
_atom_site_label
_atom_site_fract_x
_atom_site_fract_y
_atom_site_fract_z
Si Si1 0.327526 0.105431 0.086843
Si Si2 0.927463 0.527905 0.419567
Si Si3 0.750000 0.000000 0.639683
Si Si4 0.844485 0.852912 0.574074
Si Si5 0.676614 0.336523 0.549998
Si Si6 0.077155 0.750000 0.250000
Si Si7 0.480487 0.908134 0.588945
O O1 0.251626 0.122454 0.012330
O O2 0.371173 0.191985 0.138230
O O3 0.305959 0.050306 0.245495
O O4 0.373868 0.048504 0.968819
O O5 0.891014 0.614850 0.486831
O O6 0.942605 0.552167 0.241679
O O7 0.000000 0.500000 0.500000
O O8 0.704880 0.065653 0.534454
O O9 0.820239 0.763303 0.496411
O O10 0.832002 0.842807 0.760978
O O11 0.924571 0.865159 0.528684
O O12 0.032036 0.827869 0.343940
O O13 0.500000 0.000000 0.500000
#
# Coordination Sequence:
#
# PCOD9408654 Si02
#       7
#     8   8   4   8   8   4   8
#     4  11  20  40  70  93 128 174 233 266 334 404
#     4  12  22  41  67  92 131 175 217 276 335 398
#     4  10  18  40  66  98 128 176 226 278 330 420
#     4  10  20  37  63  96 132 168 221 271 330 398
#     4  10  21  40  68  98 126 173 224 275 328 405
#     4  12  24  42  70  98 136 182 226 292 338 414
#     4  12  26  43  64  99 140 174 223 278 346 414
#
# _framework density 19.501405999999999
#
# number of rings (size 3 to 8) (size 9 to 14) (size 15 to 20)
#    0.000    1.000    5.000    5.000    0.000    0.000 
#    3.000    0.000    3.667    0.000    0.000    0.000 
#    0.000    0.000    0.000    0.000    0.000    0.000 
#
# Total GULP energy -267270.674238 kJ/mol
# GULP energy per Si atom -5568.139047 kJ/mol
# Density = 1.945702 g / cm^3
# Si number density = 19.501406 Si / 1000 Ang^3
#
#
#
# Elastic Constant Matrix: (Units=GPa)
#
#
# Indices 1 2 3 4 5 6 
#
# 1 120.7542 51.6726 23.9955 0.0000 0.0000 0.0000
# 2 51.6726 128.2616 20.3823 0.0000 0.0000 0.0000
# 3 23.9955 20.3823 25.9643 0.0000 0.0000 0.0000
# 4 0.0000 0.0000 0.0000 19.6117 0.0000 0.0000
# 5 0.0000 0.0000 0.0000 0.0000 25.4701 0.0000
# 6 0.0000 0.0000 0.0000 0.0000 0.0000 38.2287
#
#
#
# Elastic Compliance Matrix: (Units=1/GPa)
#
#
# Indices 1 2 3 4 5 6 
#
# 1 0.011239 -0.003287 -0.007806 0.000000 0.000000 0.000000
# 2 -0.003287 0.009869 -0.004709 0.000000 0.000000 0.000000
# 3 -0.007806 -0.004709 0.049426 0.000000 0.000000 0.000000
# 4 0.000000 0.000000 0.000000 0.050990 0.000000 0.000000
# 5 0.000000 0.000000 0.000000 0.000000 0.039262 0.000000
# 6 0.000000 0.000000 0.000000 0.000000 0.000000 0.026158
#
#
# Mechanical properties :
#
#
# Convention : Reuss Voigt Hill
#
# Bulk Modulus (GPa) = 25.68841 51.89788 38.79314
# Shear Modulus (GPa) = 21.59575 28.59074 25.09325
#
# Velocity S-wave (km/s) = 3.33136 3.83310 3.59101
# Velocity P-wave (km/s) = 5.29136 6.80150 6.09339
#
# Compressibility (1/GPa) = 0.03892807
#
# Stress axis : x y z
#
# Youngs Moduli (GPa) = 88.97380 101.32387 20.23231
#
# Poissons Ratio (x) = 0.33309 0.15794
# Poissons Ratio (y) = 0.29249 0.09528
# Poissons Ratio (z) = 0.69456 0.47718
#
# Static dielectric constant tensor:
#      x y z
#    x 1.702820 0.000000 0.000000 
#    y 0.000000 1.783190 0.000000 
#    z 0.000000 0.000000 1.700430 
# 
# From -- ./inp_files/12164.got.cif
#   From: 2010.05.17/outbox.cif.g08.bks.cpg/sg52_7_cif.got.tgz:12164.got - 2010.06.03 12:15:38.
