data_PCOD9408245
_publ_section_title
;
Structure prediction by ZEFSAII (Michael W. Deem and Ramdas Pophale) SiO2 
 PCOD9408245
Probable space group: P N N A
;
_chemical_formula_sum "Si O2"
_cell_formula_units_Z 44
_cell_length_a 5.606108
_cell_length_b 20.594794
_cell_length_c 23.426094
_cell_angle_alpha 90.000000
_cell_angle_beta 90.000000
_cell_angle_gamma 90.000000
_cell_volume 2704.698088
_symmetry_space_group_name_H-M "P N N A"
_symmetry_group_IT_number 52
_symmetry_cell_setting 'orthorhombic'
loop_
_space_group_symop_operation_xyz
x,y,z
1/2-x,-y,z
x,1/2-y,1/2-z
1/2-x,1/2+y,1/2-z
-x,-y,-z
1/2+x,y,-z
-x,1/2+y,1/2+z
1/2+x,1/2-y,1/2+z
loop_
_atom_site_type_symbol
_atom_site_label
_atom_site_fract_x
_atom_site_fract_y
_atom_site_fract_z
Si Si1 0.907863 0.699571 0.195783
Si Si2 0.449589 0.113934 0.858592
Si Si3 0.750000 0.500000 0.664354
Si Si4 0.140332 0.435252 0.745413
Si Si5 0.403373 0.747398 0.180208
Si Si6 0.769095 0.578064 0.468879
O O1 0.901856 0.750000 0.250000
O O2 0.929117 0.625456 0.216333
O O3 0.651229 0.710694 0.166477
O O4 0.150740 0.716818 0.163054
O O5 0.622969 0.054184 0.873443
O O6 0.334718 0.093065 0.798558
O O7 0.575903 0.181500 0.846930
O O8 0.254131 0.113702 0.907916
O O9 0.572421 0.539231 0.705519
O O10 0.250000 0.500000 0.773979
O O11 0.397454 0.750000 0.250000
O O12 0.750000 0.500000 0.460752
O O13 0.524491 0.594712 0.503143
#
# Coordination Sequence:
#
# PCOD9408245 Si02
#       6
#     8   8   4   8   8   8
#     4  10  18  31  45  65  92 120 153 197 232 289
#     4  11  21  33  49  70  90 128 168 213 255 291
#     4  10  20  28  46  66  92 114 164 210 244 280
#     4  10  20  30  45  70  92 126 162 207 241 285
#     4  10  19  31  49  66  91 119 155 202 236 299
#     4  10  23  37  50  67  94 127 169 219 266 296
#
# _framework density 16.267990000000001
#
# number of rings (size 3 to 8) (size 9 to 14) (size 15 to 20)
#    0.000    1.818    3.636    3.818    8.909    0.000 
#    0.000    0.000    0.000    0.000    0.000    0.000 
#    0.000    0.000    0.000    0.000    0.000   18.182 
#
# Total GULP energy -245203.745795 kJ/mol
# GULP energy per Si atom -5572.812404 kJ/mol
# Density = 1.623096 g / cm^3
# Si number density = 16.267990 Si / 1000 Ang^3
#
#
#
# Elastic Constant Matrix: (Units=GPa)
#
#
# Indices 1 2 3 4 5 6 
#
# 1 112.2524 35.7547 9.6854 0.0000 0.0000 0.0000
# 2 35.7547 103.5674 22.7001 0.0000 0.0000 0.0000
# 3 9.6854 22.7001 21.1917 0.0000 0.0000 0.0000
# 4 0.0000 0.0000 0.0000 4.3196 0.0000 0.0000
# 5 0.0000 0.0000 0.0000 0.0000 5.0947 0.0000
# 6 0.0000 0.0000 0.0000 0.0000 0.0000 35.6990
#
#
#
# Elastic Compliance Matrix: (Units=1/GPa)
#
#
# Indices 1 2 3 4 5 6 
#
# 1 0.010030 -0.003212 -0.001143 0.000000 0.000000 0.000000
# 2 -0.003212 0.013647 -0.013150 0.000000 0.000000 0.000000
# 3 -0.001143 -0.013150 0.061797 0.000000 0.000000 0.000000
# 4 0.000000 0.000000 0.000000 0.231504 0.000000 0.000000
# 5 0.000000 0.000000 0.000000 0.000000 0.196282 0.000000
# 6 0.000000 0.000000 0.000000 0.000000 0.000000 0.028012
#
#
# Mechanical properties :
#
#
# Convention : Reuss Voigt Hill
#
# Bulk Modulus (GPa) = 19.81661 41.47689 30.64675
# Shear Modulus (GPa) = 8.43022 20.28073 14.35548
#
# Velocity S-wave (km/s) = 2.27889 3.53464 2.97381
# Velocity P-wave (km/s) = 4.37404 6.49690 5.53814
#
# Compressibility (1/GPa) = 0.05046272
#
# Stress axis : x y z
#
# Youngs Moduli (GPa) = 99.69805 73.27762 16.18203
#
# Poissons Ratio (x) = 0.23538 0.01850
# Poissons Ratio (y) = 0.32024 0.21279
# Poissons Ratio (z) = 0.11400 0.96360
#
# Static dielectric constant tensor:
#      x y z
#    x 1.649460 0.000000 0.000000 
#    y 0.000000 1.557890 0.000000 
#    z 0.000000 0.000000 1.516950 
# 
# From -- ./inp_files/35115.got.cif
#   From: 2010.05.17/outbox.cif.g08.bks.cpg/sg52_18_cif.got.tgz:35115.got - 2010.06.03 12:15:38.
