data_PCOD9408025
_publ_section_title
;
Structure prediction by ZEFSAII (Michael W. Deem and Ramdas Pophale) SiO2 
 PCOD9408025
Probable space group: P N N A
;
_chemical_formula_sum "Si O2"
_cell_formula_units_Z 36
_cell_length_a 12.099067
_cell_length_b 14.207706
_cell_length_c 7.538708
_cell_angle_alpha 90.000000
_cell_angle_beta 90.000000
_cell_angle_gamma 90.000000
_cell_volume 1295.903806
_symmetry_space_group_name_H-M "P N N A"
_symmetry_group_IT_number 52
_symmetry_cell_setting 'orthorhombic'
loop_
_space_group_symop_operation_xyz
x,y,z
1/2-x,-y,z
x,1/2-y,1/2-z
1/2-x,1/2+y,1/2-z
-x,-y,-z
1/2+x,y,-z
-x,1/2+y,1/2+z
1/2+x,1/2-y,1/2+z
loop_
_atom_site_type_symbol
_atom_site_label
_atom_site_fract_x
_atom_site_fract_y
_atom_site_fract_z
Si Si1 0.921674 0.750000 0.250000
Si Si2 0.982352 0.905295 0.788619
Si Si3 0.747305 0.386054 0.830848
Si Si4 0.136257 0.053781 0.836457
Si Si5 0.627254 0.778319 0.990133
O O1 0.850239 0.841658 0.230176
O O2 0.008637 0.750036 0.090616
O O3 0.882991 0.863221 0.676890
O O4 0.915556 0.936500 0.967032
O O5 0.043127 0.999376 0.722481
O O6 0.084007 0.838238 0.843531
O O7 0.750000 0.500000 0.852474
O O8 0.803972 0.318049 0.975342
O O9 0.809448 0.349887 0.648839
O O10 0.250000 0.000000 0.836454
#
# Coordination Sequence:
#
# PCOD9408025 Si02
#       5
#     4   8   8   8   8
#     4   8  16  30  44  72 114 144 170 218 282 336
#     4  10  17  29  51  78 108 144 189 233 277 336
#     4  10  17  30  52  78 109 146 188 233 286 346
#     4  10  18  29  50  79 110 141 179 228 282 342
#     4   9  19  31  49  80 111 143 186 232 282 340
#
# _framework density 27.77984
#
# number of rings (size 3 to 8) (size 9 to 14) (size 15 to 20)
#    0.000    2.667    0.000    7.333    0.000    0.000 
#    0.000    2.222    0.000    5.333    0.000   32.667 
#    0.000   33.778    0.000    0.000    0.000    2.667 
#
# Total GULP energy -201568.553703 kJ/mol
# GULP energy per Si atom -5599.126492 kJ/mol
# Density = 2.771661 g / cm^3
# Si number density = 27.779840 Si / 1000 Ang^3
#
#
#
# Elastic Constant Matrix: (Units=GPa)
#
#
# Indices 1 2 3 4 5 6 
#
# 1 223.4244 131.0153 56.9118 0.0000 0.0000 0.0000
# 2 131.0153 271.8944 42.5235 0.0000 0.0000 0.0000
# 3 56.9118 42.5235 58.7159 0.0000 0.0000 0.0000
# 4 0.0000 0.0000 0.0000 30.7962 0.0000 0.0000
# 5 0.0000 0.0000 0.0000 0.0000 60.9570 0.0000
# 6 0.0000 0.0000 0.0000 0.0000 0.0000 74.5950
#
#
#
# Elastic Compliance Matrix: (Units=1/GPa)
#
#
# Indices 1 2 3 4 5 6 
#
# 1 0.007418 -0.002763 -0.005189 0.000000 0.000000 0.000000
# 2 -0.002763 0.005177 -0.001071 0.000000 0.000000 0.000000
# 3 -0.005189 -0.001071 0.022836 0.000000 0.000000 0.000000
# 4 0.000000 0.000000 0.000000 0.032472 0.000000 0.000000
# 5 0.000000 0.000000 0.000000 0.000000 0.016405 0.000000
# 6 0.000000 0.000000 0.000000 0.000000 0.000000 0.013406
#
#
# Mechanical properties :
#
#
# Convention : Reuss Voigt Hill
#
# Bulk Modulus (GPa) = 57.52067 112.77064 85.14566
# Shear Modulus (GPa) = 41.13416 54.84192 47.98804
#
# Velocity S-wave (km/s) = 3.85219 4.44798 4.16076
# Velocity P-wave (km/s) = 6.36684 8.18913 7.33480
#
# Compressibility (1/GPa) = 0.01738505
#
# Stress axis : x y z
#
# Youngs Moduli (GPa) = 134.81535 193.17394 43.78976
#
# Poissons Ratio (x) = 0.53368 0.22722
# Poissons Ratio (y) = 0.37246 0.04691
# Poissons Ratio (z) = 0.69953 0.20694
#
# Static dielectric constant tensor:
#      x y z
#    x 2.074750 0.000000 0.000000 
#    y 0.000000 2.228310 0.000000 
#    z 0.000000 0.000000 2.325440 
# 
# From -- ./inp_files/17934.got.cif
#   From: 2010.05.17/outbox.cif.g08.bks.cpg/sg52_9_cif.got.tgz:17934.got - 2010.06.03 12:15:38.
