data_PCOD9408962
_publ_section_title
;
Structure prediction by ZEFSAII (Michael W. Deem and Ramdas Pophale) SiO2 
 PCOD9408962
Probable space group: P N N A
;
_chemical_formula_sum "Si O2"
_cell_formula_units_Z 40
_cell_length_a 14.105265
_cell_length_b 14.563660
_cell_length_c 8.887219
_cell_angle_alpha 90.000000
_cell_angle_beta 90.000000
_cell_angle_gamma 90.000000
_cell_volume 1825.650597
_symmetry_space_group_name_H-M "P N N A"
_symmetry_group_IT_number 52
_symmetry_cell_setting 'orthorhombic'
loop_
_space_group_symop_operation_xyz
x,y,z
1/2-x,-y,z
x,1/2-y,1/2-z
1/2-x,1/2+y,1/2-z
-x,-y,-z
1/2+x,y,-z
-x,1/2+y,1/2+z
1/2+x,1/2-y,1/2+z
loop_
_atom_site_type_symbol
_atom_site_label
_atom_site_fract_x
_atom_site_fract_y
_atom_site_fract_z
Si Si1 0.106677 0.926679 0.399882
Si Si2 0.816086 0.816008 0.973074
Si Si3 0.521986 0.345052 0.342221
Si Si4 0.329683 0.616852 0.141879
Si Si5 0.393776 0.242231 0.927612
O O1 0.037823 0.915029 0.257062
O O2 0.216974 0.902502 0.367080
O O3 0.083738 0.845765 0.515957
O O4 0.112304 0.034456 0.434430
O O5 0.852114 0.712291 0.939788
O O6 0.840316 0.871250 0.821390
O O7 0.705446 0.797589 0.006179
O O8 0.869148 0.860840 0.114709
O O9 0.515296 0.250000 0.250000
O O10 0.470771 0.325577 0.500817
O O11 0.389778 0.250000 0.750000
#
# Coordination Sequence:
#
# PCOD9408962 Si02
#       5
#     8   8   8   8   8
#     4   9  18  37  59  83 112 152 193 237 284 344
#     4  10  19  34  59  85 112 152 190 234 286 344
#     4  10  20  35  57  82 111 154 188 231 286 347
#     4   9  18  34  61  84 111 150 196 233 286 343
#     4  10  20  35  58  84 112 150 192 235 286 339
#
# _framework density 21.909997000000001
#
# number of rings (size 3 to 8) (size 9 to 14) (size 15 to 20)
#    0.000    2.400    2.000    0.600    2.800    0.800 
#    0.000    4.000   22.000    0.000    0.000    0.000 
#    0.000    0.000    0.000    0.000    0.000    0.000 
#
# Total GULP energy -223140.286452 kJ/mol
# GULP energy per Si atom -5578.507161 kJ/mol
# Density = 2.186013 g / cm^3
# Si number density = 21.909997 Si / 1000 Ang^3
#
#
#
# Elastic Constant Matrix: (Units=GPa)
#
#
# Indices 1 2 3 4 5 6 
#
# 1 76.3547 10.6159 0.4738 0.0000 0.0000 0.0000
# 2 10.6159 45.5214 7.9051 0.0000 0.0000 0.0000
# 3 0.4738 7.9051 67.4075 0.0000 0.0000 0.0000
# 4 0.0000 0.0000 0.0000 8.5854 0.0000 0.0000
# 5 0.0000 0.0000 0.0000 0.0000 29.7258 0.0000
# 6 0.0000 0.0000 0.0000 0.0000 0.0000 18.4433
#
#
#
# Elastic Compliance Matrix: (Units=1/GPa)
#
#
# Indices 1 2 3 4 5 6 
#
# 1 0.013541 -0.003207 0.000281 0.000000 0.000000 0.000000
# 2 -0.003207 0.023184 -0.002696 0.000000 0.000000 0.000000
# 3 0.000281 -0.002696 0.015149 0.000000 0.000000 0.000000
# 4 0.000000 0.000000 0.000000 0.116477 0.000000 0.000000
# 5 0.000000 0.000000 0.000000 0.000000 0.033641 0.000000
# 6 0.000000 0.000000 0.000000 0.000000 0.000000 0.054220
#
#
# Mechanical properties :
#
#
# Convention : Reuss Voigt Hill
#
# Bulk Modulus (GPa) = 24.61241 25.25258 24.93249
# Shear Modulus (GPa) = 17.79366 22.70348 20.24857
#
# Velocity S-wave (km/s) = 2.85287 3.22252 3.04332
# Velocity P-wave (km/s) = 4.70209 5.03953 4.87373
#
# Compressibility (1/GPa) = 0.04062991
#
# Stress axis : x y z
#
# Youngs Moduli (GPa) = 73.85058 43.13369 66.00930
#
# Poissons Ratio (x) = 0.13831 -0.01854
# Poissons Ratio (y) = 0.23681 0.17798
# Poissons Ratio (z) = -0.02074 0.11630
#
# Static dielectric constant tensor:
#      x y z
#    x 1.829120 0.000000 0.000000 
#    y 0.000000 1.803770 0.000000 
#    z 0.000000 0.000000 1.776730 
# 
# From -- ./inp_files/10055.got.cif
#   From: 2010.05.17/outbox.cif.g08.bks.cpg/sg52_6_cif.got.tgz:10055.got - 2010.06.03 12:15:38.
