data_PCOD9408701
_publ_section_title
;
Structure prediction by ZEFSAII (Michael W. Deem and Ramdas Pophale) SiO2 
 PCOD9408701
Probable space group: P N N A
;
_chemical_formula_sum "Si O2"
_cell_formula_units_Z 40
_cell_length_a 12.668043
_cell_length_b 7.734931
_cell_length_c 16.798073
_cell_angle_alpha 90.000000
_cell_angle_beta 90.000000
_cell_angle_gamma 90.000000
_cell_volume 1645.983347
_symmetry_space_group_name_H-M "P N N A"
_symmetry_group_IT_number 52
_symmetry_cell_setting 'orthorhombic'
loop_
_space_group_symop_operation_xyz
x,y,z
1/2-x,-y,z
x,1/2-y,1/2-z
1/2-x,1/2+y,1/2-z
-x,-y,-z
1/2+x,y,-z
-x,1/2+y,1/2+z
1/2+x,1/2-y,1/2+z
loop_
_atom_site_type_symbol
_atom_site_label
_atom_site_fract_x
_atom_site_fract_y
_atom_site_fract_z
Si Si1 0.711218 0.171210 0.609944
Si Si2 0.351909 0.912010 0.802083
Si Si3 0.343047 0.866718 0.573426
Si Si4 0.938194 0.265063 0.549070
Si Si5 0.494472 0.861159 0.117791
O O1 0.664486 0.128964 0.522049
O O2 0.822450 0.252595 0.585594
O O3 0.614391 0.275591 0.645927
O O4 0.750000 0.000000 0.655025
O O5 0.390434 0.750000 0.750000
O O6 0.318061 0.818641 0.885243
O O7 0.250000 0.000000 0.765717
O O8 0.431786 0.069148 0.812776
O O9 0.471994 0.864734 0.584818
O O10 0.250000 0.000000 0.598014
O O11 0.944083 0.256065 0.452421
O O12 0.968560 0.457501 0.575063
#
# Coordination Sequence:
#
# PCOD9408701 Si02
#       5
#     8   8   8   8   8
#     4  10  19  30  51  85 119 150 182 226 293 355
#     4  11  22  36  54  76 105 147 198 246 297 351
#     4   9  19  32  50  80 118 152 185 234 289 352
#     4   9  17  31  51  79 114 153 187 218 283 358
#     4   9  19  33  52  77 111 151 185 230 284 349
#
# _framework density 24.301583000000001
#
# number of rings (size 3 to 8) (size 9 to 14) (size 15 to 20)
#    0.000    2.400    0.000    3.600    0.000    8.800 
#    0.000    0.000    0.000    0.000    0.000   44.800 
#    0.000    0.000    0.000    0.000    0.000    0.000 
#
# Total GULP energy -222704.026683 kJ/mol
# GULP energy per Si atom -5567.600667 kJ/mol
# Density = 2.424627 g / cm^3
# Si number density = 24.301583 Si / 1000 Ang^3
#
#
#
# Elastic Constant Matrix: (Units=GPa)
#
#
# Indices 1 2 3 4 5 6 
#
# 1 217.0650 68.8032 40.0097 0.0000 0.0000 0.0000
# 2 68.8032 99.1171 22.8349 0.0000 0.0000 0.0000
# 3 40.0097 22.8349 34.8774 0.0000 0.0000 0.0000
# 4 0.0000 0.0000 0.0000 445.7548 0.0000 0.0000
# 5 0.0000 0.0000 0.0000 0.0000 46.4448 0.0000
# 6 0.0000 0.0000 0.0000 0.0000 0.0000 57.0090
#
#
#
# Elastic Compliance Matrix: (Units=1/GPa)
#
#
# Indices 1 2 3 4 5 6 
#
# 1 0.006685 -0.003384 -0.005453 0.000000 0.000000 0.000000
# 2 -0.003384 0.013594 -0.005018 0.000000 0.000000 0.000000
# 3 -0.005453 -0.005018 0.038213 0.000000 0.000000 0.000000
# 4 0.000000 0.000000 0.000000 0.002243 0.000000 0.000000
# 5 0.000000 0.000000 0.000000 0.000000 0.021531 0.000000
# 6 0.000000 0.000000 0.000000 0.000000 0.000000 0.017541
#
#
# Mechanical properties :
#
#
# Convention : Reuss Voigt Hill
#
# Bulk Modulus (GPa) = 32.48742 68.26167 50.37454
# Shear Modulus (GPa) = 36.29043 124.46919 80.37981
#
# Velocity S-wave (km/s) = 3.86856 7.16448 5.75741
# Velocity P-wave (km/s) = 5.77510 9.82802 8.06045
#
# Compressibility (1/GPa) = 0.03078114
#
# Stress axis : x y z
#
# Youngs Moduli (GPa) = 149.59818 73.56047 26.16942
#
# Poissons Ratio (x) = 0.24893 0.14269
# Poissons Ratio (y) = 0.50624 0.13133
# Poissons Ratio (z) = 0.81571 0.36916
#
# Static dielectric constant tensor:
#      x y z
#    x 1.985450 0.000000 0.000000 
#    y 0.000000 2.332050 0.000000 
#    z 0.000000 0.000000 2.016160 
# 
# From -- ./inp_files/36626.got.cif
#   From: 2010.05.17/outbox.cif.g08.bks.cpg/sg52_19_cif.got.tgz:36626.got - 2010.06.03 12:15:38.
