data_PCOD9408926
_publ_section_title
;
Structure prediction by ZEFSAII (Michael W. Deem and Ramdas Pophale) SiO2 
 PCOD9408926
Probable space group: P N N A
;
_chemical_formula_sum "Si O2"
_cell_formula_units_Z 44
_cell_length_a 8.487820
_cell_length_b 25.627654
_cell_length_c 9.092266
_cell_angle_alpha 90.000000
_cell_angle_beta 90.000000
_cell_angle_gamma 90.000000
_cell_volume 1977.776197
_symmetry_space_group_name_H-M "P N N A"
_symmetry_group_IT_number 52
_symmetry_cell_setting 'orthorhombic'
loop_
_space_group_symop_operation_xyz
x,y,z
1/2-x,-y,z
x,1/2-y,1/2-z
1/2-x,1/2+y,1/2-z
-x,-y,-z
1/2+x,y,-z
-x,1/2+y,1/2+z
1/2+x,1/2-y,1/2+z
loop_
_atom_site_type_symbol
_atom_site_label
_atom_site_fract_x
_atom_site_fract_y
_atom_site_fract_z
Si Si1 0.162057 0.766403 0.599754
Si Si2 0.929291 0.416462 0.066229
Si Si3 0.073846 0.802807 0.153422
Si Si4 0.250000 0.000000 0.724713
Si Si5 0.609701 0.102258 0.274919
Si Si6 0.352021 0.830662 0.348777
O O1 0.245434 0.750000 0.750000
O O2 0.013225 0.799057 0.653166
O O3 0.916129 0.889693 0.635319
O O4 0.095313 0.716723 0.511334
O O5 0.884139 0.474237 0.119971
O O6 0.737956 0.299787 0.981877
O O7 0.969743 0.408393 0.894296
O O8 0.055264 0.750000 0.250000
O O9 0.239708 0.825409 0.210618
O O10 0.945824 0.847896 0.183530
O O11 0.162711 0.048234 0.804642
O O12 0.771088 0.111049 0.368489
#
# Coordination Sequence:
#
# PCOD9408926 Si02
#       6
#     8   8   8   4   8   8
#     4  11  24  42  62  89 131 176 216 260 321 398
#     4  10  19  34  55  91 137 180 217 279 332 374
#     4  10  22  40  59  89 132 172 214 267 327 396
#     4   8  22  32  58  92 138 182 224 280 330 378
#     4  10  19  34  56  89 135 181 223 271 333 380
#     4  11  23  38  59  91 134 167 211 268 323 384
#
# _framework density 22.247207
#
# number of rings (size 3 to 8) (size 9 to 14) (size 15 to 20)
#    1.091    0.727    0.000    6.545    0.000    5.091 
#    0.000    2.727    0.000    0.000    0.000    1.273 
#    0.000    4.000    0.000    0.000    0.000    0.000 
#
# Total GULP energy -244935.285076 kJ/mol
# GULP energy per Si atom -5566.711024 kJ/mol
# Density = 2.219657 g / cm^3
# Si number density = 22.247207 Si / 1000 Ang^3
#
#
#
# Elastic Constant Matrix: (Units=GPa)
#
#
# Indices 1 2 3 4 5 6 
#
# 1 119.0179 39.0186 13.5972 0.0000 0.0000 0.0000
# 2 39.0186 144.1145 28.6767 0.0000 0.0000 0.0000
# 3 13.5972 28.6767 70.0562 0.0000 0.0000 0.0000
# 4 0.0000 0.0000 0.0000 24.1415 0.0000 0.0000
# 5 0.0000 0.0000 0.0000 0.0000 -10.2412 0.0000
# 6 0.0000 0.0000 0.0000 0.0000 0.0000 72.5310
#
#
#
# Elastic Compliance Matrix: (Units=1/GPa)
#
#
# Indices 1 2 3 4 5 6 
#
# 1 0.009266 -0.002342 -0.000840 0.000000 0.000000 0.000000
# 2 -0.002342 0.008146 -0.002880 0.000000 0.000000 0.000000
# 3 -0.000840 -0.002880 0.015616 0.000000 0.000000 0.000000
# 4 0.000000 0.000000 0.000000 0.041423 0.000000 0.000000
# 5 0.000000 0.000000 0.000000 0.000000 -0.097645 0.000000
# 6 0.000000 0.000000 0.000000 0.000000 0.000000 0.013787
#
#
# Mechanical properties :
#
#
# Convention : Reuss Voigt Hill
#
# Bulk Modulus (GPa) = 47.83546 55.08593 51.46069
# Shear Modulus (GPa) = 516.31540 34.07932 275.19736
#
# Velocity S-wave (km/s) = 15.25073 3.91813 11.13410
# Velocity P-wave (km/s) = 18.21158 6.72931 13.72853
#
# Compressibility (1/GPa) = 0.02090499
#
# Stress axis : x y z
#
# Youngs Moduli (GPa) = 107.92499 122.76023 64.03621
#
# Poissons Ratio (x) = 0.28745 0.05378
# Poissons Ratio (y) = 0.25271 0.18442
# Poissons Ratio (z) = 0.09065 0.35355
#
# Static dielectric constant tensor:
#      x y z
#    x 1.853960 0.000000 0.000000 
#    y 0.000000 1.950930 0.000000 
#    z 0.000000 0.000000 1.851510 
# 
# From -- ./inp_files/8799.got.cif
#   From: 2010.05.17/outbox.cif.g08.bks.cpg/sg52_5_cif.got.tgz:8799.got - 2010.06.03 12:15:38.
