data_PCOD9408180
_publ_section_title
;
Structure prediction by ZEFSAII (Michael W. Deem and Ramdas Pophale) SiO2 
 PCOD9408180
Probable space group: P N N A
;
_chemical_formula_sum "Si O2"
_cell_formula_units_Z 40
_cell_length_a 14.753733
_cell_length_b 5.495507
_cell_length_c 18.397384
_cell_angle_alpha 90.000000
_cell_angle_beta 90.000000
_cell_angle_gamma 90.000000
_cell_volume 1491.645967
_symmetry_space_group_name_H-M "P N N A"
_symmetry_group_IT_number 52
_symmetry_cell_setting 'orthorhombic'
loop_
_space_group_symop_operation_xyz
x,y,z
1/2-x,-y,z
x,1/2-y,1/2-z
1/2-x,1/2+y,1/2-z
-x,-y,-z
1/2+x,y,-z
-x,1/2+y,1/2+z
1/2+x,1/2-y,1/2+z
loop_
_atom_site_type_symbol
_atom_site_label
_atom_site_fract_x
_atom_site_fract_y
_atom_site_fract_z
Si Si1 0.149324 0.000361 0.703101
Si Si2 0.648287 0.541782 0.658058
Si Si3 0.393177 0.484324 0.510677
Si Si4 0.447550 0.541093 0.146282
Si Si5 0.649295 0.015815 0.493716
O O1 0.147622 0.750000 0.750000
O O2 0.051652 0.000420 0.663729
O O3 0.250000 0.000000 0.666286
O O4 0.148116 0.250000 0.750000
O O5 0.750000 0.500000 0.685329
O O6 0.649982 0.534252 0.569442
O O7 0.586277 0.305472 0.673495
O O8 0.608427 0.807712 0.675522
O O9 0.500000 0.500000 0.500000
O O10 0.358895 0.728967 0.546964
O O11 0.367637 0.233798 0.547845
O O12 0.422827 0.532995 0.059909
O O13 0.750000 0.000000 0.526152
#
# Coordination Sequence:
#
# PCOD9408180 Si02
#       5
#     8   8   8   8   8
#     4  10  21  37  57  79 102 133 171 210 255 303
#     4  10  19  33  55  78 102 138 174 204 252 310
#     4  10  18  29  48  73 100 131 171 211 244 287
#     4  10  18  32  56  78 101 133 172 211 245 303
#     4  10  19  33  53  74  99 137 174 204 252 309
#
# _framework density 26.816016000000001
#
# number of rings (size 3 to 8) (size 9 to 14) (size 15 to 20)
#    0.000    2.000    0.000    7.800    0.000    0.000 
#    0.000    0.000    0.000   58.800    0.000    0.000 
#    0.000    0.000    0.000    0.000    0.000    0.000 
#
# Total GULP energy -223975.262240 kJ/mol
# GULP energy per Si atom -5599.381556 kJ/mol
# Density = 2.675498 g / cm^3
# Si number density = 26.816016 Si / 1000 Ang^3
#
#
#
# Elastic Constant Matrix: (Units=GPa)
#
#
# Indices 1 2 3 4 5 6 
#
# 1 243.8288 56.1298 4.9309 0.0000 0.0000 0.0000
# 2 56.1298 268.7100 -9.9290 0.0000 0.0000 0.0000
# 3 4.9309 -9.9290 29.1675 0.0000 0.0000 0.0000
# 4 0.0000 0.0000 0.0000 -28.9277 0.0000 0.0000
# 5 0.0000 0.0000 0.0000 0.0000 37.2507 0.0000
# 6 0.0000 0.0000 0.0000 0.0000 0.0000 58.9967
#
#
#
# Elastic Compliance Matrix: (Units=1/GPa)
#
#
# Indices 1 2 3 4 5 6 
#
# 1 0.004340 -0.000946 -0.001056 0.000000 0.000000 0.000000
# 2 -0.000946 0.003975 0.001513 0.000000 0.000000 0.000000
# 3 -0.001056 0.001513 0.034978 0.000000 0.000000 0.000000
# 4 0.000000 0.000000 0.000000 -0.034569 0.000000 0.000000
# 5 0.000000 0.000000 0.000000 0.000000 0.026845 0.000000
# 6 0.000000 0.000000 0.000000 0.000000 0.000000 0.016950
#
#
# Mechanical properties :
#
#
# Convention : Reuss Voigt Hill
#
# Bulk Modulus (GPa) = 23.63123 71.55217 47.59170
# Shear Modulus (GPa) = 73.96238 46.16891 60.06564
#
# Velocity S-wave (km/s) = 5.25750 4.15383 4.73791
# Velocity P-wave (km/s) = 6.75918 7.05310 6.90771
#
# Compressibility (1/GPa) = 0.04231688
#
# Stress axis : x y z
#
# Youngs Moduli (GPa) = 230.40027 251.57740 28.58917
#
# Poissons Ratio (x) = 0.23790 0.03018
# Poissons Ratio (y) = 0.21787 -0.04325
# Poissons Ratio (z) = 0.24322 -0.38063
#
# Static dielectric constant tensor:
#      x y z
#    x 1.988540 0.000000 0.000000 
#    y 0.000000 2.153380 0.000000 
#    z 0.000000 0.000000 2.170940 
# 
# From -- ./inp_files/42491.got.cif
#   From: 2010.05.17/outbox.cif.g08.bks.cpg/sg52_22_cif.got.tgz:42491.got - 2010.06.03 12:15:38.
