data_PCOD9408725
_publ_section_title
;
Structure prediction by ZEFSAII (Michael W. Deem and Ramdas Pophale) SiO2 
 PCOD9408725
Probable space group: P N N A
;
_chemical_formula_sum "Si O2"
_cell_formula_units_Z 40
_cell_length_a 5.032779
_cell_length_b 15.120622
_cell_length_c 25.358664
_cell_angle_alpha 90.000000
_cell_angle_beta 90.000000
_cell_angle_gamma 90.000000
_cell_volume 1929.762603
_symmetry_space_group_name_H-M "P N N A"
_symmetry_group_IT_number 52
_symmetry_cell_setting 'orthorhombic'
loop_
_space_group_symop_operation_xyz
x,y,z
1/2-x,-y,z
x,1/2-y,1/2-z
1/2-x,1/2+y,1/2-z
-x,-y,-z
1/2+x,y,-z
-x,1/2+y,1/2+z
1/2+x,1/2-y,1/2+z
loop_
_atom_site_type_symbol
_atom_site_label
_atom_site_fract_x
_atom_site_fract_y
_atom_site_fract_z
Si Si1 0.179571 0.712251 0.080424
Si Si2 0.343124 0.406439 0.932485
Si Si3 0.911345 0.081548 0.309722
Si Si4 0.168348 0.908026 0.035334
Si Si5 0.605509 0.684966 0.797954
O O1 0.403082 0.652211 0.051368
O O2 0.201825 0.813143 0.062154
O O3 0.202771 0.715504 0.144166
O O4 0.903910 0.660681 0.070612
O O5 0.250000 0.500000 0.957574
O O6 0.433007 0.433555 0.872745
O O7 0.704897 0.161893 0.302219
O O8 0.200808 0.101733 0.288321
O O9 0.750000 0.000000 0.286261
O O10 0.250000 0.000000 0.064415
O O11 0.367754 0.910022 0.985348
O O12 0.648874 0.750000 0.750000
#
# Coordination Sequence:
#
# PCOD9408725 Si02
#       5
#     8   8   8   8   8
#     4  10  19  33  55  78 104 138 174 217 263 312
#     4   9  17  30  52  79 104 134 169 204 248 308
#     4   9  17  30  47  68  95 132 175 205 235 297
#     4  10  21  38  59  79 101 136 183 228 269 313
#     4  10  19  31  49  74 105 134 165 208 261 314
#
# _framework density 20.727938999999999
#
# number of rings (size 3 to 8) (size 9 to 14) (size 15 to 20)
#    0.000    2.400    0.000    3.000    0.000    4.800 
#    0.000    2.000    0.000   14.400    0.000    0.000 
#    0.000    0.000    0.000    0.000    0.000    0.000 
#
# Total GULP energy -222931.083015 kJ/mol
# GULP energy per Si atom -5573.277075 kJ/mol
# Density = 2.068076 g / cm^3
# Si number density = 20.727939 Si / 1000 Ang^3
#
#
#
# Elastic Constant Matrix: (Units=GPa)
#
#
# Indices 1 2 3 4 5 6 
#
# 1 95.9425 11.9770 -1.6306 0.0000 0.0000 0.0000
# 2 11.9770 134.8626 21.7913 0.0000 0.0000 0.0000
# 3 -1.6306 21.7913 56.6431 0.0000 0.0000 0.0000
# 4 0.0000 0.0000 0.0000 16.6498 0.0000 0.0000
# 5 0.0000 0.0000 0.0000 0.0000 -3.0493 0.0000
# 6 0.0000 0.0000 0.0000 0.0000 0.0000 22.0505
#
#
#
# Elastic Compliance Matrix: (Units=1/GPa)
#
#
# Indices 1 2 3 4 5 6 
#
# 1 0.010566 -0.001053 0.000709 0.000000 0.000000 0.000000
# 2 -0.001053 0.008011 -0.003112 0.000000 0.000000 0.000000
# 3 0.000709 -0.003112 0.018872 0.000000 0.000000 0.000000
# 4 0.000000 0.000000 0.000000 0.060061 0.000000 0.000000
# 5 0.000000 0.000000 0.000000 0.000000 -0.327941 0.000000
# 6 0.000000 0.000000 0.000000 0.000000 0.000000 0.045350
#
#
# Mechanical properties :
#
#
# Convention : Reuss Voigt Hill
#
# Bulk Modulus (GPa) = 32.74633 39.08040 35.91337
# Shear Modulus (GPa) = -29.76394 24.15089 -2.80652
#
# Velocity S-wave (km/s) = -3.79348 3.41711 -1.16487
# Velocity P-wave (km/s) = 1.83163 5.87059 3.94391
#
# Compressibility (1/GPa) = 0.03053778
#
# Stress axis : x y z
#
# Youngs Moduli (GPa) = 94.63944 124.82253 52.98798
#
# Poissons Ratio (x) = 0.13144 -0.03758
# Poissons Ratio (y) = 0.09966 0.16492
# Poissons Ratio (z) = -0.06713 0.38850
#
# Static dielectric constant tensor:
#      x y z
#    x 1.756950 0.000000 0.000000 
#    y 0.000000 1.848210 0.000000 
#    z 0.000000 0.000000 1.750990 
# 
# From -- ./inp_files/41476.got.cif
#   From: 2010.05.17/outbox.cif.g08.bks.cpg/sg52_21_cif.got.tgz:41476.got - 2010.06.03 12:15:38.
