data_PCOD9408085
_publ_section_title
;
Structure prediction by ZEFSAII (Michael W. Deem and Ramdas Pophale) SiO2 
 PCOD9408085
Probable space group: P N N A
;
_chemical_formula_sum "Si O2"
_cell_formula_units_Z 40
_cell_length_a 21.613980
_cell_length_b 9.736361
_cell_length_c 6.857876
_cell_angle_alpha 90.000000
_cell_angle_beta 90.000000
_cell_angle_gamma 90.000000
_cell_volume 1443.181794
_symmetry_space_group_name_H-M "P N N A"
_symmetry_group_IT_number 52
_symmetry_cell_setting 'orthorhombic'
loop_
_space_group_symop_operation_xyz
x,y,z
1/2-x,-y,z
x,1/2-y,1/2-z
1/2-x,1/2+y,1/2-z
-x,-y,-z
1/2+x,y,-z
-x,1/2+y,1/2+z
1/2+x,1/2-y,1/2+z
loop_
_atom_site_type_symbol
_atom_site_label
_atom_site_fract_x
_atom_site_fract_y
_atom_site_fract_z
Si Si1 0.351656 0.944554 0.915387
Si Si2 0.116055 0.020969 0.452902
Si Si3 0.750000 0.000000 0.531207
Si Si4 0.752448 0.750000 0.250000
Si Si5 0.535607 0.233534 0.017002
Si Si6 0.897853 0.218321 0.028803
O O1 0.293094 0.847066 0.894691
O O2 0.406685 0.864787 0.019386
O O3 0.372830 0.959026 0.687506
O O4 0.351057 0.094351 0.011722
O O5 0.100874 0.861514 0.413505
O O6 0.185598 0.047925 0.370131
O O7 0.057773 0.122045 0.422148
O O8 0.729039 0.869485 0.397479
O O9 0.531191 0.250000 0.250000
O O10 0.469470 0.174324 0.957929
O O11 0.879961 0.250000 0.250000
#
# Coordination Sequence:
#
# PCOD9408085 Si02
#       6
#     8   8   4   4   8   8
#     4   9  16  31  42  66  97 127 156 195 245 287
#     4   9  18  30  44  69  99 125 159 199 246 288
#     4  10  18  28  46  66  96 132 158 198 258 290
#     4  10  18  28  46  68 100 134 158 206 254 306
#     4  10  17  33  49  67 102 133 156 196 246 290
#     4  10  20  29  48  73 100 129 161 200 237 296
#
# _framework density 27.716536999999999
#
# number of rings (size 3 to 8) (size 9 to 14) (size 15 to 20)
#    0.000    2.400    5.000    1.200    7.000    0.000 
#    0.000    0.000    0.000    0.000    0.000    1.400 
#    0.000    7.200    0.000    0.000    0.000    0.000 
#
# Total GULP energy -223474.399174 kJ/mol
# GULP energy per Si atom -5586.859979 kJ/mol
# Density = 2.765345 g / cm^3
# Si number density = 27.716537 Si / 1000 Ang^3
#
#
#
# Elastic Constant Matrix: (Units=GPa)
#
#
# Indices 1 2 3 4 5 6 
#
# 1 123.5129 41.1111 -10.0357 0.0000 0.0000 0.0000
# 2 41.1111 164.5828 -4.7880 0.0000 0.0000 0.0000
# 3 -10.0357 -4.7880 92.0082 0.0000 0.0000 0.0000
# 4 0.0000 0.0000 0.0000 11.5543 0.0000 0.0000
# 5 0.0000 0.0000 0.0000 0.0000 16.8221 0.0000
# 6 0.0000 0.0000 0.0000 0.0000 0.0000 57.1908
#
#
#
# Elastic Compliance Matrix: (Units=1/GPa)
#
#
# Indices 1 2 3 4 5 6 
#
# 1 0.008897 -0.002198 0.000856 0.000000 0.000000 0.000000
# 2 -0.002198 0.006628 0.000105 0.000000 0.000000 0.000000
# 3 0.000856 0.000105 0.010967 0.000000 0.000000 0.000000
# 4 0.000000 0.000000 0.000000 0.086548 0.000000 0.000000
# 5 0.000000 0.000000 0.000000 0.000000 0.059446 0.000000
# 6 0.000000 0.000000 0.000000 0.000000 0.000000 0.017485
#
#
# Mechanical properties :
#
#
# Convention : Reuss Voigt Hill
#
# Bulk Modulus (GPa) = 41.63152 48.07544 44.85348
# Shear Modulus (GPa) = 24.94379 40.70121 32.82250
#
# Velocity S-wave (km/s) = 3.00319 3.83623 3.44498
# Velocity P-wave (km/s) = 5.20371 6.08320 5.66056
#
# Compressibility (1/GPa) = 0.02402026
#
# Stress axis : x y z
#
# Youngs Moduli (GPa) = 112.39321 150.87606 91.17891
#
# Poissons Ratio (x) = 0.33156 -0.07806
# Poissons Ratio (y) = 0.24699 -0.00959
# Poissons Ratio (z) = -0.09622 -0.01587
#
# Static dielectric constant tensor:
#      x y z
#    x 2.188660 0.000000 0.000000 
#    y 0.000000 2.180990 0.000000 
#    z 0.000000 0.000000 2.218370 
# 
# From -- ./inp_files/14865.got.cif
#   From: 2010.05.17/outbox.cif.g08.bks.cpg/sg52_8_cif.got.tgz:14865.got - 2010.06.03 12:15:38.
