data_PCOD9408812
_publ_section_title
;
Structure prediction by ZEFSAII (Michael W. Deem and Ramdas Pophale) SiO2 
 PCOD9408812
Probable space group: P N N A
;
_chemical_formula_sum "Si O2"
_cell_formula_units_Z 56
_cell_length_a 16.332041
_cell_length_b 8.786681
_cell_length_c 19.919620
_cell_angle_alpha 90.000000
_cell_angle_beta 90.000000
_cell_angle_gamma 90.000000
_cell_volume 2858.553800
_symmetry_space_group_name_H-M "P N N A"
_symmetry_group_IT_number 52
_symmetry_cell_setting 'orthorhombic'
loop_
_space_group_symop_operation_xyz
x,y,z
1/2-x,-y,z
x,1/2-y,1/2-z
1/2-x,1/2+y,1/2-z
-x,-y,-z
1/2+x,y,-z
-x,1/2+y,1/2+z
1/2+x,1/2-y,1/2+z
loop_
_atom_site_type_symbol
_atom_site_label
_atom_site_fract_x
_atom_site_fract_y
_atom_site_fract_z
Si Si1 0.593222 0.555014 0.061810
Si Si2 0.750000 0.500000 0.152094
Si Si3 0.332581 0.594826 0.065723
Si Si4 0.131654 0.123151 0.986558
Si Si5 0.056075 0.580886 0.143262
Si Si6 0.955217 0.750000 0.250000
Si Si7 0.196703 0.345370 0.664188
Si Si8 0.937167 0.181056 0.969041
O O1 0.672347 0.532640 0.106230
O O2 0.520011 0.489793 0.103843
O O3 0.606867 0.464346 0.993150
O O4 0.577108 0.723241 0.036850
O O5 0.767354 0.673364 0.181431
O O6 0.250000 0.500000 0.057435
O O7 0.329045 0.768027 0.043121
O O8 0.373134 0.545341 0.135953
O O9 0.122473 0.959846 0.020653
O O10 0.180626 0.143902 0.916538
O O11 0.035129 0.152087 0.967710
O O12 0.083956 0.724789 0.097988
O O13 0.016052 0.636173 0.211651
O O14 0.892690 0.660928 0.299975
O O15 0.250000 0.500000 0.681674
#
# Coordination Sequence:
#
# PCOD9408812 Si02
#       8
#     8   4   8   8   8   4   8   8
#     4  11  17  34  57  90 121 157 200 240 321 392
#     4  12  20  38  64  90 132 172 200 264 318 376
#     4  11  19  34  62  93 119 152 205 256 325 393
#     4  11  19  36  58  93 127 151 190 266 327 380
#     4  11  21  39  61  86 115 172 212 254 309 386
#     4  12  24  44  62  78 126 180 228 258 304 372
#     4  12  26  40  59  96 133 171 218 257 314 383
#     4  10  19  32  61  89 125 150 197 258 319 378
#
# _framework density 19.590325
#
# number of rings (size 3 to 8) (size 9 to 14) (size 15 to 20)
#    0.000    0.857    7.857    1.714    1.000    1.143 
#    0.000    0.000    3.143    1.714    0.000    0.000 
#    0.000    0.000    0.000    0.000    0.000    0.000 
#
# Total GULP energy -311871.546973 kJ/mol
# GULP energy per Si atom -5569.134767 kJ/mol
# Density = 1.954574 g / cm^3
# Si number density = 19.590325 Si / 1000 Ang^3
#
#
#
# Elastic Constant Matrix: (Units=GPa)
#
#
# Indices 1 2 3 4 5 6 
#
# 1 44.6257 32.7153 32.3859 0.0000 0.0000 0.0000
# 2 32.7153 132.5910 46.8064 0.0000 0.0000 0.0000
# 3 32.3859 46.8064 62.0491 0.0000 0.0000 0.0000
# 4 0.0000 0.0000 0.0000 61.4129 0.0000 0.0000
# 5 0.0000 0.0000 0.0000 0.0000 33.4887 0.0000
# 6 0.0000 0.0000 0.0000 0.0000 0.0000 27.4565
#
#
#
# Elastic Compliance Matrix: (Units=1/GPa)
#
#
# Indices 1 2 3 4 5 6 
#
# 1 0.037014 -0.003152 -0.016941 0.000000 0.000000 0.000000
# 2 -0.003152 0.010548 -0.006311 0.000000 0.000000 0.000000
# 3 -0.016941 -0.006311 0.029719 0.000000 0.000000 0.000000
# 4 0.000000 0.000000 0.000000 0.016283 0.000000 0.000000
# 5 0.000000 0.000000 0.000000 0.000000 0.029861 0.000000
# 6 0.000000 0.000000 0.000000 0.000000 0.000000 0.036421
#
#
# Mechanical properties :
#
#
# Convention : Reuss Voigt Hill
#
# Bulk Modulus (GPa) = 40.86357 51.45343 46.15850
# Shear Modulus (GPa) = 22.64351 32.96216 27.80284
#
# Velocity S-wave (km/s) = 3.40347 4.10637 3.77133
# Velocity P-wave (km/s) = 6.02903 6.98604 6.52510
#
# Compressibility (1/GPa) = 0.02447168
#
# Stress axis : x y z
#
# Youngs Moduli (GPa) = 27.01666 94.80666 33.64796
#
# Poissons Ratio (x) = 0.29886 0.57004
# Poissons Ratio (y) = 0.08517 0.21236
# Poissons Ratio (z) = 0.45770 0.59836
#
# Static dielectric constant tensor:
#      x y z
#    x 1.728590 0.000000 0.000000 
#    y 0.000000 1.835860 0.000000 
#    z 0.000000 0.000000 1.721070 
# 
# From -- ./inp_files/37367.got.cif
#   From: 2010.05.17/outbox.cif.g08.bks.cpg/sg52_19_cif.got.tgz:37367.got - 2010.06.03 12:15:38.
