data_PCOD9408482
_publ_section_title
;
Structure prediction by ZEFSAII (Michael W. Deem and Ramdas Pophale) SiO2 
 PCOD9408482
Probable space group: P N N A
;
_chemical_formula_sum "Si O2"
_cell_formula_units_Z 52
_cell_length_a 14.689306
_cell_length_b 28.938877
_cell_length_c 5.197906
_cell_angle_alpha 90.000000
_cell_angle_beta 90.000000
_cell_angle_gamma 90.000000
_cell_volume 2209.588359
_symmetry_space_group_name_H-M "P N N A"
_symmetry_group_IT_number 52
_symmetry_cell_setting 'orthorhombic'
loop_
_space_group_symop_operation_xyz
x,y,z
1/2-x,-y,z
x,1/2-y,1/2-z
1/2-x,1/2+y,1/2-z
-x,-y,-z
1/2+x,y,-z
-x,1/2+y,1/2+z
1/2+x,1/2-y,1/2+z
loop_
_atom_site_type_symbol
_atom_site_label
_atom_site_fract_x
_atom_site_fract_y
_atom_site_fract_z
Si Si1 0.842275 0.348652 0.372742
Si Si2 0.115618 0.750000 0.750000
Si Si3 0.487602 0.750000 0.750000
Si Si4 0.750000 0.500000 0.289584
Si Si5 0.414318 0.598768 0.032477
Si Si6 0.453770 0.655656 0.538663
Si Si7 0.106347 0.563438 0.974399
Si Si8 0.750692 0.079626 0.839084
O O1 0.826933 0.296717 0.281356
O O2 0.935696 0.344473 0.534601
O O3 0.862287 0.387673 0.156783
O O4 0.761492 0.369983 0.539508
O O5 0.051694 0.760114 0.499734
O O6 0.430330 0.706318 0.646897
O O7 0.835957 0.478183 0.143924
O O8 0.715190 0.458499 0.468213
O O9 0.428897 0.638447 0.252439
O O10 0.498437 0.563285 0.057938
O O11 0.315685 0.579151 0.097340
O O12 0.421253 0.619695 0.751021
O O13 0.146149 0.566060 0.262088
#
# Coordination Sequence:
#
# PCOD9408482 Si02
#       8
#     8   4   4   4   8   8   8   8
#     4   9  20  37  64  91 134 171 220 266 325 383
#     4  10  20  32  63 102 123 176 226 260 319 390
#     4  10  18  34  63  90 133 170 224 268 319 382
#     4  10  24  42  66  96 124 166 218 274 344 394
#     4  11  24  39  68  94 128 174 220 260 337 396
#     4  10  20  39  61  96 125 174 219 266 320 387
#     4  10  21  43  65  91 131 169 212 274 329 399
#     4  11  23  42  66  93 130 174 216 278 330 395
#
# _framework density 23.533794
#
# number of rings (size 3 to 8) (size 9 to 14) (size 15 to 20)
#    0.000    1.846    1.538    3.231    6.462    0.615 
#    0.000    3.846    3.385    0.000    0.000    0.000 
#    0.000    0.000    0.000    0.000    0.000    0.000 
#
# Total GULP energy -290550.359002 kJ/mol
# GULP energy per Si atom -5587.506904 kJ/mol
# Density = 2.348023 g / cm^3
# Si number density = 23.533794 Si / 1000 Ang^3
#
#
#
# Elastic Constant Matrix: (Units=GPa)
#
#
# Indices 1 2 3 4 5 6 
#
# 1 82.5796 8.9687 6.8194 0.0000 0.0000 0.0000
# 2 8.9687 95.8657 23.7605 0.0000 0.0000 0.0000
# 3 6.8194 23.7605 85.4515 0.0000 0.0000 0.0000
# 4 0.0000 0.0000 0.0000 31.6360 0.0000 0.0000
# 5 0.0000 0.0000 0.0000 0.0000 35.5058 0.0000
# 6 0.0000 0.0000 0.0000 0.0000 0.0000 16.1718
#
#
#
# Elastic Compliance Matrix: (Units=1/GPa)
#
#
# Indices 1 2 3 4 5 6 
#
# 1 0.012274 -0.000973 -0.000709 0.000000 0.000000 0.000000
# 2 -0.000973 0.011280 -0.003059 0.000000 0.000000 0.000000
# 3 -0.000709 -0.003059 0.012610 0.000000 0.000000 0.000000
# 4 0.000000 0.000000 0.000000 0.031610 0.000000 0.000000
# 5 0.000000 0.000000 0.000000 0.000000 0.028164 0.000000
# 6 0.000000 0.000000 0.000000 0.000000 0.000000 0.061836
#
#
# Mechanical properties :
#
#
# Convention : Reuss Voigt Hill
#
# Bulk Modulus (GPa) = 37.47756 38.11046 37.79401
# Shear Modulus (GPa) = 28.38500 31.61925 30.00213
#
# Velocity S-wave (km/s) = 3.47672 3.66945 3.57438
# Velocity P-wave (km/s) = 5.66360 5.84656 5.75580
#
# Compressibility (1/GPa) = 0.02668263
#
# Stress axis : x y z
#
# Youngs Moduli (GPa) = 81.47500 88.64918 79.30394
#
# Poissons Ratio (x) = 0.08621 0.05623
# Poissons Ratio (y) = 0.07924 0.24259
# Poissons Ratio (z) = 0.05777 0.27118
#
# Static dielectric constant tensor:
#      x y z
#    x 1.878780 0.000000 0.000000 
#    y 0.000000 1.932330 0.000000 
#    z 0.000000 0.000000 1.906840 
# 
# From -- ./inp_files/3641.got.cif
#   From: 2010.05.17/outbox.cif.g08.bks.cpg/sg52_2_cif.got.tgz:3641.got - 2010.06.03 12:15:38.
