data_PCOD9408883
_publ_section_title
;
Structure prediction by ZEFSAII (Michael W. Deem and Ramdas Pophale) SiO2 
 PCOD9408883
Probable space group: P N N A
;
_chemical_formula_sum "Si O2"
_cell_formula_units_Z 60
_cell_length_a 17.145637
_cell_length_b 14.363145
_cell_length_c 11.475851
_cell_angle_alpha 90.000000
_cell_angle_beta 90.000000
_cell_angle_gamma 90.000000
_cell_volume 2826.103549
_symmetry_space_group_name_H-M "P N N A"
_symmetry_group_IT_number 52
_symmetry_cell_setting 'orthorhombic'
loop_
_space_group_symop_operation_xyz
x,y,z
1/2-x,-y,z
x,1/2-y,1/2-z
1/2-x,1/2+y,1/2-z
-x,-y,-z
1/2+x,y,-z
-x,1/2+y,1/2+z
1/2+x,1/2-y,1/2+z
loop_
_atom_site_type_symbol
_atom_site_label
_atom_site_fract_x
_atom_site_fract_y
_atom_site_fract_z
Si Si1 0.355166 0.601456 0.238673
Si Si2 0.401934 0.153669 0.513190
Si Si3 0.812071 0.182495 0.971196
Si Si4 0.833364 0.103472 0.733709
Si Si5 0.554915 0.195713 0.366999
Si Si6 0.859112 0.743713 0.564970
Si Si7 0.839976 0.988331 0.332283
Si Si8 0.250000 0.500000 0.602438
O O1 0.260654 0.599700 0.243007
O O2 0.376862 0.494960 0.247822
O O3 0.383252 0.663907 0.345354
O O4 0.378692 0.656844 0.123081
O O5 0.368245 0.254768 0.551098
O O6 0.352185 0.130425 0.397351
O O7 0.486149 0.164659 0.454116
O O8 0.387651 0.074058 0.609639
O O9 0.854123 0.164062 0.847102
O O10 0.733307 0.239097 0.947162
O O11 0.778382 0.086268 0.023861
O O12 0.529801 0.250000 0.250000
O O13 0.604132 0.269966 0.440621
O O14 0.613007 0.107399 0.351885
O O15 0.750000 0.000000 0.382188
O O16 0.821439 0.988273 0.193944
#
# Coordination Sequence:
#
# PCOD9408883 Si02
#       8
#     8   8   8   8   8   8   8   4
#     4   9  18  31  58  86 119 154 210 275 319 381
#     4  12  24  40  66  97 134 174 225 279 353 414
#     4  11  20  39  64  94 129 172 222 286 339 408
#     4  10  19  33  58  94 125 156 209 274 338 390
#     4  12  25  42  63  94 139 179 220 282 351 428
#     4  10  19  35  57  88 120 166 219 266 325 397
#     4  10  25  44  68  98 128 180 235 290 331 402
#     4  10  24  42  64  96 128 172 238 280 342 394
#
# _framework density 21.230644000000002
#
# number of rings (size 3 to 8) (size 9 to 14) (size 15 to 20)
#    0.400    1.067    1.333    5.600    1.867    0.533 
#    0.000    4.000    0.000    4.000    0.000    0.000 
#    0.000    0.000    0.000    0.000    0.000    0.000 
#
# Total GULP energy -334229.694309 kJ/mol
# GULP energy per Si atom -5570.494905 kJ/mol
# Density = 2.118232 g / cm^3
# Si number density = 21.230644 Si / 1000 Ang^3
#
#
#
# Elastic Constant Matrix: (Units=GPa)
#
#
# Indices 1 2 3 4 5 6 
#
# 1 47.4490 22.8872 21.8089 0.0000 0.0000 0.0000
# 2 22.8872 78.2378 40.9757 0.0000 0.0000 0.0000
# 3 21.8089 40.9757 86.7296 0.0000 0.0000 0.0000
# 4 0.0000 0.0000 0.0000 22.9713 0.0000 0.0000
# 5 0.0000 0.0000 0.0000 0.0000 24.1563 0.0000
# 6 0.0000 0.0000 0.0000 0.0000 0.0000 7.5826
#
#
#
# Elastic Compliance Matrix: (Units=1/GPa)
#
#
# Indices 1 2 3 4 5 6 
#
# 1 0.025461 -0.005442 -0.003832 0.000000 0.000000 0.000000
# 2 -0.005442 0.018147 -0.007205 0.000000 0.000000 0.000000
# 3 -0.003832 -0.007205 0.015898 0.000000 0.000000 0.000000
# 4 0.000000 0.000000 0.000000 0.043533 0.000000 0.000000
# 5 0.000000 0.000000 0.000000 0.000000 0.041397 0.000000
# 6 0.000000 0.000000 0.000000 0.000000 0.000000 0.131880
#
#
# Mechanical properties :
#
#
# Convention : Reuss Voigt Hill
#
# Bulk Modulus (GPa) = 37.66605 42.64001 40.15303
# Shear Modulus (GPa) = 15.71724 19.39169 17.55446
#
# Velocity S-wave (km/s) = 2.72381 3.02550 2.87861
# Velocity P-wave (km/s) = 5.26043 5.68618 5.47744
#
# Compressibility (1/GPa) = 0.02654910
#
# Stress axis : x y z
#
# Youngs Moduli (GPa) = 39.27564 55.10545 62.90201
#
# Poissons Ratio (x) = 0.29986 0.24101
# Poissons Ratio (y) = 0.21372 0.45323
# Poissons Ratio (z) = 0.15049 0.39705
#
# Static dielectric constant tensor:
#      x y z
#    x 1.815240 0.000000 0.000000 
#    y 0.000000 1.857260 0.000000 
#    z 0.000000 0.000000 1.817380 
# 
# From -- ./inp_files/20860.got.cif
#   From: 2010.05.17/outbox.cif.g08.bks.cpg/sg52_11_cif.got.tgz:20860.got - 2010.06.03 12:15:38.
