data_PCOD9408889
_publ_section_title
;
Structure prediction by ZEFSAII (Michael W. Deem and Ramdas Pophale) SiO2 
 PCOD9408889
Probable space group: P N N A
;
_chemical_formula_sum "Si O2"
_cell_formula_units_Z 56
_cell_length_a 12.175757
_cell_length_b 17.489084
_cell_length_c 13.785719
_cell_angle_alpha 90.000000
_cell_angle_beta 90.000000
_cell_angle_gamma 90.000000
_cell_volume 2935.570113
_symmetry_space_group_name_H-M "P N N A"
_symmetry_group_IT_number 52
_symmetry_cell_setting 'orthorhombic'
loop_
_space_group_symop_operation_xyz
x,y,z
1/2-x,-y,z
x,1/2-y,1/2-z
1/2-x,1/2+y,1/2-z
-x,-y,-z
1/2+x,y,-z
-x,1/2+y,1/2+z
1/2+x,1/2-y,1/2+z
loop_
_atom_site_type_symbol
_atom_site_label
_atom_site_fract_x
_atom_site_fract_y
_atom_site_fract_z
Si Si1 0.800801 0.256742 0.861771
Si Si2 0.056214 0.894267 0.424480
Si Si3 0.654105 0.191264 0.335575
Si Si4 0.696932 0.578559 0.291633
Si Si5 0.504257 0.554310 0.140374
Si Si6 0.051901 0.281751 0.149512
Si Si7 0.344828 0.288584 0.558036
O O1 0.835548 0.250000 0.750000
O O2 0.670128 0.246648 0.866215
O O3 0.843222 0.338822 0.900038
O O4 0.843019 0.198211 0.943002
O O5 0.945398 0.846510 0.396046
O O6 0.056157 0.925540 0.534789
O O7 0.052667 0.972520 0.363249
O O8 0.616724 0.250000 0.250000
O O9 0.719344 0.125060 0.277967
O O10 0.742190 0.236248 0.403777
O O11 0.750000 0.500000 0.327855
O O12 0.595600 0.557133 0.222861
O O13 0.661096 0.635570 0.377203
O O14 0.429097 0.628016 0.157241
O O15 0.004876 0.250000 0.250000
O O16 0.957320 0.257726 0.076183
#
# Coordination Sequence:
#
# PCOD9408889 Si02
#       7
#     8   8   8   8   8   8   8
#     4  11  25  41  63  90 121 164 212 262 313 380
#     4  11  22  36  54  92 132 161 195 260 332 373
#     4  10  19  33  60  92 121 158 208 265 307 360
#     4  11  20  37  62  96 126 156 213 267 313 370
#     4  11  21  34  59  91 126 162 199 255 321 382
#     4  11  20  39  64  88 122 165 211 250 309 386
#     4  11  21  39  66  90 118 165 214 258 311 376
#
# _framework density 19.076362
#
# number of rings (size 3 to 8) (size 9 to 14) (size 15 to 20)
#    0.000    1.143    5.714    1.714    0.000    0.571 
#    0.000    0.000    6.286    1.714    0.000    0.000 
#    0.000    0.000    0.000    0.000    0.000    0.000 
#
# Total GULP energy -312409.211395 kJ/mol
# GULP energy per Si atom -5578.735918 kJ/mol
# Density = 1.903294 g / cm^3
# Si number density = 19.076362 Si / 1000 Ang^3
#
#
#
# Elastic Constant Matrix: (Units=GPa)
#
#
# Indices 1 2 3 4 5 6 
#
# 1 37.3081 -8.1077 24.6515 0.0000 0.0000 0.0000
# 2 -8.1077 82.9423 30.5549 0.0000 0.0000 0.0000
# 3 24.6515 30.5549 119.5910 0.0000 0.0000 0.0000
# 4 0.0000 0.0000 0.0000 26.5418 0.0000 0.0000
# 5 0.0000 0.0000 0.0000 0.0000 13.3014 0.0000
# 6 0.0000 0.0000 0.0000 0.0000 0.0000 27.4215
#
#
#
# Elastic Compliance Matrix: (Units=1/GPa)
#
#
# Indices 1 2 3 4 5 6 
#
# 1 0.033939 0.006507 -0.008658 0.000000 0.000000 0.000000
# 2 0.006507 0.014557 -0.005061 0.000000 0.000000 0.000000
# 3 -0.008658 -0.005061 0.011440 0.000000 0.000000 0.000000
# 4 0.000000 0.000000 0.000000 0.037676 0.000000 0.000000
# 5 0.000000 0.000000 0.000000 0.000000 0.075180 0.000000
# 6 0.000000 0.000000 0.000000 0.000000 0.000000 0.036468
#
#
# Mechanical properties :
#
#
# Convention : Reuss Voigt Hill
#
# Bulk Modulus (GPa) = 21.97225 37.11542 29.54383
# Shear Modulus (GPa) = 20.93328 26.30245 23.61786
#
# Velocity S-wave (km/s) = 3.31621 3.71725 3.52244
# Velocity P-wave (km/s) = 5.11918 6.15811 5.66253
#
# Compressibility (1/GPa) = 0.04551196
#
# Stress axis : x y z
#
# Youngs Moduli (GPa) = 29.46455 68.69586 87.41585
#
# Poissons Ratio (x) = -0.44702 0.75689
# Poissons Ratio (y) = -0.19173 0.44237
# Poissons Ratio (z) = 0.25512 0.34764
#
# Static dielectric constant tensor:
#      x y z
#    x 1.666500 0.000000 0.000000 
#    y 0.000000 1.667890 0.000000 
#    z 0.000000 0.000000 1.718840 
# 
# From -- ./inp_files/26163.got.cif
#   From: 2010.05.17/outbox.cif.g08.bks.cpg/sg52_14_cif.got.tgz:26163.got - 2010.06.03 12:15:38.
