data_PCOD9408565
_publ_section_title
;
Structure prediction by ZEFSAII (Michael W. Deem and Ramdas Pophale) SiO2 
 PCOD9408565
Probable space group: P N N A
;
_chemical_formula_sum "Si O2"
_cell_formula_units_Z 40
_cell_length_a 19.800483
_cell_length_b 7.770993
_cell_length_c 10.845065
_cell_angle_alpha 90.000000
_cell_angle_beta 90.000000
_cell_angle_gamma 90.000000
_cell_volume 1668.723805
_symmetry_space_group_name_H-M "P N N A"
_symmetry_group_IT_number 52
_symmetry_cell_setting 'orthorhombic'
loop_
_space_group_symop_operation_xyz
x,y,z
1/2-x,-y,z
x,1/2-y,1/2-z
1/2-x,1/2+y,1/2-z
-x,-y,-z
1/2+x,y,-z
-x,1/2+y,1/2+z
1/2+x,1/2-y,1/2+z
loop_
_atom_site_type_symbol
_atom_site_label
_atom_site_fract_x
_atom_site_fract_y
_atom_site_fract_z
Si Si1 0.831051 0.008647 0.299060
Si Si2 0.543056 0.774631 0.604868
Si Si3 0.731093 0.201594 0.613076
Si Si4 0.091546 0.347137 0.014848
Si Si5 0.842693 0.144519 0.049186
O O1 0.846415 0.001663 0.154165
O O2 0.852381 0.185522 0.366080
O O3 0.750000 0.000000 0.308173
O O4 0.870608 0.877864 0.384511
O O5 0.530564 0.750000 0.750000
O O6 0.477059 0.751555 0.519878
O O7 0.600690 0.647351 0.554927
O O8 0.569597 0.970004 0.577417
O O9 0.753099 0.250000 0.750000
O O10 0.651238 0.229099 0.597705
O O11 0.772211 0.317960 0.517746
O O12 0.750000 0.000000 0.591210
#
# Coordination Sequence:
#
# PCOD9408565 Si02
#       5
#     8   8   8   8   8
#     4  10  18  36  62  88 122 159 205 256 304 372
#     4  10  21  40  61  83 123 165 201 255 313 362
#     4  12  23  42  66  93 128 164 209 262 313 373
#     4  10  21  41  61  87 120 165 208 251 309 376
#     4  10  20  36  61  90 122 160 201 250 318 366
#
# _framework density 23.970414999999999
#
# number of rings (size 3 to 8) (size 9 to 14) (size 15 to 20)
#    0.000    1.600    6.000    0.600    0.000    2.400 
#   10.800    1.000    0.000    0.000    0.000    0.000 
#    0.000    0.000    0.000    0.000    0.000    0.000 
#
# Total GULP energy -223675.266228 kJ/mol
# GULP energy per Si atom -5591.881656 kJ/mol
# Density = 2.391586 g / cm^3
# Si number density = 23.970415 Si / 1000 Ang^3
#
#
#
# Elastic Constant Matrix: (Units=GPa)
#
#
# Indices 1 2 3 4 5 6 
#
# 1 108.6169 9.8169 2.4695 0.0000 0.0000 0.0000
# 2 9.8169 83.6513 26.4947 0.0000 0.0000 0.0000
# 3 2.4695 26.4947 140.0472 0.0000 0.0000 0.0000
# 4 0.0000 0.0000 0.0000 14.9071 0.0000 0.0000
# 5 0.0000 0.0000 0.0000 0.0000 -58.0096 0.0000
# 6 0.0000 0.0000 0.0000 0.0000 0.0000 5.4132
#
#
#
# Elastic Compliance Matrix: (Units=1/GPa)
#
#
# Indices 1 2 3 4 5 6 
#
# 1 0.009306 -0.001106 0.000045 0.000000 0.000000 0.000000
# 2 -0.001106 0.012848 -0.002411 0.000000 0.000000 0.000000
# 3 0.000045 -0.002411 0.007596 0.000000 0.000000 0.000000
# 4 0.000000 0.000000 0.000000 0.067082 0.000000 0.000000
# 5 0.000000 0.000000 0.000000 0.000000 -0.017239 0.000000
# 6 0.000000 0.000000 0.000000 0.000000 0.000000 0.184735
#
#
# Mechanical properties :
#
#
# Convention : Reuss Voigt Hill
#
# Bulk Modulus (GPa) = 43.85046 45.54196 44.69621
# Shear Modulus (GPa) = 17.92924 12.03109 14.98016
#
# Velocity S-wave (km/s) = 2.73788 2.24277 2.50260
# Velocity P-wave (km/s) = 5.32240 5.07417 5.19977
#
# Compressibility (1/GPa) = 0.02280478
#
# Stress axis : x y z
#
# Youngs Moduli (GPa) = 107.46171 77.83380 131.65173
#
# Poissons Ratio (x) = 0.08611 -0.00595
# Poissons Ratio (y) = 0.11889 0.31743
# Poissons Ratio (z) = -0.00486 0.18767
#
# Static dielectric constant tensor:
#      x y z
#    x 1.905630 0.000000 0.000000 
#    y 0.000000 2.041370 0.000000 
#    z 0.000000 0.000000 1.901270 
# 
# From -- ./inp_files/13150.got.cif
#   From: 2010.05.17/outbox.cif.g08.bks.cpg/sg52_7_cif.got.tgz:13150.got - 2010.06.03 12:15:38.
