data_PCOD9408698
_publ_section_title
;
Structure prediction by ZEFSAII (Michael W. Deem and Ramdas Pophale) SiO2 
 PCOD9408698
Probable space group: P N N A
;
_chemical_formula_sum "Si O2"
_cell_formula_units_Z 36
_cell_length_a 16.091131
_cell_length_b 10.030742
_cell_length_c 8.564302
_cell_angle_alpha 90.000000
_cell_angle_beta 90.000000
_cell_angle_gamma 90.000000
_cell_volume 1382.329588
_symmetry_space_group_name_H-M "P N N A"
_symmetry_group_IT_number 52
_symmetry_cell_setting 'orthorhombic'
loop_
_space_group_symop_operation_xyz
x,y,z
1/2-x,-y,z
x,1/2-y,1/2-z
1/2-x,1/2+y,1/2-z
-x,-y,-z
1/2+x,y,-z
-x,1/2+y,1/2+z
1/2+x,1/2-y,1/2+z
loop_
_atom_site_type_symbol
_atom_site_label
_atom_site_fract_x
_atom_site_fract_y
_atom_site_fract_z
Si Si1 0.404538 0.526857 0.446021
Si Si2 0.848147 0.531401 0.889074
Si Si3 0.653071 0.026999 0.269337
Si Si4 0.548609 0.750000 0.250000
Si Si5 0.553346 0.755996 0.583216
O O1 0.500000 0.500000 0.500000
O O2 0.382274 0.586305 0.276789
O O3 0.363306 0.588986 0.598818
O O4 0.381798 0.368159 0.423775
O O5 0.750000 0.500000 0.872459
O O6 0.897387 0.392725 0.908047
O O7 0.864852 0.593044 0.061846
O O8 0.603412 0.885439 0.258292
O O9 0.750000 0.000000 0.275347
O O10 0.505544 0.753072 0.418834
O O11 0.507624 0.750000 0.750000
#
# Coordination Sequence:
#
# PCOD9408698 Si02
#       5
#     8   8   8   4   8
#     4  10  19  30  48  77 105 141 176 209 266 332
#     4   9  17  31  53  79  97 131 182 224 264 315
#     4   9  17  30  50  74  98 131 174 218 261 306
#     4   8  14  26  46  70  88 122 164 202 250 302
#     4   8  15  28  46  71  94 132 166 207 255 306
#
# _framework density 26.042992000000002
#
# number of rings (size 3 to 8) (size 9 to 14) (size 15 to 20)
#    0.000    3.111    0.000    0.667    0.000    0.889 
#    0.000    0.000    7.333    0.000  132.889    0.000 
#    0.000    0.000    0.000    0.000    0.000    0.000 
#
# Total GULP energy -200485.370874 kJ/mol
# GULP energy per Si atom -5569.038080 kJ/mol
# Density = 2.598372 g / cm^3
# Si number density = 26.042992 Si / 1000 Ang^3
#
#
#
# Elastic Constant Matrix: (Units=GPa)
#
#
# Indices 1 2 3 4 5 6 
#
# 1 89.9568 13.3523 100.6414 0.0000 0.0000 0.0000
# 2 13.3523 68.5459 31.4137 0.0000 0.0000 0.0000
# 3 100.6414 31.4137 431.2302 0.0000 0.0000 0.0000
# 4 0.0000 0.0000 0.0000 29.3920 0.0000 0.0000
# 5 0.0000 0.0000 0.0000 0.0000 24.8661 0.0000
# 6 0.0000 0.0000 0.0000 0.0000 0.0000 11.1592
#
#
#
# Elastic Compliance Matrix: (Units=1/GPa)
#
#
# Indices 1 2 3 4 5 6 
#
# 1 0.015169 -0.001378 -0.003440 0.000000 0.000000 0.000000
# 2 -0.001378 0.015218 -0.000787 0.000000 0.000000 0.000000
# 3 -0.003440 -0.000787 0.003179 0.000000 0.000000 0.000000
# 4 0.000000 0.000000 0.000000 0.034023 0.000000 0.000000
# 5 0.000000 0.000000 0.000000 0.000000 0.040215 0.000000
# 6 0.000000 0.000000 0.000000 0.000000 0.000000 0.089612
#
#
# Mechanical properties :
#
#
# Convention : Reuss Voigt Hill
#
# Bulk Modulus (GPa) = 44.73063 97.83866 71.28465
# Shear Modulus (GPa) = 23.13970 42.70517 32.92244
#
# Velocity S-wave (km/s) = 2.98404 4.05383 3.55936
# Velocity P-wave (km/s) = 5.39311 7.71758 6.65758
#
# Compressibility (1/GPa) = 0.02235604
#
# Stress axis : x y z
#
# Youngs Moduli (GPa) = 65.92180 65.71213 314.55723
#
# Poissons Ratio (x) = 0.09058 1.08204
# Poissons Ratio (y) = 0.09087 0.24751
# Poissons Ratio (z) = 0.22676 0.05171
#
# Static dielectric constant tensor:
#      x y z
#    x 1.838850 0.000000 0.000000 
#    y 0.000000 2.355300 0.000000 
#    z 0.000000 0.000000 2.186170 
# 
# From -- ./inp_files/9882.got.cif
#   From: 2010.05.17/outbox.cif.g08.bks.cpg/sg52_5_cif.got.tgz:9882.got - 2010.06.03 12:15:38.
