data_PCOD9408497
_publ_section_title
;
Structure prediction by ZEFSAII (Michael W. Deem and Ramdas Pophale) SiO2 
 PCOD9408497
Probable space group: P N N A
;
_chemical_formula_sum "Si O2"
_cell_formula_units_Z 48
_cell_length_a 10.361989
_cell_length_b 10.292696
_cell_length_c 24.684663
_cell_angle_alpha 90.000000
_cell_angle_beta 90.000000
_cell_angle_gamma 90.000000
_cell_volume 2632.688493
_symmetry_space_group_name_H-M "P N N A"
_symmetry_group_IT_number 52
_symmetry_cell_setting 'orthorhombic'
loop_
_space_group_symop_operation_xyz
x,y,z
1/2-x,-y,z
x,1/2-y,1/2-z
1/2-x,1/2+y,1/2-z
-x,-y,-z
1/2+x,y,-z
-x,1/2+y,1/2+z
1/2+x,1/2-y,1/2+z
loop_
_atom_site_type_symbol
_atom_site_label
_atom_site_fract_x
_atom_site_fract_y
_atom_site_fract_z
Si Si1 0.872319 0.421073 0.884918
Si Si2 0.871622 0.413441 0.007962
Si Si3 0.441817 0.170606 0.617846
Si Si4 0.067917 0.390487 0.308052
Si Si5 0.669602 0.622096 0.227407
Si Si6 0.131094 0.684883 0.305728
O O1 0.750000 0.500000 0.862222
O O2 0.896919 0.294258 0.850143
O O3 0.977830 0.535438 0.884314
O O4 0.841726 0.373195 0.946202
O O5 0.750000 0.500000 0.025996
O O6 0.896980 0.311121 0.055926
O O7 0.000000 0.500000 0.000000
O O8 0.513334 0.294917 0.644779
O O9 0.336023 0.137955 0.663060
O O10 0.072909 0.544309 0.320301
O O11 0.214677 0.343173 0.299021
O O12 0.972777 0.382920 0.255552
O O13 0.750000 0.500000 0.244490
O O14 0.734991 0.750000 0.250000
O O15 0.084923 0.750000 0.250000
#
# Coordination Sequence:
#
# PCOD9408497 Si02
#       6
#     8   8   8   8   8   8
#     4  10  19  32  55  83 111 143 187 235 275 337
#     4   9  19  34  56  87 112 146 193 240 283 333
#     4  10  18  35  56  79 112 143 184 231 284 331
#     4  10  22  35  52  84 113 147 186 230 289 342
#     4  10  21  35  52  75 107 144 182 227 277 337
#     4  11  21  33  55  83 117 146 184 230 291 348
#
# _framework density 18.232313000000001
#
# number of rings (size 3 to 8) (size 9 to 14) (size 15 to 20)
#    0.000    2.000    1.667    3.000    2.333    2.000 
#    0.000    2.500    0.000    0.000   17.333    0.000 
#    0.000    0.000    0.000    0.000    0.000    0.000 
#
# Total GULP energy -267203.058571 kJ/mol
# GULP energy per Si atom -5566.730387 kJ/mol
# Density = 1.819082 g / cm^3
# Si number density = 18.232313 Si / 1000 Ang^3
#
#
#
# Elastic Constant Matrix: (Units=GPa)
#
#
# Indices 1 2 3 4 5 6 
#
# 1 37.5713 16.9881 -3.8756 0.0000 0.0000 0.0000
# 2 16.9881 149.8626 53.7716 0.0000 0.0000 0.0000
# 3 -3.8756 53.7716 101.5977 0.0000 0.0000 0.0000
# 4 0.0000 0.0000 0.0000 25.2110 0.0000 0.0000
# 5 0.0000 0.0000 0.0000 0.0000 -84.1756 0.0000
# 6 0.0000 0.0000 0.0000 0.0000 0.0000 16.2242
#
#
#
# Elastic Compliance Matrix: (Units=1/GPa)
#
#
# Indices 1 2 3 4 5 6 
#
# 1 0.029038 -0.004554 0.003518 0.000000 0.000000 0.000000
# 2 -0.004554 0.008951 -0.004911 0.000000 0.000000 0.000000
# 3 0.003518 -0.004911 0.012576 0.000000 0.000000 0.000000
# 4 0.000000 0.000000 0.000000 0.039665 0.000000 0.000000
# 5 0.000000 0.000000 0.000000 0.000000 -0.011880 0.000000
# 6 0.000000 0.000000 0.000000 0.000000 0.000000 0.061636
#
#
# Mechanical properties :
#
#
# Convention : Reuss Voigt Hill
#
# Bulk Modulus (GPa) = 25.85919 46.97776 36.41848
# Shear Modulus (GPa) = 30.34498 6.26174 18.30336
#
# Velocity S-wave (km/s) = 4.08407 1.85523 3.17187
# Velocity P-wave (km/s) = 6.03767 5.51465 5.78208
#
# Compressibility (1/GPa) = 0.03867097
#
# Stress axis : x y z
#
# Youngs Moduli (GPa) = 34.43759 111.71715 79.51502
#
# Poissons Ratio (x) = 0.50875 -0.27973
# Poissons Ratio (y) = 0.15683 0.39052
# Poissons Ratio (z) = -0.12115 0.54867
#
# Static dielectric constant tensor:
#      x y z
#    x 1.677290 0.000000 0.000000 
#    y 0.000000 1.598890 0.000000 
#    z 0.000000 0.000000 1.667270 
# 
# From -- ./inp_files/42666.got.cif
#   From: 2010.05.17/outbox.cif.g08.bks.cpg/sg52_22_cif.got.tgz:42666.got - 2010.06.03 12:15:38.
