data_PCOD9408048
_publ_section_title
;
Structure prediction by ZEFSAII (Michael W. Deem and Ramdas Pophale) SiO2 
 PCOD9408048
Probable space group: P N N A
;
_chemical_formula_sum "Si O2"
_cell_formula_units_Z 40
_cell_length_a 13.467110
_cell_length_b 16.368469
_cell_length_c 9.615076
_cell_angle_alpha 90.000000
_cell_angle_beta 90.000000
_cell_angle_gamma 90.000000
_cell_volume 2119.508629
_symmetry_space_group_name_H-M "P N N A"
_symmetry_group_IT_number 52
_symmetry_cell_setting 'orthorhombic'
loop_
_space_group_symop_operation_xyz
x,y,z
1/2-x,-y,z
x,1/2-y,1/2-z
1/2-x,1/2+y,1/2-z
-x,-y,-z
1/2+x,y,-z
-x,1/2+y,1/2+z
1/2+x,1/2-y,1/2+z
loop_
_atom_site_type_symbol
_atom_site_label
_atom_site_fract_x
_atom_site_fract_y
_atom_site_fract_z
Si Si1 0.899532 0.099834 0.426069
Si Si2 0.639064 0.974782 0.134722
Si Si3 0.193947 0.671423 0.165972
Si Si4 0.116075 0.057093 0.370834
Si Si5 0.049759 0.567873 0.348573
O O1 0.850238 0.174052 0.509894
O O2 0.018577 0.107157 0.416152
O O3 0.860005 0.080035 0.273162
O O4 0.877513 0.017384 0.517780
O O5 0.568236 0.053909 0.162335
O O6 0.750000 0.000000 0.097464
O O7 0.586364 0.929753 0.006126
O O8 0.229149 0.750000 0.250000
O O9 0.285833 0.609354 0.149574
O O10 0.102159 0.637295 0.258460
O O11 0.091576 0.014506 0.224028
#
# Coordination Sequence:
#
# PCOD9408048 Si02
#       5
#     8   8   8   8   8
#     4   9  18  32  55  80 101 132 185 235 264 312
#     4  10  17  30  56  82 103 128 173 233 276 305
#     4  11  21  35  53  77 112 149 177 213 277 342
#     4   9  17  34  56  76 101 139 185 225 266 324
#     4   9  19  33  53  80 105 137 182 224 265 324
#
# _framework density 18.872299000000002
#
# number of rings (size 3 to 8) (size 9 to 14) (size 15 to 20)
#    0.000    2.400    0.000    6.000    0.000    0.000 
#    0.000    9.000    0.000    0.000    0.000    0.000 
#    0.000    0.000    0.000    0.000    0.000    0.000 
#
# Total GULP energy -222789.715212 kJ/mol
# GULP energy per Si atom -5569.742880 kJ/mol
# Density = 1.882934 g / cm^3
# Si number density = 18.872299 Si / 1000 Ang^3
#
#
#
# Elastic Constant Matrix: (Units=GPa)
#
#
# Indices 1 2 3 4 5 6 
#
# 1 101.5702 18.8592 6.3323 0.0000 0.0000 0.0000
# 2 18.8592 16.8754 14.5375 0.0000 0.0000 0.0000
# 3 6.3323 14.5375 122.6593 0.0000 0.0000 0.0000
# 4 0.0000 0.0000 0.0000 18.1102 0.0000 0.0000
# 5 0.0000 0.0000 0.0000 0.0000 19.8868 0.0000
# 6 0.0000 0.0000 0.0000 0.0000 0.0000 11.2577
#
#
#
# Elastic Compliance Matrix: (Units=1/GPa)
#
#
# Indices 1 2 3 4 5 6 
#
# 1 0.012563 -0.015013 0.001131 0.000000 0.000000 0.000000
# 2 -0.015013 0.083938 -0.009173 0.000000 0.000000 0.000000
# 3 0.001131 -0.009173 0.009181 0.000000 0.000000 0.000000
# 4 0.000000 0.000000 0.000000 0.055217 0.000000 0.000000
# 5 0.000000 0.000000 0.000000 0.000000 0.050285 0.000000
# 6 0.000000 0.000000 0.000000 0.000000 0.000000 0.088828
#
#
# Mechanical properties :
#
#
# Convention : Reuss Voigt Hill
#
# Bulk Modulus (GPa) = 16.78676 35.61809 26.20243
# Shear Modulus (GPa) = 13.66191 23.27602 18.46896
#
# Velocity S-wave (km/s) = 2.69348 3.51571 3.13170
# Velocity P-wave (km/s) = 4.31131 5.94932 5.19528
#
# Compressibility (1/GPa) = 0.05957075
#
# Stress axis : x y z
#
# Youngs Moduli (GPa) = 79.60168 11.91349 108.91480
#
# Poissons Ratio (x) = 0.17886 -0.12316
# Poissons Ratio (y) = 1.19510 0.99910
# Poissons Ratio (z) = -0.09002 0.10929
#
# Static dielectric constant tensor:
#      x y z
#    x 1.689180 0.000000 0.000000 
#    y 0.000000 1.682720 0.000000 
#    z 0.000000 0.000000 1.687760 
# 
# From -- ./inp_files/10250.got.cif
#   From: 2010.05.17/outbox.cif.g08.bks.cpg/sg52_6_cif.got.tgz:10250.got - 2010.06.03 12:15:38.
