data_PCOD9408952
_publ_section_title
;
Structure prediction by ZEFSAII (Michael W. Deem and Ramdas Pophale) SiO2 
 PCOD9408952
Probable space group: P N N A
;
_chemical_formula_sum "Si O2"
_cell_formula_units_Z 32
_cell_length_a 5.199100
_cell_length_b 16.464103
_cell_length_c 16.961974
_cell_angle_alpha 90.000000
_cell_angle_beta 90.000000
_cell_angle_gamma 90.000000
_cell_volume 1451.919835
_symmetry_space_group_name_H-M "P N N A"
_symmetry_group_IT_number 52
_symmetry_cell_setting 'orthorhombic'
loop_
_space_group_symop_operation_xyz
x,y,z
1/2-x,-y,z
x,1/2-y,1/2-z
1/2-x,1/2+y,1/2-z
-x,-y,-z
1/2+x,y,-z
-x,1/2+y,1/2+z
1/2+x,1/2-y,1/2+z
loop_
_atom_site_type_symbol
_atom_site_label
_atom_site_fract_x
_atom_site_fract_y
_atom_site_fract_z
Si Si1 0.147556 0.337600 0.782058
Si Si2 0.760694 0.403267 0.049602
Si Si3 0.854797 0.587983 0.715560
Si Si4 0.543927 0.407229 0.531905
O O1 0.225862 0.250000 0.750000
O O2 0.183418 0.351014 0.874775
O O3 0.355247 0.398494 0.743604
O O4 0.856031 0.353234 0.754185
O O5 0.750000 0.500000 0.069634
O O6 0.547360 0.388110 0.982204
O O7 0.750000 0.500000 0.738173
O O8 0.860303 0.593940 0.620916
O O9 0.500000 0.500000 0.500000
O O10 0.264572 0.368449 0.521789
#
# Coordination Sequence:
#
# PCOD9408952 Si02
#       4
#     8   8   8   8
#     4  12  27  45  64 102 146 176 220 288 362 426
#     4  10  21  42  73  97 124 170 236 297 333 389
#     4  12  23  40  70  95 129 183 233 279 328 402
#     4  10  19  34  58  90 137 163 212 278 305 381
#
# _framework density 22.039785999999999
#
# number of rings (size 3 to 8) (size 9 to 14) (size 15 to 20)
#    0.000    1.000    2.500    6.000    3.500    2.000 
#    0.000    7.500    0.000    0.000    0.000    0.000 
#    0.000    0.000    0.000    0.000    0.000    0.000 
#
# Total GULP energy -178873.218894 kJ/mol
# GULP energy per Si atom -5589.788090 kJ/mol
# Density = 2.198962 g / cm^3
# Si number density = 22.039786 Si / 1000 Ang^3
#
#
#
# Elastic Constant Matrix: (Units=GPa)
#
#
# Indices 1 2 3 4 5 6 
#
# 1 114.8019 -1.8709 1.5512 0.0000 0.0000 0.0000
# 2 -1.8709 41.8747 23.7329 0.0000 0.0000 0.0000
# 3 1.5512 23.7329 96.4253 0.0000 0.0000 0.0000
# 4 0.0000 0.0000 0.0000 17.7181 0.0000 0.0000
# 5 0.0000 0.0000 0.0000 0.0000 65.9551 0.0000
# 6 0.0000 0.0000 0.0000 0.0000 0.0000 22.5269
#
#
#
# Elastic Compliance Matrix: (Units=1/GPa)
#
#
# Indices 1 2 3 4 5 6 
#
# 1 0.008723 0.000545 -0.000275 0.000000 0.000000 0.000000
# 2 0.000545 0.027786 -0.006848 0.000000 0.000000 0.000000
# 3 -0.000275 -0.006848 0.012061 0.000000 0.000000 0.000000
# 4 0.000000 0.000000 0.000000 0.056439 0.000000 0.000000
# 5 0.000000 0.000000 0.000000 0.000000 0.015162 0.000000
# 6 0.000000 0.000000 0.000000 0.000000 0.000000 0.044391
#
#
# Mechanical properties :
#
#
# Convention : Reuss Voigt Hill
#
# Bulk Modulus (GPa) = 28.23574 33.32537 30.78055
# Shear Modulus (GPa) = 26.38221 36.55261 31.46741
#
# Velocity S-wave (km/s) = 3.46356 4.07687 3.78266
# Velocity P-wave (km/s) = 5.36974 6.10856 5.75102
#
# Compressibility (1/GPa) = 0.03541611
#
# Stress axis : x y z
#
# Youngs Moduli (GPa) = 114.63615 35.98922 82.91504
#
# Poissons Ratio (x) = -0.01963 0.02277
# Poissons Ratio (y) = -0.06252 0.56778
# Poissons Ratio (z) = 0.03147 0.24644
#
# Static dielectric constant tensor:
#      x y z
#    x 1.838440 0.000000 0.000000 
#    y 0.000000 1.424680 0.000000 
#    z 0.000000 0.000000 1.806140 
# 
# From -- ./inp_files/30022.got.cif
#   From: 2010.05.17/outbox.cif.g08.bks.cpg/sg52_16_cif.got.tgz:30022.got - 2010.06.03 12:15:38.
