data_PCOD9408947
_publ_section_title
;
Structure prediction by ZEFSAII (Michael W. Deem and Ramdas Pophale) SiO2 
 PCOD9408947
Probable space group: P N N A
;
_chemical_formula_sum "Si O2"
_cell_formula_units_Z 64
_cell_length_a 17.490972
_cell_length_b 14.597451
_cell_length_c 14.366412
_cell_angle_alpha 90.000000
_cell_angle_beta 90.000000
_cell_angle_gamma 90.000000
_cell_volume 3668.084127
_symmetry_space_group_name_H-M "P N N A"
_symmetry_group_IT_number 52
_symmetry_cell_setting 'orthorhombic'
loop_
_space_group_symop_operation_xyz
x,y,z
1/2-x,-y,z
x,1/2-y,1/2-z
1/2-x,1/2+y,1/2-z
-x,-y,-z
1/2+x,y,-z
-x,1/2+y,1/2+z
1/2+x,1/2-y,1/2+z
loop_
_atom_site_type_symbol
_atom_site_label
_atom_site_fract_x
_atom_site_fract_y
_atom_site_fract_z
Si Si1 0.432231 0.561832 0.349178
Si Si2 0.887740 0.361688 0.145196
Si Si3 0.800553 0.259319 0.852945
Si Si4 0.102887 0.642514 0.640385
Si Si5 0.176766 0.567952 0.457530
Si Si6 0.826123 0.439201 0.966870
Si Si7 0.554811 0.433634 0.871454
Si Si8 0.877184 0.747571 0.853429
O O1 0.520277 0.591810 0.362952
O O2 0.396225 0.478254 0.405806
O O3 0.419452 0.551000 0.237202
O O4 0.386139 0.650190 0.387310
O O5 0.867241 0.367151 0.253990
O O6 0.903507 0.253151 0.124176
O O7 0.964139 0.422638 0.131372
O O8 0.828075 0.404460 0.073152
O O9 0.834259 0.250000 0.750000
O O10 0.807865 0.163648 0.905657
O O11 0.830848 0.346486 0.907177
O O12 0.710269 0.278933 0.843370
O O13 0.155135 0.595202 0.562807
O O14 0.250000 0.500000 0.451384
O O15 0.750000 0.500000 0.948101
O O16 0.901010 0.495719 0.936021
O O17 0.582162 0.333503 0.905863
O O18 0.914504 0.750000 0.750000
#
# Coordination Sequence:
#
# PCOD9408947 Si02
#       8
#     8   8   8   8   8   8   8   8
#     4  10  19  34  58  85 109 141 182 225 273 326
#     4  10  21  39  59  78 107 147 191 231 265 315
#     4  11  22  35  51  83 125 147 170 220 279 337
#     4  10  21  39  59  78 107 147 191 231 265 315
#     4  12  23  35  56  85 114 145 182 226 277 328
#     4  12  23  35  56  85 114 145 182 226 277 328
#     4  10  19  34  58  85 109 141 182 225 273 326
#     4   9  16  29  52  81 109 139 177 216 262 325
#
# _framework density 17.447800000000001
#
# number of rings (size 3 to 8) (size 9 to 14) (size 15 to 20)
#    0.000    1.500    5.000    1.500    0.000    1.500 
#    0.000    0.000    0.000    0.000    0.000    0.000 
#    0.000    0.000    0.000    0.000    0.000    0.000 
#
# Total GULP energy -356478.503335 kJ/mol
# GULP energy per Si atom -5569.976615 kJ/mol
# Density = 1.740809 g / cm^3
# Si number density = 17.447800 Si / 1000 Ang^3
#
#
#
# Elastic Constant Matrix: (Units=GPa)
#
#
# Indices 1 2 3 4 5 6 
#
# 1 21.6812 21.3153 19.9559 0.0000 0.0000 0.0000
# 2 21.3153 101.6465 48.6097 0.0000 0.0000 0.0000
# 3 19.9559 48.6097 95.6427 0.0000 0.0000 0.0000
# 4 0.0000 0.0000 0.0000 29.8456 0.0000 0.0000
# 5 0.0000 0.0000 0.0000 0.0000 24.7213 0.0000
# 6 0.0000 0.0000 0.0000 0.0000 0.0000 14.2634
#
#
#
# Elastic Compliance Matrix: (Units=1/GPa)
#
#
# Indices 1 2 3 4 5 6 
#
# 1 0.062913 -0.009136 -0.008484 0.000000 0.000000 0.000000
# 2 -0.009136 0.014324 -0.005374 0.000000 0.000000 0.000000
# 3 -0.008484 -0.005374 0.014957 0.000000 0.000000 0.000000
# 4 0.000000 0.000000 0.000000 0.033506 0.000000 0.000000
# 5 0.000000 0.000000 0.000000 0.000000 0.040451 0.000000
# 6 0.000000 0.000000 0.000000 0.000000 0.000000 0.070110
#
#
# Mechanical properties :
#
#
# Convention : Reuss Voigt Hill
#
# Bulk Modulus (GPa) = 21.64161 44.30357 32.97259
# Shear Modulus (GPa) = 16.79834 22.37204 19.58519
#
# Velocity S-wave (km/s) = 3.10623 3.58470 3.35401
# Velocity P-wave (km/s) = 5.02946 6.52539 5.82564
#
# Compressibility (1/GPa) = 0.04620729
#
# Stress axis : x y z
#
# Youngs Moduli (GPa) = 15.89493 69.81469 66.85913
#
# Poissons Ratio (x) = 0.63782 0.56721
# Poissons Ratio (y) = 0.14521 0.35928
# Poissons Ratio (z) = 0.13485 0.37516
#
# Static dielectric constant tensor:
#      x y z
#    x 1.596120 0.000000 0.000000 
#    y 0.000000 1.614750 0.000000 
#    z 0.000000 0.000000 1.619490 
# 
# From -- ./inp_files/28321.got.cif
#   From: 2010.05.17/outbox.cif.g08.bks.cpg/sg52_15_cif.got.tgz:28321.got - 2010.06.03 12:15:38.
