data_PCOD9408300
_publ_section_title
;
Structure prediction by ZEFSAII (Michael W. Deem and Ramdas Pophale) SiO2 
 PCOD9408300
Probable space group: P N N A
;
_chemical_formula_sum "Si O2"
_cell_formula_units_Z 44
_cell_length_a 11.690346
_cell_length_b 7.267606
_cell_length_c 25.026102
_cell_angle_alpha 90.000000
_cell_angle_beta 90.000000
_cell_angle_gamma 90.000000
_cell_volume 2126.238366
_symmetry_space_group_name_H-M "P N N A"
_symmetry_group_IT_number 52
_symmetry_cell_setting 'orthorhombic'
loop_
_space_group_symop_operation_xyz
x,y,z
1/2-x,-y,z
x,1/2-y,1/2-z
1/2-x,1/2+y,1/2-z
-x,-y,-z
1/2+x,y,-z
-x,1/2+y,1/2+z
1/2+x,1/2-y,1/2+z
loop_
_atom_site_type_symbol
_atom_site_label
_atom_site_fract_x
_atom_site_fract_y
_atom_site_fract_z
Si Si1 0.383420 0.951332 0.179559
Si Si2 0.750000 0.500000 0.970470
Si Si3 0.365648 0.814072 0.975644
Si Si4 0.886069 0.983181 0.702096
Si Si5 0.976970 0.121163 0.078589
Si Si6 0.485597 0.465715 0.094565
O O1 0.413230 0.038127 0.237080
O O2 0.400144 0.734207 0.191275
O O3 0.461662 0.980944 0.128144
O O4 0.250000 0.000000 0.168440
O O5 0.738612 0.314278 0.005323
O O6 0.637461 0.512955 0.934208
O O7 0.442559 0.675120 0.940368
O O8 0.371020 0.001754 0.942010
O O9 0.430888 0.867076 0.030575
O O10 0.750000 0.000000 0.695411
O O11 0.956577 0.083603 0.655785
O O12 0.954385 0.333625 0.093093
#
# Coordination Sequence:
#
# PCOD9408300 Si02
#       6
#     8   4   8   8   8   8
#     4   9  18  29  47  74 107 137 172 207 263 328
#     4  10  18  32  50  72  98 136 176 216 252 310
#     4  10  21  34  50  70 102 137 179 214 263 314
#     4   9  17  30  47  74 105 138 169 209 256 328
#     4   9  19  33  46  70 102 134 173 217 249 320
#     4  10  19  34  52  71 105 138 170 217 269 316
#
# _framework density 20.693822000000001
#
# number of rings (size 3 to 8) (size 9 to 14) (size 15 to 20)
#    0.000    2.545    0.909    2.182    2.545    0.000 
#    0.000   10.909    0.000    0.000    0.000    0.000 
#   32.727    0.000    3.091    0.000    0.727    0.000 
#
# Total GULP energy -245426.527708 kJ/mol
# GULP energy per Si atom -5577.875630 kJ/mol
# Density = 2.064672 g / cm^3
# Si number density = 20.693822 Si / 1000 Ang^3
#
#
#
# Elastic Constant Matrix: (Units=GPa)
#
#
# Indices 1 2 3 4 5 6 
#
# 1 38.0419 27.0782 35.1819 0.0000 0.0000 0.0000
# 2 27.0782 98.7895 41.1157 0.0000 0.0000 0.0000
# 3 35.1819 41.1157 161.3272 0.0000 0.0000 0.0000
# 4 0.0000 0.0000 0.0000 -34.5859 0.0000 0.0000
# 5 0.0000 0.0000 0.0000 0.0000 -26.6034 0.0000
# 6 0.0000 0.0000 0.0000 0.0000 0.0000 35.2979
#
#
#
# Elastic Compliance Matrix: (Units=1/GPa)
#
#
# Indices 1 2 3 4 5 6 
#
# 1 0.037517 -0.007694 -0.006221 0.000000 0.000000 0.000000
# 2 -0.007694 0.012902 -0.001610 0.000000 0.000000 0.000000
# 3 -0.006221 -0.001610 0.007966 0.000000 0.000000 0.000000
# 4 0.000000 0.000000 0.000000 -0.028914 0.000000 0.000000
# 5 0.000000 0.000000 0.000000 0.000000 -0.037589 0.000000
# 6 0.000000 0.000000 0.000000 0.000000 0.000000 0.028330
#
#
# Mechanical properties :
#
#
# Convention : Reuss Voigt Hill
#
# Bulk Modulus (GPa) = 36.58492 56.10115 46.34304
# Shear Modulus (GPa) = 82.81895 7.80724 45.31310
#
# Velocity S-wave (km/s) = 6.33309 1.94446 4.68449
# Velocity P-wave (km/s) = 8.43770 5.67540 7.19045
#
# Compressibility (1/GPa) = 0.02733367
#
# Stress axis : x y z
#
# Youngs Moduli (GPa) = 26.65489 77.50927 125.54122
#
# Poissons Ratio (x) = 0.59638 0.78094
# Poissons Ratio (y) = 0.20509 0.20214
# Poissons Ratio (z) = 0.16581 0.12480
#
# Static dielectric constant tensor:
#      x y z
#    x 1.735900 0.000000 0.000000 
#    y 0.000000 1.868800 0.000000 
#    z 0.000000 0.000000 1.773800 
# 
# From -- ./inp_files/40067.got.cif
#   From: 2010.05.17/outbox.cif.g08.bks.cpg/sg52_21_cif.got.tgz:40067.got - 2010.06.03 12:15:38.
