data_PCOD9408177
_publ_section_title
;
Structure prediction by ZEFSAII (Michael W. Deem and Ramdas Pophale) SiO2 
 PCOD9408177
Probable space group: P N N A
;
_chemical_formula_sum "Si O2"
_cell_formula_units_Z 40
_cell_length_a 19.112277
_cell_length_b 8.331035
_cell_length_c 14.244197
_cell_angle_alpha 90.000000
_cell_angle_beta 90.000000
_cell_angle_gamma 90.000000
_cell_volume 2268.032960
_symmetry_space_group_name_H-M "P N N A"
_symmetry_group_IT_number 52
_symmetry_cell_setting 'orthorhombic'
loop_
_space_group_symop_operation_xyz
x,y,z
1/2-x,-y,z
x,1/2-y,1/2-z
1/2-x,1/2+y,1/2-z
-x,-y,-z
1/2+x,y,-z
-x,1/2+y,1/2+z
1/2+x,1/2-y,1/2+z
loop_
_atom_site_type_symbol
_atom_site_label
_atom_site_fract_x
_atom_site_fract_y
_atom_site_fract_z
Si Si1 0.036873 0.092405 0.807713
Si Si2 0.736571 0.810067 0.353860
Si Si3 0.629244 0.235381 0.462026
Si Si4 0.413311 0.402721 0.871608
Si Si5 0.947958 0.697444 0.644376
O O1 0.013367 0.250000 0.750000
O O2 0.085240 0.152970 0.891524
O O3 0.974939 0.984466 0.848073
O O4 0.078129 0.982335 0.731946
O O5 0.754805 0.750000 0.250000
O O6 0.790486 0.745658 0.430602
O O7 0.654512 0.788811 0.373457
O O8 0.750000 0.000000 0.352434
O O9 0.611644 0.277540 0.568206
O O10 0.602784 0.052926 0.439790
O O11 0.484719 0.305430 0.887306
O O12 0.929190 0.750000 0.750000
#
# Coordination Sequence:
#
# PCOD9408177 Si02
#       5
#     8   8   8   8   8
#     4   9  17  30  47  69  98 125 156 199 247 292
#     4  10  18  29  47  72  98 122 150 192 247 298
#     4  10  18  29  46  71  98 124 156 195 241 294
#     4   9  18  31  48  72  96 121 153 196 247 296
#     4  10  19  31  47  68  94 128 164 198 235 282
#
# _framework density 17.636427000000001
#
# number of rings (size 3 to 8) (size 9 to 14) (size 15 to 20)
#    0.000    2.400    0.000    6.000    0.000    0.000 
#    0.000    0.000    0.000    0.000    0.000   43.400 
#    0.000    0.000    0.000    0.000    0.000    0.000 
#
# Total GULP energy -223132.580924 kJ/mol
# GULP energy per Si atom -5578.314523 kJ/mol
# Density = 1.759629 g / cm^3
# Si number density = 17.636427 Si / 1000 Ang^3
#
#
#
# Elastic Constant Matrix: (Units=GPa)
#
#
# Indices 1 2 3 4 5 6 
#
# 1 86.8257 23.9614 66.2703 0.0000 0.0000 0.0000
# 2 23.9614 51.5755 25.3366 0.0000 0.0000 0.0000
# 3 66.2703 25.3366 88.1861 0.0000 0.0000 0.0000
# 4 0.0000 0.0000 0.0000 17.1190 0.0000 0.0000
# 5 0.0000 0.0000 0.0000 0.0000 2.0176 0.0000
# 6 0.0000 0.0000 0.0000 0.0000 0.0000 9.1567
#
#
#
# Elastic Compliance Matrix: (Units=1/GPa)
#
#
# Indices 1 2 3 4 5 6 
#
# 1 0.027414 -0.003046 -0.019726 0.000000 0.000000 0.000000
# 2 -0.003046 0.022914 -0.004295 0.000000 0.000000 0.000000
# 3 -0.019726 -0.004295 0.027397 0.000000 0.000000 0.000000
# 4 0.000000 0.000000 0.000000 0.058415 0.000000 0.000000
# 5 0.000000 0.000000 0.000000 0.000000 0.495638 0.000000
# 6 0.000000 0.000000 0.000000 0.000000 0.000000 0.109210
#
#
# Mechanical properties :
#
#
# Convention : Reuss Voigt Hill
#
# Bulk Modulus (GPa) = 42.38647 50.85821 46.62234
# Shear Modulus (GPa) = 6.22677 13.05991 9.64334
#
# Velocity S-wave (km/s) = 1.88104 2.72418 2.34088
# Velocity P-wave (km/s) = 5.36688 6.22852 5.81369
#
# Compressibility (1/GPa) = 0.02359243
#
# Stress axis : x y z
#
# Youngs Moduli (GPa) = 36.47796 43.64190 36.50009
#
# Poissons Ratio (x) = 0.13292 0.72000
# Poissons Ratio (y) = 0.11110 0.15675
# Poissons Ratio (z) = 0.71956 0.18742
#
# Static dielectric constant tensor:
#      x y z
#    x 1.621200 0.000000 0.000000 
#    y 0.000000 1.634410 0.000000 
#    z 0.000000 0.000000 1.583340 
# 
# From -- ./inp_files/21453.got.cif
#   From: 2010.05.17/outbox.cif.g08.bks.cpg/sg52_11_cif.got.tgz:21453.got - 2010.06.03 12:15:38.
