data_PCOD9408803
_publ_section_title
;
Structure prediction by ZEFSAII (Michael W. Deem and Ramdas Pophale) SiO2 
 PCOD9408803
Probable space group: P N N A
;
_chemical_formula_sum "Si O2"
_cell_formula_units_Z 64
_cell_length_a 17.731070
_cell_length_b 11.744877
_cell_length_c 14.689664
_cell_angle_alpha 90.000000
_cell_angle_beta 90.000000
_cell_angle_gamma 90.000000
_cell_volume 3059.111308
_symmetry_space_group_name_H-M "P N N A"
_symmetry_group_IT_number 52
_symmetry_cell_setting 'orthorhombic'
loop_
_space_group_symop_operation_xyz
x,y,z
1/2-x,-y,z
x,1/2-y,1/2-z
1/2-x,1/2+y,1/2-z
-x,-y,-z
1/2+x,y,-z
-x,1/2+y,1/2+z
1/2+x,1/2-y,1/2+z
loop_
_atom_site_type_symbol
_atom_site_label
_atom_site_fract_x
_atom_site_fract_y
_atom_site_fract_z
Si Si1 0.321731 0.073472 0.806387
Si Si2 0.063653 0.546544 0.568918
Si Si3 0.670165 0.830167 0.390124
Si Si4 0.660957 0.511164 0.596629
Si Si5 0.771436 0.130713 0.588908
Si Si6 0.080981 0.742382 0.349398
Si Si7 0.877522 0.743827 0.645397
Si Si8 0.986234 0.291640 0.039541
O O1 0.400443 0.010321 0.835129
O O2 0.316017 0.095012 0.698613
O O3 0.322054 0.199379 0.853832
O O4 0.250000 0.000000 0.834342
O O5 0.138867 0.539156 0.507093
O O6 0.032117 0.671115 0.586527
O O7 0.000000 0.500000 0.500000
O O8 0.720865 0.845586 0.480288
O O9 0.585739 0.861882 0.426633
O O10 0.750000 0.500000 0.612322
O O11 0.620054 0.617542 0.644782
O O12 0.626439 0.388978 0.619819
O O13 0.850353 0.169435 0.633805
O O14 0.705994 0.206753 0.632579
O O15 0.750000 0.000000 0.604408
O O16 0.046561 0.750000 0.250000
O O17 0.023538 0.765619 0.432427
O O18 0.902291 0.750000 0.750000
O O19 0.931936 0.816774 0.578634
#
# Coordination Sequence:
#
# PCOD9408803 Si02
#       8
#     8   8   8   8   8   8   8   8
#     4  10  20  33  64  91 121 168 222 259 315 373
#     4  10  19  32  57  92 124 160 190 269 324 367
#     4   9  21  40  61  89 128 175 211 264 313 386
#     4  11  22  37  62  95 128 153 209 264 328 368
#     4  11  24  42  65  92 129 166 212 262 319 379
#     4  10  22  40  68  88 126 170 204 256 321 387
#     4  12  26  38  67  98 124 162 215 275 316 389
#     4   9  21  40  60  90 127 166 208 255 326 381
#
# _framework density 20.921108
#
# number of rings (size 3 to 8) (size 9 to 14) (size 15 to 20)
#    0.000    1.750    2.500    1.875    7.000    0.000 
#    0.000    2.500   13.750    0.000    0.000    0.000 
#    0.000    0.000    0.000    0.000    0.000    0.000 
#
# Total GULP energy -356404.094116 kJ/mol
# GULP energy per Si atom -5568.813971 kJ/mol
# Density = 2.087349 g / cm^3
# Si number density = 20.921108 Si / 1000 Ang^3
#
#
#
# Elastic Constant Matrix: (Units=GPa)
#
#
# Indices 1 2 3 4 5 6 
#
# 1 74.4614 -3.9046 43.9830 0.0000 0.0000 0.0000
# 2 -3.9046 51.7005 8.2665 0.0000 0.0000 0.0000
# 3 43.9830 8.2665 104.3401 0.0000 0.0000 0.0000
# 4 0.0000 0.0000 0.0000 -9.7333 0.0000 0.0000
# 5 0.0000 0.0000 0.0000 0.0000 21.4245 0.0000
# 6 0.0000 0.0000 0.0000 0.0000 0.0000 9.0493
#
#
#
# Elastic Compliance Matrix: (Units=1/GPa)
#
#
# Indices 1 2 3 4 5 6 
#
# 1 0.018231 0.002639 -0.007894 0.000000 0.000000 0.000000
# 2 0.002639 0.019972 -0.002695 0.000000 0.000000 0.000000
# 3 -0.007894 -0.002695 0.013125 0.000000 0.000000 0.000000
# 4 0.000000 0.000000 0.000000 -0.102740 0.000000 0.000000
# 5 0.000000 0.000000 0.000000 0.000000 0.046675 0.000000
# 6 0.000000 0.000000 0.000000 0.000000 0.000000 0.110506
#
#
# Mechanical properties :
#
#
# Convention : Reuss Voigt Hill
#
# Bulk Modulus (GPa) = 28.22552 36.35465 32.29009
# Shear Modulus (GPa) = 37.45901 16.29192 26.87546
#
# Velocity S-wave (km/s) = 4.23601 2.79360 3.58803
# Velocity P-wave (km/s) = 6.11929 5.27450 5.71253
#
# Compressibility (1/GPa) = 0.03542893
#
# Stress axis : x y z
#
# Youngs Moduli (GPa) = 54.85136 50.06923 76.18937
#
# Poissons Ratio (x) = -0.13214 0.60145
# Poissons Ratio (y) = -0.14476 0.20531
# Poissons Ratio (z) = 0.43300 0.13493
#
# Static dielectric constant tensor:
#      x y z
#    x 1.872890 0.000000 0.000000 
#    y 0.000000 1.803640 0.000000 
#    z 0.000000 0.000000 1.784340 
# 
# From -- ./inp_files/28302.got.cif
#   From: 2010.05.17/outbox.cif.g08.bks.cpg/sg52_15_cif.got.tgz:28302.got - 2010.06.03 12:15:38.
