data_PCOD9408507
_publ_section_title
;
Structure prediction by ZEFSAII (Michael W. Deem and Ramdas Pophale) SiO2 
 PCOD9408507
Probable space group: P N N A
;
_chemical_formula_sum "Si O2"
_cell_formula_units_Z 48
_cell_length_a 8.086414
_cell_length_b 14.507987
_cell_length_c 16.575751
_cell_angle_alpha 90.000000
_cell_angle_beta 90.000000
_cell_angle_gamma 90.000000
_cell_volume 1944.627146
_symmetry_space_group_name_H-M "P N N A"
_symmetry_group_IT_number 52
_symmetry_cell_setting 'orthorhombic'
loop_
_space_group_symop_operation_xyz
x,y,z
1/2-x,-y,z
x,1/2-y,1/2-z
1/2-x,1/2+y,1/2-z
-x,-y,-z
1/2+x,y,-z
-x,1/2+y,1/2+z
1/2+x,1/2-y,1/2+z
loop_
_atom_site_type_symbol
_atom_site_label
_atom_site_fract_x
_atom_site_fract_y
_atom_site_fract_z
Si Si1 0.565651 0.540915 0.583413
Si Si2 0.400384 0.611712 0.138637
Si Si3 0.011472 0.608340 0.685435
Si Si4 0.218828 0.250000 0.750000
Si Si5 0.242582 0.317721 0.912017
Si Si6 0.252977 0.716643 0.425151
Si Si7 0.750000 0.000000 0.516625
O O1 0.750000 0.500000 0.594690
O O2 0.500000 0.500000 0.500000
O O3 0.454950 0.493133 0.651274
O O4 0.596460 0.649598 0.584974
O O5 0.404704 0.596773 0.233408
O O6 0.567653 0.665631 0.115254
O O7 0.253775 0.682314 0.115104
O O8 0.392733 0.520301 0.084038
O O9 0.904155 0.663488 0.618718
O O10 0.167416 0.669783 0.709975
O O11 0.142531 0.297018 0.829898
O O12 0.216700 0.412921 0.959665
O O13 0.226890 0.238541 0.979858
#
# Coordination Sequence:
#
# PCOD9408507 Si02
#       7
#     8   8   8   4   8   8   4
#     4  10  22  34  57  90 128 160 205 258 311 380
#     4  10  20  36  60  87 115 158 200 263 308 368
#     4  10  18  35  58  87 117 156 207 249 311 368
#     4  10  18  36  66  78 114 164 202 252 312 382
#     4  10  20  36  59  84 117 152 207 248 321 373
#     4  10  19  33  57  88 113 153 202 252 306 366
#     4  10  22  34  60  88 114 154 198 260 306 374
#
# _framework density 24.683394
#
# number of rings (size 3 to 8) (size 9 to 14) (size 15 to 20)
#    0.000    2.000    3.333    1.500    5.833    0.000 
#    0.000    0.000   27.500    0.000   13.000    0.000 
#    0.000    0.000    0.000    0.000    0.000    0.000 
#
# Total GULP energy -267642.165288 kJ/mol
# GULP energy per Si atom -5575.878443 kJ/mol
# Density = 2.462721 g / cm^3
# Si number density = 24.683394 Si / 1000 Ang^3
#
#
#
# Elastic Constant Matrix: (Units=GPa)
#
#
# Indices 1 2 3 4 5 6 
#
# 1 53.3210 19.5994 11.7656 0.0000 0.0000 0.0000
# 2 19.5994 109.2048 50.7872 0.0000 0.0000 0.0000
# 3 11.7656 50.7872 185.4390 0.0000 0.0000 0.0000
# 4 0.0000 0.0000 0.0000 42.1485 0.0000 0.0000
# 5 0.0000 0.0000 0.0000 0.0000 25.0660 0.0000
# 6 0.0000 0.0000 0.0000 0.0000 0.0000 20.4953
#
#
#
# Elastic Compliance Matrix: (Units=1/GPa)
#
#
# Indices 1 2 3 4 5 6 
#
# 1 0.020096 -0.003454 -0.000329 0.000000 0.000000 0.000000
# 2 -0.003454 0.011087 -0.002817 0.000000 0.000000 0.000000
# 3 -0.000329 -0.002817 0.006185 0.000000 0.000000 0.000000
# 4 0.000000 0.000000 0.000000 0.023726 0.000000 0.000000
# 5 0.000000 0.000000 0.000000 0.000000 0.039895 0.000000
# 6 0.000000 0.000000 0.000000 0.000000 0.000000 0.048792
#
#
# Mechanical properties :
#
#
# Convention : Reuss Voigt Hill
#
# Bulk Modulus (GPa) = 41.37660 56.91880 49.14770
# Shear Modulus (GPa) = 29.23335 35.26279 32.24807
#
# Velocity S-wave (km/s) = 3.44515 3.78379 3.61843
# Velocity P-wave (km/s) = 5.71180 6.49608 6.11652
#
# Compressibility (1/GPa) = 0.02416825
#
# Stress axis : x y z
#
# Youngs Moduli (GPa) = 49.76000 90.19391 161.67870
#
# Poissons Ratio (x) = 0.31150 0.05322
# Poissons Ratio (y) = 0.17186 0.45551
# Poissons Ratio (z) = 0.01638 0.25411
#
# Static dielectric constant tensor:
#      x y z
#    x 2.028100 0.000000 0.000000 
#    y 0.000000 2.107260 0.000000 
#    z 0.000000 0.000000 1.966280 
# 
# From -- ./inp_files/26123.got.cif
#   From: 2010.05.17/outbox.cif.g08.bks.cpg/sg52_14_cif.got.tgz:26123.got - 2010.06.03 12:15:38.
