data_PCOD9408929
_publ_section_title
;
Structure prediction by ZEFSAII (Michael W. Deem and Ramdas Pophale) SiO2 
 PCOD9408929
Probable space group: P N N A
;
_chemical_formula_sum "Si O2"
_cell_formula_units_Z 52
_cell_length_a 8.501967
_cell_length_b 22.528380
_cell_length_c 14.322999
_cell_angle_alpha 90.000000
_cell_angle_beta 90.000000
_cell_angle_gamma 90.000000
_cell_volume 2743.363395
_symmetry_space_group_name_H-M "P N N A"
_symmetry_group_IT_number 52
_symmetry_cell_setting 'orthorhombic'
loop_
_space_group_symop_operation_xyz
x,y,z
1/2-x,-y,z
x,1/2-y,1/2-z
1/2-x,1/2+y,1/2-z
-x,-y,-z
1/2+x,y,-z
-x,1/2+y,1/2+z
1/2+x,1/2-y,1/2+z
loop_
_atom_site_type_symbol
_atom_site_label
_atom_site_fract_x
_atom_site_fract_y
_atom_site_fract_z
Si Si1 0.932781 0.298140 0.094690
Si Si2 0.356297 0.719940 0.546999
Si Si3 0.687562 0.932645 0.736174
Si Si4 0.100263 0.466786 0.867832
Si Si5 0.364963 0.750000 0.250000
Si Si6 0.666909 0.667204 0.616113
Si Si7 0.087522 0.418206 0.065338
O O1 0.762553 0.267009 0.095070
O O2 0.018436 0.292722 0.193898
O O3 0.959759 0.365855 0.065102
O O4 0.035351 0.259312 0.021976
O O5 0.482650 0.683610 0.607719
O O6 0.249594 0.675177 0.484910
O O7 0.505286 0.932252 0.705546
O O8 0.702443 0.893266 0.828648
O O9 0.780280 0.907224 0.644663
O O10 0.750000 0.000000 0.751106
O O11 0.250000 0.500000 0.826680
O O12 0.988207 0.519746 0.903763
O O13 0.145139 0.429264 0.959759
O O14 0.252991 0.716668 0.321512
#
# Coordination Sequence:
#
# PCOD9408929 Si02
#       7
#     8   8   8   8   4   8   8
#     4  10  20  35  55  87 111 157 192 239 299 364
#     4   9  22  37  58  82 123 150 199 247 310 358
#     4  10  21  38  62  84 116 161 201 250 301 358
#     4  10  21  34  50  86 120 154 194 235 294 355
#     4  10  20  36  60  82 118 148 196 248 304 356
#     4  10  20  42  59  86 118 158 199 258 307 357
#     4  10  19  34  56  79 120 156 189 233 294 364
#
# _framework density 18.954833000000001
#
# number of rings (size 3 to 8) (size 9 to 14) (size 15 to 20)
#    0.000    2.154    1.538    2.308    4.308    1.846 
#    2.769    2.308    0.000    0.000    0.000    0.000 
#    0.000    0.000    0.000    0.000    0.000    0.000 
#
# Total GULP energy -289781.471464 kJ/mol
# GULP energy per Si atom -5572.720605 kJ/mol
# Density = 1.891169 g / cm^3
# Si number density = 18.954833 Si / 1000 Ang^3
#
#
#
# Elastic Constant Matrix: (Units=GPa)
#
#
# Indices 1 2 3 4 5 6 
#
# 1 111.5005 15.7407 31.6025 0.0000 0.0000 0.0000
# 2 15.7407 67.3714 27.0763 0.0000 0.0000 0.0000
# 3 31.6025 27.0763 51.0413 0.0000 0.0000 0.0000
# 4 0.0000 0.0000 0.0000 24.2543 0.0000 0.0000
# 5 0.0000 0.0000 0.0000 0.0000 15.3616 0.0000
# 6 0.0000 0.0000 0.0000 0.0000 0.0000 24.8085
#
#
#
# Elastic Compliance Matrix: (Units=1/GPa)
#
#
# Indices 1 2 3 4 5 6 
#
# 1 0.010880 0.000210 -0.006848 0.000000 0.000000 0.000000
# 2 0.000210 0.018869 -0.010140 0.000000 0.000000 0.000000
# 3 -0.006848 -0.010140 0.029211 0.000000 0.000000 0.000000
# 4 0.000000 0.000000 0.000000 0.041230 0.000000 0.000000
# 5 0.000000 0.000000 0.000000 0.000000 0.065097 0.000000
# 6 0.000000 0.000000 0.000000 0.000000 0.000000 0.040309
#
#
# Mechanical properties :
#
#
# Convention : Reuss Voigt Hill
#
# Bulk Modulus (GPa) = 39.36251 42.08355 40.72303
# Shear Modulus (GPa) = 20.19237 23.25114 21.72175
#
# Velocity S-wave (km/s) = 3.26742 3.50617 3.38890
# Velocity P-wave (km/s) = 5.91999 6.21620 6.06990
#
# Compressibility (1/GPa) = 0.02540488
#
# Stress axis : x y z
#
# Youngs Moduli (GPa) = 91.91391 52.99663 34.23406
#
# Poissons Ratio (x) = -0.01114 0.23442
# Poissons Ratio (y) = -0.01931 0.34712
# Poissons Ratio (z) = 0.62940 0.53737
#
# Static dielectric constant tensor:
#      x y z
#    x 1.698050 0.000000 0.000000 
#    y 0.000000 1.666130 0.000000 
#    z 0.000000 0.000000 1.673060 
# 
# From -- ./inp_files/24896.got.cif
#   From: 2010.05.17/outbox.cif.g08.bks.cpg/sg52_13_cif.got.tgz:24896.got - 2010.06.03 12:15:38.
