data_PCOD9408529
_publ_section_title
;
Structure prediction by ZEFSAII (Michael W. Deem and Ramdas Pophale) SiO2 
 PCOD9408529
Probable space group: P N N A
;
_chemical_formula_sum "Si O2"
_cell_formula_units_Z 36
_cell_length_a 10.430596
_cell_length_b 8.459537
_cell_length_c 19.739406
_cell_angle_alpha 90.000000
_cell_angle_beta 90.000000
_cell_angle_gamma 90.000000
_cell_volume 1741.765959
_symmetry_space_group_name_H-M "P N N A"
_symmetry_group_IT_number 52
_symmetry_cell_setting 'orthorhombic'
loop_
_space_group_symop_operation_xyz
x,y,z
1/2-x,-y,z
x,1/2-y,1/2-z
1/2-x,1/2+y,1/2-z
-x,-y,-z
1/2+x,y,-z
-x,1/2+y,1/2+z
1/2+x,1/2-y,1/2+z
loop_
_atom_site_type_symbol
_atom_site_label
_atom_site_fract_x
_atom_site_fract_y
_atom_site_fract_z
Si Si1 0.750000 0.000000 0.848075
Si Si2 0.345585 0.250000 0.250000
Si Si3 0.527956 0.972244 0.639045
Si Si4 0.857600 0.230211 0.514598
Si Si5 0.250000 0.500000 0.900896
Si Si6 0.585742 0.315018 0.577036
O O1 0.761997 0.154496 0.802984
O O2 0.608668 0.023838 0.881897
O O3 0.417669 0.115602 0.294741
O O4 0.583404 0.883118 0.572340
O O5 0.374812 0.953287 0.640689
O O6 0.561152 0.156739 0.622376
O O7 0.730006 0.306282 0.546114
O O8 0.975970 0.321008 0.479646
O O9 0.799536 0.133619 0.451756
#
# Coordination Sequence:
#
# PCOD9408529 Si02
#       6
#     4   4   8   8   4   8
#     4  12  26  41  62  89 124 168 214 264 300 370
#     4  12  26  42  60  84 128 170 218 252 298 370
#     4  11  21  39  66  92 125 167 211 251 310 374
#     4  11  18  37  66  98 123 155 202 262 318 376
#     4  10  18  35  66  99 118 160 204 260 310 386
#     4  11  22  38  66  97 126 157 208 259 325 367
#
# _framework density 20.668679000000001
#
# number of rings (size 3 to 8) (size 9 to 14) (size 15 to 20)
#    0.000    0.889    6.667    2.667    0.000    0.889 
#    0.000    4.444    0.000    0.000    0.000    0.000 
#    0.000    0.000    0.000    0.000    0.000    0.000 
#
# Total GULP energy -200628.819420 kJ/mol
# GULP energy per Si atom -5573.022762 kJ/mol
# Density = 2.062164 g / cm^3
# Si number density = 20.668679 Si / 1000 Ang^3
#
#
#
# Elastic Constant Matrix: (Units=GPa)
#
#
# Indices 1 2 3 4 5 6 
#
# 1 141.2324 24.2185 22.7685 0.0000 0.0000 0.0000
# 2 24.2185 56.0328 12.3102 0.0000 0.0000 0.0000
# 3 22.7685 12.3102 59.4679 0.0000 0.0000 0.0000
# 4 0.0000 0.0000 0.0000 29.8017 0.0000 0.0000
# 5 0.0000 0.0000 0.0000 0.0000 32.7884 0.0000
# 6 0.0000 0.0000 0.0000 0.0000 0.0000 30.3890
#
#
#
# Elastic Compliance Matrix: (Units=1/GPa)
#
#
# Indices 1 2 3 4 5 6 
#
# 1 0.007974 -0.002908 -0.002451 0.000000 0.000000 0.000000
# 2 -0.002908 0.019758 -0.002976 0.000000 0.000000 0.000000
# 3 -0.002451 -0.002976 0.018370 0.000000 0.000000 0.000000
# 4 0.000000 0.000000 0.000000 0.033555 0.000000 0.000000
# 5 0.000000 0.000000 0.000000 0.000000 0.030499 0.000000
# 6 0.000000 0.000000 0.000000 0.000000 0.000000 0.032907
#
#
# Mechanical properties :
#
#
# Convention : Reuss Voigt Hill
#
# Bulk Modulus (GPa) = 33.97803 41.70307 37.84055
# Shear Modulus (GPa) = 29.49074 31.75819 30.62447
#
# Velocity S-wave (km/s) = 3.78144 3.92412 3.85344
# Velocity P-wave (km/s) = 5.96161 6.38376 6.17629
#
# Compressibility (1/GPa) = 0.02943078
#
# Stress axis : x y z
#
# Youngs Moduli (GPa) = 125.40157 50.61342 54.43530
#
# Poissons Ratio (x) = 0.14719 0.13343
# Poissons Ratio (y) = 0.36469 0.16203
# Poissons Ratio (z) = 0.30738 0.15065
#
# Static dielectric constant tensor:
#      x y z
#    x 1.730260 0.000000 0.000000 
#    y 0.000000 1.934950 0.000000 
#    z 0.000000 0.000000 2.069210 
# 
# From -- ./inp_files/35621.got.cif
#   From: 2010.05.17/outbox.cif.g08.bks.cpg/sg52_18_cif.got.tgz:35621.got - 2010.06.03 12:15:38.
