data_PCOD9408869
_publ_section_title
;
Structure prediction by ZEFSAII (Michael W. Deem and Ramdas Pophale) SiO2 
 PCOD9408869
Probable space group: P N N A
;
_chemical_formula_sum "Si O2"
_cell_formula_units_Z 40
_cell_length_a 13.097251
_cell_length_b 15.906411
_cell_length_c 8.385906
_cell_angle_alpha 90.000000
_cell_angle_beta 90.000000
_cell_angle_gamma 90.000000
_cell_volume 1747.037955
_symmetry_space_group_name_H-M "P N N A"
_symmetry_group_IT_number 52
_symmetry_cell_setting 'orthorhombic'
loop_
_space_group_symop_operation_xyz
x,y,z
1/2-x,-y,z
x,1/2-y,1/2-z
1/2-x,1/2+y,1/2-z
-x,-y,-z
1/2+x,y,-z
-x,1/2+y,1/2+z
1/2+x,1/2-y,1/2+z
loop_
_atom_site_type_symbol
_atom_site_label
_atom_site_fract_x
_atom_site_fract_y
_atom_site_fract_z
Si Si1 0.648211 0.255819 0.569825
Si Si2 0.800216 0.175188 0.369538
Si Si3 0.656727 0.441770 0.604348
Si Si4 0.923060 0.437599 0.355935
Si Si5 0.057044 0.720922 0.422270
O O1 0.606040 0.250000 0.750000
O O2 0.717020 0.178336 0.511131
O O3 0.700066 0.347707 0.582477
O O4 0.562947 0.267963 0.437962
O O5 0.766218 0.250000 0.250000
O O6 0.843080 0.095948 0.274634
O O7 0.899224 0.213087 0.453097
O O8 0.750000 0.500000 0.664639
O O9 0.620547 0.477687 0.432340
O O10 0.544225 0.442173 0.692209
O O11 0.921494 0.370318 0.502737
O O12 0.094778 0.750000 0.250000
#
# Coordination Sequence:
#
# PCOD9408869 Si02
#       5
#     8   8   8   8   8
#     4  11  22  37  62  89 116 158 210 256 303 368
#     4  10  19  35  57  85 118 155 201 254 303 353
#     4  10  19  35  61  87 117 162 208 245 307 379
#     4   9  20  36  57  87 123 160 206 259 309 373
#     4  10  19  33  56  86 119 159 207 253 302 362
#
# _framework density 22.895896
#
# number of rings (size 3 to 8) (size 9 to 14) (size 15 to 20)
#    0.000    2.000    0.000    6.600    0.000    1.600 
#    0.000    0.000    0.000   48.000    0.000    0.000 
#    0.000    0.000    0.000    0.000    0.000    0.000 
#
# Total GULP energy -222762.829934 kJ/mol
# GULP energy per Si atom -5569.070748 kJ/mol
# Density = 2.284378 g / cm^3
# Si number density = 22.895896 Si / 1000 Ang^3
#
#
#
# Elastic Constant Matrix: (Units=GPa)
#
#
# Indices 1 2 3 4 5 6 
#
# 1 76.8049 -9.1529 6.6567 0.0000 0.0000 0.0000
# 2 -9.1529 46.6694 12.9822 0.0000 0.0000 0.0000
# 3 6.6567 12.9822 90.2359 0.0000 0.0000 0.0000
# 4 0.0000 0.0000 0.0000 28.6167 0.0000 0.0000
# 5 0.0000 0.0000 0.0000 0.0000 27.7644 0.0000
# 6 0.0000 0.0000 0.0000 0.0000 0.0000 25.0146
#
#
#
# Elastic Compliance Matrix: (Units=1/GPa)
#
#
# Indices 1 2 3 4 5 6 
#
# 1 0.013508 0.003048 -0.001435 0.000000 0.000000 0.000000
# 2 0.003048 0.023009 -0.003535 0.000000 0.000000 0.000000
# 3 -0.001435 -0.003535 0.011697 0.000000 0.000000 0.000000
# 4 0.000000 0.000000 0.000000 0.034945 0.000000 0.000000
# 5 0.000000 0.000000 0.000000 0.000000 0.036017 0.000000
# 6 0.000000 0.000000 0.000000 0.000000 0.000000 0.039977
#
#
# Mechanical properties :
#
#
# Convention : Reuss Voigt Hill
#
# Bulk Modulus (GPa) = 22.53818 26.07579 24.30699
# Shear Modulus (GPa) = 28.12392 29.82742 28.97567
#
# Velocity S-wave (km/s) = 3.50857 3.61327 3.56130
# Velocity P-wave (km/s) = 5.12626 5.36853 5.24880
#
# Compressibility (1/GPa) = 0.04436915
#
# Stress axis : x y z
#
# Youngs Moduli (GPa) = 74.03210 43.46209 85.49549
#
# Poissons Ratio (x) = -0.13249 0.12269
# Poissons Ratio (y) = -0.22568 0.30224
# Poissons Ratio (z) = 0.10624 0.15364
#
# Static dielectric constant tensor:
#      x y z
#    x 1.942270 0.000000 0.000000 
#    y 0.000000 1.916420 0.000000 
#    z 0.000000 0.000000 1.875770 
# 
# From -- ./inp_files/10069.got.cif
#   From: 2010.05.17/outbox.cif.g08.bks.cpg/sg52_6_cif.got.tgz:10069.got - 2010.06.03 12:15:38.
