data_PCOD9408362
_publ_section_title
;
Structure prediction by ZEFSAII (Michael W. Deem and Ramdas Pophale) SiO2 
 PCOD9408362
Probable space group: P N N A
;
_chemical_formula_sum "Si O2"
_cell_formula_units_Z 44
_cell_length_a 13.500913
_cell_length_b 12.888777
_cell_length_c 10.521817
_cell_angle_alpha 90.000000
_cell_angle_beta 90.000000
_cell_angle_gamma 90.000000
_cell_volume 1830.904080
_symmetry_space_group_name_H-M "P N N A"
_symmetry_group_IT_number 52
_symmetry_cell_setting 'orthorhombic'
loop_
_space_group_symop_operation_xyz
x,y,z
1/2-x,-y,z
x,1/2-y,1/2-z
1/2-x,1/2+y,1/2-z
-x,-y,-z
1/2+x,y,-z
-x,1/2+y,1/2+z
1/2+x,1/2-y,1/2+z
loop_
_atom_site_type_symbol
_atom_site_label
_atom_site_fract_x
_atom_site_fract_y
_atom_site_fract_z
Si Si1 0.791002 0.776223 0.016246
Si Si2 0.563807 0.714692 0.041276
Si Si3 0.416452 0.750000 0.750000
Si Si4 0.750000 0.500000 0.387888
Si Si5 0.924407 0.101438 0.725482
Si Si6 0.538745 0.591083 0.300924
Si Si7 0.758411 0.750000 0.750000
O O1 0.679431 0.737345 0.024285
O O2 0.848254 0.723070 0.131569
O O3 0.785991 0.899157 0.035983
O O4 0.823149 0.745413 0.875780
O O5 0.547712 0.652337 0.169629
O O6 0.524004 0.830702 0.079823
O O7 0.545911 0.638167 0.919071
O O8 0.491557 0.835520 0.801265
O O9 0.648249 0.536778 0.317125
O O10 0.817483 0.151331 0.754206
O O11 0.947386 0.986761 0.772716
#
# Coordination Sequence:
#
# PCOD9408362 Si02
#       7
#     8   8   4   4   8   8   4
#     4  10  19  38  59  84 123 156 197 249 306 368
#     4   9  20  34  57  88 125 165 196 252 323 367
#     4  11  20  36  64  91 114 152 214 253 292 358
#     4  10  18  32  60  94 108 152 212 258 300 360
#     4  10  20  37  58  90 119 160 206 257 306 371
#     4  10  18  34  60  89 125 156 211 253 309 369
#     4   9  22  40  58  81 124 164 190 245 326 368
#
# _framework density 24.031845000000001
#
# number of rings (size 3 to 8) (size 9 to 14) (size 15 to 20)
#    0.000    2.182    1.818    2.727    0.000    0.000 
#    3.273    5.455    8.000    3.273    0.000    0.000 
#    0.000    0.000    0.000    0.000    0.000    0.000 
#
# Total GULP energy -245383.616696 kJ/mol
# GULP energy per Si atom -5576.900379 kJ/mol
# Density = 2.397715 g / cm^3
# Si number density = 24.031845 Si / 1000 Ang^3
#
#
#
# Elastic Constant Matrix: (Units=GPa)
#
#
# Indices 1 2 3 4 5 6 
#
# 1 97.5044 26.6993 36.1933 0.0000 0.0000 0.0000
# 2 26.6993 66.3147 17.6000 0.0000 0.0000 0.0000
# 3 36.1933 17.6000 164.2319 0.0000 0.0000 0.0000
# 4 0.0000 0.0000 0.0000 10.7408 0.0000 0.0000
# 5 0.0000 0.0000 0.0000 0.0000 39.2142 0.0000
# 6 0.0000 0.0000 0.0000 0.0000 0.0000 20.2800
#
#
#
# Elastic Compliance Matrix: (Units=1/GPa)
#
#
# Indices 1 2 3 4 5 6 
#
# 1 0.012278 -0.004349 -0.002240 0.000000 0.000000 0.000000
# 2 -0.004349 0.017061 -0.000870 0.000000 0.000000 0.000000
# 3 -0.002240 -0.000870 0.006676 0.000000 0.000000 0.000000
# 4 0.000000 0.000000 0.000000 0.093103 0.000000 0.000000
# 5 0.000000 0.000000 0.000000 0.000000 0.025501 0.000000
# 6 0.000000 0.000000 0.000000 0.000000 0.000000 0.049310
#
#
# Mechanical properties :
#
#
# Convention : Reuss Voigt Hill
#
# Bulk Modulus (GPa) = 47.39788 54.33737 50.86763
# Shear Modulus (GPa) = 22.13572 30.55089 26.34331
#
# Velocity S-wave (km/s) = 3.03825 3.56935 3.31446
# Velocity P-wave (km/s) = 5.66337 6.29656 5.98834
#
# Compressibility (1/GPa) = 0.02109799
#
# Stress axis : x y z
#
# Youngs Moduli (GPa) = 81.44505 58.61161 149.79504
#
# Poissons Ratio (x) = 0.25490 0.33551
# Poissons Ratio (y) = 0.35420 0.13032
# Poissons Ratio (z) = 0.18242 0.05099
#
# Static dielectric constant tensor:
#      x y z
#    x 1.933370 0.000000 0.000000 
#    y 0.000000 2.048580 0.000000 
#    z 0.000000 0.000000 1.987630 
# 
# From -- ./inp_files/19492.got.cif
#   From: 2010.05.17/outbox.cif.g08.bks.cpg/sg52_10_cif.got.tgz:19492.got - 2010.06.03 12:15:38.
