data_PCOD9408247
_publ_section_title
;
Structure prediction by ZEFSAII (Michael W. Deem and Ramdas Pophale) SiO2 
 PCOD9408247
Probable space group: P N N A
;
_chemical_formula_sum "Si O2"
_cell_formula_units_Z 56
_cell_length_a 5.588562
_cell_length_b 20.718618
_cell_length_c 32.798769
_cell_angle_alpha 90.000000
_cell_angle_beta 90.000000
_cell_angle_gamma 90.000000
_cell_volume 3797.680291
_symmetry_space_group_name_H-M "P N N A"
_symmetry_group_IT_number 52
_symmetry_cell_setting 'orthorhombic'
loop_
_space_group_symop_operation_xyz
x,y,z
1/2-x,-y,z
x,1/2-y,1/2-z
1/2-x,1/2+y,1/2-z
-x,-y,-z
1/2+x,y,-z
-x,1/2+y,1/2+z
1/2+x,1/2-y,1/2+z
loop_
_atom_site_type_symbol
_atom_site_label
_atom_site_fract_x
_atom_site_fract_y
_atom_site_fract_z
Si Si1 0.920512 0.805459 0.107455
Si Si2 0.929260 0.869985 0.198903
Si Si3 0.928403 0.805908 0.783281
Si Si4 0.908462 0.789273 0.877681
Si Si5 0.941438 0.942363 0.891370
Si Si6 0.425888 0.632568 0.520064
Si Si7 0.750000 0.500000 0.321130
Si Si8 0.250000 0.500000 0.537167
O O1 0.925351 0.844062 0.151225
O O2 0.665188 0.770379 0.105063
O O3 0.931252 0.850199 0.067685
O O4 0.157626 0.761881 0.106981
O O5 0.683947 0.842950 0.218947
O O6 0.180274 0.846616 0.218069
O O7 0.911588 0.947428 0.201077
O O8 0.921541 0.750000 0.750000
O O9 0.923365 0.779270 0.829444
O O10 0.881461 0.866686 0.888199
O O11 0.090486 0.956359 0.850789
O O12 0.089598 0.957006 0.931847
O O13 0.750000 0.000000 0.891378
O O14 0.675835 0.655692 0.500112
O O15 0.411111 0.554807 0.516052
#
# Coordination Sequence:
#
# PCOD9408247 Si02
#       8
#     8   8   8   8   8   8   4   4
#     4  10  18  34  43  56  73  95 132 165 200 253
#     4  10  20  31  48  66  80 109 132 167 211 247
#     4  10  19  32  46  65  87 103 126 157 206 268
#     4  10  18  31  46  60  72  97 128 153 207 243
#     4  11  19  27  46  57  74 100 129 172 207 239
#     4  12  24  33  40  52  72 100 131 167 214 256
#     4  11  18  28  40  68  84  96 138 168 196 254
#     4  11  22  32  38  52  70 102 128 176 204 256
#
# _framework density 14.745843000000001
#
# number of rings (size 3 to 8) (size 9 to 14) (size 15 to 20)
#    0.000    1.429    4.286    5.143    2.000    0.000 
#    0.000    0.000    0.000    0.000    0.000    0.000 
#    0.000    0.000    0.000    0.000    0.000    0.000 
#
# Total GULP energy -311915.475334 kJ/mol
# GULP energy per Si atom -5569.919202 kJ/mol
# Density = 1.471228 g / cm^3
# Si number density = 14.745843 Si / 1000 Ang^3
#
#
#
# Elastic Constant Matrix: (Units=GPa)
#
#
# Indices 1 2 3 4 5 6 
#
# 1 131.4056 15.7596 26.3798 0.0000 0.0000 0.0000
# 2 15.7596 22.5764 22.7805 0.0000 0.0000 0.0000
# 3 26.3798 22.7805 56.5120 0.0000 0.0000 0.0000
# 4 0.0000 0.0000 0.0000 -40.6423 0.0000 0.0000
# 5 0.0000 0.0000 0.0000 0.0000 19.7453 0.0000
# 6 0.0000 0.0000 0.0000 0.0000 0.0000 12.8759
#
#
#
# Elastic Compliance Matrix: (Units=1/GPa)
#
#
# Indices 1 2 3 4 5 6 
#
# 1 0.008538 -0.003267 -0.002668 0.000000 0.000000 0.000000
# 2 -0.003267 0.075914 -0.029077 0.000000 0.000000 0.000000
# 3 -0.002668 -0.029077 0.030662 0.000000 0.000000 0.000000
# 4 0.000000 0.000000 0.000000 -0.024605 0.000000 0.000000
# 5 0.000000 0.000000 0.000000 0.000000 0.050645 0.000000
# 6 0.000000 0.000000 0.000000 0.000000 0.000000 0.077664
#
#
# Mechanical properties :
#
#
# Convention : Reuss Voigt Hill
#
# Bulk Modulus (GPa) = 22.17808 37.81485 29.99647
# Shear Modulus (GPa) = 16.45426 8.10071 12.27748
#
# Velocity S-wave (km/s) = 3.34407 2.34638 2.88862
# Velocity P-wave (km/s) = 5.47570 5.74811 5.61356
#
# Compressibility (1/GPa) = 0.04508956
#
# Stress axis : x y z
#
# Youngs Moduli (GPa) = 117.12987 13.17272 32.61371
#
# Poissons Ratio (x) = 0.04304 0.08702
# Poissons Ratio (y) = 0.38270 0.94830
# Poissons Ratio (z) = 0.31253 0.38302
#
# Static dielectric constant tensor:
#      x y z
#    x 1.641530 0.000000 0.000000 
#    y 0.000000 1.442100 0.000000 
#    z 0.000000 0.000000 1.502770 
# 
# From -- ./inp_files/41879.got.cif
#   From: 2010.05.17/outbox.cif.g08.bks.cpg/sg52_21_cif.got.tgz:41879.got - 2010.06.03 12:15:38.
