data_PCOD9408660
_publ_section_title
;
Structure prediction by ZEFSAII (Michael W. Deem and Ramdas Pophale) SiO2 
 PCOD9408660
Probable space group: P N N A
;
_chemical_formula_sum "Si O2"
_cell_formula_units_Z 48
_cell_length_a 19.760064
_cell_length_b 15.118383
_cell_length_c 8.786174
_cell_angle_alpha 90.000000
_cell_angle_beta 90.000000
_cell_angle_gamma 90.000000
_cell_volume 2624.783516
_symmetry_space_group_name_H-M "P N N A"
_symmetry_group_IT_number 52
_symmetry_cell_setting 'orthorhombic'
loop_
_space_group_symop_operation_xyz
x,y,z
1/2-x,-y,z
x,1/2-y,1/2-z
1/2-x,1/2+y,1/2-z
-x,-y,-z
1/2+x,y,-z
-x,1/2+y,1/2+z
1/2+x,1/2-y,1/2+z
loop_
_atom_site_type_symbol
_atom_site_label
_atom_site_fract_x
_atom_site_fract_y
_atom_site_fract_z
Si Si1 0.298415 0.195989 0.595305
Si Si2 0.924856 0.249496 0.927580
Si Si3 0.824736 0.487620 0.250541
Si Si4 0.528219 0.166874 0.635017
Si Si5 0.037738 0.570957 0.600482
Si Si6 0.143433 0.180383 0.616556
O O1 0.316026 0.250000 0.750000
O O2 0.346533 0.234070 0.465895
O O3 0.313157 0.092473 0.629892
O O4 0.218941 0.209883 0.567345
O O5 0.938067 0.250000 0.750000
O O6 0.952188 0.159973 0.003540
O O7 0.965627 0.324067 0.019230
O O8 0.750000 0.500000 0.323973
O O9 0.886711 0.458044 0.354628
O O10 0.846377 0.582240 0.183953
O O11 0.531670 0.250000 0.750000
O O12 0.507874 0.088184 0.749049
O O13 0.593235 0.171261 0.525969
O O14 0.000000 0.500000 0.500000
O O15 0.121128 0.250000 0.750000
#
# Coordination Sequence:
#
# PCOD9408660 Si02
#       6
#     8   8   8   8   8   8
#     4  10  18  41  62  85 121 166 205 247 305 371
#     4  11  22  38  62  88 121 164 208 249 308 375
#     4  10  21  39  64  89 118 160 209 245 300 372
#     4  10  22  40  58  83 128 159 196 256 308 362
#     4  11  24  40  61  91 124 164 207 257 319 366
#     4  10  23  36  64  92 120 161 207 252 308 370
#
# _framework density 18.287222
#
# number of rings (size 3 to 8) (size 9 to 14) (size 15 to 20)
#    0.000    1.667    3.333    1.000    7.000    2.667 
#    0.000    1.667    0.000    0.000    0.000    0.000 
#    0.000    0.000    0.000    0.000    0.000    0.000 
#
# Total GULP energy -267607.724565 kJ/mol
# GULP energy per Si atom -5575.160928 kJ/mol
# Density = 1.824560 g / cm^3
# Si number density = 18.287222 Si / 1000 Ang^3
#
#
#
# Elastic Constant Matrix: (Units=GPa)
#
#
# Indices 1 2 3 4 5 6 
#
# 1 109.7887 25.7503 74.1822 0.0000 0.0000 0.0000
# 2 25.7503 79.3976 44.9877 0.0000 0.0000 0.0000
# 3 74.1822 44.9877 134.9670 0.0000 0.0000 0.0000
# 4 0.0000 0.0000 0.0000 24.3681 0.0000 0.0000
# 5 0.0000 0.0000 0.0000 0.0000 6.5682 0.0000
# 6 0.0000 0.0000 0.0000 0.0000 0.0000 21.6829
#
#
#
# Elastic Compliance Matrix: (Units=1/GPa)
#
#
# Indices 1 2 3 4 5 6 
#
# 1 0.014493 -0.000230 -0.007889 0.000000 0.000000 0.000000
# 2 -0.000230 0.015531 -0.005050 0.000000 0.000000 0.000000
# 3 -0.007889 -0.005050 0.013429 0.000000 0.000000 0.000000
# 4 0.000000 0.000000 0.000000 0.041037 0.000000 0.000000
# 5 0.000000 0.000000 0.000000 0.000000 0.152248 0.000000
# 6 0.000000 0.000000 0.000000 0.000000 0.000000 0.046119
#
#
# Mechanical properties :
#
#
# Convention : Reuss Voigt Hill
#
# Bulk Modulus (GPa) = 58.43371 68.22150 63.32760
# Shear Modulus (GPa) = 15.87800 22.47272 19.17536
#
# Velocity S-wave (km/s) = 2.94982 3.50934 3.24167
# Velocity P-wave (km/s) = 6.60489 7.33533 6.97967
#
# Compressibility (1/GPa) = 0.01711341
#
# Stress axis : x y z
#
# Youngs Moduli (GPa) = 68.99949 64.38695 74.46777
#
# Poissons Ratio (x) = 0.01483 0.58747
# Poissons Ratio (y) = 0.01589 0.37608
# Poissons Ratio (z) = 0.54433 0.32517
#
# Static dielectric constant tensor:
#      x y z
#    x 1.660790 0.000000 0.000000 
#    y 0.000000 1.548710 0.000000 
#    z 0.000000 0.000000 1.597830 
# 
# From -- ./inp_files/13303.got.cif
#   From: 2010.05.17/outbox.cif.g08.bks.cpg/sg52_7_cif.got.tgz:13303.got - 2010.06.03 12:15:38.
