data_PCOD9408086
_publ_section_title
;
Structure prediction by ZEFSAII (Michael W. Deem and Ramdas Pophale) SiO2 
 PCOD9408086
Probable space group: P N N A
;
_chemical_formula_sum "Si O2"
_cell_formula_units_Z 44
_cell_length_a 17.989973
_cell_length_b 17.673551
_cell_length_c 5.514181
_cell_angle_alpha 90.000000
_cell_angle_beta 90.000000
_cell_angle_gamma 90.000000
_cell_volume 1753.215681
_symmetry_space_group_name_H-M "P N N A"
_symmetry_group_IT_number 52
_symmetry_cell_setting 'orthorhombic'
loop_
_space_group_symop_operation_xyz
x,y,z
1/2-x,-y,z
x,1/2-y,1/2-z
1/2-x,1/2+y,1/2-z
-x,-y,-z
1/2+x,y,-z
-x,1/2+y,1/2+z
1/2+x,1/2-y,1/2+z
loop_
_atom_site_type_symbol
_atom_site_label
_atom_site_fract_x
_atom_site_fract_y
_atom_site_fract_z
Si Si1 0.924428 0.648012 0.113185
Si Si2 0.545740 0.611020 0.507476
Si Si3 0.417415 0.967263 0.256157
Si Si4 0.477795 0.250000 0.750000
Si Si5 0.761772 0.912003 0.833519
Si Si6 0.751885 0.667391 0.172454
O O1 0.841649 0.673634 0.160145
O O2 0.981408 0.647325 0.329974
O O3 0.915455 0.559638 0.032535
O O4 0.966430 0.700397 0.916954
O O5 0.499422 0.557914 0.325823
O O6 0.592960 0.553640 0.673044
O O7 0.573715 0.685276 0.371591
O O8 0.352617 0.913034 0.149772
O O9 0.734484 0.862930 0.600827
O O10 0.750000 0.000000 0.774981
O O11 0.733949 0.887990 0.100156
O O12 0.725314 0.750000 0.250000
#
# Coordination Sequence:
#
# PCOD9408086 Si02
#       6
#     8   8   8   4   8   8
#     4  10  19  31  53  81 114 143 185 242 299 347
#     4  10  17  33  50  79 112 144 187 230 290 348
#     4   9  20  32  53  80 108 148 187 235 291 346
#     4  10  20  28  48  80 114 150 182 234 292 354
#     4  11  23  41  61  89 121 157 200 245 298 352
#     4  11  22  37  64  91 118 148 195 255 307 345
#
# _framework density 25.096741999999999
#
# number of rings (size 3 to 8) (size 9 to 14) (size 15 to 20)
#    0.000    1.818    1.818    3.273    5.091    0.000 
#    0.000    0.000    2.000    2.182    0.000    0.000 
#    0.000    0.000    0.000    0.000    0.000    0.000 
#
# Total GULP energy -245420.657420 kJ/mol
# GULP energy per Si atom -5577.742214 kJ/mol
# Density = 2.503962 g / cm^3
# Si number density = 25.096742 Si / 1000 Ang^3
#
#
#
# Elastic Constant Matrix: (Units=GPa)
#
#
# Indices 1 2 3 4 5 6 
#
# 1 62.4199 21.1326 19.3334 0.0000 0.0000 0.0000
# 2 21.1326 174.9104 60.3869 0.0000 0.0000 0.0000
# 3 19.3334 60.3869 95.9653 0.0000 0.0000 0.0000
# 4 0.0000 0.0000 0.0000 69.3647 0.0000 0.0000
# 5 0.0000 0.0000 0.0000 0.0000 8.7896 0.0000
# 6 0.0000 0.0000 0.0000 0.0000 0.0000 7.7137
#
#
#
# Elastic Compliance Matrix: (Units=1/GPa)
#
#
# Indices 1 2 3 4 5 6 
#
# 1 0.017260 -0.001130 -0.002766 0.000000 0.000000 0.000000
# 2 -0.001130 0.007378 -0.004415 0.000000 0.000000 0.000000
# 3 -0.002766 -0.004415 0.013756 0.000000 0.000000 0.000000
# 4 0.000000 0.000000 0.000000 0.014417 0.000000 0.000000
# 5 0.000000 0.000000 0.000000 0.000000 0.113771 0.000000
# 6 0.000000 0.000000 0.000000 0.000000 0.000000 0.129639
#
#
# Mechanical properties :
#
#
# Convention : Reuss Voigt Hill
#
# Bulk Modulus (GPa) = 45.93222 59.44460 52.68841
# Shear Modulus (GPa) = 15.62014 32.66979 24.14496
#
# Velocity S-wave (km/s) = 2.49750 3.61190 3.10510
# Velocity P-wave (km/s) = 5.16318 6.41342 5.82196
#
# Compressibility (1/GPa) = 0.02177121
#
# Stress axis : x y z
#
# Youngs Moduli (GPa) = 57.93768 135.53769 72.69660
#
# Poissons Ratio (x) = 0.15321 0.20107
# Poissons Ratio (y) = 0.06549 0.32095
# Poissons Ratio (z) = 0.16025 0.59839
#
# Static dielectric constant tensor:
#      x y z
#    x 2.039530 0.000000 0.000000 
#    y 0.000000 2.091270 0.000000 
#    z 0.000000 0.000000 2.063650 
# 
# From -- ./inp_files/5729.got.cif
#   From: 2010.05.17/outbox.cif.g08.bks.cpg/sg52_3_cif.got.tgz:5729.got - 2010.06.03 12:15:38.
