data_PCOD9408210
_publ_section_title
;
Structure prediction by ZEFSAII (Michael W. Deem and Ramdas Pophale) SiO2 
 PCOD9408210
Probable space group: P N N A
;
_chemical_formula_sum "Si O2"
_cell_formula_units_Z 48
_cell_length_a 9.170265
_cell_length_b 16.383014
_cell_length_c 18.791390
_cell_angle_alpha 90.000000
_cell_angle_beta 90.000000
_cell_angle_gamma 90.000000
_cell_volume 2823.154165
_symmetry_space_group_name_H-M "P N N A"
_symmetry_group_IT_number 52
_symmetry_cell_setting 'orthorhombic'
loop_
_space_group_symop_operation_xyz
x,y,z
1/2-x,-y,z
x,1/2-y,1/2-z
1/2-x,1/2+y,1/2-z
-x,-y,-z
1/2+x,y,-z
-x,1/2+y,1/2+z
1/2+x,1/2-y,1/2+z
loop_
_atom_site_type_symbol
_atom_site_label
_atom_site_fract_x
_atom_site_fract_y
_atom_site_fract_z
Si Si1 0.258661 0.748919 0.332274
Si Si2 0.896820 0.224817 0.330212
Si Si3 0.599286 0.661267 0.457687
Si Si4 0.800895 0.909964 0.922656
Si Si5 0.440923 0.178407 0.453149
Si Si6 0.251558 0.403139 0.923903
O O1 0.214255 0.750000 0.250000
O O2 0.426847 0.779130 0.337009
O O3 0.260792 0.657085 0.363251
O O4 0.154681 0.800712 0.383752
O O5 0.861927 0.250000 0.250000
O O6 0.845538 0.293701 0.386604
O O7 0.825059 0.141312 0.356400
O O8 0.720126 0.618367 0.505253
O O9 0.472614 0.599001 0.436446
O O10 0.533013 0.735742 0.505252
O O11 0.750000 0.000000 0.903547
O O12 0.346989 0.124145 0.507791
O O13 0.590971 0.134263 0.434766
O O14 0.250000 0.500000 0.917218
#
# Coordination Sequence:
#
# PCOD9408210 Si02
#       6
#     8   8   8   8   8   8
#     4   9  19  36  55  74 101 139 174 203 253 318
#     4   9  18  35  54  71 100 140 173 204 254 317
#     4   9  17  31  50  70  95 131 165 195 246 305
#     4  10  18  30  49  75  99 123 161 210 247 286
#     4  10  19  34  54  74 102 137 173 209 257 316
#     4  11  21  34  53  80 105 132 174 225 264 300
#
# _framework density 17.002258999999999
#
# number of rings (size 3 to 8) (size 9 to 14) (size 15 to 20)
#    0.000    2.333    0.000    6.000    0.000    0.667 
#    0.000    6.667    0.000    0.000    0.000    0.000 
#    0.000    0.000    0.000    0.000    0.000    0.000 
#
# Total GULP energy -267798.674879 kJ/mol
# GULP energy per Si atom -5579.139060 kJ/mol
# Density = 1.696356 g / cm^3
# Si number density = 17.002259 Si / 1000 Ang^3
#
#
#
# Elastic Constant Matrix: (Units=GPa)
#
#
# Indices 1 2 3 4 5 6 
#
# 1 64.3234 56.0964 43.8371 0.0000 0.0000 0.0000
# 2 56.0964 106.3429 42.8473 0.0000 0.0000 0.0000
# 3 43.8371 42.8473 131.8751 0.0000 0.0000 0.0000
# 4 0.0000 0.0000 0.0000 6.7418 0.0000 0.0000
# 5 0.0000 0.0000 0.0000 0.0000 23.5938 0.0000
# 6 0.0000 0.0000 0.0000 0.0000 0.0000 20.0211
#
#
#
# Elastic Compliance Matrix: (Units=1/GPa)
#
#
# Indices 1 2 3 4 5 6 
#
# 1 0.032470 -0.014704 -0.006016 0.000000 0.000000 0.000000
# 2 -0.014704 0.017479 -0.000791 0.000000 0.000000 0.000000
# 3 -0.006016 -0.000791 0.009840 0.000000 0.000000 0.000000
# 4 0.000000 0.000000 0.000000 0.148329 0.000000 0.000000
# 5 0.000000 0.000000 0.000000 0.000000 0.042384 0.000000
# 6 0.000000 0.000000 0.000000 0.000000 0.000000 0.049947
#
#
# Mechanical properties :
#
#
# Convention : Reuss Voigt Hill
#
# Bulk Modulus (GPa) = 59.64445 65.34475 62.49460
# Shear Modulus (GPa) = 14.32421 20.72204 17.52312
#
# Velocity S-wave (km/s) = 2.90571 3.49489 3.21383
# Velocity P-wave (km/s) = 6.81278 7.40284 7.11394
#
# Compressibility (1/GPa) = 0.01676602
#
# Stress axis : x y z
#
# Youngs Moduli (GPa) = 30.79791 57.21226 101.62844
#
# Poissons Ratio (x) = 0.84125 0.61139
# Poissons Ratio (y) = 0.45285 0.08041
# Poissons Ratio (z) = 0.18528 0.04526
#
# Static dielectric constant tensor:
#      x y z
#    x 1.574130 0.000000 0.000000 
#    y 0.000000 1.558720 0.000000 
#    z 0.000000 0.000000 1.565270 
# 
# From -- ./inp_files/31220.got.cif
#   From: 2010.05.17/outbox.cif.g08.bks.cpg/sg52_16_cif.got.tgz:31220.got - 2010.06.03 12:15:38.
