data_PCOD9408761
_publ_section_title
;
Structure prediction by ZEFSAII (Michael W. Deem and Ramdas Pophale) SiO2 
 PCOD9408761
Probable space group: P N N A
;
_chemical_formula_sum "Si O2"
_cell_formula_units_Z 36
_cell_length_a 26.918934
_cell_length_b 4.972882
_cell_length_c 14.446380
_cell_angle_alpha 90.000000
_cell_angle_beta 90.000000
_cell_angle_gamma 90.000000
_cell_volume 1933.860070
_symmetry_space_group_name_H-M "P N N A"
_symmetry_group_IT_number 52
_symmetry_cell_setting 'orthorhombic'
loop_
_space_group_symop_operation_xyz
x,y,z
1/2-x,-y,z
x,1/2-y,1/2-z
1/2-x,1/2+y,1/2-z
-x,-y,-z
1/2+x,y,-z
-x,1/2+y,1/2+z
1/2+x,1/2-y,1/2+z
loop_
_atom_site_type_symbol
_atom_site_label
_atom_site_fract_x
_atom_site_fract_y
_atom_site_fract_z
Si Si1 0.750000 0.500000 0.186279
Si Si2 0.850365 0.739936 0.360139
Si Si3 0.103164 0.763249 0.546914
Si Si4 0.002671 0.787735 0.645044
Si Si5 0.565941 0.791546 0.854723
O O1 0.769499 0.250000 0.250000
O O2 0.794713 0.639946 0.131449
O O3 0.860707 0.750000 0.250000
O O4 0.860797 0.448803 0.402770
O O5 0.885681 0.944019 0.413501
O O6 0.104767 0.755450 0.436392
O O7 0.046287 0.707769 0.576204
O O8 0.022312 0.750000 0.750000
O O9 0.956277 0.588447 0.636171
O O10 0.980432 0.084952 0.633610
O O11 0.584533 0.750000 0.750000
#
# Coordination Sequence:
#
# PCOD9408761 Si02
#       5
#     4   8   8   8   8
#     4  10  20  38  56  76 110 142 160 198 268 338
#     4  11  22  35  54  80 107 133 165 209 262 323
#     4  12  21  33  53  79 104 138 180 219 253 301
#     4  10  19  32  49  71 105 144 177 216 260 304
#     4  10  21  35  50  71 105 146 183 217 257 297
#
# _framework density 18.615618000000001
#
# number of rings (size 3 to 8) (size 9 to 14) (size 15 to 20)
#    0.000    1.333    0.000    8.667    0.000    1.778 
#    0.000    0.000    0.000    0.000    0.000    3.111 
#    0.000    1.778    0.000    0.000    0.000    0.000 
#
# Total GULP energy -201097.509748 kJ/mol
# GULP energy per Si atom -5586.041937 kJ/mol
# Density = 1.857325 g / cm^3
# Si number density = 18.615618 Si / 1000 Ang^3
#
#
#
# Elastic Constant Matrix: (Units=GPa)
#
#
# Indices 1 2 3 4 5 6 
#
# 1 27.5252 -8.3995 29.6011 0.0000 0.0000 0.0000
# 2 -8.3995 60.8088 4.8024 0.0000 0.0000 0.0000
# 3 29.6011 4.8024 114.3574 0.0000 0.0000 0.0000
# 4 0.0000 0.0000 0.0000 19.6004 0.0000 0.0000
# 5 0.0000 0.0000 0.0000 0.0000 11.5724 0.0000
# 6 0.0000 0.0000 0.0000 0.0000 0.0000 5.5023
#
#
#
# Elastic Compliance Matrix: (Units=1/GPa)
#
#
# Indices 1 2 3 4 5 6 
#
# 1 0.054559 0.008680 -0.014487 0.000000 0.000000 0.000000
# 2 0.008680 0.017881 -0.002998 0.000000 0.000000 0.000000
# 3 -0.014487 -0.002998 0.012620 0.000000 0.000000 0.000000
# 4 0.000000 0.000000 0.000000 0.051019 0.000000 0.000000
# 5 0.000000 0.000000 0.000000 0.000000 0.086413 0.000000
# 6 0.000000 0.000000 0.000000 0.000000 0.000000 0.181743
#
#
# Mechanical properties :
#
#
# Convention : Reuss Voigt Hill
#
# Bulk Modulus (GPa) = 14.82557 28.29992 21.56274
# Shear Modulus (GPa) = 11.25297 19.11417 15.18357
#
# Velocity S-wave (km/s) = 2.46131 3.20782 2.85903
# Velocity P-wave (km/s) = 4.00733 5.38102 4.74416
#
# Compressibility (1/GPa) = 0.06745105
#
# Stress axis : x y z
#
# Youngs Moduli (GPa) = 18.32887 55.92610 79.23746
#
# Poissons Ratio (x) = -0.48545 1.14790
# Poissons Ratio (y) = -0.15910 0.23754
# Poissons Ratio (z) = 0.26553 0.16765
#
# Static dielectric constant tensor:
#      x y z
#    x 1.638640 0.000000 0.000000 
#    y 0.000000 1.670980 0.000000 
#    z 0.000000 0.000000 1.682370 
# 
# From -- ./inp_files/29283.got.cif
#   From: 2010.05.17/outbox.cif.g08.bks.cpg/sg52_15_cif.got.tgz:29283.got - 2010.06.03 12:15:38.
