data_PCOD9408352
_publ_section_title
;
Structure prediction by ZEFSAII (Michael W. Deem and Ramdas Pophale) SiO2 
 PCOD9408352
Probable space group: P N N A
;
_chemical_formula_sum "Si O2"
_cell_formula_units_Z 44
_cell_length_a 12.972953
_cell_length_b 11.875769
_cell_length_c 15.849755
_cell_angle_alpha 90.000000
_cell_angle_beta 90.000000
_cell_angle_gamma 90.000000
_cell_volume 2441.873375
_symmetry_space_group_name_H-M "P N N A"
_symmetry_group_IT_number 52
_symmetry_cell_setting 'orthorhombic'
loop_
_space_group_symop_operation_xyz
x,y,z
1/2-x,-y,z
x,1/2-y,1/2-z
1/2-x,1/2+y,1/2-z
-x,-y,-z
1/2+x,y,-z
-x,1/2+y,1/2+z
1/2+x,1/2-y,1/2+z
loop_
_atom_site_type_symbol
_atom_site_label
_atom_site_fract_x
_atom_site_fract_y
_atom_site_fract_z
Si Si1 0.887447 0.086818 0.396316
Si Si2 0.608733 0.128140 0.654729
Si Si3 0.250000 0.000000 0.745515
Si Si4 0.250000 0.500000 0.467152
Si Si5 0.922896 0.604467 0.654607
Si Si6 0.750000 0.000000 0.543693
Si Si7 0.840182 0.148014 0.115807
O O1 0.838073 0.043730 0.481805
O O2 0.852274 0.217108 0.382671
O O3 0.009414 0.084787 0.395391
O O4 0.844987 0.010815 0.319208
O O5 0.598842 0.262113 0.655104
O O6 0.600107 0.074731 0.747917
O O7 0.710029 0.096246 0.604971
O O8 0.266188 0.104625 0.808837
O O9 0.155204 0.456861 0.409125
O O10 0.207064 0.598060 0.529473
O O11 0.044815 0.595443 0.631667
#
# Coordination Sequence:
#
# PCOD9408352 Si02
#       7
#     8   8   4   4   8   4   8
#     4  10  20  35  55  80 110 142 183 226 271 322
#     4  10  20  36  56  77 108 148 182 219 271 326
#     4  10  18  32  58  80  98 138 188 218 260 322
#     4  11  21  33  55  86 108 142 183 227 269 315
#     4  10  20  36  56  77 108 148 182 219 271 326
#     4  11  21  33  55  86 108 142 183 227 269 315
#     4  10  20  35  55  80 110 142 183 226 271 322
#
# _framework density 18.018951999999999
#
# number of rings (size 3 to 8) (size 9 to 14) (size 15 to 20)
#    0.000    1.818    1.818    3.273    0.000    0.000 
#    0.000    0.000    0.000    6.545    0.000    0.000 
#    0.000    0.000    0.000    0.000    0.000    0.000 
#
# Total GULP energy -245190.927806 kJ/mol
# GULP energy per Si atom -5572.521086 kJ/mol
# Density = 1.797794 g / cm^3
# Si number density = 18.018952 Si / 1000 Ang^3
#
#
#
# Elastic Constant Matrix: (Units=GPa)
#
#
# Indices 1 2 3 4 5 6 
#
# 1 59.8218 21.4073 54.0390 0.0000 0.0000 0.0000
# 2 21.4073 33.8583 29.4391 0.0000 0.0000 0.0000
# 3 54.0390 29.4391 111.1483 0.0000 0.0000 0.0000
# 4 0.0000 0.0000 0.0000 21.8343 0.0000 0.0000
# 5 0.0000 0.0000 0.0000 0.0000 26.6856 0.0000
# 6 0.0000 0.0000 0.0000 0.0000 0.0000 27.0622
#
#
#
# Elastic Compliance Matrix: (Units=1/GPa)
#
#
# Indices 1 2 3 4 5 6 
#
# 1 0.031628 -0.008610 -0.013097 0.000000 0.000000 0.000000
# 2 -0.008610 0.040715 -0.006598 0.000000 0.000000 0.000000
# 3 -0.013097 -0.006598 0.017112 0.000000 0.000000 0.000000
# 4 0.000000 0.000000 0.000000 0.045800 0.000000 0.000000
# 5 0.000000 0.000000 0.000000 0.000000 0.037473 0.000000
# 6 0.000000 0.000000 0.000000 0.000000 0.000000 0.036952
#
#
# Mechanical properties :
#
#
# Convention : Reuss Voigt Hill
#
# Bulk Modulus (GPa) = 30.44487 46.06658 38.25573
# Shear Modulus (GPa) = 18.03501 21.77929 19.90715
#
# Velocity S-wave (km/s) = 3.16712 3.48039 3.32744
# Velocity P-wave (km/s) = 5.50517 6.46312 6.00328
#
# Compressibility (1/GPa) = 0.03284625
#
# Stress axis : x y z
#
# Youngs Moduli (GPa) = 31.61735 24.56076 58.43826
#
# Poissons Ratio (x) = 0.21147 0.76536
# Poissons Ratio (y) = 0.27222 0.38557
# Poissons Ratio (z) = 0.41409 0.16205
#
# Static dielectric constant tensor:
#      x y z
#    x 1.598180 0.000000 0.000000 
#    y 0.000000 1.608130 0.000000 
#    z 0.000000 0.000000 1.630580 
# 
# From -- ./inp_files/26032.got.cif
#   From: 2010.05.17/outbox.cif.g08.bks.cpg/sg52_14_cif.got.tgz:26032.got - 2010.06.03 12:15:38.
