data_PCOD9408766
_publ_section_title
;
Structure prediction by ZEFSAII (Michael W. Deem and Ramdas Pophale) SiO2 
 PCOD9408766
Probable space group: P N N A
;
_chemical_formula_sum "Si O2"
_cell_formula_units_Z 44
_cell_length_a 8.890493
_cell_length_b 19.781792
_cell_length_c 14.604570
_cell_angle_alpha 90.000000
_cell_angle_beta 90.000000
_cell_angle_gamma 90.000000
_cell_volume 2568.504022
_symmetry_space_group_name_H-M "P N N A"
_symmetry_group_IT_number 52
_symmetry_cell_setting 'orthorhombic'
loop_
_space_group_symop_operation_xyz
x,y,z
1/2-x,-y,z
x,1/2-y,1/2-z
1/2-x,1/2+y,1/2-z
-x,-y,-z
1/2+x,y,-z
-x,1/2+y,1/2+z
1/2+x,1/2-y,1/2+z
loop_
_atom_site_type_symbol
_atom_site_label
_atom_site_fract_x
_atom_site_fract_y
_atom_site_fract_z
Si Si1 0.584873 0.971321 0.642475
Si Si2 0.891308 0.750000 0.750000
Si Si3 0.623615 0.781284 0.414091
Si Si4 0.398141 0.157689 0.243499
Si Si5 0.133013 0.562558 0.939771
Si Si6 0.038450 0.243499 0.896666
O O1 0.576597 0.918156 0.723381
O O2 0.562183 0.936064 0.542309
O O3 0.750000 0.000000 0.642582
O O4 0.478733 0.036107 0.638252
O O5 0.773407 0.813238 0.759149
O O6 0.002363 0.765144 0.665098
O O7 0.673188 0.860586 0.417729
O O8 0.540532 0.762138 0.508322
O O9 0.781712 0.742866 0.403010
O O10 0.473648 0.174866 0.146917
O O11 0.482782 0.201296 0.322200
O O12 0.250000 0.500000 0.942775
#
# Coordination Sequence:
#
# PCOD9408766 Si02
#       6
#     8   4   8   8   8   8
#     4  10  19  32  51  78 108 146 178 217 267 340
#     4  10  22  32  54  76 106 148 192 236 284 312
#     4  12  21  36  51  83 110 148 186 237 272 344
#     4  10  19  37  51  79 106 150 187 225 274 340
#     4  10  21  30  51  78 110 148 174 215 277 333
#     4  10  21  32  55  73 111 149 181 232 280 323
#
# _framework density 17.130593999999999
#
# number of rings (size 3 to 8) (size 9 to 14) (size 15 to 20)
#    0.000    1.818    1.818    5.455    5.091    0.000 
#    0.000    0.000    0.000    0.000    0.000   12.727 
#    0.000    0.000    0.000    2.909    0.000    0.000 
#
# Total GULP energy -244978.073315 kJ/mol
# GULP energy per Si atom -5567.683484 kJ/mol
# Density = 1.709160 g / cm^3
# Si number density = 17.130594 Si / 1000 Ang^3
#
#
#
# Elastic Constant Matrix: (Units=GPa)
#
#
# Indices 1 2 3 4 5 6 
#
# 1 123.6372 25.0474 48.0473 0.0000 0.0000 0.0000
# 2 25.0474 71.6046 44.3210 0.0000 0.0000 0.0000
# 3 48.0473 44.3210 96.7832 0.0000 0.0000 0.0000
# 4 0.0000 0.0000 0.0000 34.8803 0.0000 0.0000
# 5 0.0000 0.0000 0.0000 0.0000 27.4364 0.0000
# 6 0.0000 0.0000 0.0000 0.0000 0.0000 13.4561
#
#
#
# Elastic Compliance Matrix: (Units=1/GPa)
#
#
# Indices 1 2 3 4 5 6 
#
# 1 0.010040 -0.000596 -0.004711 0.000000 0.000000 0.000000
# 2 -0.000596 0.019525 -0.008646 0.000000 0.000000 0.000000
# 3 -0.004711 -0.008646 0.016631 0.000000 0.000000 0.000000
# 4 0.000000 0.000000 0.000000 0.028669 0.000000 0.000000
# 5 0.000000 0.000000 0.000000 0.000000 0.036448 0.000000
# 6 0.000000 0.000000 0.000000 0.000000 0.000000 0.074316
#
#
# Mechanical properties :
#
#
# Convention : Reuss Voigt Hill
#
# Bulk Modulus (GPa) = 54.67454 58.53958 56.60706
# Shear Modulus (GPa) = 22.76543 26.79518 24.78031
#
# Velocity S-wave (km/s) = 3.64941 3.95925 3.80748
# Velocity P-wave (km/s) = 7.05289 7.42614 7.24192
#
# Compressibility (1/GPa) = 0.01829005
#
# Stress axis : x y z
#
# Youngs Moduli (GPa) = 99.60376 51.21529 60.13035
#
# Poissons Ratio (x) = 0.03051 0.28330
# Poissons Ratio (y) = 0.05934 0.51987
# Poissons Ratio (z) = 0.46927 0.44279
#
# Static dielectric constant tensor:
#      x y z
#    x 1.614480 0.000000 0.000000 
#    y 0.000000 1.597080 0.000000 
#    z 0.000000 0.000000 1.585920 
# 
# From -- ./inp_files/16896.got.cif
#   From: 2010.05.17/outbox.cif.g08.bks.cpg/sg52_9_cif.got.tgz:16896.got - 2010.06.03 12:15:38.
