data_PCOD9408378
_publ_section_title
;
Structure prediction by ZEFSAII (Michael W. Deem and Ramdas Pophale) SiO2 
 PCOD9408378
Probable space group: P N N A
;
_chemical_formula_sum "Si O2"
_cell_formula_units_Z 48
_cell_length_a 29.857780
_cell_length_b 16.505747
_cell_length_c 4.916052
_cell_angle_alpha 90.000000
_cell_angle_beta 90.000000
_cell_angle_gamma 90.000000
_cell_volume 2422.753143
_symmetry_space_group_name_H-M "P N N A"
_symmetry_group_IT_number 52
_symmetry_cell_setting 'orthorhombic'
loop_
_space_group_symop_operation_xyz
x,y,z
1/2-x,-y,z
x,1/2-y,1/2-z
1/2-x,1/2+y,1/2-z
-x,-y,-z
1/2+x,y,-z
-x,1/2+y,1/2+z
1/2+x,1/2-y,1/2+z
loop_
_atom_site_type_symbol
_atom_site_label
_atom_site_fract_x
_atom_site_fract_y
_atom_site_fract_z
Si Si1 0.638913 0.969338 0.135087
Si Si2 0.039777 0.562395 0.561996
Si Si3 0.445603 0.174572 0.434928
Si Si4 0.279781 0.924536 0.910595
Si Si5 0.152873 0.860658 0.379892
Si Si6 0.747653 0.326876 0.910996
O O1 0.669635 0.044767 0.058789
O O2 0.585746 0.982603 0.143830
O O3 0.653266 0.940028 0.431881
O O4 0.648815 0.894628 0.926968
O O5 0.049816 0.601025 0.271672
O O6 0.000000 0.500000 0.500000
O O7 0.034699 0.637347 0.782206
O O8 0.463070 0.250000 0.250000
O O9 0.392005 0.186968 0.469834
O O10 0.273507 0.852212 0.695890
O O11 0.250000 0.000000 0.808453
O O12 0.259815 0.899526 0.199518
O O13 0.198954 0.815732 0.441886
O O14 0.728604 0.250000 0.750000
#
# Coordination Sequence:
#
# PCOD9408378 Si02
#       6
#     8   8   8   8   8   8
#     4  10  20  33  56  80 103 145 188 232 269 329
#     4  10  21  37  58  83 113 143 189 231 288 338
#     4  10  20  34  56  84 117 145 175 227 289 353
#     4  12  21  36  56  77 110 150 199 224 272 337
#     4  10  18  33  51  81 112 143 178 219 283 341
#     4  12  23  34  52  80 116 151 188 238 280 325
#
# _framework density 19.812170999999999
#
# number of rings (size 3 to 8) (size 9 to 14) (size 15 to 20)
#    0.000    1.333    3.333    3.500    0.000    0.000 
#    0.000    5.000    0.000    4.000    0.000    0.000 
#    0.000    0.000    0.000    0.000    0.000    0.000 
#
# Total GULP energy -267627.661706 kJ/mol
# GULP energy per Si atom -5575.576286 kJ/mol
# Density = 1.976708 g / cm^3
# Si number density = 19.812171 Si / 1000 Ang^3
#
#
#
# Elastic Constant Matrix: (Units=GPa)
#
#
# Indices 1 2 3 4 5 6 
#
# 1 75.1753 22.5001 7.5763 0.0000 0.0000 0.0000
# 2 22.5001 43.8853 7.8435 0.0000 0.0000 0.0000
# 3 7.5763 7.8435 103.3014 0.0000 0.0000 0.0000
# 4 0.0000 0.0000 0.0000 28.4827 0.0000 0.0000
# 5 0.0000 0.0000 0.0000 0.0000 10.2891 0.0000
# 6 0.0000 0.0000 0.0000 0.0000 0.0000 2.3381
#
#
#
# Elastic Compliance Matrix: (Units=1/GPa)
#
#
# Indices 1 2 3 4 5 6 
#
# 1 0.015744 -0.007974 -0.000549 0.000000 0.000000 0.000000
# 2 -0.007974 0.027139 -0.001476 0.000000 0.000000 0.000000
# 3 -0.000549 -0.001476 0.009833 0.000000 0.000000 0.000000
# 4 0.000000 0.000000 0.000000 0.035109 0.000000 0.000000
# 5 0.000000 0.000000 0.000000 0.000000 0.097190 0.000000
# 6 0.000000 0.000000 0.000000 0.000000 0.000000 0.427701
#
#
# Mechanical properties :
#
#
# Convention : Reuss Voigt Hill
#
# Bulk Modulus (GPa) = 30.56446 33.13353 31.84900
# Shear Modulus (GPa) = 7.76856 20.51813 14.14334
#
# Velocity S-wave (km/s) = 1.98233 3.22162 2.67474
# Velocity P-wave (km/s) = 4.54974 5.53159 5.06452
#
# Compressibility (1/GPa) = 0.03271774
#
# Stress axis : x y z
#
# Youngs Moduli (GPa) = 63.51550 36.84775 101.70095
#
# Poissons Ratio (x) = 0.29382 0.05586
# Poissons Ratio (y) = 0.50647 0.15009
# Poissons Ratio (z) = 0.03489 0.05438
#
# Static dielectric constant tensor:
#      x y z
#    x 1.734860 0.000000 0.000000 
#    y 0.000000 1.744410 0.000000 
#    z 0.000000 0.000000 1.811390 
# 
# From -- ./inp_files/5800.got.cif
#   From: 2010.05.17/outbox.cif.g08.bks.cpg/sg52_3_cif.got.tgz:5800.got - 2010.06.03 12:15:38.
