data_PCOD9408939
_publ_section_title
;
Structure prediction by ZEFSAII (Michael W. Deem and Ramdas Pophale) SiO2 
 PCOD9408939
Probable space group: P N N A
;
_chemical_formula_sum "Si O2"
_cell_formula_units_Z 64
_cell_length_a 15.724879
_cell_length_b 8.913311
_cell_length_c 23.740053
_cell_angle_alpha 90.000000
_cell_angle_beta 90.000000
_cell_angle_gamma 90.000000
_cell_volume 3327.423324
_symmetry_space_group_name_H-M "P N N A"
_symmetry_group_IT_number 52
_symmetry_cell_setting 'orthorhombic'
loop_
_space_group_symop_operation_xyz
x,y,z
1/2-x,-y,z
x,1/2-y,1/2-z
1/2-x,1/2+y,1/2-z
-x,-y,-z
1/2+x,y,-z
-x,1/2+y,1/2+z
1/2+x,1/2-y,1/2+z
loop_
_atom_site_type_symbol
_atom_site_label
_atom_site_fract_x
_atom_site_fract_y
_atom_site_fract_z
Si Si1 0.912270 0.687397 0.006041
Si Si2 0.752842 0.669823 0.330948
Si Si3 0.419314 0.154733 0.697228
Si Si4 0.554957 0.910730 0.428431
Si Si5 0.336197 0.550361 0.446390
Si Si6 0.844418 0.374308 0.437729
Si Si7 0.062400 0.301023 0.807638
Si Si8 0.490900 0.593564 0.592304
O O1 0.899395 0.570002 0.057813
O O2 0.969918 0.817929 0.034342
O O3 0.842556 0.779088 0.970241
O O4 0.965848 0.595111 0.960266
O O5 0.750000 0.500000 0.307783
O O6 0.674637 0.773535 0.311296
O O7 0.736976 0.654946 0.398324
O O8 0.842623 0.737719 0.315943
O O9 0.456026 0.250000 0.750000
O O10 0.459773 0.151273 0.634643
O O11 0.422234 0.976679 0.704624
O O12 0.616976 0.785789 0.452538
O O13 0.250000 0.500000 0.415237
O O14 0.333100 0.455218 0.503836
O O15 0.421949 0.499174 0.414191
O O16 0.912610 0.474951 0.402057
O O17 0.020033 0.250000 0.750000
O O18 0.012016 0.221098 0.859135
#
# Coordination Sequence:
#
# PCOD9408939 Si02
#       8
#     8   8   8   8   8   8   8   8
#     4  10  19  36  59  85 115 156 199 250 309 368
#     4  11  21  36  56  80 118 161 200 244 294 352
#     4  11  24  37  53  82 118 161 202 243 297 360
#     4  10  19  34  60  81 115 159 197 252 300 359
#     4  11  22  35  58  89 121 156 208 257 314 378
#     4  10  19  34  57  83 116 163 198 242 300 368
#     4  12  25  39  57  83 119 163 207 251 293 368
#     4  11  20  39  58  83 118 159 208 253 304 369
#
# _framework density 19.234102
#
# number of rings (size 3 to 8) (size 9 to 14) (size 15 to 20)
#    0.000    1.250    5.000    2.625    3.500    0.000 
#    0.000    0.625    0.000    0.000    0.000    2.625 
#    0.000    0.000    0.000    0.000    0.000    0.000 
#
# Total GULP energy -356296.482568 kJ/mol
# GULP energy per Si atom -5567.132540 kJ/mol
# Density = 1.919032 g / cm^3
# Si number density = 19.234102 Si / 1000 Ang^3
#
#
#
# Elastic Constant Matrix: (Units=GPa)
#
#
# Indices 1 2 3 4 5 6 
#
# 1 57.4159 19.4596 18.0650 0.0000 0.0000 0.0000
# 2 19.4596 133.2438 14.6251 0.0000 0.0000 0.0000
# 3 18.0650 14.6251 83.7011 0.0000 0.0000 0.0000
# 4 0.0000 0.0000 0.0000 32.2853 0.0000 0.0000
# 5 0.0000 0.0000 0.0000 0.0000 14.7907 0.0000
# 6 0.0000 0.0000 0.0000 0.0000 0.0000 20.9771
#
#
#
# Elastic Compliance Matrix: (Units=1/GPa)
#
#
# Indices 1 2 3 4 5 6 
#
# 1 0.019424 -0.002423 -0.003769 0.000000 0.000000 0.000000
# 2 -0.002423 0.007954 -0.000867 0.000000 0.000000 0.000000
# 3 -0.003769 -0.000867 0.012912 0.000000 0.000000 0.000000
# 4 0.000000 0.000000 0.000000 0.030974 0.000000 0.000000
# 5 0.000000 0.000000 0.000000 0.000000 0.067610 0.000000
# 6 0.000000 0.000000 0.000000 0.000000 0.000000 0.047671
#
#
# Mechanical properties :
#
#
# Convention : Reuss Voigt Hill
#
# Bulk Modulus (GPa) = 38.20796 42.07337 40.14066
# Shear Modulus (GPa) = 23.87928 28.42469 26.15198
#
# Velocity S-wave (km/s) = 3.52733 3.84842 3.69137
# Velocity P-wave (km/s) = 6.04129 6.45515 6.25165
#
# Compressibility (1/GPa) = 0.02617255
#
# Stress axis : x y z
#
# Youngs Moduli (GPa) = 51.48314 125.72188 77.44639
#
# Poissons Ratio (x) = 0.30463 0.29188
# Poissons Ratio (y) = 0.12475 0.06713
# Poissons Ratio (z) = 0.19403 0.10898
#
# Static dielectric constant tensor:
#      x y z
#    x 1.716740 0.000000 0.000000 
#    y 0.000000 1.773700 0.000000 
#    z 0.000000 0.000000 1.774750 
# 
# From -- ./inp_files/40910.got.cif
#   From: 2010.05.17/outbox.cif.g08.bks.cpg/sg52_21_cif.got.tgz:40910.got - 2010.06.03 12:15:38.
