data_PCOD9408748
_publ_section_title
;
Structure prediction by ZEFSAII (Michael W. Deem and Ramdas Pophale) SiO2 
 PCOD9408748
Probable space group: P N N A
;
_chemical_formula_sum "Si O2"
_cell_formula_units_Z 64
_cell_length_a 31.016330
_cell_length_b 7.889875
_cell_length_c 12.075108
_cell_angle_alpha 90.000000
_cell_angle_beta 90.000000
_cell_angle_gamma 90.000000
_cell_volume 2954.959652
_symmetry_space_group_name_H-M "P N N A"
_symmetry_group_IT_number 52
_symmetry_cell_setting 'orthorhombic'
loop_
_space_group_symop_operation_xyz
x,y,z
1/2-x,-y,z
x,1/2-y,1/2-z
1/2-x,1/2+y,1/2-z
-x,-y,-z
1/2+x,y,-z
-x,1/2+y,1/2+z
1/2+x,1/2-y,1/2+z
loop_
_atom_site_type_symbol
_atom_site_label
_atom_site_fract_x
_atom_site_fract_y
_atom_site_fract_z
Si Si1 0.604982 0.909147 0.010138
Si Si2 0.393742 0.599818 0.174524
Si Si3 0.040080 0.567689 0.304876
Si Si4 0.294903 0.451797 0.985142
Si Si5 0.203503 0.949338 0.032942
Si Si6 0.444947 0.451334 0.728257
Si Si7 0.189849 0.555813 0.226825
Si Si8 0.888447 0.006817 0.438367
O O1 0.587717 0.970216 0.127433
O O2 0.605808 0.702120 0.018971
O O3 0.570459 0.950439 0.913162
O O4 0.653263 0.983687 0.997613
O O5 0.376085 0.750000 0.250000
O O6 0.441233 0.562877 0.215800
O O7 0.361770 0.447253 0.209008
O O8 0.394852 0.615142 0.043412
O O9 0.046169 0.750000 0.250000
O O10 0.989508 0.532853 0.312113
O O11 0.250000 0.500000 0.931074
O O12 0.296350 0.253406 0.013692
O O13 0.295806 0.527938 0.111106
O O14 0.337049 0.502618 0.916097
O O15 0.204137 0.024965 0.158120
O O16 0.250000 0.000000 0.981610
O O17 0.451693 0.250000 0.750000
O O18 0.421612 0.521726 0.838882
O O19 0.202963 0.750000 0.250000
#
# Coordination Sequence:
#
# PCOD9408748 Si02
#       8
#     8   8   8   8   8   8   8   8
#     4  10  20  41  65  84 120 161 199 242 306 364
#     4  11  21  34  57  89 118 154 193 243 296 354
#     4  12  22  40  63  88 120 155 193 244 311 361
#     4   9  18  32  53  80 115 158 197 234 294 355
#     4  10  19  31  55  85 115 153 195 244 292 350
#     4  10  23  43  64  88 114 157 209 251 292 359
#     4   9  17  32  51  76 117 154 191 238 300 353
#     4   9  20  40  61  84 121 161 197 246 303 358
#
# _framework density 21.658501999999999
#
# number of rings (size 3 to 8) (size 9 to 14) (size 15 to 20)
#    0.000    2.000    2.500    2.250    0.000    2.500 
#    4.500    1.250    0.000    0.000    0.000    0.000 
#    0.000    0.000    0.000    0.000    0.000    0.000 
#
# Total GULP energy -356453.386267 kJ/mol
# GULP energy per Si atom -5569.584160 kJ/mol
# Density = 2.160921 g / cm^3
# Si number density = 21.658502 Si / 1000 Ang^3
#
#
#
# Elastic Constant Matrix: (Units=GPa)
#
#
# Indices 1 2 3 4 5 6 
#
# 1 178.8877 19.4428 63.7523 0.0000 0.0000 0.0000
# 2 19.4428 27.6843 22.7869 0.0000 0.0000 0.0000
# 3 63.7523 22.7869 92.1076 0.0000 0.0000 0.0000
# 4 0.0000 0.0000 0.0000 13.8969 0.0000 0.0000
# 5 0.0000 0.0000 0.0000 0.0000 18.3140 0.0000
# 6 0.0000 0.0000 0.0000 0.0000 0.0000 28.1307
#
#
#
# Elastic Compliance Matrix: (Units=1/GPa)
#
#
# Indices 1 2 3 4 5 6 
#
# 1 0.007454 -0.001241 -0.004852 0.000000 0.000000 0.000000
# 2 -0.001241 0.045564 -0.010413 0.000000 0.000000 0.000000
# 3 -0.004852 -0.010413 0.016792 0.000000 0.000000 0.000000
# 4 0.000000 0.000000 0.000000 0.071959 0.000000 0.000000
# 5 0.000000 0.000000 0.000000 0.000000 0.054603 0.000000
# 6 0.000000 0.000000 0.000000 0.000000 0.000000 0.035548
#
#
# Mechanical properties :
#
#
# Convention : Reuss Voigt Hill
#
# Bulk Modulus (GPa) = 27.17644 56.73816 41.95730
# Shear Modulus (GPa) = 18.03753 24.91483 21.47618
#
# Velocity S-wave (km/s) = 2.88898 3.39536 3.15236
# Velocity P-wave (km/s) = 4.86860 6.45173 5.71525
#
# Compressibility (1/GPa) = 0.03679658
#
# Stress axis : x y z
#
# Youngs Moduli (GPa) = 134.15037 21.94697 59.55333
#
# Poissons Ratio (x) = 0.02724 0.28898
# Poissons Ratio (y) = 0.16650 0.62015
# Poissons Ratio (z) = 0.65096 0.22854
#
# Static dielectric constant tensor:
#      x y z
#    x 1.829400 0.000000 0.000000 
#    y 0.000000 1.868820 0.000000 
#    z 0.000000 0.000000 1.813160 
# 
# From -- ./inp_files/23209.got.cif
#   From: 2010.05.17/outbox.cif.g08.bks.cpg/sg52_12_cif.got.tgz:23209.got - 2010.06.03 12:15:38.
