data_PCOD9408414
_publ_section_title
;
Structure prediction by ZEFSAII (Michael W. Deem and Ramdas Pophale) SiO2 
 PCOD9408414
Probable space group: P N N A
;
_chemical_formula_sum "Si O2"
_cell_formula_units_Z 60
_cell_length_a 17.161126
_cell_length_b 19.504769
_cell_length_c 8.914508
_cell_angle_alpha 90.000000
_cell_angle_beta 90.000000
_cell_angle_gamma 90.000000
_cell_volume 2983.897979
_symmetry_space_group_name_H-M "P N N A"
_symmetry_group_IT_number 52
_symmetry_cell_setting 'orthorhombic'
loop_
_space_group_symop_operation_xyz
x,y,z
1/2-x,-y,z
x,1/2-y,1/2-z
1/2-x,1/2+y,1/2-z
-x,-y,-z
1/2+x,y,-z
-x,1/2+y,1/2+z
1/2+x,1/2-y,1/2+z
loop_
_atom_site_type_symbol
_atom_site_label
_atom_site_fract_x
_atom_site_fract_y
_atom_site_fract_z
Si Si1 0.899710 0.364852 0.007741
Si Si2 0.339255 0.804834 0.861687
Si Si3 0.109509 0.750000 0.750000
Si Si4 0.945172 0.619223 0.147621
Si Si5 0.158238 0.513611 0.785100
Si Si6 0.690020 0.624575 0.438682
Si Si7 0.884654 0.795239 0.625560
Si Si8 0.219072 0.829334 0.266703
O O1 0.819862 0.351106 0.920766
O O2 0.962998 0.382698 0.879483
O O3 0.922220 0.300346 0.114884
O O4 0.881312 0.429618 0.109542
O O5 0.299897 0.750000 0.750000
O O6 0.417099 0.828455 0.776819
O O7 0.280561 0.866708 0.889799
O O8 0.354076 0.762778 0.011033
O O9 0.149750 0.689547 0.646089
O O10 0.896914 0.551798 0.190730
O O11 0.919281 0.648199 0.984618
O O12 0.250000 0.500000 0.822924
O O13 0.159210 0.552458 0.623965
O O14 0.690038 0.632729 0.617600
O O15 0.930438 0.750000 0.750000
O O16 0.811956 0.829952 0.710310
O O17 0.196745 0.750000 0.250000
#
# Coordination Sequence:
#
# PCOD9408414 Si02
#       8
#     8   8   4   8   8   8   8   8
#     4  11  24  40  62  93 131 168 215 262 338 390
#     4  10  18  33  59  89 119 158 204 267 318 376
#     4  10  20  36  62  90 118 164 202 272 322 388
#     4  11  24  40  59  89 135 171 211 257 328 404
#     4  11  23  41  66  87 121 176 227 258 310 394
#     4  11  19  35  63  90 118 155 219 264 319 371
#     4  10  20  36  63  95 125 158 215 276 333 372
#     4  11  20  36  62  94 124 153 207 279 323 369
#
# _framework density 20.107925000000002
#
# number of rings (size 3 to 8) (size 9 to 14) (size 15 to 20)
#    0.000    1.333    6.000    1.200    4.667    1.600 
#    0.000    4.000    0.000    0.000    0.000    0.000 
#    0.000    0.000    0.000    0.000    0.000    0.000 
#
# Total GULP energy -334015.867451 kJ/mol
# GULP energy per Si atom -5566.931124 kJ/mol
# Density = 2.006216 g / cm^3
# Si number density = 20.107925 Si / 1000 Ang^3
#
#
#
# Elastic Constant Matrix: (Units=GPa)
#
#
# Indices 1 2 3 4 5 6 
#
# 1 29.9559 17.3359 -2.7682 0.0000 0.0000 0.0000
# 2 17.3359 69.9306 -0.3403 0.0000 0.0000 0.0000
# 3 -2.7682 -0.3403 73.2722 0.0000 0.0000 0.0000
# 4 0.0000 0.0000 0.0000 28.2631 0.0000 0.0000
# 5 0.0000 0.0000 0.0000 0.0000 24.3257 0.0000
# 6 0.0000 0.0000 0.0000 0.0000 0.0000 7.1655
#
#
#
# Elastic Compliance Matrix: (Units=1/GPa)
#
#
# Indices 1 2 3 4 5 6 
#
# 1 0.039124 -0.009692 0.001433 0.000000 0.000000 0.000000
# 2 -0.009692 0.016701 -0.000289 0.000000 0.000000 0.000000
# 3 0.001433 -0.000289 0.013701 0.000000 0.000000 0.000000
# 4 0.000000 0.000000 0.000000 0.035382 0.000000 0.000000
# 5 0.000000 0.000000 0.000000 0.000000 0.041109 0.000000
# 6 0.000000 0.000000 0.000000 0.000000 0.000000 0.139557
#
#
# Mechanical properties :
#
#
# Convention : Reuss Voigt Hill
#
# Bulk Modulus (GPa) = 19.07282 22.40148 20.73715
# Shear Modulus (GPa) = 15.61796 22.54629 19.08213
#
# Velocity S-wave (km/s) = 2.78997 3.35216 3.08390
# Velocity P-wave (km/s) = 4.45919 5.11346 4.79749
#
# Compressibility (1/GPa) = 0.05243062
#
# Stress axis : x y z
#
# Youngs Moduli (GPa) = 25.56000 59.87626 72.98981
#
# Poissons Ratio (x) = 0.58031 -0.10460
# Poissons Ratio (y) = 0.24772 0.02106
# Poissons Ratio (z) = -0.03663 0.01728
#
# Static dielectric constant tensor:
#      x y z
#    x 1.763370 0.000000 0.000000 
#    y 0.000000 1.852120 0.000000 
#    z 0.000000 0.000000 1.715900 
# 
# From -- ./inp_files/12453.got.cif
#   From: 2010.05.17/outbox.cif.g08.bks.cpg/sg52_7_cif.got.tgz:12453.got - 2010.06.03 12:15:38.
