data_PCOD9408118
_publ_section_title
;
Structure prediction by ZEFSAII (Michael W. Deem and Ramdas Pophale) SiO2 
 PCOD9408118
Probable space group: P N N A
;
_chemical_formula_sum "Si O2"
_cell_formula_units_Z 48
_cell_length_a 10.498044
_cell_length_b 13.890125
_cell_length_c 16.856029
_cell_angle_alpha 90.000000
_cell_angle_beta 90.000000
_cell_angle_gamma 90.000000
_cell_volume 2457.931710
_symmetry_space_group_name_H-M "P N N A"
_symmetry_group_IT_number 52
_symmetry_cell_setting 'orthorhombic'
loop_
_space_group_symop_operation_xyz
x,y,z
1/2-x,-y,z
x,1/2-y,1/2-z
1/2-x,1/2+y,1/2-z
-x,-y,-z
1/2+x,y,-z
-x,1/2+y,1/2+z
1/2+x,1/2-y,1/2+z
loop_
_atom_site_type_symbol
_atom_site_label
_atom_site_fract_x
_atom_site_fract_y
_atom_site_fract_z
Si Si1 0.400391 0.360434 0.768510
Si Si2 0.485501 0.322943 0.319942
Si Si3 0.895673 0.479642 0.797187
Si Si4 0.224968 0.683566 0.933681
Si Si5 0.253668 0.603291 0.611709
Si Si6 0.523337 0.655293 0.935094
O O1 0.434355 0.250000 0.750000
O O2 0.524128 0.424805 0.781101
O O3 0.308182 0.355411 0.845454
O O4 0.328045 0.402320 0.692316
O O5 0.531482 0.250000 0.250000
O O6 0.402987 0.403630 0.275962
O O7 0.604067 0.374689 0.359949
O O8 0.432077 0.251711 0.387107
O O9 0.750000 0.500000 0.815099
O O10 0.961081 0.429343 0.872143
O O11 0.209355 0.800054 0.932509
O O12 0.127096 0.335841 0.954889
O O13 0.119084 0.641696 0.992336
O O14 0.250000 0.500000 0.569516
#
# Coordination Sequence:
#
# PCOD9408118 Si02
#       6
#     8   8   8   8   8   8
#     4  10  21  37  62  90 116 151 206 254 292 351
#     4   9  18  37  61  84 115 155 195 245 300 354
#     4  11  23  38  60  93 118 157 198 250 308 346
#     4  10  23  40  60  89 121 165 195 247 301 355
#     4  10  17  35  65  88 112 149 209 254 287 350
#     4  10  23  42  61  85 126 158 201 239 302 363
#
# _framework density 19.528614999999999
#
# number of rings (size 3 to 8) (size 9 to 14) (size 15 to 20)
#    0.000    2.000    1.667    3.500    2.333    2.667 
#    3.000    4.167    0.000    0.000    0.000    0.000 
#    0.000    0.000    0.000    0.000    0.000    0.000 
#
# Total GULP energy -267836.480142 kJ/mol
# GULP energy per Si atom -5579.926670 kJ/mol
# Density = 1.948417 g / cm^3
# Si number density = 19.528615 Si / 1000 Ang^3
#
#
#
# Elastic Constant Matrix: (Units=GPa)
#
#
# Indices 1 2 3 4 5 6 
#
# 1 87.0391 27.1742 29.9237 0.0000 0.0000 0.0000
# 2 27.1742 67.1455 -1.3584 0.0000 0.0000 0.0000
# 3 29.9237 -1.3584 53.9792 0.0000 0.0000 0.0000
# 4 0.0000 0.0000 0.0000 -2.3753 0.0000 0.0000
# 5 0.0000 0.0000 0.0000 0.0000 20.0835 0.0000
# 6 0.0000 0.0000 0.0000 0.0000 0.0000 26.9225
#
#
#
# Elastic Compliance Matrix: (Units=1/GPa)
#
#
# Indices 1 2 3 4 5 6 
#
# 1 0.016998 -0.007074 -0.009601 0.000000 0.000000 0.000000
# 2 -0.007074 0.017844 0.004370 0.000000 0.000000 0.000000
# 3 -0.009601 0.004370 0.023958 0.000000 0.000000 0.000000
# 4 0.000000 0.000000 0.000000 -0.420994 0.000000 0.000000
# 5 0.000000 0.000000 0.000000 0.000000 0.049792 0.000000
# 6 0.000000 0.000000 0.000000 0.000000 0.000000 0.037144
#
#
# Mechanical properties :
#
#
# Convention : Reuss Voigt Hill
#
# Bulk Modulus (GPa) = 29.24679 35.51589 32.38134
# Shear Modulus (GPa) = -20.89849 19.08774 -0.90537
#
# Velocity S-wave (km/s) = -3.27486 3.12977 -0.68163
# Velocity P-wave (km/s) = 0.84219 5.59345 3.99975
#
# Compressibility (1/GPa) = 0.03419179
#
# Stress axis : x y z
#
# Youngs Moduli (GPa) = 58.82923 56.04070 41.73958
#
# Poissons Ratio (x) = 0.39641 0.40075
# Poissons Ratio (y) = 0.41613 -0.18242
# Poissons Ratio (z) = 0.56483 -0.24492
#
# Static dielectric constant tensor:
#      x y z
#    x 1.640410 0.000000 0.000000 
#    y 0.000000 1.758990 0.000000 
#    z 0.000000 0.000000 1.696510 
# 
# From -- ./inp_files/32224.got.cif
#   From: 2010.05.17/outbox.cif.g08.bks.cpg/sg52_17_cif.got.tgz:32224.got - 2010.06.03 12:15:38.
