data_PCOD9408563
_publ_section_title
;
Structure prediction by ZEFSAII (Michael W. Deem and Ramdas Pophale) SiO2 
 PCOD9408563
Probable space group: P N N A
;
_chemical_formula_sum "Si O2"
_cell_formula_units_Z 60
_cell_length_a 9.770611
_cell_length_b 10.433193
_cell_length_c 31.418951
_cell_angle_alpha 90.000000
_cell_angle_beta 90.000000
_cell_angle_gamma 90.000000
_cell_volume 3202.806087
_symmetry_space_group_name_H-M "P N N A"
_symmetry_group_IT_number 52
_symmetry_cell_setting 'orthorhombic'
loop_
_space_group_symop_operation_xyz
x,y,z
1/2-x,-y,z
x,1/2-y,1/2-z
1/2-x,1/2+y,1/2-z
-x,-y,-z
1/2+x,y,-z
-x,1/2+y,1/2+z
1/2+x,1/2-y,1/2+z
loop_
_atom_site_type_symbol
_atom_site_label
_atom_site_fract_x
_atom_site_fract_y
_atom_site_fract_z
Si Si1 0.750000 0.500000 0.225443
Si Si2 0.757952 0.793094 0.344353
Si Si3 0.262331 0.345894 0.526507
Si Si4 0.473122 0.761001 0.589103
Si Si5 0.908259 0.024025 0.860109
Si Si6 0.438183 0.866937 0.784012
Si Si7 0.513942 0.728975 0.405346
Si Si8 0.248020 0.647898 0.051299
O O1 0.726918 0.617163 0.194685
O O2 0.620651 0.477526 0.254777
O O3 0.885296 0.831506 0.374410
O O4 0.820073 0.669840 0.319049
O O5 0.628983 0.792964 0.375517
O O6 0.250000 0.500000 0.519517
O O7 0.135321 0.290531 0.554322
O O8 0.401809 0.318575 0.552981
O O9 0.260628 0.258676 0.484514
O O10 0.539187 0.634022 0.608749
O O11 0.601188 0.843402 0.574340
O O12 0.941998 0.077754 0.813130
O O13 0.750000 0.000000 0.864614
O O14 0.975174 0.893029 0.876394
O O15 0.464974 0.750000 0.750000
O O16 0.381198 0.811651 0.420087
O O17 0.250000 0.500000 0.035187
#
# Coordination Sequence:
#
# PCOD9408563 Si02
#       8
#     4   8   8   8   8   8   8   8
#     4  10  18  36  62  86 118 162 200 252 302 378
#     4   9  21  36  62  92 116 158 207 260 306 367
#     4  11  24  41  69  96 122 161 223 277 319 372
#     4  10  22  41  63  90 125 161 209 263 318 371
#     4  11  20  38  65  93 124 165 200 260 318 374
#     4   9  19  36  60  92 127 153 201 252 319 374
#     4  11  23  40  64  94 121 163 221 263 313 376
#     4  12  28  43  59  89 136 176 209 265 332 391
#
# _framework density 18.733573
#
# number of rings (size 3 to 8) (size 9 to 14) (size 15 to 20)
#    0.000    1.600    2.667    1.600    3.733    3.200 
#    2.400    1.333    0.000    0.000    0.000    0.000 
#    0.000    0.000    0.000    0.000    0.000    0.000 
#
# Total GULP energy -334104.537510 kJ/mol
# GULP energy per Si atom -5568.408959 kJ/mol
# Density = 1.869093 g / cm^3
# Si number density = 18.733573 Si / 1000 Ang^3
#
#
#
# Elastic Constant Matrix: (Units=GPa)
#
#
# Indices 1 2 3 4 5 6 
#
# 1 107.5390 14.7114 32.9221 0.0000 0.0000 0.0000
# 2 14.7114 46.6363 5.7649 0.0000 0.0000 0.0000
# 3 32.9221 5.7649 79.3834 0.0000 0.0000 0.0000
# 4 0.0000 0.0000 0.0000 31.0244 0.0000 0.0000
# 5 0.0000 0.0000 0.0000 0.0000 -106.1428 0.0000
# 6 0.0000 0.0000 0.0000 0.0000 0.0000 11.4205
#
#
#
# Elastic Compliance Matrix: (Units=1/GPa)
#
#
# Indices 1 2 3 4 5 6 
#
# 1 0.011037 -0.002942 -0.004364 0.000000 0.000000 0.000000
# 2 -0.002942 0.022421 -0.000408 0.000000 0.000000 0.000000
# 3 -0.004364 -0.000408 0.014436 0.000000 0.000000 0.000000
# 4 0.000000 0.000000 0.000000 0.032233 0.000000 0.000000
# 5 0.000000 0.000000 0.000000 0.000000 -0.009421 0.000000
# 6 0.000000 0.000000 0.000000 0.000000 0.000000 0.087562
#
#
# Mechanical properties :
#
#
# Convention : Reuss Voigt Hill
#
# Bulk Modulus (GPa) = 30.80068 37.81725 34.30896
# Shear Modulus (GPa) = 27.09749 -0.72889 13.18430
#
# Velocity S-wave (km/s) = 3.80737 -0.62444 2.65576
# Velocity P-wave (km/s) = 5.98375 4.43969 5.26859
#
# Compressibility (1/GPa) = 0.03246682
#
# Stress axis : x y z
#
# Youngs Moduli (GPa) = 90.60107 44.60080 69.26892
#
# Poissons Ratio (x) = 0.13123 0.30227
# Poissons Ratio (y) = 0.26658 0.02826
# Poissons Ratio (z) = 0.39536 0.01820
#
# Static dielectric constant tensor:
#      x y z
#    x 1.690920 0.000000 0.000000 
#    y 0.000000 1.806290 0.000000 
#    z 0.000000 0.000000 1.665930 
# 
# From -- ./inp_files/44560.got.cif
#   From: 2010.05.17/outbox.cif.g08.bks.cpg/sg52_23_cif.got.tgz:44560.got - 2010.06.03 12:15:38.
