data_PCOD9408646
_publ_section_title
;
Structure prediction by ZEFSAII (Michael W. Deem and Ramdas Pophale) SiO2 
 PCOD9408646
Probable space group: P N N A
;
_chemical_formula_sum "Si O2"
_cell_formula_units_Z 32
_cell_length_a 15.186052
_cell_length_b 7.470649
_cell_length_c 11.603470
_cell_angle_alpha 90.000000
_cell_angle_beta 90.000000
_cell_angle_gamma 90.000000
_cell_volume 1316.409775
_symmetry_space_group_name_H-M "P N N A"
_symmetry_group_IT_number 52
_symmetry_cell_setting 'orthorhombic'
loop_
_space_group_symop_operation_xyz
x,y,z
1/2-x,-y,z
x,1/2-y,1/2-z
1/2-x,1/2+y,1/2-z
-x,-y,-z
1/2+x,y,-z
-x,1/2+y,1/2+z
1/2+x,1/2-y,1/2+z
loop_
_atom_site_type_symbol
_atom_site_label
_atom_site_fract_x
_atom_site_fract_y
_atom_site_fract_z
Si Si1 0.848215 0.932502 0.324980
Si Si2 0.582231 0.306300 0.495978
Si Si3 0.657629 0.750000 0.750000
Si Si4 0.750000 0.500000 0.570071
Si Si5 0.514512 0.478849 0.700966
O O1 0.847989 0.750000 0.250000
O O2 0.883271 0.881445 0.450890
O O3 0.924004 0.048247 0.266749
O O4 0.750000 0.000000 0.327256
O O5 0.666872 0.438323 0.495615
O O6 0.548992 0.313027 0.626478
O O7 0.511089 0.380928 0.404472
O O8 0.718685 0.667531 0.649196
O O9 0.590913 0.582201 0.770256
#
# Coordination Sequence:
#
# PCOD9408646 Si02
#       5
#     8   8   4   4   8
#     4  10  20  35  60  94 131 169 210 271 319 385
#     4   9  18  34  60  93 118 167 216 253 319 389
#     4  10  18  40  60  88 120 164 210 262 334 378
#     4  10  22  34  68  88 120 164 214 266 314 398
#     4   9  17  34  63  88 126 169 209 257 328 384
#
# _framework density 24.308539
#
# number of rings (size 3 to 8) (size 9 to 14) (size 15 to 20)
#    0.000    2.500    3.750    0.000    7.000    0.000 
#    2.250    0.000   11.000    4.500    0.000    0.000 
#    0.000    0.000    0.000    0.000    0.000    0.000 
#
# Total GULP energy -178753.975082 kJ/mol
# GULP energy per Si atom -5586.061721 kJ/mol
# Density = 2.425321 g / cm^3
# Si number density = 24.308539 Si / 1000 Ang^3
#
#
#
# Elastic Constant Matrix: (Units=GPa)
#
#
# Indices 1 2 3 4 5 6 
#
# 1 144.4846 39.5400 45.8737 0.0000 0.0000 0.0000
# 2 39.5400 78.2924 43.5536 0.0000 0.0000 0.0000
# 3 45.8737 43.5536 96.0718 0.0000 0.0000 0.0000
# 4 0.0000 0.0000 0.0000 36.8320 0.0000 0.0000
# 5 0.0000 0.0000 0.0000 0.0000 18.7619 0.0000
# 6 0.0000 0.0000 0.0000 0.0000 0.0000 51.4406
#
#
#
# Elastic Compliance Matrix: (Units=1/GPa)
#
#
# Indices 1 2 3 4 5 6 
#
# 1 0.008578 -0.002746 -0.002851 0.000000 0.000000 0.000000
# 2 -0.002746 0.017959 -0.006830 0.000000 0.000000 0.000000
# 3 -0.002851 -0.006830 0.014867 0.000000 0.000000 0.000000
# 4 0.000000 0.000000 0.000000 0.027150 0.000000 0.000000
# 5 0.000000 0.000000 0.000000 0.000000 0.053300 0.000000
# 6 0.000000 0.000000 0.000000 0.000000 0.000000 0.019440
#
#
# Mechanical properties :
#
#
# Convention : Reuss Voigt Hill
#
# Bulk Modulus (GPa) = 60.42735 64.08706 62.25720
# Shear Modulus (GPa) = 29.12651 34.06566 31.59609
#
# Velocity S-wave (km/s) = 3.46526 3.74757 3.60918
# Velocity P-wave (km/s) = 6.39712 6.71915 6.56011
#
# Compressibility (1/GPa) = 0.01654880
#
# Stress axis : x y z
#
# Youngs Moduli (GPa) = 116.57966 55.68161 67.26424
#
# Poissons Ratio (x) = 0.15291 0.19177
# Poissons Ratio (y) = 0.32014 0.45945
# Poissons Ratio (z) = 0.33236 0.38033
#
# Static dielectric constant tensor:
#      x y z
#    x 1.914940 0.000000 0.000000 
#    y 0.000000 2.021920 0.000000 
#    z 0.000000 0.000000 2.003030 
# 
# From -- ./inp_files/18944.got.cif
#   From: 2010.05.17/outbox.cif.g08.bks.cpg/sg52_10_cif.got.tgz:18944.got - 2010.06.03 12:15:38.
