data_PCOD9408226
_publ_section_title
;
Structure prediction by ZEFSAII (Michael W. Deem and Ramdas Pophale) SiO2 
 PCOD9408226
Probable space group: P N N A
;
_chemical_formula_sum "Si O2"
_cell_formula_units_Z 44
_cell_length_a 8.668004
_cell_length_b 18.672295
_cell_length_c 15.336914
_cell_angle_alpha 90.000000
_cell_angle_beta 90.000000
_cell_angle_gamma 90.000000
_cell_volume 2482.302962
_symmetry_space_group_name_H-M "P N N A"
_symmetry_group_IT_number 52
_symmetry_cell_setting 'orthorhombic'
loop_
_space_group_symop_operation_xyz
x,y,z
1/2-x,-y,z
x,1/2-y,1/2-z
1/2-x,1/2+y,1/2-z
-x,-y,-z
1/2+x,y,-z
-x,1/2+y,1/2+z
1/2+x,1/2-y,1/2+z
loop_
_atom_site_type_symbol
_atom_site_label
_atom_site_fract_x
_atom_site_fract_y
_atom_site_fract_z
Si Si1 0.750000 0.500000 0.963160
Si Si2 0.543195 0.524899 0.117019
Si Si3 0.059136 0.352897 0.888632
Si Si4 0.660536 0.852769 0.274406
Si Si5 0.234374 0.723542 0.038862
Si Si6 0.467099 0.225489 0.886157
O O1 0.633243 0.456326 0.903148
O O2 0.642366 0.543568 0.030621
O O3 0.547950 0.438949 0.119929
O O4 0.616784 0.567241 0.196230
O O5 0.164369 0.334130 0.803870
O O6 0.889361 0.319613 0.902091
O O7 0.158692 0.324872 0.972798
O O8 0.606300 0.833056 0.178119
O O9 0.561451 0.801064 0.337198
O O10 0.352367 0.772971 0.092625
O O11 0.129439 0.770972 0.974671
#
# Coordination Sequence:
#
# PCOD9408226 Si02
#       6
#     4   8   8   8   8   8
#     4  10  22  26  46  76 114 142 168 190 252 332
#     4  11  20  29  47  77 109 142 167 204 260 315
#     4  10  18  30  52  80 104 136 171 213 263 317
#     4  10  20  33  47  74 114 138 167 214 269 312
#     4   9  19  33  55  75 102 140 184 211 252 315
#     4   9  20  35  50  70 102 145 176 220 253 304
#
# _framework density 17.725476
#
# number of rings (size 3 to 8) (size 9 to 14) (size 15 to 20)
#    0.000    2.182    1.818    1.091   15.273    0.000 
#    0.000   10.909    0.000    0.000    0.000    5.091 
#    0.000    0.000    0.000    0.000    0.000    0.000 
#
# Total GULP energy -244985.324769 kJ/mol
# GULP energy per Si atom -5567.848290 kJ/mol
# Density = 1.768513 g / cm^3
# Si number density = 17.725476 Si / 1000 Ang^3
#
#
#
# Elastic Constant Matrix: (Units=GPa)
#
#
# Indices 1 2 3 4 5 6 
#
# 1 144.7198 32.6012 48.3284 0.0000 0.0000 0.0000
# 2 32.6012 55.9581 39.8164 0.0000 0.0000 0.0000
# 3 48.3284 39.8164 71.1625 0.0000 0.0000 0.0000
# 4 0.0000 0.0000 0.0000 25.3878 0.0000 0.0000
# 5 0.0000 0.0000 0.0000 0.0000 14.4021 0.0000
# 6 0.0000 0.0000 0.0000 0.0000 0.0000 19.1913
#
#
#
# Elastic Compliance Matrix: (Units=1/GPa)
#
#
# Indices 1 2 3 4 5 6 
#
# 1 0.009011 -0.001488 -0.005287 0.000000 0.000000 0.000000
# 2 -0.001488 0.029937 -0.015740 0.000000 0.000000 0.000000
# 3 -0.005287 -0.015740 0.026449 0.000000 0.000000 0.000000
# 4 0.000000 0.000000 0.000000 0.039389 0.000000 0.000000
# 5 0.000000 0.000000 0.000000 0.000000 0.069434 0.000000
# 6 0.000000 0.000000 0.000000 0.000000 0.000000 0.052107
#
#
# Mechanical properties :
#
#
# Convention : Reuss Voigt Hill
#
# Bulk Modulus (GPa) = 49.09646 57.03693 53.06670
# Shear Modulus (GPa) = 17.97624 21.86919 19.92271
#
# Velocity S-wave (km/s) = 3.18802 3.51632 3.35619
# Velocity P-wave (km/s) = 6.42726 6.98096 6.70982
#
# Compressibility (1/GPa) = 0.02036807
#
# Stress axis : x y z
#
# Youngs Moduli (GPa) = 110.98056 33.40391 37.80804
#
# Poissons Ratio (x) = 0.04969 0.19989
# Poissons Ratio (y) = 0.16511 0.59508
# Poissons Ratio (z) = 0.58675 0.52576
#
# Static dielectric constant tensor:
#      x y z
#    x 1.706010 0.000000 0.000000 
#    y 0.000000 1.654140 0.000000 
#    z 0.000000 0.000000 1.621410 
# 
# From -- ./inp_files/24627.got.cif
#   From: 2010.05.17/outbox.cif.g08.bks.cpg/sg52_13_cif.got.tgz:24627.got - 2010.06.03 12:15:38.
