data_PCOD9408644
_publ_section_title
;
Structure prediction by ZEFSAII (Michael W. Deem and Ramdas Pophale) SiO2 
 PCOD9408644
Probable space group: P N N A
;
_chemical_formula_sum "Si O2"
_cell_formula_units_Z 52
_cell_length_a 19.730602
_cell_length_b 22.348041
_cell_length_c 5.210557
_cell_angle_alpha 90.000000
_cell_angle_beta 90.000000
_cell_angle_gamma 90.000000
_cell_volume 2297.544580
_symmetry_space_group_name_H-M "P N N A"
_symmetry_group_IT_number 52
_symmetry_cell_setting 'orthorhombic'
loop_
_space_group_symop_operation_xyz
x,y,z
1/2-x,-y,z
x,1/2-y,1/2-z
1/2-x,1/2+y,1/2-z
-x,-y,-z
1/2+x,y,-z
-x,1/2+y,1/2+z
1/2+x,1/2-y,1/2+z
loop_
_atom_site_type_symbol
_atom_site_label
_atom_site_fract_x
_atom_site_fract_y
_atom_site_fract_z
Si Si1 0.923690 0.479536 0.057136
Si Si2 0.250000 0.500000 0.454579
Si Si3 0.590123 0.601828 0.547548
Si Si4 0.153794 0.310630 0.388549
Si Si5 0.994004 0.712267 0.485973
Si Si6 0.828415 0.917389 0.574155
Si Si7 0.273869 0.377164 0.686249
O O1 0.902044 0.432738 0.823954
O O2 0.876187 0.538911 0.088889
O O3 0.923898 0.446335 0.327319
O O4 0.000000 0.500000 0.000000
O O5 0.196961 0.464448 0.284068
O O6 0.279167 0.447598 0.622601
O O7 0.528465 0.648013 0.538161
O O8 0.654308 0.640902 0.435083
O O9 0.176079 0.250000 0.250000
O O10 0.086730 0.296165 0.545702
O O11 0.130936 0.362014 0.188799
O O12 0.214938 0.340102 0.545328
O O13 0.003987 0.750000 0.750000
O O14 0.022029 0.750000 0.250000
O O15 0.759862 0.885106 0.466858
#
# Coordination Sequence:
#
# PCOD9408644 Si02
#       7
#     8   4   8   8   8   8   8
#     4  12  26  43  73 109 150 190 242 301 368 449
#     4  10  18  40  56  98 132 180 218 274 360 420
#     4  12  26  47  71 110 148 190 245 304 368 441
#     4  10  26  45  70 101 137 187 252 301 358 439
#     4  11  26  50  75 101 143 198 248 304 371 437
#     4  11  23  40  69  99 145 189 234 300 365 442
#     4  11  24  39  70  99 144 186 235 298 365 438
#
# _framework density 22.632859
#
# number of rings (size 3 to 8) (size 9 to 14) (size 15 to 20)
#    0.000    0.923    1.538    4.615   10.769    0.615 
#    2.769    0.000    0.000    0.000    0.000    0.000 
#    0.000    0.000    0.000    0.000    0.000    0.000 
#
# Total GULP energy -289937.002982 kJ/mol
# GULP energy per Si atom -5575.711596 kJ/mol
# Density = 2.258135 g / cm^3
# Si number density = 22.632859 Si / 1000 Ang^3
#
#
#
# Elastic Constant Matrix: (Units=GPa)
#
#
# Indices 1 2 3 4 5 6 
#
# 1 56.2970 2.8011 -3.9212 0.0000 0.0000 0.0000
# 2 2.8011 122.2875 25.5621 0.0000 0.0000 0.0000
# 3 -3.9212 25.5621 68.4718 0.0000 0.0000 0.0000
# 4 0.0000 0.0000 0.0000 38.0890 0.0000 0.0000
# 5 0.0000 0.0000 0.0000 0.0000 -43.1046 0.0000
# 6 0.0000 0.0000 0.0000 0.0000 0.0000 39.5582
#
#
#
# Elastic Compliance Matrix: (Units=1/GPa)
#
#
# Indices 1 2 3 4 5 6 
#
# 1 0.017886 -0.000677 0.001277 0.000000 0.000000 0.000000
# 2 -0.000677 0.008895 -0.003360 0.000000 0.000000 0.000000
# 3 0.001277 -0.003360 0.015932 0.000000 0.000000 0.000000
# 4 0.000000 0.000000 0.000000 0.026254 0.000000 0.000000
# 5 0.000000 0.000000 0.000000 0.000000 -0.023199 0.000000
# 6 0.000000 0.000000 0.000000 0.000000 0.000000 0.025279
#
#
# Mechanical properties :
#
#
# Convention : Reuss Voigt Hill
#
# Bulk Modulus (GPa) = 26.88599 32.88224 29.88411
# Shear Modulus (GPa) = 56.20292 21.74946 38.97619
#
# Velocity S-wave (km/s) = 4.98862 3.10331 4.15433
# Velocity P-wave (km/s) = 6.71467 5.23458 6.02028
#
# Compressibility (1/GPa) = 0.03719410
#
# Stress axis : x y z
#
# Youngs Moduli (GPa) = 55.91107 112.42016 62.76725
#
# Poissons Ratio (x) = 0.07606 -0.08014
# Poissons Ratio (y) = 0.03783 0.21087
# Poissons Ratio (z) = -0.07139 0.37768
#
# Static dielectric constant tensor:
#      x y z
#    x 1.523850 0.000000 0.000000 
#    y 0.000000 1.834660 0.000000 
#    z 0.000000 0.000000 1.936130 
# 
# From -- ./inp_files/4424.got.cif
#   From: 2010.05.17/outbox.cif.g08.bks.cpg/sg52_3_cif.got.tgz:4424.got - 2010.06.03 12:15:38.
