data_PCOD9408950
_publ_section_title
;
Structure prediction by ZEFSAII (Michael W. Deem and Ramdas Pophale) SiO2 
 PCOD9408950
Probable space group: P N N A
;
_chemical_formula_sum "Si O2"
_cell_formula_units_Z 40
_cell_length_a 17.973627
_cell_length_b 7.217593
_cell_length_c 12.359199
_cell_angle_alpha 90.000000
_cell_angle_beta 90.000000
_cell_angle_gamma 90.000000
_cell_volume 1603.313459
_symmetry_space_group_name_H-M "P N N A"
_symmetry_group_IT_number 52
_symmetry_cell_setting 'orthorhombic'
loop_
_space_group_symop_operation_xyz
x,y,z
1/2-x,-y,z
x,1/2-y,1/2-z
1/2-x,1/2+y,1/2-z
-x,-y,-z
1/2+x,y,-z
-x,1/2+y,1/2+z
1/2+x,1/2-y,1/2+z
loop_
_atom_site_type_symbol
_atom_site_label
_atom_site_fract_x
_atom_site_fract_y
_atom_site_fract_z
Si Si1 0.616789 0.920527 0.559500
Si Si2 0.715526 0.796837 0.367100
Si Si3 0.133398 0.462001 0.284983
Si Si4 0.147976 0.346094 0.510075
Si Si5 0.488364 0.834033 0.858333
O O1 0.657931 0.809481 0.465508
O O2 0.536739 0.827389 0.582308
O O3 0.656232 0.920070 0.679013
O O4 0.622779 0.135698 0.524029
O O5 0.683410 0.750000 0.250000
O O6 0.785442 0.674647 0.405783
O O7 0.750000 0.000000 0.356402
O O8 0.135804 0.250000 0.250000
O O9 0.169798 0.458549 0.402882
O O10 0.049601 0.524504 0.313222
O O11 0.074020 0.421880 0.566996
O O12 0.451174 0.750000 0.750000
#
# Coordination Sequence:
#
# PCOD9408950 Si02
#       5
#     8   8   8   8   8
#     4   9  20  38  55  82 120 156 198 245 299 365
#     4  10  22  40  60  86 121 161 204 250 304 365
#     4   9  19  36  57  85 120 157 199 248 304 366
#     4  10  19  36  60  86 117 152 196 251 305 360
#     4  10  19  34  58  87 118 154 196 248 306 366
#
# _framework density 24.948333999999999
#
# number of rings (size 3 to 8) (size 9 to 14) (size 15 to 20)
#    0.000    2.400    0.000    1.800    0.000    1.600 
#    0.000   34.000    0.000    0.000    0.000    0.000 
#    0.000    0.000    0.000    0.000    0.000    0.000 
#
# Total GULP energy -223581.013508 kJ/mol
# GULP energy per Si atom -5589.525338 kJ/mol
# Density = 2.489155 g / cm^3
# Si number density = 24.948334 Si / 1000 Ang^3
#
#
#
# Elastic Constant Matrix: (Units=GPa)
#
#
# Indices 1 2 3 4 5 6 
#
# 1 79.0650 13.1880 79.2000 0.0000 0.0000 0.0000
# 2 13.1880 57.5326 46.4042 0.0000 0.0000 0.0000
# 3 79.2000 46.4042 221.7942 0.0000 0.0000 0.0000
# 4 0.0000 0.0000 0.0000 37.3059 0.0000 0.0000
# 5 0.0000 0.0000 0.0000 0.0000 16.8907 0.0000
# 6 0.0000 0.0000 0.0000 0.0000 0.0000 14.4817
#
#
#
# Elastic Compliance Matrix: (Units=1/GPa)
#
#
# Indices 1 2 3 4 5 6 
#
# 1 0.019785 0.001399 -0.007358 0.000000 0.000000 0.000000
# 2 0.001399 0.021009 -0.004895 0.000000 0.000000 0.000000
# 3 -0.007358 -0.004895 0.008160 0.000000 0.000000 0.000000
# 4 0.000000 0.000000 0.000000 0.026805 0.000000 0.000000
# 5 0.000000 0.000000 0.000000 0.000000 0.059204 0.000000
# 6 0.000000 0.000000 0.000000 0.000000 0.000000 0.069053
#
#
# Mechanical properties :
#
#
# Convention : Reuss Voigt Hill
#
# Bulk Modulus (GPa) = 36.70165 70.66402 53.68283
# Shear Modulus (GPa) = 21.29425 28.37564 24.83494
#
# Velocity S-wave (km/s) = 2.92470 3.37616 3.15851
# Velocity P-wave (km/s) = 5.11353 6.60179 5.90473
#
# Compressibility (1/GPa) = 0.02724673
#
# Stress axis : x y z
#
# Youngs Moduli (GPa) = 50.54450 47.59852 122.54653
#
# Poissons Ratio (x) = -0.06660 0.90164
# Poissons Ratio (y) = -0.07073 0.59989
# Poissons Ratio (z) = 0.37188 0.23300
#
# Static dielectric constant tensor:
#      x y z
#    x 1.912090 0.000000 0.000000 
#    y 0.000000 2.041660 0.000000 
#    z 0.000000 0.000000 1.992960 
# 
# From -- ./inp_files/20276.got.cif
#   From: 2010.05.17/outbox.cif.g08.bks.cpg/sg52_11_cif.got.tgz:20276.got - 2010.06.03 12:15:38.
