data_PCOD9408727
_publ_section_title
;
Structure prediction by ZEFSAII (Michael W. Deem and Ramdas Pophale) SiO2 
 PCOD9408727
Probable space group: P N N A
;
_chemical_formula_sum "Si O2"
_cell_formula_units_Z 60
_cell_length_a 9.329322
_cell_length_b 17.581909
_cell_length_c 18.934321
_cell_angle_alpha 90.000000
_cell_angle_beta 90.000000
_cell_angle_gamma 90.000000
_cell_volume 3105.745370
_symmetry_space_group_name_H-M "P N N A"
_symmetry_group_IT_number 52
_symmetry_cell_setting 'orthorhombic'
loop_
_space_group_symop_operation_xyz
x,y,z
1/2-x,-y,z
x,1/2-y,1/2-z
1/2-x,1/2+y,1/2-z
-x,-y,-z
1/2+x,y,-z
-x,1/2+y,1/2+z
1/2+x,1/2-y,1/2+z
loop_
_atom_site_type_symbol
_atom_site_label
_atom_site_fract_x
_atom_site_fract_y
_atom_site_fract_z
Si Si1 0.146500 0.065081 0.927040
Si Si2 0.551107 0.201642 0.862155
Si Si3 0.784546 0.250000 0.750000
Si Si4 0.026894 0.666147 0.142439
Si Si5 0.609978 0.049704 0.453684
Si Si6 0.227349 0.298336 0.028793
Si Si7 0.119129 0.460478 0.413291
Si Si8 0.737525 0.226113 0.121135
O O1 0.171069 0.142392 0.886092
O O2 0.250000 0.000000 0.898176
O O3 0.177031 0.071363 0.011157
O O4 0.989847 0.029396 0.924384
O O5 0.676977 0.213034 0.806086
O O6 0.607121 0.251707 0.928302
O O7 0.545120 0.112382 0.879803
O O8 0.391194 0.226845 0.841063
O O9 0.881337 0.314515 0.787881
O O10 0.134583 0.690988 0.078860
O O11 0.969193 0.584497 0.115440
O O12 0.885145 0.717925 0.148225
O O13 0.664421 0.121396 0.500942
O O14 0.750000 0.000000 0.435727
O O15 0.500000 0.000000 0.500000
O O16 0.268844 0.252130 0.959200
O O17 0.250000 0.500000 0.373086
#
# Coordination Sequence:
#
# PCOD9408727 Si02
#       8
#     8   8   4   8   8   8   8   8
#     4  10  19  31  49  92 129 152 184 234 309 359
#     4  11  22  39  61  83 124 163 214 250 294 380
#     4  10  26  46  62  78 116 174 228 248 300 370
#     4  10  23  40  63  89 126 167 207 259 309 389
#     4  11  21  38  66 101 137 155 195 269 348 395
#     4  10  21  35  59  99 128 158 193 252 334 381
#     4  10  21  31  54  85 129 161 185 235 296 362
#     4  11  20  33  62  93 122 153 203 258 316 366
#
# _framework density 19.319033999999998
#
# number of rings (size 3 to 8) (size 9 to 14) (size 15 to 20)
#    0.000    1.600    4.000    1.600    5.600    0.533 
#    0.000    0.000    5.867    0.800    0.000    0.000 
#    0.000    0.000    0.000    0.000    0.000    0.000 
#
# Total GULP energy -334542.786714 kJ/mol
# GULP energy per Si atom -5575.713112 kJ/mol
# Density = 1.927506 g / cm^3
# Si number density = 19.319034 Si / 1000 Ang^3
#
#
#
# Elastic Constant Matrix: (Units=GPa)
#
#
# Indices 1 2 3 4 5 6 
#
# 1 133.0923 40.9557 25.7651 0.0000 0.0000 0.0000
# 2 40.9557 102.2389 20.6294 0.0000 0.0000 0.0000
# 3 25.7651 20.6294 54.1884 0.0000 0.0000 0.0000
# 4 0.0000 0.0000 0.0000 11.0430 0.0000 0.0000
# 5 0.0000 0.0000 0.0000 0.0000 16.4373 0.0000
# 6 0.0000 0.0000 0.0000 0.0000 0.0000 33.7598
#
#
#
# Elastic Compliance Matrix: (Units=1/GPa)
#
#
# Indices 1 2 3 4 5 6 
#
# 1 0.009045 -0.002985 -0.003164 0.000000 0.000000 0.000000
# 2 -0.002985 0.011580 -0.002989 0.000000 0.000000 0.000000
# 3 -0.003164 -0.002989 0.021097 0.000000 0.000000 0.000000
# 4 0.000000 0.000000 0.000000 0.090555 0.000000 0.000000
# 5 0.000000 0.000000 0.000000 0.000000 0.060837 0.000000
# 6 0.000000 0.000000 0.000000 0.000000 0.000000 0.029621
#
#
# Mechanical properties :
#
#
# Convention : Reuss Voigt Hill
#
# Bulk Modulus (GPa) = 42.65349 51.57998 47.11673
# Shear Modulus (GPa) = 20.09440 25.72598 22.91019
#
# Velocity S-wave (km/s) = 3.22861 3.65312 3.44741
# Velocity P-wave (km/s) = 6.00208 6.67463 6.34727
#
# Compressibility (1/GPa) = 0.02344474
#
# Stress axis : x y z
#
# Youngs Moduli (GPa) = 110.56323 86.35728 47.40090
#
# Poissons Ratio (x) = 0.25775 0.14999
# Poissons Ratio (y) = 0.33000 0.14169
# Poissons Ratio (z) = 0.34984 0.25814
#
# Static dielectric constant tensor:
#      x y z
#    x 1.712530 0.000000 0.000000 
#    y 0.000000 1.676110 0.000000 
#    z 0.000000 0.000000 1.697560 
# 
# From -- ./inp_files/31478.got.cif
#   From: 2010.05.17/outbox.cif.g08.bks.cpg/sg52_16_cif.got.tgz:31478.got - 2010.06.03 12:15:38.
