data_PCOD9408100
_publ_section_title
;
Structure prediction by ZEFSAII (Michael W. Deem and Ramdas Pophale) SiO2 
 PCOD9408100
Probable space group: P N N A
;
_chemical_formula_sum "Si O2"
_cell_formula_units_Z 48
_cell_length_a 12.909925
_cell_length_b 15.577964
_cell_length_c 13.307424
_cell_angle_alpha 90.000000
_cell_angle_beta 90.000000
_cell_angle_gamma 90.000000
_cell_volume 2676.260657
_symmetry_space_group_name_H-M "P N N A"
_symmetry_group_IT_number 52
_symmetry_cell_setting 'orthorhombic'
loop_
_space_group_symop_operation_xyz
x,y,z
1/2-x,-y,z
x,1/2-y,1/2-z
1/2-x,1/2+y,1/2-z
-x,-y,-z
1/2+x,y,-z
-x,1/2+y,1/2+z
1/2+x,1/2-y,1/2+z
loop_
_atom_site_type_symbol
_atom_site_label
_atom_site_fract_x
_atom_site_fract_y
_atom_site_fract_z
Si Si1 0.101174 0.248033 0.367650
Si Si2 0.372639 0.496626 0.681661
Si Si3 0.253947 0.748772 0.550881
Si Si4 0.950371 0.677576 0.326458
Si Si5 0.099817 0.834987 0.677618
Si Si6 0.443746 0.126029 0.970261
O O1 0.129646 0.250000 0.250000
O O2 0.196307 0.235208 0.442248
O O3 0.010614 0.176634 0.376583
O O4 0.038378 0.332816 0.405108
O O5 0.250000 0.500000 0.668638
O O6 0.414383 0.587418 0.720453
O O7 0.397304 0.419590 0.757000
O O8 0.421903 0.468122 0.574531
O O9 0.348091 0.717791 0.621054
O O10 0.194955 0.828509 0.601168
O O11 0.164131 0.676858 0.547775
O O12 0.990284 0.750000 0.250000
O O13 0.026952 0.648472 0.415605
O O14 0.108932 0.750000 0.750000
#
# Coordination Sequence:
#
# PCOD9408100 Si02
#       6
#     8   8   8   8   8   8
#     4   9  17  32  55  81 113 156 183 223 291 343
#     4  12  19  33  62  87 113 148 196 247 290 338
#     4  10  18  33  57  85 111 148 189 229 288 341
#     4  11  23  36  55  84 120 149 187 241 300 339
#     4  10  17  34  56  85 113 144 193 238 278 345
#     4  10  20  35  55  86 115 146 191 245 282 343
#
# _framework density 17.935472000000001
#
# number of rings (size 3 to 8) (size 9 to 14) (size 15 to 20)
#    0.000    1.667    6.667    2.000    0.000    0.667 
#    0.000    0.000    0.000   18.000    0.000    0.000 
#    0.000    0.000    0.000    0.000    0.000    0.000 
#
# Total GULP energy -267456.622057 kJ/mol
# GULP energy per Si atom -5572.012960 kJ/mol
# Density = 1.789465 g / cm^3
# Si number density = 17.935472 Si / 1000 Ang^3
#
#
#
# Elastic Constant Matrix: (Units=GPa)
#
#
# Indices 1 2 3 4 5 6 
#
# 1 42.0443 2.5242 18.1124 0.0000 0.0000 0.0000
# 2 2.5242 90.9668 30.3463 0.0000 0.0000 0.0000
# 3 18.1124 30.3463 69.0954 0.0000 0.0000 0.0000
# 4 0.0000 0.0000 0.0000 25.3910 0.0000 0.0000
# 5 0.0000 0.0000 0.0000 0.0000 38.7699 0.0000
# 6 0.0000 0.0000 0.0000 0.0000 0.0000 12.2776
#
#
#
# Elastic Compliance Matrix: (Units=1/GPa)
#
#
# Indices 1 2 3 4 5 6 
#
# 1 0.027088 0.001895 -0.007933 0.000000 0.000000 0.000000
# 2 0.001895 0.013013 -0.006212 0.000000 0.000000 0.000000
# 3 -0.007933 -0.006212 0.019280 0.000000 0.000000 0.000000
# 4 0.000000 0.000000 0.000000 0.039384 0.000000 0.000000
# 5 0.000000 0.000000 0.000000 0.000000 0.025793 0.000000
# 6 0.000000 0.000000 0.000000 0.000000 0.000000 0.081449
#
#
# Mechanical properties :
#
#
# Convention : Reuss Voigt Hill
#
# Bulk Modulus (GPa) = 28.66867 33.78583 31.22725
# Shear Modulus (GPa) = 20.64968 25.36261 23.00615
#
# Velocity S-wave (km/s) = 3.39681 3.76454 3.58539
# Velocity P-wave (km/s) = 5.60388 6.14605 5.88122
#
# Compressibility (1/GPa) = 0.03488129
#
# Stress axis : x y z
#
# Youngs Moduli (GPa) = 36.91653 76.84812 51.86601
#
# Poissons Ratio (x) = -0.14561 0.41145
# Poissons Ratio (y) = -0.06995 0.32218
# Poissons Ratio (z) = 0.29286 0.47736
#
# Static dielectric constant tensor:
#      x y z
#    x 1.622680 0.000000 0.000000 
#    y 0.000000 1.631240 0.000000 
#    z 0.000000 0.000000 1.671980 
# 
# From -- ./inp_files/19549.got.cif
#   From: 2010.05.17/outbox.cif.g08.bks.cpg/sg52_10_cif.got.tgz:19549.got - 2010.06.03 12:15:38.
