data_PCOD9408232
_publ_section_title
;
Structure prediction by ZEFSAII (Michael W. Deem and Ramdas Pophale) SiO2 
 PCOD9408232
Probable space group: P N N A
;
_chemical_formula_sum "Si O2"
_cell_formula_units_Z 40
_cell_length_a 21.414025
_cell_length_b 9.073259
_cell_length_c 10.788369
_cell_angle_alpha 90.000000
_cell_angle_beta 90.000000
_cell_angle_gamma 90.000000
_cell_volume 2096.126102
_symmetry_space_group_name_H-M "P N N A"
_symmetry_group_IT_number 52
_symmetry_cell_setting 'orthorhombic'
loop_
_space_group_symop_operation_xyz
x,y,z
1/2-x,-y,z
x,1/2-y,1/2-z
1/2-x,1/2+y,1/2-z
-x,-y,-z
1/2+x,y,-z
-x,1/2+y,1/2+z
1/2+x,1/2-y,1/2+z
loop_
_atom_site_type_symbol
_atom_site_label
_atom_site_fract_x
_atom_site_fract_y
_atom_site_fract_z
Si Si1 0.579432 0.819949 0.504688
Si Si2 0.932817 0.511576 0.435885
Si Si3 0.393087 0.898877 0.184901
Si Si4 0.804300 0.391581 0.823395
Si Si5 0.986066 0.957570 0.314658
O O1 0.586681 0.660715 0.440600
O O2 0.645010 0.856187 0.570272
O O3 0.525093 0.831157 0.612136
O O4 0.553695 0.942850 0.409808
O O5 0.896483 0.608832 0.536697
O O6 0.940435 0.576761 0.299721
O O7 0.000000 0.500000 0.500000
O O8 0.373577 0.750000 0.250000
O O9 0.345226 0.025307 0.219947
O O10 0.458981 0.944058 0.250162
O O11 0.750000 0.500000 0.867159
O O12 0.779120 0.250000 0.750000
#
# Coordination Sequence:
#
# PCOD9408232 Si02
#       5
#     8   8   8   8   8
#     4  10  19  35  52  86 121 151 191 234 293 354
#     4  10  18  30  54  82 121 156 184 222 288 356
#     4  10  19  33  52  85 118 148 189 230 284 354
#     4  11  22  38  58  79 107 152 200 251 289 329
#     4   9  19  31  56  86 122 154 180 230 298 363
#
# _framework density 19.082820999999999
#
# number of rings (size 3 to 8) (size 9 to 14) (size 15 to 20)
#    0.000    2.000    2.000    3.600    0.000    0.000 
#    0.000    0.000    0.000    1.200    5.200    0.000 
#    0.000    0.000    0.000    0.000    0.000    0.000 
#
# Total GULP energy -222951.323929 kJ/mol
# GULP energy per Si atom -5573.783098 kJ/mol
# Density = 1.903939 g / cm^3
# Si number density = 19.082821 Si / 1000 Ang^3
#
#
#
# Elastic Constant Matrix: (Units=GPa)
#
#
# Indices 1 2 3 4 5 6 
#
# 1 72.4623 25.9759 21.8109 0.0000 0.0000 0.0000
# 2 25.9759 78.8854 23.9594 0.0000 0.0000 0.0000
# 3 21.8109 23.9594 111.7210 0.0000 0.0000 0.0000
# 4 0.0000 0.0000 0.0000 22.1735 0.0000 0.0000
# 5 0.0000 0.0000 0.0000 0.0000 -4.7475 0.0000
# 6 0.0000 0.0000 0.0000 0.0000 0.0000 13.1082
#
#
#
# Elastic Compliance Matrix: (Units=1/GPa)
#
#
# Indices 1 2 3 4 5 6 
#
# 1 0.016115 -0.004654 -0.002148 0.000000 0.000000 0.000000
# 2 -0.004654 0.014904 -0.002288 0.000000 0.000000 0.000000
# 3 -0.002148 -0.002288 0.009861 0.000000 0.000000 0.000000
# 4 0.000000 0.000000 0.000000 0.045099 0.000000 0.000000
# 5 0.000000 0.000000 0.000000 0.000000 -0.210636 0.000000
# 6 0.000000 0.000000 0.000000 0.000000 0.000000 0.076288
#
#
# Mechanical properties :
#
#
# Convention : Reuss Voigt Hill
#
# Bulk Modulus (GPa) = 44.05203 45.17346 44.61274
# Shear Modulus (GPa) = -221.01419 18.86168 -101.07625
#
# Velocity S-wave (km/s) = -10.77357 3.14731 -7.28575
# Velocity P-wave (km/s) = 11.47279 6.07710 6.88091
#
# Compressibility (1/GPa) = 0.02270043
#
# Stress axis : x y z
#
# Youngs Moduli (GPa) = 62.05322 67.09624 101.41148
#
# Poissons Ratio (x) = 0.31227 0.21783
# Poissons Ratio (y) = 0.28880 0.23199
# Poissons Ratio (z) = 0.13329 0.15349
#
# Static dielectric constant tensor:
#      x y z
#    x 1.664710 0.000000 0.000000 
#    y 0.000000 1.668550 0.000000 
#    z 0.000000 0.000000 1.714370 
# 
# From -- ./inp_files/21438.got.cif
#   From: 2010.05.17/outbox.cif.g08.bks.cpg/sg52_11_cif.got.tgz:21438.got - 2010.06.03 12:15:38.
