data_PCOD9408455
_publ_section_title
;
Structure prediction by ZEFSAII (Michael W. Deem and Ramdas Pophale) SiO2 
 PCOD9408455
Probable space group: P N N A
;
_chemical_formula_sum "Si O2"
_cell_formula_units_Z 44
_cell_length_a 25.031814
_cell_length_b 7.900542
_cell_length_c 11.117023
_cell_angle_alpha 90.000000
_cell_angle_beta 90.000000
_cell_angle_gamma 90.000000
_cell_volume 2198.556918
_symmetry_space_group_name_H-M "P N N A"
_symmetry_group_IT_number 52
_symmetry_cell_setting 'orthorhombic'
loop_
_space_group_symop_operation_xyz
x,y,z
1/2-x,-y,z
x,1/2-y,1/2-z
1/2-x,1/2+y,1/2-z
-x,-y,-z
1/2+x,y,-z
-x,1/2+y,1/2+z
1/2+x,1/2-y,1/2+z
loop_
_atom_site_type_symbol
_atom_site_label
_atom_site_fract_x
_atom_site_fract_y
_atom_site_fract_z
Si Si1 0.102878 0.707100 0.110186
Si Si2 0.809814 0.971001 0.531884
Si Si3 0.905040 0.826776 0.380228
Si Si4 0.505489 0.948689 0.706694
Si Si5 0.842066 0.750000 0.750000
Si Si6 0.569568 0.072282 0.914967
O O1 0.113602 0.750000 0.250000
O O2 0.157370 0.642505 0.055035
O O3 0.057493 0.559444 0.119947
O O4 0.080726 0.877444 0.050854
O O5 0.849576 0.876154 0.441197
O O6 0.809526 0.867116 0.657928
O O7 0.750000 0.000000 0.489592
O O8 0.893087 0.750000 0.250000
O O9 0.933526 0.692946 0.470576
O O10 0.948675 0.974522 0.354644
O O11 0.503215 0.750000 0.750000
O O12 0.520187 0.062606 0.821368
O O13 0.880905 0.637538 0.666006
#
# Coordination Sequence:
#
# PCOD9408455 Si02
#       6
#     8   8   8   8   4   8
#     4   9  17  35  56  86 121 141 186 250 299 346
#     4  11  23  37  59  88 118 156 197 244 294 352
#     4  10  22  39  59  83 119 161 203 237 290 356
#     4   8  16  32  59  82 115 149 185 245 292 347
#     4  10  18  34  58  88 114 148 192 240 296 354
#     4   9  18  35  59  86 118 150 191 247 298 345
#
# _framework density 20.013127999999998
#
# number of rings (size 3 to 8) (size 9 to 14) (size 15 to 20)
#    0.000    2.909    3.636    0.000    1.273    7.273 
#    0.000    5.455    0.000    0.000    0.000    0.000 
#    0.000    0.000    0.000    0.000    0.000    0.000 
#
# Total GULP energy -245290.506842 kJ/mol
# GULP energy per Si atom -5574.784246 kJ/mol
# Density = 1.996758 g / cm^3
# Si number density = 20.013128 Si / 1000 Ang^3
#
#
#
# Elastic Constant Matrix: (Units=GPa)
#
#
# Indices 1 2 3 4 5 6 
#
# 1 148.7613 24.2396 52.6124 0.0000 0.0000 0.0000
# 2 24.2396 50.3915 38.7895 0.0000 0.0000 0.0000
# 3 52.6124 38.7895 114.3333 0.0000 0.0000 0.0000
# 4 0.0000 0.0000 0.0000 20.8484 0.0000 0.0000
# 5 0.0000 0.0000 0.0000 0.0000 25.3135 0.0000
# 6 0.0000 0.0000 0.0000 0.0000 0.0000 22.5310
#
#
#
# Elastic Compliance Matrix: (Units=1/GPa)
#
#
# Indices 1 2 3 4 5 6 
#
# 1 0.008100 -0.001390 -0.003256 0.000000 0.000000 0.000000
# 2 -0.001390 0.027098 -0.008554 0.000000 0.000000 0.000000
# 3 -0.003256 -0.008554 0.013147 0.000000 0.000000 0.000000
# 4 0.000000 0.000000 0.000000 0.047965 0.000000 0.000000
# 5 0.000000 0.000000 0.000000 0.000000 0.039505 0.000000
# 6 0.000000 0.000000 0.000000 0.000000 0.000000 0.044383
#
#
# Mechanical properties :
#
#
# Convention : Reuss Voigt Hill
#
# Bulk Modulus (GPa) = 45.56822 60.52990 53.04906
# Shear Modulus (GPa) = 23.37411 26.92820 25.15116
#
# Velocity S-wave (km/s) = 3.42122 3.67212 3.54889
# Velocity P-wave (km/s) = 6.19878 6.94911 6.58464
#
# Compressibility (1/GPa) = 0.02194512
#
# Stress axis : x y z
#
# Youngs Moduli (GPa) = 123.45415 36.90365 76.06584
#
# Poissons Ratio (x) = 0.05130 0.24765
# Poissons Ratio (y) = 0.17163 0.65064
# Poissons Ratio (z) = 0.40194 0.31566
#
# Static dielectric constant tensor:
#      x y z
#    x 1.728080 0.000000 0.000000 
#    y 0.000000 1.782420 0.000000 
#    z 0.000000 0.000000 1.742290 
# 
# From -- ./inp_files/22217.got.cif
#   From: 2010.05.17/outbox.cif.g08.bks.cpg/sg52_12_cif.got.tgz:22217.got - 2010.06.03 12:15:38.
