data_PCOD9408627
_publ_section_title
;
Structure prediction by ZEFSAII (Michael W. Deem and Ramdas Pophale) SiO2 
 PCOD9408627
Probable space group: P N N A
;
_chemical_formula_sum "Si O2"
_cell_formula_units_Z 56
_cell_length_a 16.496159
_cell_length_b 5.592195
_cell_length_c 31.831116
_cell_angle_alpha 90.000000
_cell_angle_beta 90.000000
_cell_angle_gamma 90.000000
_cell_volume 2936.412107
_symmetry_space_group_name_H-M "P N N A"
_symmetry_group_IT_number 52
_symmetry_cell_setting 'orthorhombic'
loop_
_space_group_symop_operation_xyz
x,y,z
1/2-x,-y,z
x,1/2-y,1/2-z
1/2-x,1/2+y,1/2-z
-x,-y,-z
1/2+x,y,-z
-x,1/2+y,1/2+z
1/2+x,1/2-y,1/2+z
loop_
_atom_site_type_symbol
_atom_site_label
_atom_site_fract_x
_atom_site_fract_y
_atom_site_fract_z
Si Si1 0.796180 0.257576 0.033332
Si Si2 0.033725 0.250000 0.750000
Si Si3 0.925429 0.949490 0.814353
Si Si4 0.663915 0.879045 0.122332
Si Si5 0.961274 0.249773 0.516037
Si Si6 0.055344 0.923739 0.679680
Si Si7 0.009784 0.305060 0.610570
Si Si8 0.750000 0.500000 0.723727
O O1 0.750000 0.500000 0.021593
O O2 0.822003 0.290823 0.082226
O O3 0.750000 0.000000 0.032157
O O4 0.871469 0.241653 0.002284
O O5 0.083470 0.426323 0.780064
O O6 0.975474 0.383810 0.717428
O O7 0.831514 0.962924 0.803437
O O8 0.969903 0.697059 0.807731
O O9 0.949490 0.033948 0.861102
O O10 0.622365 0.759955 0.162872
O O11 0.750000 0.000000 0.132229
O O12 0.595382 0.060191 0.105317
O O13 0.000000 0.500000 0.500000
O O14 0.970967 0.247023 0.566188
O O15 0.000000 0.000000 0.500000
O O16 0.032869 0.081338 0.639376
O O17 0.740783 0.750000 0.750000
#
# Coordination Sequence:
#
# PCOD9408627 Si02
#       8
#     8   4   8   8   8   8   8   4
#     4  11  24  42  65  96 134 174 222 282 335 387
#     4  10  18  38  62  92 124 164 212 260 324 390
#     4  10  22  40  63  95 130 168 218 269 322 391
#     4  10  22  37  64  96 125 161 221 277 328 386
#     4  12  24  42  68  96 136 178 227 276 330 409
#     4  10  21  37  63  97 125 167 214 265 332 395
#     4  10  23  41  62 100 124 176 217 268 334 400
#     4  12  24  40  68 100 130 170 226 274 326 386
#
# _framework density 19.070892000000001
#
# number of rings (size 3 to 8) (size 9 to 14) (size 15 to 20)
#    0.000    1.429    2.143    3.000   10.000    0.000 
#    1.286    0.000    0.000    0.000  133.714    0.000 
#    0.000    0.000    0.000    0.000    0.000    0.000 
#
# Total GULP energy -312419.396400 kJ/mol
# GULP energy per Si atom -5578.917793 kJ/mol
# Density = 1.902749 g / cm^3
# Si number density = 19.070892 Si / 1000 Ang^3
#
#
#
# Elastic Constant Matrix: (Units=GPa)
#
#
# Indices 1 2 3 4 5 6 
#
# 1 136.4041 42.9067 47.0254 0.0000 0.0000 0.0000
# 2 42.9067 99.7113 36.3853 0.0000 0.0000 0.0000
# 3 47.0254 36.3853 121.9617 0.0000 0.0000 0.0000
# 4 0.0000 0.0000 0.0000 23.0148 0.0000 0.0000
# 5 0.0000 0.0000 0.0000 0.0000 18.7653 0.0000
# 6 0.0000 0.0000 0.0000 0.0000 0.0000 14.5642
#
#
#
# Elastic Compliance Matrix: (Units=1/GPa)
#
#
# Indices 1 2 3 4 5 6 
#
# 1 0.009184 -0.002985 -0.002651 0.000000 0.000000 0.000000
# 2 -0.002985 0.012224 -0.002496 0.000000 0.000000 0.000000
# 3 -0.002651 -0.002496 0.009966 0.000000 0.000000 0.000000
# 4 0.000000 0.000000 0.000000 0.043450 0.000000 0.000000
# 5 0.000000 0.000000 0.000000 0.000000 0.053290 0.000000
# 6 0.000000 0.000000 0.000000 0.000000 0.000000 0.068662
#
#
# Mechanical properties :
#
#
# Convention : Reuss Voigt Hill
#
# Bulk Modulus (GPa) = 66.17599 67.85686 67.01642
# Shear Modulus (GPa) = 22.92785 26.71951 24.82368
#
# Velocity S-wave (km/s) = 3.47110 3.74714 3.61176
# Velocity P-wave (km/s) = 7.13022 7.37428 7.25328
#
# Compressibility (1/GPa) = 0.01511122
#
# Stress axis : x y z
#
# Youngs Moduli (GPa) = 108.88741 81.80562 100.34149
#
# Poissons Ratio (x) = 0.24416 0.26597
# Poissons Ratio (y) = 0.32499 0.25046
# Poissons Ratio (z) = 0.28862 0.20419
#
# Static dielectric constant tensor:
#      x y z
#    x 1.632180 0.000000 0.000000 
#    y 0.000000 1.790170 0.000000 
#    z 0.000000 0.000000 1.686020 
# 
# From -- ./inp_files/45008.got.cif
#   From: 2010.05.17/outbox.cif.g08.bks.cpg/sg52_23_cif.got.tgz:45008.got - 2010.06.03 12:15:38.
