data_PCOD9408943
_publ_section_title
;
Structure prediction by ZEFSAII (Michael W. Deem and Ramdas Pophale) SiO2 
 PCOD9408943
Probable space group: P N N A
;
_chemical_formula_sum "Si O2"
_cell_formula_units_Z 28
_cell_length_a 10.014924
_cell_length_b 5.841453
_cell_length_c 18.973461
_cell_angle_alpha 90.000000
_cell_angle_beta 90.000000
_cell_angle_gamma 90.000000
_cell_volume 1109.979872
_symmetry_space_group_name_H-M "P N N A"
_symmetry_group_IT_number 52
_symmetry_cell_setting 'orthorhombic'
loop_
_space_group_symop_operation_xyz
x,y,z
1/2-x,-y,z
x,1/2-y,1/2-z
1/2-x,1/2+y,1/2-z
-x,-y,-z
1/2+x,y,-z
-x,1/2+y,1/2+z
1/2+x,1/2-y,1/2+z
loop_
_atom_site_type_symbol
_atom_site_label
_atom_site_fract_x
_atom_site_fract_y
_atom_site_fract_z
Si Si1 0.061435 0.250000 0.750000
Si Si2 0.622927 0.672085 0.991493
Si Si3 0.958381 0.990904 0.110885
Si Si4 0.868791 0.874965 0.684246
O O1 0.116992 0.365679 0.676958
O O2 0.974956 0.453453 0.782940
O O3 0.750000 0.500000 0.996774
O O4 0.626008 0.867946 0.052709
O O5 0.500000 0.500000 0.000000
O O6 0.565990 0.818799 0.924931
O O7 0.052696 0.189133 0.141441
O O8 0.798806 0.750000 0.750000
O O9 0.750000 0.000000 0.644598
#
# Coordination Sequence:
#
# PCOD9408943 Si02
#       4
#     4   8   8   8
#     4  10  20  36  62 104 142 190 246 314 384 448
#     4  11  26  49  72 108 149 202 254 316 386 466
#     4  10  24  41  68 106 148 198 257 320 383 466
#     4  10  19  34  58 104 148 186 231 307 376 445
#
# _framework density 25.225680000000001
#
# number of rings (size 3 to 8) (size 9 to 14) (size 15 to 20)
#    0.000    1.714    1.429    1.714    0.000   11.429 
#    5.143    0.000    0.000    0.000  167.143    0.000 
#    0.000    0.000    0.000    0.000    0.000    0.000 
#
# Total GULP energy -156179.572336 kJ/mol
# GULP energy per Si atom -5577.841869 kJ/mol
# Density = 2.516827 g / cm^3
# Si number density = 25.225680 Si / 1000 Ang^3
#
#
#
# Elastic Constant Matrix: (Units=GPa)
#
#
# Indices 1 2 3 4 5 6 
#
# 1 124.7630 68.4747 35.7500 0.0000 0.0000 0.0000
# 2 68.4747 175.4558 68.6820 0.0000 0.0000 0.0000
# 3 35.7500 68.6820 169.7504 0.0000 0.0000 0.0000
# 4 0.0000 0.0000 0.0000 88.6743 0.0000 0.0000
# 5 0.0000 0.0000 0.0000 0.0000 3.7118 0.0000
# 6 0.0000 0.0000 0.0000 0.0000 0.0000 57.3726
#
#
#
# Elastic Compliance Matrix: (Units=1/GPa)
#
#
# Indices 1 2 3 4 5 6 
#
# 1 0.010259 -0.003752 -0.000642 0.000000 0.000000 0.000000
# 2 -0.003752 0.008144 -0.002505 0.000000 0.000000 0.000000
# 3 -0.000642 -0.002505 0.007040 0.000000 0.000000 0.000000
# 4 0.000000 0.000000 0.000000 0.011277 0.000000 0.000000
# 5 0.000000 0.000000 0.000000 0.000000 0.269408 0.000000
# 6 0.000000 0.000000 0.000000 0.000000 0.000000 0.017430
#
#
# Mechanical properties :
#
#
# Convention : Reuss Voigt Hill
#
# Bulk Modulus (GPa) = 85.88325 90.64249 88.26287
# Shear Modulus (GPa) = 14.65254 49.75593 32.20424
#
# Velocity S-wave (km/s) = 2.41271 4.44602 3.57689
# Velocity P-wave (km/s) = 6.47159 7.89727 7.21970
#
# Compressibility (1/GPa) = 0.01164371
#
# Stress axis : x y z
#
# Youngs Moduli (GPa) = 97.47941 122.78413 142.04873
#
# Poissons Ratio (x) = 0.46070 0.09125
# Poissons Ratio (y) = 0.36576 0.35584
# Poissons Ratio (z) = 0.06262 0.30758
#
# Static dielectric constant tensor:
#      x y z
#    x 1.939130 0.000000 0.000000 
#    y 0.000000 2.032550 0.000000 
#    z 0.000000 0.000000 2.163290 
# 
# From -- ./inp_files/36350.got.cif
#   From: 2010.05.17/outbox.cif.g08.bks.cpg/sg52_19_cif.got.tgz:36350.got - 2010.06.03 12:15:38.
