data_PCOD9408724
_publ_section_title
;
Structure prediction by ZEFSAII (Michael W. Deem and Ramdas Pophale) SiO2 
 PCOD9408724
Probable space group: P N N A
;
_chemical_formula_sum "Si O2"
_cell_formula_units_Z 48
_cell_length_a 4.966634
_cell_length_b 23.787795
_cell_length_c 21.685096
_cell_angle_alpha 90.000000
_cell_angle_beta 90.000000
_cell_angle_gamma 90.000000
_cell_volume 2561.991553
_symmetry_space_group_name_H-M "P N N A"
_symmetry_group_IT_number 52
_symmetry_cell_setting 'orthorhombic'
loop_
_space_group_symop_operation_xyz
x,y,z
1/2-x,-y,z
x,1/2-y,1/2-z
1/2-x,1/2+y,1/2-z
-x,-y,-z
1/2+x,y,-z
-x,1/2+y,1/2+z
1/2+x,1/2-y,1/2+z
loop_
_atom_site_type_symbol
_atom_site_label
_atom_site_fract_x
_atom_site_fract_y
_atom_site_fract_z
Si Si1 0.747903 0.568236 0.235579
Si Si2 0.194897 0.762437 0.041374
Si Si3 0.353284 0.856244 0.455584
Si Si4 0.993605 0.462026 0.647099
Si Si5 0.255085 0.432157 0.159603
Si Si6 0.730801 0.387614 0.542255
O O1 0.750000 0.500000 0.236405
O O2 0.454093 0.585095 0.213484
O O3 0.873577 0.579998 0.302632
O O4 0.952380 0.586031 0.182416
O O5 0.385713 0.760884 0.980129
O O6 0.287646 0.705246 0.073891
O O7 0.244289 0.824063 0.068272
O O8 0.640678 0.860357 0.488324
O O9 0.318136 0.903360 0.404375
O O10 0.750000 0.500000 0.675916
O O11 0.840963 0.430904 0.592076
O O12 0.250000 0.500000 0.626529
O O13 0.250000 0.500000 0.153494
O O14 0.429129 0.393799 0.516889
#
# Coordination Sequence:
#
# PCOD9408724 Si02
#       6
#     8   8   8   8   8   8
#     4   9  18  33  48  66  92 128 169 194 227 287
#     4   8  16  31  48  67  94 129 164 190 225 288
#     4  10  19  31  49  74 100 127 160 200 246 292
#     4  11  21  33  51  74 100 130 165 205 245 293
#     4  10  19  31  49  71  97 128 160 199 241 286
#     4  10  20  33  50  74 102 131 161 199 249 296
#
# _framework density 18.735423000000001
#
# number of rings (size 3 to 8) (size 9 to 14) (size 15 to 20)
#    0.000    2.333    0.000    4.500    0.000    2.667 
#    0.000    0.000    0.000    1.000    0.000    7.000 
#    0.000    0.000    0.000    0.000    0.000    0.000 
#
# Total GULP energy -267341.763604 kJ/mol
# GULP energy per Si atom -5569.620075 kJ/mol
# Density = 1.869278 g / cm^3
# Si number density = 18.735423 Si / 1000 Ang^3
#
#
#
# Elastic Constant Matrix: (Units=GPa)
#
#
# Indices 1 2 3 4 5 6 
#
# 1 74.7586 8.5790 -6.1132 0.0000 0.0000 0.0000
# 2 8.5790 49.6138 21.0903 0.0000 0.0000 0.0000
# 3 -6.1132 21.0903 40.2594 0.0000 0.0000 0.0000
# 4 0.0000 0.0000 0.0000 -7.6907 0.0000 0.0000
# 5 0.0000 0.0000 0.0000 0.0000 24.1810 0.0000
# 6 0.0000 0.0000 0.0000 0.0000 0.0000 19.1135
#
#
#
# Elastic Compliance Matrix: (Units=1/GPa)
#
#
# Indices 1 2 3 4 5 6 
#
# 1 0.014239 -0.004350 0.004441 0.000000 0.000000 0.000000
# 2 -0.004350 0.027259 -0.014940 0.000000 0.000000 0.000000
# 3 0.004441 -0.014940 0.033340 0.000000 0.000000 0.000000
# 4 0.000000 0.000000 0.000000 -0.130027 0.000000 0.000000
# 5 0.000000 0.000000 0.000000 0.000000 0.041355 0.000000
# 6 0.000000 0.000000 0.000000 0.000000 0.000000 0.052319
#
#
# Mechanical properties :
#
#
# Convention : Reuss Voigt Hill
#
# Bulk Modulus (GPa) = 22.15397 23.52712 22.84054
# Shear Modulus (GPa) = 60.07494 16.52581 38.30037
#
# Velocity S-wave (km/s) = 5.66873 2.97318 4.52627
# Velocity P-wave (km/s) = 7.39570 4.93672 6.28759
#
# Compressibility (1/GPa) = 0.04513864
#
# Stress axis : x y z
#
# Youngs Moduli (GPa) = 70.23122 36.68537 29.99411
#
# Poissons Ratio (x) = 0.15957 -0.13320
# Poissons Ratio (y) = 0.30549 0.44812
# Poissons Ratio (z) = -0.31188 0.54809
#
# Static dielectric constant tensor:
#      x y z
#    x 1.666040 0.000000 0.000000 
#    y 0.000000 1.693210 0.000000 
#    z 0.000000 0.000000 1.656330 
# 
# From -- ./inp_files/30272.got.cif
#   From: 2010.05.17/outbox.cif.g08.bks.cpg/sg52_16_cif.got.tgz:30272.got - 2010.06.03 12:15:38.
