data_PCOD9408485
_publ_section_title
;
Structure prediction by ZEFSAII (Michael W. Deem and Ramdas Pophale) SiO2 
 PCOD9408485
Probable space group: P N N A
;
_chemical_formula_sum "Si O2"
_cell_formula_units_Z 32
_cell_length_a 10.951913
_cell_length_b 8.249497
_cell_length_c 14.287046
_cell_angle_alpha 90.000000
_cell_angle_beta 90.000000
_cell_angle_gamma 90.000000
_cell_volume 1290.802795
_symmetry_space_group_name_H-M "P N N A"
_symmetry_group_IT_number 52
_symmetry_cell_setting 'orthorhombic'
loop_
_space_group_symop_operation_xyz
x,y,z
1/2-x,-y,z
x,1/2-y,1/2-z
1/2-x,1/2+y,1/2-z
-x,-y,-z
1/2+x,y,-z
-x,1/2+y,1/2+z
1/2+x,1/2-y,1/2+z
loop_
_atom_site_type_symbol
_atom_site_label
_atom_site_fract_x
_atom_site_fract_y
_atom_site_fract_z
Si Si1 0.118656 0.923929 0.200393
Si Si2 0.306915 0.178524 0.646651
Si Si3 0.572391 0.095509 0.630588
Si Si4 0.192809 0.733307 0.049076
O O1 0.101731 0.750000 0.250000
O O2 0.115477 0.881688 0.091609
O O3 0.250000 0.000000 0.222534
O O4 0.038310 0.043014 0.262417
O O5 0.292984 0.250000 0.750000
O O6 0.444874 0.174348 0.605273
O O7 0.250087 0.258988 0.553586
O O8 0.250000 0.000000 0.649437
O O9 0.686142 0.213865 0.615163
O O10 0.617562 0.934449 0.573588
#
# Coordination Sequence:
#
# PCOD9408485 Si02
#       4
#     8   8   8   8
#     4  10  18  34  66 105 125 152 215 286 320 368
#     4  12  28  45  65  94 138 185 213 264 335 405
#     4  10  20  40  69  92 126 169 221 262 328 383
#     4  10  21  40  70  99 126 170 225 273 320 386
#
# _framework density 24.790773999999999
#
# number of rings (size 3 to 8) (size 9 to 14) (size 15 to 20)
#    0.000    1.500    7.500    0.750    3.500    4.000 
#    0.000    1.250    0.000    0.000    0.000    0.000 
#    0.000    0.000    0.000    0.000    0.000    0.000 
#
# Total GULP energy -178146.186384 kJ/mol
# GULP energy per Si atom -5567.068325 kJ/mol
# Density = 2.473435 g / cm^3
# Si number density = 24.790774 Si / 1000 Ang^3
#
#
#
# Elastic Constant Matrix: (Units=GPa)
#
#
# Indices 1 2 3 4 5 6 
#
# 1 21.8506 -1.9734 -18.5222 0.0000 0.0000 0.0000
# 2 -1.9734 38.6114 38.1023 0.0000 0.0000 0.0000
# 3 -18.5222 38.1023 220.6710 0.0000 0.0000 0.0000
# 4 0.0000 0.0000 0.0000 27.5694 0.0000 0.0000
# 5 0.0000 0.0000 0.0000 0.0000 13.0711 0.0000
# 6 0.0000 0.0000 0.0000 0.0000 0.0000 9.2815
#
#
#
# Elastic Compliance Matrix: (Units=1/GPa)
#
#
# Indices 1 2 3 4 5 6 
#
# 1 0.049385 -0.001888 0.004471 0.000000 0.000000 0.000000
# 2 -0.001888 0.031291 -0.005561 0.000000 0.000000 0.000000
# 3 0.004471 -0.005561 0.005867 0.000000 0.000000 0.000000
# 4 0.000000 0.000000 0.000000 0.036272 0.000000 0.000000
# 5 0.000000 0.000000 0.000000 0.000000 0.076505 0.000000
# 6 0.000000 0.000000 0.000000 0.000000 0.000000 0.107742
#
#
# Mechanical properties :
#
#
# Convention : Reuss Voigt Hill
#
# Bulk Modulus (GPa) = 12.40910 35.14960 23.77935
# Shear Modulus (GPa) = 14.71107 27.55280 21.13194
#
# Velocity S-wave (km/s) = 2.43864 3.33740 2.92278
# Velocity P-wave (km/s) = 3.59801 5.39076 4.58290
#
# Compressibility (1/GPa) = 0.08058602
#
# Stress axis : x y z
#
# Youngs Moduli (GPa) = 20.24907 31.95853 170.43978
#
# Poissons Ratio (x) = 0.06035 -0.76207
# Poissons Ratio (y) = 0.03824 0.94787
# Poissons Ratio (z) = -0.09054 0.17773
#
# Static dielectric constant tensor:
#      x y z
#    x 1.979830 0.000000 0.000000 
#    y 0.000000 1.994890 0.000000 
#    z 0.000000 0.000000 2.080720 
# 
# From -- ./inp_files/25606.got.cif
#   From: 2010.05.17/outbox.cif.g08.bks.cpg/sg52_13_cif.got.tgz:25606.got - 2010.06.03 12:15:38.
