data_PCOD9408796
_publ_section_title
;
Structure prediction by ZEFSAII (Michael W. Deem and Ramdas Pophale) SiO2 
 PCOD9408796
Probable space group: P N N A
;
_chemical_formula_sum "Si O2"
_cell_formula_units_Z 48
_cell_length_a 5.508138
_cell_length_b 14.491500
_cell_length_c 25.045571
_cell_angle_alpha 90.000000
_cell_angle_beta 90.000000
_cell_angle_gamma 90.000000
_cell_volume 1999.167077
_symmetry_space_group_name_H-M "P N N A"
_symmetry_group_IT_number 52
_symmetry_cell_setting 'orthorhombic'
loop_
_space_group_symop_operation_xyz
x,y,z
1/2-x,-y,z
x,1/2-y,1/2-z
1/2-x,1/2+y,1/2-z
-x,-y,-z
1/2+x,y,-z
-x,1/2+y,1/2+z
1/2+x,1/2-y,1/2+z
loop_
_atom_site_type_symbol
_atom_site_label
_atom_site_fract_x
_atom_site_fract_y
_atom_site_fract_z
Si Si1 0.555091 0.580394 0.757623
Si Si2 0.947753 0.636885 0.471284
Si Si3 0.593365 0.267418 0.803023
Si Si4 0.559302 0.362585 0.027607
Si Si5 0.707078 0.357481 0.143646
Si Si6 0.523871 0.652023 0.648775
O O1 0.750000 0.500000 0.756485
O O2 0.375932 0.581426 0.807111
O O3 0.439071 0.592720 0.699317
O O4 0.707905 0.671448 0.772454
O O5 0.185366 0.608166 0.505366
O O6 0.944402 0.749750 0.472120
O O7 0.988963 0.609919 0.409438
O O8 0.424275 0.250000 0.750000
O O9 0.698373 0.180563 0.835639
O O10 0.489055 0.336384 0.847815
O O11 0.615881 0.393762 0.087643
O O12 0.794189 0.390767 0.992927
O O13 0.607145 0.251701 0.148405
#
# Coordination Sequence:
#
# PCOD9408796 Si02
#       6
#     8   8   8   8   8   8
#     4  10  21  36  52  77 108 141 183 227 277 328
#     4   9  18  30  50  81 114 143 178 223 274 326
#     4   9  18  32  52  78 104 136 178 224 277 329
#     4   9  19  30  51  82 113 140 177 225 276 329
#     4  10  19  32  56  77 109 138 179 225 277 324
#     4   9  19  32  53  80 108 141 177 226 275 323
#
# _framework density 24.010000000000002
#
# number of rings (size 3 to 8) (size 9 to 14) (size 15 to 20)
#    0.000    2.667    0.000    2.500   14.000    0.667 
#    0.000    0.000    0.000    2.000    0.000    0.000 
#    0.000    0.000    0.000    0.000    0.000    0.000 
#
# Total GULP energy -267695.578760 kJ/mol
# GULP energy per Si atom -5576.991224 kJ/mol
# Density = 2.395535 g / cm^3
# Si number density = 24.010000 Si / 1000 Ang^3
#
#
#
# Elastic Constant Matrix: (Units=GPa)
#
#
# Indices 1 2 3 4 5 6 
#
# 1 79.2609 11.9649 60.1408 0.0000 0.0000 0.0000
# 2 11.9649 51.4480 12.0323 0.0000 0.0000 0.0000
# 3 60.1408 12.0323 207.4653 0.0000 0.0000 0.0000
# 4 0.0000 0.0000 0.0000 -12.1048 0.0000 0.0000
# 5 0.0000 0.0000 0.0000 0.0000 -6.8886 0.0000
# 6 0.0000 0.0000 0.0000 0.0000 0.0000 16.8810
#
#
#
# Elastic Compliance Matrix: (Units=1/GPa)
#
#
# Indices 1 2 3 4 5 6 
#
# 1 0.016553 -0.002765 -0.004638 0.000000 0.000000 0.000000
# 2 -0.002765 0.020166 -0.000368 0.000000 0.000000 0.000000
# 3 -0.004638 -0.000368 0.006186 0.000000 0.000000 0.000000
# 4 0.000000 0.000000 0.000000 -0.082612 0.000000 0.000000
# 5 0.000000 0.000000 0.000000 0.000000 -0.145167 0.000000
# 6 0.000000 0.000000 0.000000 0.000000 0.000000 0.059238
#
#
# Mechanical properties :
#
#
# Convention : Reuss Voigt Hill
#
# Bulk Modulus (GPa) = 36.54560 56.27226 46.40893
# Shear Modulus (GPa) = -49.51877 16.51327 -16.50275
#
# Velocity S-wave (km/s) = -4.54632 2.62537 -2.62454
# Velocity P-wave (km/s) = 3.50780 5.71647 3.19166
#
# Compressibility (1/GPa) = 0.02736307
#
# Stress axis : x y z
#
# Youngs Moduli (GPa) = 60.41116 49.58795 161.65660
#
# Poissons Ratio (x) = 0.13711 0.74979
# Poissons Ratio (y) = 0.16703 0.05950
# Poissons Ratio (z) = 0.28020 0.01825
#
# Static dielectric constant tensor:
#      x y z
#    x 2.172430 0.000000 0.000000 
#    y 0.000000 1.973530 0.000000 
#    z 0.000000 0.000000 1.989990 
# 
# From -- ./inp_files/38768.got.cif
#   From: 2010.05.17/outbox.cif.g08.bks.cpg/sg52_20_cif.got.tgz:38768.got - 2010.06.03 12:15:38.
