data_PCOD9408237
_publ_section_title
;
Structure prediction by ZEFSAII (Michael W. Deem and Ramdas Pophale) SiO2 
 PCOD9408237
Probable space group: P N N A
;
_chemical_formula_sum "Si O2"
_cell_formula_units_Z 56
_cell_length_a 14.236956
_cell_length_b 14.811620
_cell_length_c 13.573338
_cell_angle_alpha 90.000000
_cell_angle_beta 90.000000
_cell_angle_gamma 90.000000
_cell_volume 2862.242119
_symmetry_space_group_name_H-M "P N N A"
_symmetry_group_IT_number 52
_symmetry_cell_setting 'orthorhombic'
loop_
_space_group_symop_operation_xyz
x,y,z
1/2-x,-y,z
x,1/2-y,1/2-z
1/2-x,1/2+y,1/2-z
-x,-y,-z
1/2+x,y,-z
-x,1/2+y,1/2+z
1/2+x,1/2-y,1/2+z
loop_
_atom_site_type_symbol
_atom_site_label
_atom_site_fract_x
_atom_site_fract_y
_atom_site_fract_z
Si Si1 0.014462 0.310725 0.846366
Si Si2 0.213241 0.907122 0.193072
Si Si3 0.167349 0.226585 0.985467
Si Si4 0.125387 0.714486 0.478943
Si Si5 0.539478 0.995723 0.719032
Si Si6 0.472186 0.915236 0.064616
Si Si7 0.886063 0.672621 0.817471
O O1 0.992316 0.250000 0.750000
O O2 0.930814 0.295774 0.926255
O O3 0.027918 0.415158 0.814969
O O4 0.104880 0.265889 0.897701
O O5 0.160632 0.847389 0.112851
O O6 0.298206 0.858455 0.249074
O O7 0.250000 0.000000 0.145751
O O8 0.137576 0.941444 0.272195
O O9 0.277752 0.229912 0.963975
O O10 0.151846 0.286361 0.082634
O O11 0.123227 0.130565 0.022006
O O12 0.050488 0.661234 0.545387
O O13 0.527340 0.043392 0.825911
O O14 0.552232 0.085403 0.655043
O O15 0.500000 0.000000 0.000000
O O16 0.934361 0.750000 0.750000
#
# Coordination Sequence:
#
# PCOD9408237 Si02
#       7
#     8   8   8   8   8   8   8
#     4  11  23  41  63  91 129 167 210 262 321 376
#     4  10  18  30  56  93 120 149 198 264 315 360
#     4  11  23  38  60  93 126 162 207 261 320 376
#     4  11  21  35  63  91 126 166 205 266 318 373
#     4  11  20  35  57  89 124 163 202 256 311 381
#     4  11  21  35  57  95 123 159 208 258 317 371
#     4  11  20  33  59  89 123 158 203 260 326 369
#
# _framework density 19.565082
#
# number of rings (size 3 to 8) (size 9 to 14) (size 15 to 20)
#    0.000    1.143    5.714    2.571    0.000    0.571 
#    0.000    0.000    6.286    0.000    0.000    0.000 
#    0.000    0.000    0.000    0.000    0.000    0.000 
#
# Total GULP energy -312269.562133 kJ/mol
# GULP energy per Si atom -5576.242181 kJ/mol
# Density = 1.952055 g / cm^3
# Si number density = 19.565082 Si / 1000 Ang^3
#
#
#
# Elastic Constant Matrix: (Units=GPa)
#
#
# Indices 1 2 3 4 5 6 
#
# 1 87.4025 17.6146 23.0890 0.0000 0.0000 0.0000
# 2 17.6146 103.8615 27.9796 0.0000 0.0000 0.0000
# 3 23.0890 27.9796 46.8407 0.0000 0.0000 0.0000
# 4 0.0000 0.0000 0.0000 36.6562 0.0000 0.0000
# 5 0.0000 0.0000 0.0000 0.0000 28.1206 0.0000
# 6 0.0000 0.0000 0.0000 0.0000 0.0000 18.4103
#
#
#
# Elastic Compliance Matrix: (Units=1/GPa)
#
#
# Indices 1 2 3 4 5 6 
#
# 1 0.013183 -0.000578 -0.006153 0.000000 0.000000 0.000000
# 2 -0.000578 0.011500 -0.006584 0.000000 0.000000 0.000000
# 3 -0.006153 -0.006584 0.028315 0.000000 0.000000 0.000000
# 4 0.000000 0.000000 0.000000 0.027280 0.000000 0.000000
# 5 0.000000 0.000000 0.000000 0.000000 0.035561 0.000000
# 6 0.000000 0.000000 0.000000 0.000000 0.000000 0.054318
#
#
# Mechanical properties :
#
#
# Convention : Reuss Voigt Hill
#
# Bulk Modulus (GPa) = 37.92596 41.71901 39.82249
# Shear Modulus (GPa) = 24.32172 27.93218 26.12695
#
# Velocity S-wave (km/s) = 3.52961 3.78253 3.65826
# Velocity P-wave (km/s) = 6.00312 6.35973 6.18400
#
# Compressibility (1/GPa) = 0.02636716
#
# Stress axis : x y z
#
# Youngs Moduli (GPa) = 75.85368 86.95603 35.31702
#
# Poissons Ratio (x) = 0.05029 0.21730
# Poissons Ratio (y) = 0.04387 0.23254
# Poissons Ratio (z) = 0.46672 0.57255
#
# Static dielectric constant tensor:
#      x y z
#    x 1.751240 0.000000 0.000000 
#    y 0.000000 1.753160 0.000000 
#    z 0.000000 0.000000 1.728150 
# 
# From -- ./inp_files/27379.got.cif
#   From: 2010.05.17/outbox.cif.g08.bks.cpg/sg52_14_cif.got.tgz:27379.got - 2010.06.03 12:15:38.
