data_PCOD9408239
_publ_section_title
;
Structure prediction by ZEFSAII (Michael W. Deem and Ramdas Pophale) SiO2 
 PCOD9408239
Probable space group: P N N A
;
_chemical_formula_sum "Si O2"
_cell_formula_units_Z 56
_cell_length_a 19.640083
_cell_length_b 14.042458
_cell_length_c 10.946397
_cell_angle_alpha 90.000000
_cell_angle_beta 90.000000
_cell_angle_gamma 90.000000
_cell_volume 3018.962006
_symmetry_space_group_name_H-M "P N N A"
_symmetry_group_IT_number 52
_symmetry_cell_setting 'orthorhombic'
loop_
_space_group_symop_operation_xyz
x,y,z
1/2-x,-y,z
x,1/2-y,1/2-z
1/2-x,1/2+y,1/2-z
-x,-y,-z
1/2+x,y,-z
-x,1/2+y,1/2+z
1/2+x,1/2-y,1/2+z
loop_
_atom_site_type_symbol
_atom_site_label
_atom_site_fract_x
_atom_site_fract_y
_atom_site_fract_z
Si Si1 0.628121 0.063822 0.118440
Si Si2 0.454325 0.250000 0.750000
Si Si3 0.929369 0.795349 0.930733
Si Si4 0.202476 0.352510 0.272403
Si Si5 0.750000 0.000000 0.955254
Si Si6 0.239227 0.350277 0.795464
Si Si7 0.643944 0.396618 0.983556
Si Si8 0.618064 0.938245 0.332950
O O1 0.681638 0.126278 0.196166
O O2 0.590926 0.999261 0.218274
O O3 0.578315 0.132010 0.043012
O O4 0.680310 0.004323 0.032784
O O5 0.502662 0.201876 0.851964
O O6 0.414623 0.166061 0.677961
O O7 0.867471 0.827575 0.842947
O O8 0.912795 0.686088 0.968645
O O9 0.235429 0.250000 0.250000
O O10 0.247995 0.410897 0.365159
O O11 0.180821 0.405676 0.147842
O O12 0.267966 0.250000 0.750000
O O13 0.301841 0.422136 0.805471
O O14 0.200099 0.352995 0.923919
O O15 0.616374 0.493900 0.046783
#
# Coordination Sequence:
#
# PCOD9408239 Si02
#       8
#     8   4   8   8   4   8   8   8
#     4  10  19  37  58  86 109 146 190 236 283 348
#     4  12  24  42  52  84 116 156 196 232 284 340
#     4  10  20  38  60  75 109 149 200 229 270 336
#     4   9  19  34  53  85 110 149 184 229 285 331
#     4  10  18  30  58  82 114 144 182 228 284 358
#     4  11  19  34  59  89 120 142 179 237 300 347
#     4  10  19  36  58  86 110 145 195 239 281 345
#     4  11  24  34  57  88 121 150 183 238 301 333
#
# _framework density 18.549422
#
# number of rings (size 3 to 8) (size 9 to 14) (size 15 to 20)
#    0.000    1.714    5.714    1.286    2.000    1.143 
#    0.000    0.000    0.000    0.000    0.000    0.000 
#    0.000    0.000    0.000    0.000    0.000    0.000 
#
# Total GULP energy -311952.616091 kJ/mol
# GULP energy per Si atom -5570.582430 kJ/mol
# Density = 1.850720 g / cm^3
# Si number density = 18.549422 Si / 1000 Ang^3
#
#
#
# Elastic Constant Matrix: (Units=GPa)
#
#
# Indices 1 2 3 4 5 6 
#
# 1 34.1708 12.8713 6.0909 0.0000 0.0000 0.0000
# 2 12.8713 79.2992 36.6890 0.0000 0.0000 0.0000
# 3 6.0909 36.6890 95.3715 0.0000 0.0000 0.0000
# 4 0.0000 0.0000 0.0000 34.2072 0.0000 0.0000
# 5 0.0000 0.0000 0.0000 0.0000 11.5857 0.0000
# 6 0.0000 0.0000 0.0000 0.0000 0.0000 20.5488
#
#
#
# Elastic Compliance Matrix: (Units=1/GPa)
#
#
# Indices 1 2 3 4 5 6 
#
# 1 0.031171 -0.005034 -0.000054 0.000000 0.000000 0.000000
# 2 -0.005034 0.016154 -0.005893 0.000000 0.000000 0.000000
# 3 -0.000054 -0.005893 0.012756 0.000000 0.000000 0.000000
# 4 0.000000 0.000000 0.000000 0.029234 0.000000 0.000000
# 5 0.000000 0.000000 0.000000 0.000000 0.086313 0.000000
# 6 0.000000 0.000000 0.000000 0.000000 0.000000 0.048665
#
#
# Mechanical properties :
#
#
# Convention : Reuss Voigt Hill
#
# Bulk Modulus (GPa) = 26.23436 35.57154 30.90295
# Shear Modulus (GPa) = 19.30795 23.48103 21.39449
#
# Velocity S-wave (km/s) = 3.22979 3.56176 3.39983
# Velocity P-wave (km/s) = 5.29928 6.01108 5.66637
#
# Compressibility (1/GPa) = 0.03811794
#
# Stress axis : x y z
#
# Youngs Moduli (GPa) = 32.08133 61.90393 78.39620
#
# Poissons Ratio (x) = 0.31165 0.00423
# Poissons Ratio (y) = 0.16151 0.46198
# Poissons Ratio (z) = 0.00173 0.36479
#
# Static dielectric constant tensor:
#      x y z
#    x 1.612810 0.000000 0.000000 
#    y 0.000000 1.737000 0.000000 
#    z 0.000000 0.000000 1.677410 
# 
# From -- ./inp_files/21723.got.cif
#   From: 2010.05.17/outbox.cif.g08.bks.cpg/sg52_11_cif.got.tgz:21723.got - 2010.06.03 12:15:38.
