data_PCOD9408254
_publ_section_title
;
Structure prediction by ZEFSAII (Michael W. Deem and Ramdas Pophale) SiO2 
 PCOD9408254
Probable space group: P N N A
;
_chemical_formula_sum "Si O2"
_cell_formula_units_Z 64
_cell_length_a 25.714303
_cell_length_b 16.301827
_cell_length_c 9.024969
_cell_angle_alpha 90.000000
_cell_angle_beta 90.000000
_cell_angle_gamma 90.000000
_cell_volume 3783.177828
_symmetry_space_group_name_H-M "P N N A"
_symmetry_group_IT_number 52
_symmetry_cell_setting 'orthorhombic'
loop_
_space_group_symop_operation_xyz
x,y,z
1/2-x,-y,z
x,1/2-y,1/2-z
1/2-x,1/2+y,1/2-z
-x,-y,-z
1/2+x,y,-z
-x,1/2+y,1/2+z
1/2+x,1/2-y,1/2+z
loop_
_atom_site_type_symbol
_atom_site_label
_atom_site_fract_x
_atom_site_fract_y
_atom_site_fract_z
Si Si1 0.663101 0.602084 0.096545
Si Si2 0.449293 0.336761 0.829760
Si Si3 0.352365 0.156846 0.269516
Si Si4 0.237450 0.344521 0.720134
Si Si5 0.525750 0.663273 0.821055
Si Si6 0.209655 0.936993 0.029773
Si Si7 0.854851 0.959314 0.210959
Si Si8 0.472251 0.508838 0.660848
O O1 0.614122 0.654978 0.159906
O O2 0.718935 0.617260 0.170918
O O3 0.645666 0.510148 0.136209
O O4 0.665924 0.621540 0.925244
O O5 0.461471 0.250000 0.750000
O O6 0.468955 0.418704 0.741658
O O7 0.471437 0.335234 0.998720
O O8 0.334155 0.250000 0.250000
O O9 0.414532 0.157498 0.268663
O O10 0.330369 0.102463 0.139467
O O11 0.238227 0.250000 0.750000
O O12 0.257984 0.367992 0.557128
O O13 0.179426 0.379230 0.735782
O O14 0.505404 0.750000 0.750000
O O15 0.499119 0.580428 0.759312
O O16 0.250000 0.000000 0.102866
O O17 0.178982 0.987569 0.904813
O O18 0.912838 0.958787 0.148880
O O19 0.500000 0.500000 0.500000
#
# Coordination Sequence:
#
# PCOD9408254 Si02
#       8
#     8   8   8   8   8   8   8   8
#     4   9  18  31  51  75 101 130 164 206 256 305
#     4  10  20  35  54  79 106 132 170 219 266 314
#     4  10  19  31  50  78 103 127 163 210 254 299
#     4  10  18  31  50  71  98 133 168 206 246 298
#     4  10  21  35  53  79 107 135 173 218 264 313
#     4   9  18  32  48  69  99 130 163 202 250 304
#     4   9  20  34  49  72  99 132 173 209 249 306
#     4  11  21  35  56  77 103 141 178 220 270 315
#
# _framework density 16.916993999999999
#
# number of rings (size 3 to 8) (size 9 to 14) (size 15 to 20)
#    0.000    2.250    0.000    4.125    0.000    8.500 
#    0.000    0.000    0.000    0.000    0.000    8.750 
#    0.000    0.000    0.000    0.000    0.000    0.000 
#
# Total GULP energy -356409.467465 kJ/mol
# GULP energy per Si atom -5568.897929 kJ/mol
# Density = 1.687849 g / cm^3
# Si number density = 16.916994 Si / 1000 Ang^3
#
#
#
# Elastic Constant Matrix: (Units=GPa)
#
#
# Indices 1 2 3 4 5 6 
#
# 1 68.6690 24.5447 20.9145 0.0000 0.0000 0.0000
# 2 24.5447 66.3844 32.7129 0.0000 0.0000 0.0000
# 3 20.9145 32.7129 56.6351 0.0000 0.0000 0.0000
# 4 0.0000 0.0000 0.0000 22.3980 0.0000 0.0000
# 5 0.0000 0.0000 0.0000 0.0000 22.4312 0.0000
# 6 0.0000 0.0000 0.0000 0.0000 0.0000 26.4886
#
#
#
# Elastic Compliance Matrix: (Units=1/GPa)
#
#
# Indices 1 2 3 4 5 6 
#
# 1 0.017339 -0.004551 -0.003774 0.000000 0.000000 0.000000
# 2 -0.004551 0.022252 -0.011172 0.000000 0.000000 0.000000
# 3 -0.003774 -0.011172 0.025504 0.000000 0.000000 0.000000
# 4 0.000000 0.000000 0.000000 0.044647 0.000000 0.000000
# 5 0.000000 0.000000 0.000000 0.000000 0.044581 0.000000
# 6 0.000000 0.000000 0.000000 0.000000 0.000000 0.037752
#
#
# Mechanical properties :
#
#
# Convention : Reuss Voigt Hill
#
# Bulk Modulus (GPa) = 38.31480 38.67031 38.49255
# Shear Modulus (GPa) = 20.85339 21.83132 21.34236
#
# Velocity S-wave (km/s) = 3.51478 3.59625 3.55574
# Velocity P-wave (km/s) = 6.25855 6.33660 6.29769
#
# Compressibility (1/GPa) = 0.02609958
#
# Stress axis : x y z
#
# Youngs Moduli (GPa) = 57.67413 44.94004 39.20963
#
# Poissons Ratio (x) = 0.20451 0.14799
# Poissons Ratio (y) = 0.26247 0.43806
# Poissons Ratio (z) = 0.21768 0.50208
#
# Static dielectric constant tensor:
#      x y z
#    x 1.588180 0.000000 0.000000 
#    y 0.000000 1.585110 0.000000 
#    z 0.000000 0.000000 1.576100 
# 
# From -- ./inp_files/14480.got.cif
#   From: 2010.05.17/outbox.cif.g08.bks.cpg/sg52_8_cif.got.tgz:14480.got - 2010.06.03 12:15:38.
