data_PCOD9408490
_publ_section_title
;
Structure prediction by ZEFSAII (Michael W. Deem and Ramdas Pophale) SiO2 
 PCOD9408490
Probable space group: P N N A
;
_chemical_formula_sum "Si O2"
_cell_formula_units_Z 48
_cell_length_a 10.603306
_cell_length_b 16.704740
_cell_length_c 15.511927
_cell_angle_alpha 90.000000
_cell_angle_beta 90.000000
_cell_angle_gamma 90.000000
_cell_volume 2747.557358
_symmetry_space_group_name_H-M "P N N A"
_symmetry_group_IT_number 52
_symmetry_cell_setting 'orthorhombic'
loop_
_space_group_symop_operation_xyz
x,y,z
1/2-x,-y,z
x,1/2-y,1/2-z
1/2-x,1/2+y,1/2-z
-x,-y,-z
1/2+x,y,-z
-x,1/2+y,1/2+z
1/2+x,1/2-y,1/2+z
loop_
_atom_site_type_symbol
_atom_site_label
_atom_site_fract_x
_atom_site_fract_y
_atom_site_fract_z
Si Si1 0.802003 0.323806 0.302153
Si Si2 0.986203 0.637281 0.269523
Si Si3 0.934608 0.483364 0.357398
Si Si4 0.345146 0.567147 0.476478
Si Si5 0.222996 0.241093 0.985883
Si Si6 0.543464 0.723916 0.901792
O O1 0.863522 0.250000 0.250000
O O2 0.662409 0.339979 0.264188
O O3 0.866629 0.410623 0.309108
O O4 0.785593 0.287625 0.396953
O O5 0.999096 0.544313 0.291679
O O6 0.041593 0.662003 0.177580
O O7 0.038400 0.690972 0.349254
O O8 0.861008 0.544875 0.422079
O O9 0.025973 0.442024 0.425899
O O10 0.250000 0.500000 0.442316
O O11 0.302039 0.657171 0.466239
O O12 0.330800 0.285075 0.041042
O O13 0.086398 0.278194 0.958884
#
# Coordination Sequence:
#
# PCOD9408490 Si02
#       6
#     8   8   8   8   8   8
#     4  11  19  33  53  82 113 141 192 233 270 334
#     4  10  18  35  53  82 113 153 187 222 280 350
#     4  11  20  31  55  85 113 146 184 232 283 337
#     4  11  19  29  53  87 118 140 170 230 299 351
#     4  11  19  33  53  85 115 150 183 228 281 339
#     4  10  20  33  58  79 116 150 191 228 275 341
#
# _framework density 17.470063
#
# number of rings (size 3 to 8) (size 9 to 14) (size 15 to 20)
#    0.000    1.333    8.333    2.500    0.000    0.000 
#    0.000    0.000   22.000    1.000    0.000    0.000 
#    0.000    0.000    0.000    0.000    0.000    0.000 
#
# Total GULP energy -267254.117156 kJ/mol
# GULP energy per Si atom -5567.794107 kJ/mol
# Density = 1.743030 g / cm^3
# Si number density = 17.470063 Si / 1000 Ang^3
#
#
#
# Elastic Constant Matrix: (Units=GPa)
#
#
# Indices 1 2 3 4 5 6 
#
# 1 53.3146 11.0256 40.3553 0.0000 0.0000 0.0000
# 2 11.0256 64.4004 32.2029 0.0000 0.0000 0.0000
# 3 40.3553 32.2029 73.0492 0.0000 0.0000 0.0000
# 4 0.0000 0.0000 0.0000 10.4552 0.0000 0.0000
# 5 0.0000 0.0000 0.0000 0.0000 12.9123 0.0000
# 6 0.0000 0.0000 0.0000 0.0000 0.0000 14.2227
#
#
#
# Elastic Compliance Matrix: (Units=1/GPa)
#
#
# Indices 1 2 3 4 5 6 
#
# 1 0.033212 0.004475 -0.020321 0.000000 0.000000 0.000000
# 2 0.004475 0.020522 -0.011519 0.000000 0.000000 0.000000
# 3 -0.020321 -0.011519 0.029993 0.000000 0.000000 0.000000
# 4 0.000000 0.000000 0.000000 0.095647 0.000000 0.000000
# 5 0.000000 0.000000 0.000000 0.000000 0.077446 0.000000
# 6 0.000000 0.000000 0.000000 0.000000 0.000000 0.070310
#
#
# Mechanical properties :
#
#
# Convention : Reuss Voigt Hill
#
# Bulk Modulus (GPa) = 34.48473 39.77021 37.12747
# Shear Modulus (GPa) = 12.77059 14.66339 13.71699
#
# Velocity S-wave (km/s) = 2.70663 2.90029 2.80513
# Velocity P-wave (km/s) = 5.43599 5.83350 5.63825
#
# Compressibility (1/GPa) = 0.02899834
#
# Stress axis : x y z
#
# Youngs Moduli (GPa) = 30.10934 48.72897 33.34081
#
# Poissons Ratio (x) = -0.21806 0.67750
# Poissons Ratio (y) = -0.13474 0.38405
# Poissons Ratio (z) = 0.61184 0.56131
#
# Static dielectric constant tensor:
#      x y z
#    x 1.664910 0.000000 0.000000 
#    y 0.000000 1.618190 0.000000 
#    z 0.000000 0.000000 1.602490 
# 
# From -- ./inp_files/18221.got.cif
#   From: 2010.05.17/outbox.cif.g08.bks.cpg/sg52_10_cif.got.tgz:18221.got - 2010.06.03 12:15:38.
