data_PCOD9408323
_publ_section_title
;
Structure prediction by ZEFSAII (Michael W. Deem and Ramdas Pophale) SiO2 
 PCOD9408323
Probable space group: P N N A
;
_chemical_formula_sum "Si O2"
_cell_formula_units_Z 44
_cell_length_a 15.129249
_cell_length_b 21.918494
_cell_length_c 5.641551
_cell_angle_alpha 90.000000
_cell_angle_beta 90.000000
_cell_angle_gamma 90.000000
_cell_volume 1870.796721
_symmetry_space_group_name_H-M "P N N A"
_symmetry_group_IT_number 52
_symmetry_cell_setting 'orthorhombic'
loop_
_space_group_symop_operation_xyz
x,y,z
1/2-x,-y,z
x,1/2-y,1/2-z
1/2-x,1/2+y,1/2-z
-x,-y,-z
1/2+x,y,-z
-x,1/2+y,1/2+z
1/2+x,1/2-y,1/2+z
loop_
_atom_site_type_symbol
_atom_site_label
_atom_site_fract_x
_atom_site_fract_y
_atom_site_fract_z
Si Si1 0.750000 0.500000 0.076749
Si Si2 0.366271 0.279888 0.497716
Si Si3 0.431382 0.764996 0.502028
Si Si4 0.084701 0.993191 0.227910
Si Si5 0.001088 0.399634 0.051157
Si Si6 0.664848 0.907929 0.152558
O O1 0.750442 0.561613 0.232561
O O2 0.834744 0.494833 0.912337
O O3 0.338719 0.250000 0.750000
O O4 0.474715 0.273123 0.498852
O O5 0.330776 0.349036 0.489994
O O6 0.338786 0.250000 0.250000
O O7 0.384984 0.750000 0.750000
O O8 0.453509 0.836587 0.505574
O O9 0.387512 0.750000 0.250000
O O10 0.011817 0.946493 0.334148
O O11 0.121220 0.964336 0.988980
O O12 0.048107 0.061537 0.241480
O O13 0.902754 0.385809 0.144673
#
# Coordination Sequence:
#
# PCOD9408323 Si02
#       6
#     4   8   8   8   8   8
#     4  10  24  38  56  86 116 174 208 254 314 374
#     4  10  19  32  57  90 121 152 196 257 304 365
#     4  10  18  32  53  88 120 154 188 246 310 362
#     4  10  21  37  58  85 121 157 201 257 311 367
#     4  10  20  34  58  93 117 150 203 257 315 372
#     4  11  20  37  59  88 126 155 209 260 318 375
#
# _framework density 23.519393000000001
#
# number of rings (size 3 to 8) (size 9 to 14) (size 15 to 20)
#    0.000    1.818    3.636    3.273    2.545    0.000 
#    0.000    0.000    0.000    1.091    0.000    0.000 
#    0.000    0.000    0.000    0.000    0.000    0.000 
#
# Total GULP energy -245692.039921 kJ/mol
# GULP energy per Si atom -5583.909998 kJ/mol
# Density = 2.346586 g / cm^3
# Si number density = 23.519393 Si / 1000 Ang^3
#
#
#
# Elastic Constant Matrix: (Units=GPa)
#
#
# Indices 1 2 3 4 5 6 
#
# 1 32.3512 13.5276 10.7808 0.0000 0.0000 0.0000
# 2 13.5276 103.8137 21.3856 0.0000 0.0000 0.0000
# 3 10.7808 21.3856 135.6417 0.0000 0.0000 0.0000
# 4 0.0000 0.0000 0.0000 31.2713 0.0000 0.0000
# 5 0.0000 0.0000 0.0000 0.0000 5.5832 0.0000
# 6 0.0000 0.0000 0.0000 0.0000 0.0000 9.3203
#
#
#
# Elastic Compliance Matrix: (Units=1/GPa)
#
#
# Indices 1 2 3 4 5 6 
#
# 1 0.033221 -0.003912 -0.002024 0.000000 0.000000 0.000000
# 2 -0.003912 0.010417 -0.001331 0.000000 0.000000 0.000000
# 3 -0.002024 -0.001331 0.007743 0.000000 0.000000 0.000000
# 4 0.000000 0.000000 0.000000 0.031978 0.000000 0.000000
# 5 0.000000 0.000000 0.000000 0.000000 0.179108 0.000000
# 6 0.000000 0.000000 0.000000 0.000000 0.000000 0.107293
#
#
# Mechanical properties :
#
#
# Convention : Reuss Voigt Hill
#
# Bulk Modulus (GPa) = 27.13951 40.35495 33.74723
# Shear Modulus (GPa) = 12.60794 24.30913 18.45853
#
# Velocity S-wave (km/s) = 2.31782 3.21842 2.80451
# Velocity P-wave (km/s) = 4.32751 5.56834 4.98667
#
# Compressibility (1/GPa) = 0.03684665
#
# Stress axis : x y z
#
# Youngs Moduli (GPa) = 30.10146 95.99996 129.14704
#
# Poissons Ratio (x) = 0.37556 0.26134
# Poissons Ratio (y) = 0.11776 0.17194
# Poissons Ratio (z) = 0.06091 0.12781
#
# Static dielectric constant tensor:
#      x y z
#    x 1.895260 0.000000 0.000000 
#    y 0.000000 1.896680 0.000000 
#    z 0.000000 0.000000 1.960190 
# 
# From -- ./inp_files/4309.got.cif
#   From: 2010.05.17/outbox.cif.g08.bks.cpg/sg52_3_cif.got.tgz:4309.got - 2010.06.03 12:15:38.
