data_PCOD9408739
_publ_section_title
;
Structure prediction by ZEFSAII (Michael W. Deem and Ramdas Pophale) SiO2 
 PCOD9408739
Probable space group: P N N A
;
_chemical_formula_sum "Si O2"
_cell_formula_units_Z 44
_cell_length_a 28.112350
_cell_length_b 8.977692
_cell_length_c 8.773208
_cell_angle_alpha 90.000000
_cell_angle_beta 90.000000
_cell_angle_gamma 90.000000
_cell_volume 2214.217501
_symmetry_space_group_name_H-M "P N N A"
_symmetry_group_IT_number 52
_symmetry_cell_setting 'orthorhombic'
loop_
_space_group_symop_operation_xyz
x,y,z
1/2-x,-y,z
x,1/2-y,1/2-z
1/2-x,1/2+y,1/2-z
-x,-y,-z
1/2+x,y,-z
-x,1/2+y,1/2+z
1/2+x,1/2-y,1/2+z
loop_
_atom_site_type_symbol
_atom_site_label
_atom_site_fract_x
_atom_site_fract_y
_atom_site_fract_z
Si Si1 0.910427 0.342434 0.408559
Si Si2 0.250000 0.000000 0.116557
Si Si3 0.963811 0.575430 0.225686
Si Si4 0.832010 0.081118 0.680738
Si Si5 0.696275 0.729065 0.425629
Si Si6 0.564978 0.939086 0.593684
O O1 0.912495 0.250000 0.250000
O O2 0.940176 0.487720 0.366405
O O3 0.854123 0.361319 0.438722
O O4 0.931601 0.234603 0.538792
O O5 0.295458 0.982242 0.225842
O O6 0.262691 0.140001 0.011695
O O7 0.959933 0.750000 0.250000
O O8 0.018919 0.533776 0.195909
O O9 0.939384 0.528829 0.065045
O O10 0.830681 0.250000 0.750000
O O11 0.814561 0.114499 0.508930
O O12 0.885786 0.026739 0.676975
O O13 0.707105 0.750000 0.250000
#
# Coordination Sequence:
#
# PCOD9408739 Si02
#       6
#     8   4   8   8   8   8
#     4   8  16  33  54  74 104 146 189 225 267 334
#     4  10  20  34  56  82 104 130 184 244 278 312
#     4  10  19  31  51  83 112 140 187 238 274 317
#     4   9  18  35  58  81 105 142 190 232 277 340
#     4   9  18  35  57  78 103 145 190 224 275 348
#     4   9  18  34  55  75 108 154 185 218 278 342
#
# _framework density 19.871580000000002
#
# number of rings (size 3 to 8) (size 9 to 14) (size 15 to 20)
#    0.000    2.909    0.000    1.636    0.000    1.455 
#    0.000    6.364    0.000    9.818    0.000    0.000 
#    0.000    0.000    0.000    0.000    0.000    0.000 
#
# Total GULP energy -245414.242894 kJ/mol
# GULP energy per Si atom -5577.596429 kJ/mol
# Density = 1.982635 g / cm^3
# Si number density = 19.871580 Si / 1000 Ang^3
#
#
#
# Elastic Constant Matrix: (Units=GPa)
#
#
# Indices 1 2 3 4 5 6 
#
# 1 136.6508 38.0196 53.7266 0.0000 0.0000 0.0000
# 2 38.0196 48.2609 17.8207 0.0000 0.0000 0.0000
# 3 53.7266 17.8207 87.5783 0.0000 0.0000 0.0000
# 4 0.0000 0.0000 0.0000 19.8927 0.0000 0.0000
# 5 0.0000 0.0000 0.0000 0.0000 39.1253 0.0000
# 6 0.0000 0.0000 0.0000 0.0000 0.0000 23.0327
#
#
#
# Elastic Compliance Matrix: (Units=1/GPa)
#
#
# Indices 1 2 3 4 5 6 
#
# 1 0.011461 -0.006955 -0.005616 0.000000 0.000000 0.000000
# 2 -0.006955 0.026625 -0.001151 0.000000 0.000000 0.000000
# 3 -0.005616 -0.001151 0.015098 0.000000 0.000000 0.000000
# 4 0.000000 0.000000 0.000000 0.050270 0.000000 0.000000
# 5 0.000000 0.000000 0.000000 0.000000 0.025559 0.000000
# 6 0.000000 0.000000 0.000000 0.000000 0.000000 0.043417
#
#
# Mechanical properties :
#
#
# Convention : Reuss Voigt Hill
#
# Bulk Modulus (GPa) = 38.85021 54.62486 46.73754
# Shear Modulus (GPa) = 23.98633 27.27168 25.62901
#
# Velocity S-wave (km/s) = 3.47806 3.70861 3.59518
# Velocity P-wave (km/s) = 5.97681 6.77399 6.38785
#
# Compressibility (1/GPa) = 0.02573989
#
# Stress axis : x y z
#
# Youngs Moduli (GPa) = 87.25305 37.55880 66.23575
#
# Poissons Ratio (x) = 0.26123 0.37196
# Poissons Ratio (y) = 0.60686 0.07623
# Poissons Ratio (z) = 0.48998 0.04323
#
# Static dielectric constant tensor:
#      x y z
#    x 1.720510 0.000000 0.000000 
#    y 0.000000 1.693420 0.000000 
#    z 0.000000 0.000000 1.773880 
# 
# From -- ./inp_files/15399.got.cif
#   From: 2010.05.17/outbox.cif.g08.bks.cpg/sg52_8_cif.got.tgz:15399.got - 2010.06.03 12:15:38.
