data_PCOD9408138
_publ_section_title
;
Structure prediction by ZEFSAII (Michael W. Deem and Ramdas Pophale) SiO2 
 PCOD9408138
Probable space group: P N N A
;
_chemical_formula_sum "Si O2"
_cell_formula_units_Z 56
_cell_length_a 17.225107
_cell_length_b 8.235457
_cell_length_c 23.516243
_cell_angle_alpha 90.000000
_cell_angle_beta 90.000000
_cell_angle_gamma 90.000000
_cell_volume 3335.934936
_symmetry_space_group_name_H-M "P N N A"
_symmetry_group_IT_number 52
_symmetry_cell_setting 'orthorhombic'
loop_
_space_group_symop_operation_xyz
x,y,z
1/2-x,-y,z
x,1/2-y,1/2-z
1/2-x,1/2+y,1/2-z
-x,-y,-z
1/2+x,y,-z
-x,1/2+y,1/2+z
1/2+x,1/2-y,1/2+z
loop_
_atom_site_type_symbol
_atom_site_label
_atom_site_fract_x
_atom_site_fract_y
_atom_site_fract_z
Si Si1 0.134987 0.607802 0.487976
Si Si2 0.438408 0.880488 0.429363
Si Si3 0.793521 0.749191 0.524613
Si Si4 0.727112 0.687633 0.314043
Si Si5 0.996107 0.726228 0.055771
Si Si6 0.341029 0.643023 0.903208
Si Si7 0.404816 0.224965 0.607795
O O1 0.167301 0.426749 0.486657
O O2 0.203755 0.718845 0.462204
O O3 0.054812 0.627209 0.454051
O O4 0.119415 0.673495 0.551646
O O5 0.348095 0.835260 0.429075
O O6 0.464282 0.829727 0.493756
O O7 0.501868 0.789143 0.390695
O O8 0.454789 0.071251 0.423164
O O9 0.799319 0.838717 0.464017
O O10 0.750000 0.500000 0.318051
O O11 0.732685 0.750000 0.250000
O O12 0.783972 0.794332 0.354470
O O13 0.640384 0.705099 0.338677
O O14 0.919938 0.750479 0.093465
O O15 0.372190 0.459480 0.898421
#
# Coordination Sequence:
#
# PCOD9408138 Si02
#       7
#     8   8   8   8   8   8   8
#     4  10  18  26  40  65  93 121 152 184 220 265
#     4   8  16  28  42  61  84 115 151 182 220 267
#     4  10  18  26  40  65  93 121 152 184 220 265
#     4  12  24  36  50  68  88 116 154 192 231 270
#     4   8  16  28  42  61  84 115 151 182 220 267
#     4  10  19  32  47  62  85 117 151 189 228 267
#     4  10  19  32  47  62  85 117 151 189 228 267
#
# _framework density 16.786898000000001
#
# number of rings (size 3 to 8) (size 9 to 14) (size 15 to 20)
#    0.000    2.286    1.429    4.714    0.000    8.000 
#    0.000    0.000    0.000    0.000    0.000    0.000 
#    0.000    1.143    0.000    3.714    0.000    5.429 
#
# Total GULP energy -312284.262029 kJ/mol
# GULP energy per Si atom -5576.504679 kJ/mol
# Density = 1.674869 g / cm^3
# Si number density = 16.786898 Si / 1000 Ang^3
#
#
#
# Elastic Constant Matrix: (Units=GPa)
#
#
# Indices 1 2 3 4 5 6 
#
# 1 74.0680 7.4162 30.1835 0.0000 0.0000 0.0000
# 2 7.4162 36.7148 8.1631 0.0000 0.0000 0.0000
# 3 30.1835 8.1631 49.6626 0.0000 0.0000 0.0000
# 4 0.0000 0.0000 0.0000 12.7941 0.0000 0.0000
# 5 0.0000 0.0000 0.0000 0.0000 15.9382 0.0000
# 6 0.0000 0.0000 0.0000 0.0000 0.0000 31.4169
#
#
#
# Elastic Compliance Matrix: (Units=1/GPa)
#
#
# Indices 1 2 3 4 5 6 
#
# 1 0.018001 -0.001249 -0.010735 0.000000 0.000000 0.000000
# 2 -0.001249 0.028357 -0.003902 0.000000 0.000000 0.000000
# 3 -0.010735 -0.003902 0.027302 0.000000 0.000000 0.000000
# 4 0.000000 0.000000 0.000000 0.078161 0.000000 0.000000
# 5 0.000000 0.000000 0.000000 0.000000 0.062742 0.000000
# 6 0.000000 0.000000 0.000000 0.000000 0.000000 0.031830
#
#
# Mechanical properties :
#
#
# Convention : Reuss Voigt Hill
#
# Bulk Modulus (GPa) = 23.87367 27.99678 25.93522
# Shear Modulus (GPa) = 17.11583 19.67535 18.39559
#
# Velocity S-wave (km/s) = 3.19657 3.42726 3.31392
# Velocity P-wave (km/s) = 5.27983 5.68994 5.48872
#
# Compressibility (1/GPa) = 0.04188715
#
# Stress axis : x y z
#
# Youngs Moduli (GPa) = 55.55294 35.26487 36.62776
#
# Poissons Ratio (x) = 0.04406 0.39320
# Poissons Ratio (y) = 0.06940 0.14291
# Poissons Ratio (z) = 0.59636 0.13760
#
# Static dielectric constant tensor:
#      x y z
#    x 1.631170 0.000000 0.000000 
#    y 0.000000 1.628990 0.000000 
#    z 0.000000 0.000000 1.519000 
# 
# From -- ./inp_files/37639.got.cif
#   From: 2010.05.17/outbox.cif.g08.bks.cpg/sg52_19_cif.got.tgz:37639.got - 2010.06.03 12:15:38.
