data_PCOD9408993
_publ_section_title
;
Structure prediction by ZEFSAII (Michael W. Deem and Ramdas Pophale) SiO2 
 PCOD9408993
Probable space group: P N N A
;
_chemical_formula_sum "Si O2"
_cell_formula_units_Z 48
_cell_length_a 30.265237
_cell_length_b 5.725846
_cell_length_c 14.077581
_cell_angle_alpha 90.000000
_cell_angle_beta 90.000000
_cell_angle_gamma 90.000000
_cell_volume 2439.561536
_symmetry_space_group_name_H-M "P N N A"
_symmetry_group_IT_number 52
_symmetry_cell_setting 'orthorhombic'
loop_
_space_group_symop_operation_xyz
x,y,z
1/2-x,-y,z
x,1/2-y,1/2-z
1/2-x,1/2+y,1/2-z
-x,-y,-z
1/2+x,y,-z
-x,1/2+y,1/2+z
1/2+x,1/2-y,1/2+z
loop_
_atom_site_type_symbol
_atom_site_label
_atom_site_fract_x
_atom_site_fract_y
_atom_site_fract_z
Si Si1 0.643235 0.429212 0.473280
Si Si2 0.075753 0.682109 0.641775
Si Si3 0.275992 0.749189 0.640361
Si Si4 0.518126 0.383904 0.649164
Si Si5 0.068048 0.070836 0.490212
Si Si6 0.392923 0.193452 0.144869
O O1 0.623990 0.615470 0.397969
O O2 0.685729 0.292437 0.436957
O O3 0.640735 0.550347 0.577065
O O4 0.602655 0.254321 0.472005
O O5 0.081107 0.750000 0.750000
O O6 0.059842 0.894184 0.575425
O O7 0.031654 0.516341 0.637323
O O8 0.250000 0.500000 0.633601
O O9 0.292779 0.750000 0.750000
O O10 0.250000 0.000000 0.626502
O O11 0.518312 0.250000 0.750000
O O12 0.559871 0.557967 0.650960
O O13 0.529588 0.209712 0.562630
O O14 0.093914 0.928563 0.408666
O O15 0.376558 0.250000 0.250000
#
# Coordination Sequence:
#
# PCOD9408993 Si02
#       6
#     8   8   8   8   8   8
#     4  10  24  38  60  93 121 156 208 260 322 383
#     4  10  23  35  52  83 123 169 209 259 319 366
#     4  10  24  44  72 100 131 168 202 251 320 403
#     4  10  19  35  53  80 116 167 220 260 307 365
#     4  10  21  35  56  81 115 163 207 268 305 369
#     4  10  20  37  60  84 118 163 217 261 306 367
#
# _framework density 19.675666
#
# number of rings (size 3 to 8) (size 9 to 14) (size 15 to 20)
#    0.000    2.000    1.667    0.500    7.000    8.000 
#    0.000    0.000    0.000    0.000    4.333    0.000 
#    0.000    0.000    0.000    0.000    0.000    0.000 
#
# Total GULP energy -267278.415034 kJ/mol
# GULP energy per Si atom -5568.300313 kJ/mol
# Density = 1.963088 g / cm^3
# Si number density = 19.675666 Si / 1000 Ang^3
#
#
#
# Elastic Constant Matrix: (Units=GPa)
#
#
# Indices 1 2 3 4 5 6 
#
# 1 51.0820 22.3529 54.2362 0.0000 0.0000 0.0000
# 2 22.3529 35.5558 13.0634 0.0000 0.0000 0.0000
# 3 54.2362 13.0634 131.8751 0.0000 0.0000 0.0000
# 4 0.0000 0.0000 0.0000 9.2851 0.0000 0.0000
# 5 0.0000 0.0000 0.0000 0.0000 35.2881 0.0000
# 6 0.0000 0.0000 0.0000 0.0000 0.0000 4.6294
#
#
#
# Elastic Compliance Matrix: (Units=1/GPa)
#
#
# Indices 1 2 3 4 5 6 
#
# 1 0.049114 -0.024341 -0.017788 0.000000 0.000000 0.000000
# 2 -0.024341 0.041251 0.005925 0.000000 0.000000 0.000000
# 3 -0.017788 0.005925 0.014312 0.000000 0.000000 0.000000
# 4 0.000000 0.000000 0.000000 0.107699 0.000000 0.000000
# 5 0.000000 0.000000 0.000000 0.000000 0.028338 0.000000
# 6 0.000000 0.000000 0.000000 0.000000 0.000000 0.216011
#
#
# Mechanical properties :
#
#
# Convention : Reuss Voigt Hill
#
# Bulk Modulus (GPa) = 30.99113 44.20199 37.59656
# Shear Modulus (GPa) = 9.26116 18.43122 13.84619
#
# Velocity S-wave (km/s) = 2.17189 3.06396 2.65565
# Velocity P-wave (km/s) = 4.69837 5.91872 5.34350
#
# Compressibility (1/GPa) = 0.03226729
#
# Stress axis : x y z
#
# Youngs Moduli (GPa) = 20.36080 24.24205 69.87318
#
# Poissons Ratio (x) = 0.59008 1.24289
# Poissons Ratio (y) = 0.49561 -0.41396
# Poissons Ratio (z) = 0.36217 -0.14362
#
# Static dielectric constant tensor:
#      x y z
#    x 1.679190 0.000000 0.000000 
#    y 0.000000 1.743060 0.000000 
#    z 0.000000 0.000000 1.695090 
# 
# From -- ./inp_files/29405.got.cif
#   From: 2010.05.17/outbox.cif.g08.bks.cpg/sg52_15_cif.got.tgz:29405.got - 2010.06.03 12:15:38.
