data_PCOD9408452
_publ_section_title
;
Structure prediction by ZEFSAII (Michael W. Deem and Ramdas Pophale) SiO2 
 PCOD9408452
Probable space group: P N N A
;
_chemical_formula_sum "Si O2"
_cell_formula_units_Z 44
_cell_length_a 28.454483
_cell_length_b 5.979799
_cell_length_c 12.788927
_cell_angle_alpha 90.000000
_cell_angle_beta 90.000000
_cell_angle_gamma 90.000000
_cell_volume 2176.062645
_symmetry_space_group_name_H-M "P N N A"
_symmetry_group_IT_number 52
_symmetry_cell_setting 'orthorhombic'
loop_
_space_group_symop_operation_xyz
x,y,z
1/2-x,-y,z
x,1/2-y,1/2-z
1/2-x,1/2+y,1/2-z
-x,-y,-z
1/2+x,y,-z
-x,1/2+y,1/2+z
1/2+x,1/2-y,1/2+z
loop_
_atom_site_type_symbol
_atom_site_label
_atom_site_fract_x
_atom_site_fract_y
_atom_site_fract_z
Si Si1 0.947840 0.024315 0.541935
Si Si2 0.297673 0.883803 0.460507
Si Si3 0.134593 0.741651 0.554668
Si Si4 0.880388 0.632029 0.620459
Si Si5 0.800815 0.579494 0.334506
Si Si6 0.579021 0.750000 0.750000
O O1 0.922039 0.799514 0.584288
O O2 0.914719 0.126003 0.449591
O O3 0.948075 0.185761 0.644092
O O4 0.000000 0.000000 0.500000
O O5 0.330972 0.762590 0.376928
O O6 0.289849 0.709791 0.556410
O O7 0.250000 0.000000 0.423090
O O8 0.328872 0.081984 0.508121
O O9 0.125970 0.542582 0.473402
O O10 0.161890 0.617621 0.647287
O O11 0.892004 0.473458 0.718679
O O12 0.750000 0.500000 0.294517
O O13 0.820972 0.750000 0.250000
#
# Coordination Sequence:
#
# PCOD9408452 Si02
#       6
#     8   8   8   8   8   4
#     4  10  21  40  70  90 124 160 205 257 320 382
#     4  10  18  34  57  87 115 161 213 252 312 364
#     4   9  20  36  56  88 116 161 205 254 311 369
#     4   9  20  36  62  91 115 158 203 250 308 376
#     4  11  21  31  53  82 123 169 220 259 309 373
#     4  10  20  38  64  98 116 162 210 248 312 386
#
# _framework density 20.220006999999999
#
# number of rings (size 3 to 8) (size 9 to 14) (size 15 to 20)
#    0.000    2.182    1.818    1.091    0.000    2.909 
#    0.000    0.000   48.000    0.000  170.182    0.000 
#    0.000    0.000    0.000    0.000    0.000    0.000 
#
# Total GULP energy -245236.938351 kJ/mol
# GULP energy per Si atom -5573.566781 kJ/mol
# Density = 2.017399 g / cm^3
# Si number density = 20.220007 Si / 1000 Ang^3
#
#
#
# Elastic Constant Matrix: (Units=GPa)
#
#
# Indices 1 2 3 4 5 6 
#
# 1 173.8793 63.4629 36.9804 0.0000 0.0000 0.0000
# 2 63.4629 112.2718 32.5110 0.0000 0.0000 0.0000
# 3 36.9804 32.5110 72.4798 0.0000 0.0000 0.0000
# 4 0.0000 0.0000 0.0000 49.0857 0.0000 0.0000
# 5 0.0000 0.0000 0.0000 0.0000 9.8006 0.0000
# 6 0.0000 0.0000 0.0000 0.0000 0.0000 23.1095
#
#
#
# Elastic Compliance Matrix: (Units=1/GPa)
#
#
# Indices 1 2 3 4 5 6 
#
# 1 0.007546 -0.003621 -0.002226 0.000000 0.000000 0.000000
# 2 -0.003621 0.011974 -0.003524 0.000000 0.000000 0.000000
# 3 -0.002226 -0.003524 0.016513 0.000000 0.000000 0.000000
# 4 0.000000 0.000000 0.000000 0.020373 0.000000 0.000000
# 5 0.000000 0.000000 0.000000 0.000000 0.102034 0.000000
# 6 0.000000 0.000000 0.000000 0.000000 0.000000 0.043272
#
#
# Mechanical properties :
#
#
# Convention : Reuss Voigt Hill
#
# Bulk Modulus (GPa) = 57.82868 69.39327 63.61098
# Shear Modulus (GPa) = 22.10261 31.44427 26.77344
#
# Velocity S-wave (km/s) = 3.30980 3.94776 3.64278
# Velocity P-wave (km/s) = 6.57786 7.42788 7.01575
#
# Compressibility (1/GPa) = 0.01729246
#
# Stress axis : x y z
#
# Youngs Moduli (GPa) = 132.51855 83.51386 60.55770
#
# Poissons Ratio (x) = 0.30240 0.13480
# Poissons Ratio (y) = 0.47984 0.21338
# Poissons Ratio (z) = 0.29498 0.29426
#
# Static dielectric constant tensor:
#      x y z
#    x 1.697500 0.000000 0.000000 
#    y 0.000000 1.775200 0.000000 
#    z 0.000000 0.000000 1.756700 
# 
# From -- ./inp_files/29362.got.cif
#   From: 2010.05.17/outbox.cif.g08.bks.cpg/sg52_15_cif.got.tgz:29362.got - 2010.06.03 12:15:38.
