data_PCOD9408363
_publ_section_title
;
Structure prediction by ZEFSAII (Michael W. Deem and Ramdas Pophale) SiO2 
 PCOD9408363
Probable space group: P N N A
;
_chemical_formula_sum "Si O2"
_cell_formula_units_Z 36
_cell_length_a 15.404562
_cell_length_b 10.884131
_cell_length_c 11.445897
_cell_angle_alpha 90.000000
_cell_angle_beta 90.000000
_cell_angle_gamma 90.000000
_cell_volume 1919.079420
_symmetry_space_group_name_H-M "P N N A"
_symmetry_group_IT_number 52
_symmetry_cell_setting 'orthorhombic'
loop_
_space_group_symop_operation_xyz
x,y,z
1/2-x,-y,z
x,1/2-y,1/2-z
1/2-x,1/2+y,1/2-z
-x,-y,-z
1/2+x,y,-z
-x,1/2+y,1/2+z
1/2+x,1/2-y,1/2+z
loop_
_atom_site_type_symbol
_atom_site_label
_atom_site_fract_x
_atom_site_fract_y
_atom_site_fract_z
Si Si1 0.130829 0.781670 0.386150
Si Si2 0.351922 0.466733 0.925207
Si Si3 0.832741 0.250000 0.250000
Si Si4 0.935440 0.769324 0.389246
Si Si5 0.268139 0.640320 0.536880
O O1 0.134942 0.750000 0.250000
O O2 0.137438 0.917595 0.442089
O O3 0.211965 0.716107 0.445355
O O4 0.034140 0.740719 0.424548
O O5 0.250000 0.500000 0.905689
O O6 0.376024 0.354856 0.834444
O O7 0.408037 0.589084 0.909234
O O8 0.773112 0.326619 0.338004
O O9 0.928349 0.750000 0.250000
O O10 0.867051 0.683346 0.455832
O O11 0.250000 0.500000 0.512447
#
# Coordination Sequence:
#
# PCOD9408363 Si02
#       5
#     8   8   4   8   8
#     4  10  24  39  58  86 122 163 204 242 310 370
#     4  11  19  36  63  89 122 161 199 255 307 370
#     4  10  18  32  60  94 112 146 200 252 308 352
#     4  11  20  38  64  91 117 158 203 258 310 360
#     4  11  21  37  60  87 119 153 202 251 305 358
#
# _framework density 18.758996
#
# number of rings (size 3 to 8) (size 9 to 14) (size 15 to 20)
#    0.000    1.333    5.556    2.667    0.000    1.778 
#    0.000    2.222    9.778    0.000    0.000    0.000 
#    0.000    0.000    0.000    0.000    0.000    0.000 
#
# Total GULP energy -200566.512808 kJ/mol
# GULP energy per Si atom -5571.292022 kJ/mol
# Density = 1.871630 g / cm^3
# Si number density = 18.758996 Si / 1000 Ang^3
#
#
#
# Elastic Constant Matrix: (Units=GPa)
#
#
# Indices 1 2 3 4 5 6 
#
# 1 94.9928 -8.5194 21.8542 0.0000 0.0000 0.0000
# 2 -8.5194 62.8698 11.8896 0.0000 0.0000 0.0000
# 3 21.8542 11.8896 84.5933 0.0000 0.0000 0.0000
# 4 0.0000 0.0000 0.0000 27.3683 0.0000 0.0000
# 5 0.0000 0.0000 0.0000 0.0000 35.1173 0.0000
# 6 0.0000 0.0000 0.0000 0.0000 0.0000 17.8977
#
#
#
# Elastic Compliance Matrix: (Units=1/GPa)
#
#
# Indices 1 2 3 4 5 6 
#
# 1 0.011474 0.002173 -0.003270 0.000000 0.000000 0.000000
# 2 0.002173 0.016752 -0.002916 0.000000 0.000000 0.000000
# 3 -0.003270 -0.002916 0.013076 0.000000 0.000000 0.000000
# 4 0.000000 0.000000 0.000000 0.036539 0.000000 0.000000
# 5 0.000000 0.000000 0.000000 0.000000 0.028476 0.000000
# 6 0.000000 0.000000 0.000000 0.000000 0.000000 0.055873
#
#
# Mechanical properties :
#
#
# Convention : Reuss Voigt Hill
#
# Bulk Modulus (GPa) = 30.05078 32.54496 31.29787
# Shear Modulus (GPa) = 27.57757 30.55878 29.06818
#
# Velocity S-wave (km/s) = 3.83835 4.04049 3.94071
# Velocity P-wave (km/s) = 5.97478 6.25732 6.11768
#
# Compressibility (1/GPa) = 0.03327701
#
# Stress axis : x y z
#
# Youngs Moduli (GPa) = 87.15159 59.69506 76.47705
#
# Poissons Ratio (x) = -0.12973 0.25006
# Poissons Ratio (y) = -0.18940 0.22300
# Poissons Ratio (z) = 0.28496 0.17406
#
# Static dielectric constant tensor:
#      x y z
#    x 1.663130 0.000000 0.000000 
#    y 0.000000 1.762530 0.000000 
#    z 0.000000 0.000000 1.672870 
# 
# From -- ./inp_files/19148.got.cif
#   From: 2010.05.17/outbox.cif.g08.bks.cpg/sg52_10_cif.got.tgz:19148.got - 2010.06.03 12:15:38.
