data_PCOD9408024
_publ_section_title
;
Structure prediction by ZEFSAII (Michael W. Deem and Ramdas Pophale) SiO2 
 PCOD9408024
Probable space group: P N N A
;
_chemical_formula_sum "Si O2"
_cell_formula_units_Z 56
_cell_length_a 8.932464
_cell_length_b 23.661608
_cell_length_c 16.483543
_cell_angle_alpha 90.000000
_cell_angle_beta 90.000000
_cell_angle_gamma 90.000000
_cell_volume 3483.903324
_symmetry_space_group_name_H-M "P N N A"
_symmetry_group_IT_number 52
_symmetry_cell_setting 'orthorhombic'
loop_
_space_group_symop_operation_xyz
x,y,z
1/2-x,-y,z
x,1/2-y,1/2-z
1/2-x,1/2+y,1/2-z
-x,-y,-z
1/2+x,y,-z
-x,1/2+y,1/2+z
1/2+x,1/2-y,1/2+z
loop_
_atom_site_type_symbol
_atom_site_label
_atom_site_fract_x
_atom_site_fract_y
_atom_site_fract_z
Si Si1 0.850728 0.949977 0.188113
Si Si2 0.286378 0.854519 0.146421
Si Si3 0.007543 0.839445 0.241964
Si Si4 0.390432 0.041005 0.067974
Si Si5 0.413142 0.107150 0.912334
Si Si6 0.191694 0.779687 0.003378
Si Si7 0.066483 0.256274 0.886004
O O1 0.933102 0.901473 0.240211
O O2 0.734094 0.917381 0.129803
O O3 0.981866 0.976318 0.131936
O O4 0.750000 0.000000 0.226677
O O5 0.184774 0.903554 0.107478
O O6 0.453146 0.879250 0.150124
O O7 0.287748 0.804574 0.079352
O O8 0.187754 0.839170 0.225500
O O9 0.946740 0.802310 0.165553
O O10 0.960699 0.805705 0.321917
O O11 0.250000 0.000000 0.054619
O O12 0.460997 0.063763 0.984064
O O13 0.371914 0.165334 0.957397
O O14 0.062331 0.745217 0.046861
O O15 0.282110 0.744812 0.936921
#
# Coordination Sequence:
#
# PCOD9408024 Si02
#       7
#     8   8   8   8   8   8   8
#     4  11  21  31  46  70 101 138 175 207 245 300
#     4   9  18  29  45  66  98 131 168 204 243 295
#     4   9  20  35  49  68  99 140 164 204 263 306
#     4  10  19  29  41  66  99 139 177 203 234 278
#     4  11  18  28  45  70 102 131 171 207 237 288
#     4  10  17  29  51  74  92 129 165 211 252 300
#     4  10  18  34  54  70  99 129 170 210 261 308
#
# _framework density 16.073924999999999
#
# number of rings (size 3 to 8) (size 9 to 14) (size 15 to 20)
#    0.000    2.000    2.857    3.857    0.000    1.714 
#    0.000    1.429    3.143    0.000    0.000    1.000 
#    0.000    0.000    0.000    0.000    0.000    0.000 
#
# Total GULP energy -311996.328191 kJ/mol
# GULP energy per Si atom -5571.363003 kJ/mol
# Density = 1.603734 g / cm^3
# Si number density = 16.073925 Si / 1000 Ang^3
#
#
#
# Elastic Constant Matrix: (Units=GPa)
#
#
# Indices 1 2 3 4 5 6 
#
# 1 84.2316 30.3301 33.4641 0.0000 0.0000 0.0000
# 2 30.3301 66.8981 34.3223 0.0000 0.0000 0.0000
# 3 33.4641 34.3223 58.0959 0.0000 0.0000 0.0000
# 4 0.0000 0.0000 0.0000 23.4816 0.0000 0.0000
# 5 0.0000 0.0000 0.0000 0.0000 16.3329 0.0000
# 6 0.0000 0.0000 0.0000 0.0000 0.0000 22.5156
#
#
#
# Elastic Compliance Matrix: (Units=1/GPa)
#
#
# Indices 1 2 3 4 5 6 
#
# 1 0.015984 -0.003620 -0.007068 0.000000 0.000000 0.000000
# 2 -0.003620 0.022270 -0.011071 0.000000 0.000000 0.000000
# 3 -0.007068 -0.011071 0.027825 0.000000 0.000000 0.000000
# 4 0.000000 0.000000 0.000000 0.042587 0.000000 0.000000
# 5 0.000000 0.000000 0.000000 0.000000 0.061226 0.000000
# 6 0.000000 0.000000 0.000000 0.000000 0.000000 0.044414
#
#
# Mechanical properties :
#
#
# Convention : Reuss Voigt Hill
#
# Bulk Modulus (GPa) = 44.32803 45.05095 44.68949
# Shear Modulus (GPa) = 18.84353 19.87330 19.35841
#
# Velocity S-wave (km/s) = 3.42761 3.52002 3.47412
# Velocity P-wave (km/s) = 6.58043 6.67899 6.62990
#
# Compressibility (1/GPa) = 0.02255909
#
# Stress axis : x y z
#
# Youngs Moduli (GPa) = 62.56390 44.90424 35.93909
#
# Poissons Ratio (x) = 0.16257 0.25402
# Poissons Ratio (y) = 0.22651 0.39789
# Poissons Ratio (z) = 0.44220 0.49714
#
# Static dielectric constant tensor:
#      x y z
#    x 1.585900 0.000000 0.000000 
#    y 0.000000 1.578910 0.000000 
#    z 0.000000 0.000000 1.518540 
# 
# From -- ./inp_files/31622.got.cif
#   From: 2010.05.17/outbox.cif.g08.bks.cpg/sg52_16_cif.got.tgz:31622.got - 2010.06.03 12:15:38.
