data_PCOD9408699
_publ_section_title
;
Structure prediction by ZEFSAII (Michael W. Deem and Ramdas Pophale) SiO2 
 PCOD9408699
Probable space group: P N N A
;
_chemical_formula_sum "Si O2"
_cell_formula_units_Z 48
_cell_length_a 5.248734
_cell_length_b 20.464587
_cell_length_c 23.814283
_cell_angle_alpha 90.000000
_cell_angle_beta 90.000000
_cell_angle_gamma 90.000000
_cell_volume 2557.967714
_symmetry_space_group_name_H-M "P N N A"
_symmetry_group_IT_number 52
_symmetry_cell_setting 'orthorhombic'
loop_
_space_group_symop_operation_xyz
x,y,z
1/2-x,-y,z
x,1/2-y,1/2-z
1/2-x,1/2+y,1/2-z
-x,-y,-z
1/2+x,y,-z
-x,1/2+y,1/2+z
1/2+x,1/2-y,1/2+z
loop_
_atom_site_type_symbol
_atom_site_label
_atom_site_fract_x
_atom_site_fract_y
_atom_site_fract_z
Si Si1 0.847381 0.693289 0.295523
Si Si2 0.823156 0.608633 0.848882
Si Si3 0.670747 0.429191 0.214811
Si Si4 0.552166 0.750412 0.478659
Si Si5 0.161185 0.600531 0.022078
Si Si6 0.165860 0.239413 0.146378
O O1 0.897964 0.750000 0.250000
O O2 0.841314 0.624903 0.263228
O O3 0.570998 0.708229 0.321055
O O4 0.074907 0.700844 0.340568
O O5 0.602717 0.570956 0.815506
O O6 0.765855 0.599958 0.914840
O O7 0.107295 0.590010 0.829848
O O8 0.792423 0.685512 0.835256
O O9 0.750000 0.500000 0.236648
O O10 0.335168 0.721031 0.519109
O O11 0.607268 0.825189 0.499130
O O12 0.425341 0.745441 0.417942
O O13 0.381539 0.570642 0.983502
#
# Coordination Sequence:
#
# PCOD9408699 Si02
#       6
#     8   8   8   8   8   8
#     4  12  23  37  59  86 116 143 195 251 293 341
#     4  12  21  37  63  84 112 157 198 235 287 348
#     4  12  27  43  59  80 116 161 201 243 291 345
#     4  10  19  30  50  84 122 153 169 225 297 344
#     4  10  19  30  53  86 112 154 185 232 293 329
#     4  12  21  34  58  93 115 146 190 239 295 341
#
# _framework density 18.764896
#
# number of rings (size 3 to 8) (size 9 to 14) (size 15 to 20)
#    0.000    0.667    6.667    4.000    4.667    0.000 
#    0.000    0.000    0.000   10.000    0.000    0.000 
#    0.000   13.333    0.000    0.000    0.000    0.000 
#
# Total GULP energy -267980.870050 kJ/mol
# GULP energy per Si atom -5582.934793 kJ/mol
# Density = 1.872219 g / cm^3
# Si number density = 18.764896 Si / 1000 Ang^3
#
#
#
# Elastic Constant Matrix: (Units=GPa)
#
#
# Indices 1 2 3 4 5 6 
#
# 1 151.2737 17.5831 23.3249 0.0000 0.0000 0.0000
# 2 17.5831 78.1842 34.4521 0.0000 0.0000 0.0000
# 3 23.3249 34.4521 64.0139 0.0000 0.0000 0.0000
# 4 0.0000 0.0000 0.0000 1.9223 0.0000 0.0000
# 5 0.0000 0.0000 0.0000 0.0000 38.8887 0.0000
# 6 0.0000 0.0000 0.0000 0.0000 0.0000 19.5094
#
#
#
# Elastic Compliance Matrix: (Units=1/GPa)
#
#
# Indices 1 2 3 4 5 6 
#
# 1 0.007025 -0.000592 -0.002241 0.000000 0.000000 0.000000
# 2 -0.000592 0.016817 -0.008835 0.000000 0.000000 0.000000
# 3 -0.002241 -0.008835 0.021193 0.000000 0.000000 0.000000
# 4 0.000000 0.000000 0.000000 0.520207 0.000000 0.000000
# 5 0.000000 0.000000 0.000000 0.000000 0.025714 0.000000
# 6 0.000000 0.000000 0.000000 0.000000 0.000000 0.051257
#
#
# Mechanical properties :
#
#
# Convention : Reuss Voigt Hill
#
# Bulk Modulus (GPa) = 46.08638 49.35467 47.72052
# Shear Modulus (GPa) = 7.43182 26.60487 17.01835
#
# Velocity S-wave (km/s) = 1.99226 3.76945 3.01479
# Velocity P-wave (km/s) = 5.46858 6.73080 6.13225
#
# Compressibility (1/GPa) = 0.02169838
#
# Stress axis : x y z
#
# Youngs Moduli (GPa) = 142.35061 59.46507 47.18549
#
# Poissons Ratio (x) = 0.03523 0.10574
# Poissons Ratio (y) = 0.08433 0.41687
# Poissons Ratio (z) = 0.31898 0.52536
#
# Static dielectric constant tensor:
#      x y z
#    x 1.769590 0.000000 0.000000 
#    y 0.000000 1.709060 0.000000 
#    z 0.000000 0.000000 1.683630 
# 
# From -- ./inp_files/38827.got.cif
#   From: 2010.05.17/outbox.cif.g08.bks.cpg/sg52_20_cif.got.tgz:38827.got - 2010.06.03 12:15:38.
