data_PCOD9408484
_publ_section_title
;
Structure prediction by ZEFSAII (Michael W. Deem and Ramdas Pophale) SiO2 
 PCOD9408484
Probable space group: P N N A
;
_chemical_formula_sum "Si O2"
_cell_formula_units_Z 32
_cell_length_a 7.844835
_cell_length_b 8.387557
_cell_length_c 20.700350
_cell_angle_alpha 90.000000
_cell_angle_beta 90.000000
_cell_angle_gamma 90.000000
_cell_volume 1362.062345
_symmetry_space_group_name_H-M "P N N A"
_symmetry_group_IT_number 52
_symmetry_cell_setting 'orthorhombic'
loop_
_space_group_symop_operation_xyz
x,y,z
1/2-x,-y,z
x,1/2-y,1/2-z
1/2-x,1/2+y,1/2-z
-x,-y,-z
1/2+x,y,-z
-x,1/2+y,1/2+z
1/2+x,1/2-y,1/2+z
loop_
_atom_site_type_symbol
_atom_site_label
_atom_site_fract_x
_atom_site_fract_y
_atom_site_fract_z
Si Si1 0.314699 0.250000 0.750000
Si Si2 0.444307 0.216446 0.935156
Si Si3 0.250000 0.500000 0.651071
Si Si4 0.570470 0.050842 0.663270
Si Si5 0.068813 0.141146 0.550071
O O1 0.212457 0.350416 0.697407
O O2 0.435631 0.377894 0.786535
O O3 0.582278 0.309270 0.891003
O O4 0.267920 0.321628 0.937480
O O5 0.398440 0.059728 0.895604
O O6 0.504048 0.208648 0.008519
O O7 0.505974 0.904982 0.619077
O O8 0.750000 0.000000 0.692445
O O9 0.000000 0.000000 0.500000
#
# Coordination Sequence:
#
# PCOD9408484 Si02
#       5
#     4   8   4   8   8
#     4  10  24  42  66  92 134 178 234 278 336 404
#     4  10  21  37  63  99 127 173 212 272 334 408
#     4  10  24  42  66  94 132 172 232 274 334 412
#     4  10  20  38  61  90 130 169 222 269 325 402
#     4  10  18  34  64  93 129 163 209 263 337 398
#
# _framework density 23.493784999999999
#
# number of rings (size 3 to 8) (size 9 to 14) (size 15 to 20)
#    0.000    2.000    0.000    6.000    7.000    1.000 
#    4.500    0.000    0.000    0.000    0.000    0.000 
#    0.000    0.000    0.000    0.000    0.000    0.000 
#
# Total GULP energy -178325.899029 kJ/mol
# GULP energy per Si atom -5572.684345 kJ/mol
# Density = 2.344031 g / cm^3
# Si number density = 23.493785 Si / 1000 Ang^3
#
#
#
# Elastic Constant Matrix: (Units=GPa)
#
#
# Indices 1 2 3 4 5 6 
#
# 1 72.2113 42.1944 16.6816 0.0000 0.0000 0.0000
# 2 42.1944 95.1369 71.1875 0.0000 0.0000 0.0000
# 3 16.6816 71.1875 117.1974 0.0000 0.0000 0.0000
# 4 0.0000 0.0000 0.0000 72.5616 0.0000 0.0000
# 5 0.0000 0.0000 0.0000 0.0000 26.9087 0.0000
# 6 0.0000 0.0000 0.0000 0.0000 0.0000 36.9545
#
#
#
# Elastic Compliance Matrix: (Units=1/GPa)
#
#
# Indices 1 2 3 4 5 6 
#
# 1 0.019988 -0.012349 0.004656 0.000000 0.000000 0.000000
# 2 -0.012349 0.026898 -0.014581 0.000000 0.000000 0.000000
# 3 0.004656 -0.014581 0.016726 0.000000 0.000000 0.000000
# 4 0.000000 0.000000 0.000000 0.013781 0.000000 0.000000
# 5 0.000000 0.000000 0.000000 0.000000 0.037163 0.000000
# 6 0.000000 0.000000 0.000000 0.000000 0.000000 0.027060
#
#
# Mechanical properties :
#
#
# Convention : Reuss Voigt Hill
#
# Bulk Modulus (GPa) = 52.45065 60.51918 56.48492
# Shear Modulus (GPa) = 25.97133 37.58378 31.77756
#
# Velocity S-wave (km/s) = 3.32845 4.00401 3.68175
# Velocity P-wave (km/s) = 6.09469 6.86962 6.49372
#
# Compressibility (1/GPa) = 0.01906554
#
# Stress axis : x y z
#
# Youngs Moduli (GPa) = 50.02919 37.17720 59.78553
#
# Poissons Ratio (x) = 0.45909 -0.27835
# Poissons Ratio (y) = 0.61780 0.87171
# Poissons Ratio (z) = -0.23292 0.54207
#
# Static dielectric constant tensor:
#      x y z
#    x 1.878590 0.000000 0.000000 
#    y 0.000000 2.070470 0.000000 
#    z 0.000000 0.000000 1.905680 
# 
# From -- ./inp_files/39150.got.cif
#   From: 2010.05.17/outbox.cif.g08.bks.cpg/sg52_20_cif.got.tgz:39150.got - 2010.06.03 12:15:38.
