data_PCOD9408585
_publ_section_title
;
Structure prediction by ZEFSAII (Michael W. Deem and Ramdas Pophale) SiO2 
 PCOD9408585
Probable space group: P N N A
;
_chemical_formula_sum "Si O2"
_cell_formula_units_Z 48
_cell_length_a 27.106826
_cell_length_b 5.434817
_cell_length_c 16.585222
_cell_angle_alpha 90.000000
_cell_angle_beta 90.000000
_cell_angle_gamma 90.000000
_cell_volume 2443.345499
_symmetry_space_group_name_H-M "P N N A"
_symmetry_group_IT_number 52
_symmetry_cell_setting 'orthorhombic'
loop_
_space_group_symop_operation_xyz
x,y,z
1/2-x,-y,z
x,1/2-y,1/2-z
1/2-x,1/2+y,1/2-z
-x,-y,-z
1/2+x,y,-z
-x,1/2+y,1/2+z
1/2+x,1/2-y,1/2+z
loop_
_atom_site_type_symbol
_atom_site_label
_atom_site_fract_x
_atom_site_fract_y
_atom_site_fract_z
Si Si1 0.020496 0.415039 0.377989
Si Si2 0.330102 0.034084 0.943761
Si Si3 0.537109 0.750000 0.750000
Si Si4 0.936742 0.267165 0.476768
Si Si5 0.805403 0.531033 0.957958
Si Si6 0.402186 0.964457 0.381694
Si Si7 0.250000 0.000000 0.803421
O O1 0.004646 0.553178 0.297504
O O2 0.034376 0.592665 0.451689
O O3 0.072610 0.289654 0.360030
O O4 0.977916 0.231341 0.408404
O O5 0.389841 0.076314 0.943912
O O6 0.313229 0.289176 0.986181
O O7 0.298659 0.012188 0.861255
O O8 0.316121 0.787643 0.994457
O O9 0.572450 0.643614 0.818650
O O10 0.917450 0.029737 0.525330
O O11 0.750000 0.500000 0.929519
O O12 0.844066 0.524940 0.885090
O O13 0.248297 0.250000 0.750000
#
# Coordination Sequence:
#
# PCOD9408585 Si02
#       7
#     8   8   4   8   8   8   4
#     4  10  18  37  57  86 117 155 201 244 312 364
#     4  11  21  40  61  91 121 154 206 257 303 356
#     4  10  22  36  54  82 124 166 188 240 322 388
#     4   9  20  34  60  89 110 150 212 258 288 355
#     4  11  20  37  66  93 113 152 209 263 299 354
#     4  10  20  35  61  83 119 157 202 257 312 362
#     4  12  24  40  60  86 126 168 194 242 320 376
#
# _framework density 19.645197
#
# number of rings (size 3 to 8) (size 9 to 14) (size 15 to 20)
#    0.000    1.667    3.333    2.000    0.000    0.000 
#    1.500    1.667    3.667    0.000    0.000    0.000 
#    0.000    0.000    0.000    0.000    0.000    0.000 
#
# Total GULP energy -267224.748724 kJ/mol
# GULP energy per Si atom -5567.182265 kJ/mol
# Density = 1.960048 g / cm^3
# Si number density = 19.645197 Si / 1000 Ang^3
#
#
#
# Elastic Constant Matrix: (Units=GPa)
#
#
# Indices 1 2 3 4 5 6 
#
# 1 75.7968 -10.8490 20.4241 0.0000 0.0000 0.0000
# 2 -10.8490 78.6659 16.6527 0.0000 0.0000 0.0000
# 3 20.4241 16.6527 75.5261 0.0000 0.0000 0.0000
# 4 0.0000 0.0000 0.0000 11.9531 0.0000 0.0000
# 5 0.0000 0.0000 0.0000 0.0000 20.6178 0.0000
# 6 0.0000 0.0000 0.0000 0.0000 0.0000 21.4500
#
#
#
# Elastic Compliance Matrix: (Units=1/GPa)
#
#
# Indices 1 2 3 4 5 6 
#
# 1 0.014896 0.003049 -0.004701 0.000000 0.000000 0.000000
# 2 0.003049 0.013959 -0.003902 0.000000 0.000000 0.000000
# 3 -0.004701 -0.003902 0.015372 0.000000 0.000000 0.000000
# 4 0.000000 0.000000 0.000000 0.083660 0.000000 0.000000
# 5 0.000000 0.000000 0.000000 0.000000 0.048502 0.000000
# 6 0.000000 0.000000 0.000000 0.000000 0.000000 0.046620
#
#
# Mechanical properties :
#
#
# Convention : Reuss Voigt Hill
#
# Bulk Modulus (GPa) = 30.19344 31.38271 30.78808
# Shear Modulus (GPa) = 20.39516 24.38825 22.39170
#
# Velocity S-wave (km/s) = 3.22557 3.52722 3.37976
# Velocity P-wave (km/s) = 5.41065 5.70945 5.56206
#
# Compressibility (1/GPa) = 0.03311978
#
# Stress axis : x y z
#
# Youngs Moduli (GPa) = 67.13083 71.64027 65.05301
#
# Poissons Ratio (x) = -0.21846 0.30579
# Poissons Ratio (y) = -0.20471 0.25386
# Poissons Ratio (z) = 0.31556 0.27957
#
# Static dielectric constant tensor:
#      x y z
#    x 1.735400 0.000000 0.000000 
#    y 0.000000 1.609800 0.000000 
#    z 0.000000 0.000000 1.810920 
# 
# From -- ./inp_files/29441.got.cif
#   From: 2010.05.17/outbox.cif.g08.bks.cpg/sg52_15_cif.got.tgz:29441.got - 2010.06.03 12:15:38.
