data_PCOD9408717
_publ_section_title
;
Structure prediction by ZEFSAII (Michael W. Deem and Ramdas Pophale) SiO2 
 PCOD9408717
Probable space group: P N N A
;
_chemical_formula_sum "Si O2"
_cell_formula_units_Z 64
_cell_length_a 9.601314
_cell_length_b 25.381449
_cell_length_c 17.738681
_cell_angle_alpha 90.000000
_cell_angle_beta 90.000000
_cell_angle_gamma 90.000000
_cell_volume 4322.832507
_symmetry_space_group_name_H-M "P N N A"
_symmetry_group_IT_number 52
_symmetry_cell_setting 'orthorhombic'
loop_
_space_group_symop_operation_xyz
x,y,z
1/2-x,-y,z
x,1/2-y,1/2-z
1/2-x,1/2+y,1/2-z
-x,-y,-z
1/2+x,y,-z
-x,1/2+y,1/2+z
1/2+x,1/2-y,1/2+z
loop_
_atom_site_type_symbol
_atom_site_label
_atom_site_fract_x
_atom_site_fract_y
_atom_site_fract_z
Si Si1 0.717094 0.801251 0.804202
Si Si2 0.537541 0.638117 0.813285
Si Si3 0.714655 0.744166 0.077565
Si Si4 0.956887 0.260640 0.924125
Si Si5 0.867401 0.044122 0.425516
Si Si6 0.538960 0.802956 0.197902
Si Si7 0.786724 0.359613 0.181562
Si Si8 0.614345 0.965519 0.597861
O O1 0.722820 0.750000 0.750000
O O2 0.635090 0.844706 0.755857
O O3 0.623831 0.782952 0.874478
O O4 0.877952 0.814543 0.822344
O O5 0.548907 0.684525 0.876655
O O6 0.373853 0.635176 0.792721
O O7 0.585214 0.582462 0.846710
O O8 0.636633 0.788818 0.126890
O O9 0.707497 0.691470 0.127872
O O10 0.879780 0.753367 0.064337
O O11 0.627538 0.734869 0.001686
O O12 0.831099 0.091297 0.369904
O O13 0.883957 0.059543 0.513327
O O14 0.750000 0.000000 0.425248
O O15 0.999443 0.010879 0.400752
O O16 0.537746 0.750000 0.250000
O O17 0.610397 0.847753 0.249097
O O18 0.750000 0.000000 0.612107
#
# Coordination Sequence:
#
# PCOD9408717 Si02
#       8
#     8   8   8   8   8   8   8   8
#     4   9  18  31  46  66  91 118 152 192 231 274
#     4  10  19  32  46  66  92 126 159 191 234 274
#     4  10  19  31  47  69  94 122 155 189 230 279
#     4  10  19  31  48  68  94 123 153 191 230 278
#     4  10  19  34  46  64  93 126 160 198 232 266
#     4   9  18  31  46  67  90 118 153 191 230 277
#     4  10  19  31  48  65  91 127 159 190 233 277
#     4  10  21  32  46  66  93 124 162 201 232 267
#
# _framework density 14.805107
#
# number of rings (size 3 to 8) (size 9 to 14) (size 15 to 20)
#    0.000    2.250    1.250    2.250    1.750    4.000 
#    0.000    0.000    0.000    0.000    0.000    0.000 
#    0.000    2.000    0.000    0.125    0.000    0.125 
#
# Total GULP energy -356531.064198 kJ/mol
# GULP energy per Si atom -5570.797878 kJ/mol
# Density = 1.477141 g / cm^3
# Si number density = 14.805107 Si / 1000 Ang^3
#
#
#
# Elastic Constant Matrix: (Units=GPa)
#
#
# Indices 1 2 3 4 5 6 
#
# 1 145.4810 29.1324 37.3763 0.0000 0.0000 0.0000
# 2 29.1324 55.4278 15.3180 0.0000 0.0000 0.0000
# 3 37.3763 15.3180 34.6895 0.0000 0.0000 0.0000
# 4 0.0000 0.0000 0.0000 21.0765 0.0000 0.0000
# 5 0.0000 0.0000 0.0000 0.0000 24.8425 0.0000
# 6 0.0000 0.0000 0.0000 0.0000 0.0000 36.1067
#
#
#
# Elastic Compliance Matrix: (Units=1/GPa)
#
#
# Indices 1 2 3 4 5 6 
#
# 1 0.009810 -0.002546 -0.009446 0.000000 0.000000 0.000000
# 2 -0.002546 0.021210 -0.006623 0.000000 0.000000 0.000000
# 3 -0.009446 -0.006623 0.041929 0.000000 0.000000 0.000000
# 4 0.000000 0.000000 0.000000 0.047446 0.000000 0.000000
# 5 0.000000 0.000000 0.000000 0.000000 0.040254 0.000000
# 6 0.000000 0.000000 0.000000 0.000000 0.000000 0.027696
#
#
# Mechanical properties :
#
#
# Convention : Reuss Voigt Hill
#
# Bulk Modulus (GPa) = 27.99529 44.36131 36.17830
# Shear Modulus (GPa) = 21.05431 26.65657 23.85544
#
# Velocity S-wave (km/s) = 3.77516 4.24783 4.01845
# Velocity P-wave (km/s) = 6.16058 7.35441 6.78381
#
# Compressibility (1/GPa) = 0.03572030
#
# Stress axis : x y z
#
# Youngs Moduli (GPa) = 101.93276 47.14805 23.84962
#
# Poissons Ratio (x) = 0.12003 0.22529
# Poissons Ratio (y) = 0.25950 0.15795
# Poissons Ratio (z) = 0.96287 0.31225
#
# Static dielectric constant tensor:
#      x y z
#    x 1.490260 0.000000 0.000000 
#    y 0.000000 1.453170 0.000000 
#    z 0.000000 0.000000 1.488050 
# 
# From -- ./inp_files/31593.got.cif
#   From: 2010.05.17/outbox.cif.g08.bks.cpg/sg52_16_cif.got.tgz:31593.got - 2010.06.03 12:15:38.
