data_PCOD9408854
_publ_section_title
;
Structure prediction by ZEFSAII (Michael W. Deem and Ramdas Pophale) SiO2 
 PCOD9408854
Probable space group: P N N A
;
_chemical_formula_sum "Si O2"
_cell_formula_units_Z 40
_cell_length_a 16.871859
_cell_length_b 9.353853
_cell_length_c 14.205033
_cell_angle_alpha 90.000000
_cell_angle_beta 90.000000
_cell_angle_gamma 90.000000
_cell_volume 2241.794115
_symmetry_space_group_name_H-M "P N N A"
_symmetry_group_IT_number 52
_symmetry_cell_setting 'orthorhombic'
loop_
_space_group_symop_operation_xyz
x,y,z
1/2-x,-y,z
x,1/2-y,1/2-z
1/2-x,1/2+y,1/2-z
-x,-y,-z
1/2+x,y,-z
-x,1/2+y,1/2+z
1/2+x,1/2-y,1/2+z
loop_
_atom_site_type_symbol
_atom_site_label
_atom_site_fract_x
_atom_site_fract_y
_atom_site_fract_z
Si Si1 0.446672 0.582949 0.075269
Si Si2 0.229000 0.664092 0.651832
Si Si3 0.471716 0.583614 0.770711
Si Si4 0.447886 0.327740 0.647868
Si Si5 0.173159 0.099005 0.581006
O O1 0.457786 0.491805 0.170351
O O2 0.486316 0.739012 0.091328
O O3 0.500000 0.500000 0.000000
O O4 0.363359 0.584197 0.022736
O O5 0.250000 0.500000 0.667246
O O6 0.229307 0.750000 0.750000
O O7 0.141265 0.683895 0.608536
O O8 0.296920 0.739769 0.592551
O O9 0.482910 0.750000 0.750000
O O10 0.462532 0.492044 0.675436
O O11 0.393031 0.567796 0.837850
O O12 0.445988 0.250000 0.750000
O O13 0.250000 0.000000 0.594327
#
# Coordination Sequence:
#
# PCOD9408854 Si02
#       5
#     8   8   8   8   8
#     4   9  19  34  49  72 104 139 171 206 259 312
#     4  11  19  29  48  76 106 135 168 209 259 312
#     4  10  19  33  55  79 101 132 174 215 253 306
#     4   9  17  31  51  72  99 134 170 207 248 302
#     4  11  20  33  52  77 109 136 164 209 266 316
#
# _framework density 17.842851
#
# number of rings (size 3 to 8) (size 9 to 14) (size 15 to 20)
#    0.000    2.000    0.000    8.400    0.000    0.000 
#    0.000   11.000    0.000    3.600    0.000    0.000 
#    0.000    0.000    0.000    0.000    0.000    0.000 
#
# Total GULP energy -222942.665413 kJ/mol
# GULP energy per Si atom -5573.566635 kJ/mol
# Density = 1.780224 g / cm^3
# Si number density = 17.842851 Si / 1000 Ang^3
#
#
#
# Elastic Constant Matrix: (Units=GPa)
#
#
# Indices 1 2 3 4 5 6 
#
# 1 60.4356 38.9918 33.4542 0.0000 0.0000 0.0000
# 2 38.9918 144.8791 25.2963 0.0000 0.0000 0.0000
# 3 33.4542 25.2963 43.2671 0.0000 0.0000 0.0000
# 4 0.0000 0.0000 0.0000 24.7996 0.0000 0.0000
# 5 0.0000 0.0000 0.0000 0.0000 31.3323 0.0000
# 6 0.0000 0.0000 0.0000 0.0000 0.0000 21.4694
#
#
#
# Elastic Compliance Matrix: (Units=1/GPa)
#
#
# Indices 1 2 3 4 5 6 
#
# 1 0.031580 -0.004717 -0.021660 0.000000 0.000000 0.000000
# 2 -0.004717 0.008392 -0.001259 0.000000 0.000000 0.000000
# 3 -0.021660 -0.001259 0.040595 0.000000 0.000000 0.000000
# 4 0.000000 0.000000 0.000000 0.040323 0.000000 0.000000
# 5 0.000000 0.000000 0.000000 0.000000 0.031916 0.000000
# 6 0.000000 0.000000 0.000000 0.000000 0.000000 0.046578
#
#
# Mechanical properties :
#
#
# Convention : Reuss Voigt Hill
#
# Bulk Modulus (GPa) = 39.53266 49.34072 44.43669
# Shear Modulus (GPa) = 19.00512 25.57624 22.29068
#
# Velocity S-wave (km/s) = 3.26719 3.79016 3.53835
# Velocity P-wave (km/s) = 6.03629 6.84592 6.45382
#
# Compressibility (1/GPa) = 0.02529554
#
# Stress axis : x y z
#
# Youngs Moduli (GPa) = 31.66585 119.16557 24.63334
#
# Poissons Ratio (x) = 0.56215 0.53355
# Poissons Ratio (y) = 0.14938 0.03101
# Poissons Ratio (z) = 0.68587 0.15000
#
# Static dielectric constant tensor:
#      x y z
#    x 1.658500 0.000000 0.000000 
#    y 0.000000 1.672600 0.000000 
#    z 0.000000 0.000000 1.640300 
# 
# From -- ./inp_files/26925.got.cif
#   From: 2010.05.17/outbox.cif.g08.bks.cpg/sg52_14_cif.got.tgz:26925.got - 2010.06.03 12:15:38.
