data_PCOD9408120
_publ_section_title
;
Structure prediction by ZEFSAII (Michael W. Deem and Ramdas Pophale) SiO2 
 PCOD9408120
Probable space group: P N N A
;
_chemical_formula_sum "Si O2"
_cell_formula_units_Z 48
_cell_length_a 18.030360
_cell_length_b 7.859805
_cell_length_c 12.801328
_cell_angle_alpha 90.000000
_cell_angle_beta 90.000000
_cell_angle_gamma 90.000000
_cell_volume 1814.141653
_symmetry_space_group_name_H-M "P N N A"
_symmetry_group_IT_number 52
_symmetry_cell_setting 'orthorhombic'
loop_
_space_group_symop_operation_xyz
x,y,z
1/2-x,-y,z
x,1/2-y,1/2-z
1/2-x,1/2+y,1/2-z
-x,-y,-z
1/2+x,y,-z
-x,1/2+y,1/2+z
1/2+x,1/2-y,1/2+z
loop_
_atom_site_type_symbol
_atom_site_label
_atom_site_fract_x
_atom_site_fract_y
_atom_site_fract_z
Si Si1 0.064978 0.869261 0.108978
Si Si2 0.024039 0.857161 0.581513
Si Si3 0.104174 0.156836 0.853628
Si Si4 0.223497 0.699728 0.412155
Si Si5 0.669915 0.721067 0.358828
Si Si6 0.878644 0.750161 0.591214
O O1 0.985224 0.864505 0.162291
O O2 0.097533 0.056573 0.109754
O O3 0.041432 0.805035 0.993179
O O4 0.141269 0.766016 0.133774
O O5 0.099535 0.853238 0.645359
O O6 0.947177 0.847670 0.643199
O O7 0.000000 0.000000 0.500000
O O8 0.129711 0.250000 0.750000
O O9 0.143436 0.974822 0.864163
O O10 0.117834 0.257824 0.963234
O O11 0.250000 0.500000 0.407449
O O12 0.213279 0.748405 0.534047
O O13 0.296617 0.795699 0.371810
O O14 0.710317 0.750000 0.250000
#
# Coordination Sequence:
#
# PCOD9408120 Si02
#       6
#     8   8   8   8   8   8
#     4   9  17  35  55  74  99 135 185 231 251 314
#     4  10  19  33  54  76 103 139 186 224 260 312
#     4  11  20  32  53  80 105 140 181 222 264 330
#     4   9  17  34  58  77  99 138 184 223 268 317
#     4  11  22  35  47  79 119 141 168 227 280 330
#     4  10  17  36  59  75  99 140 188 225 265 322
#
# _framework density 26.458794000000001
#
# number of rings (size 3 to 8) (size 9 to 14) (size 15 to 20)
#    0.000    2.000    6.667    1.000    4.667    0.667 
#    0.000    3.333    0.000    1.000    0.000    0.000 
#    0.000    0.000    0.000    0.000    0.000    0.000 
#
# Total GULP energy -267747.262151 kJ/mol
# GULP energy per Si atom -5578.067961 kJ/mol
# Density = 2.639857 g / cm^3
# Si number density = 26.458794 Si / 1000 Ang^3
#
#
#
# Elastic Constant Matrix: (Units=GPa)
#
#
# Indices 1 2 3 4 5 6 
#
# 1 251.0983 3.5503 -0.1954 0.0000 0.0000 0.0000
# 2 3.5503 31.4935 7.4962 0.0000 0.0000 0.0000
# 3 -0.1954 7.4962 105.5625 0.0000 0.0000 0.0000
# 4 0.0000 0.0000 0.0000 23.2679 0.0000 0.0000
# 5 0.0000 0.0000 0.0000 0.0000 -1.6704 0.0000
# 6 0.0000 0.0000 0.0000 0.0000 0.0000 -1.3517
#
#
#
# Elastic Compliance Matrix: (Units=1/GPa)
#
#
# Indices 1 2 3 4 5 6 
#
# 1 0.003989 -0.000459 0.000040 0.000000 0.000000 0.000000
# 2 -0.000459 0.032351 -0.002298 0.000000 0.000000 0.000000
# 3 0.000040 -0.002298 0.009636 0.000000 0.000000 0.000000
# 4 0.000000 0.000000 0.000000 0.042978 0.000000 0.000000
# 5 0.000000 0.000000 0.000000 0.000000 -0.598670 0.000000
# 6 0.000000 0.000000 0.000000 0.000000 0.000000 -0.739825
#
#
# Mechanical properties :
#
#
# Convention : Reuss Voigt Hill
#
# Bulk Modulus (GPa) = 24.66582 45.53962 35.10272
# Shear Modulus (GPa) = -4.06309 29.20271 12.56981
#
# Velocity S-wave (km/s) = -1.24055 3.32581 2.18198
# Velocity P-wave (km/s) = 2.70012 5.65658 4.43213
#
# Compressibility (1/GPa) = 0.04054193
#
# Stress axis : x y z
#
# Youngs Moduli (GPa) = 250.68766 30.91058 103.77385
#
# Poissons Ratio (x) = 0.01419 -0.00415
# Poissons Ratio (y) = 0.11512 0.23849
# Poissons Ratio (z) = -0.01003 0.07104
#
# Static dielectric constant tensor:
#      x y z
#    x 2.219040 0.000000 0.000000 
#    y 0.000000 2.129670 0.000000 
#    z 0.000000 0.000000 1.764540 
# 
# From -- ./inp_files/28077.got.cif
#   From: 2010.05.17/outbox.cif.g08.bks.cpg/sg52_15_cif.got.tgz:28077.got - 2010.06.03 12:15:38.
