data_PCOD9408675
_publ_section_title
;
Structure prediction by ZEFSAII (Michael W. Deem and Ramdas Pophale) SiO2 
 PCOD9408675
Probable space group: P N N A
;
_chemical_formula_sum "Si O2"
_cell_formula_units_Z 48
_cell_length_a 21.799321
_cell_length_b 7.950608
_cell_length_c 17.039243
_cell_angle_alpha 90.000000
_cell_angle_beta 90.000000
_cell_angle_gamma 90.000000
_cell_volume 2953.205064
_symmetry_space_group_name_H-M "P N N A"
_symmetry_group_IT_number 52
_symmetry_cell_setting 'orthorhombic'
loop_
_space_group_symop_operation_xyz
x,y,z
1/2-x,-y,z
x,1/2-y,1/2-z
1/2-x,1/2+y,1/2-z
-x,-y,-z
1/2+x,y,-z
-x,1/2+y,1/2+z
1/2+x,1/2-y,1/2+z
loop_
_atom_site_type_symbol
_atom_site_label
_atom_site_fract_x
_atom_site_fract_y
_atom_site_fract_z
Si Si1 0.491000 0.878019 0.679619
Si Si2 0.935724 0.067681 0.034158
Si Si3 0.407590 0.082828 0.784999
Si Si4 0.565040 0.565137 0.964231
Si Si5 0.618772 0.222414 0.440832
Si Si6 0.705857 0.350607 0.322807
O O1 0.504226 0.750000 0.750000
O O2 0.549675 0.923752 0.627687
O O3 0.438583 0.803287 0.620598
O O4 0.459549 0.033728 0.722873
O O5 0.934951 0.100491 0.127808
O O6 0.921403 0.246708 0.994588
O O7 0.890471 0.908596 0.022909
O O8 0.000000 0.000000 0.000000
O O9 0.378488 0.250000 0.750000
O O10 0.355971 0.939914 0.790253
O O11 0.612454 0.427543 0.996839
O O12 0.500000 0.500000 0.000000
O O13 0.681163 0.229394 0.391091
O O14 0.750000 0.500000 0.350496
O O15 0.733522 0.250000 0.250000
#
# Coordination Sequence:
#
# PCOD9408675 Si02
#       6
#     8   8   8   8   8   8
#     4  11  16  31  45  66  95 128 165 215 243 290
#     4  11  18  28  44  67  91 123 169 196 237 297
#     4  11  20  29  47  67  92 126 175 205 245 297
#     4  10  19  28  47  65  92 130 168 199 251 294
#     4  10  19  33  47  63  94 126 170 211 243 299
#     4  11  21  35  48  65  93 126 175 227 260 284
#
# _framework density 16.253526999999998
#
# number of rings (size 3 to 8) (size 9 to 14) (size 15 to 20)
#    0.000    1.333    8.333    2.500    0.000    0.000 
#    0.000    0.000    0.000    0.000    0.000    0.000 
#    0.000    0.000    0.000    0.000  304.000   48.333 
#
# Total GULP energy -267373.946345 kJ/mol
# GULP energy per Si atom -5570.290549 kJ/mol
# Density = 1.621653 g / cm^3
# Si number density = 16.253527 Si / 1000 Ang^3
#
#
#
# Elastic Constant Matrix: (Units=GPa)
#
#
# Indices 1 2 3 4 5 6 
#
# 1 37.2347 20.7127 29.7319 0.0000 0.0000 0.0000
# 2 20.7127 94.0946 39.2761 0.0000 0.0000 0.0000
# 3 29.7319 39.2761 83.9117 0.0000 0.0000 0.0000
# 4 0.0000 0.0000 0.0000 33.5799 0.0000 0.0000
# 5 0.0000 0.0000 0.0000 0.0000 8.1809 0.0000
# 6 0.0000 0.0000 0.0000 0.0000 0.0000 23.6200
#
#
#
# Elastic Compliance Matrix: (Units=1/GPa)
#
#
# Indices 1 2 3 4 5 6 
#
# 1 0.038329 -0.003441 -0.011970 0.000000 0.000000 0.000000
# 2 -0.003441 0.013517 -0.005108 0.000000 0.000000 0.000000
# 3 -0.011970 -0.005108 0.018549 0.000000 0.000000 0.000000
# 4 0.000000 0.000000 0.000000 0.029780 0.000000 0.000000
# 5 0.000000 0.000000 0.000000 0.000000 0.122236 0.000000
# 6 0.000000 0.000000 0.000000 0.000000 0.000000 0.042337
#
#
# Mechanical properties :
#
#
# Convention : Reuss Voigt Hill
#
# Bulk Modulus (GPa) = 34.06248 43.85362 38.95805
# Shear Modulus (GPa) = 15.84426 21.44419 18.64423
#
# Velocity S-wave (km/s) = 3.12560 3.63623 3.39054
# Velocity P-wave (km/s) = 5.83338 6.68350 6.27286
#
# Compressibility (1/GPa) = 0.02935781
#
# Stress axis : x y z
#
# Youngs Moduli (GPa) = 26.08994 73.98101 53.91003
#
# Poissons Ratio (x) = 0.25454 0.64533
# Poissons Ratio (y) = 0.08977 0.27536
# Poissons Ratio (z) = 0.31231 0.37787
#
# Static dielectric constant tensor:
#      x y z
#    x 1.533330 0.000000 0.000000 
#    y 0.000000 1.627720 0.000000 
#    z 0.000000 0.000000 1.573110 
# 
# From -- ./inp_files/33998.got.cif
#   From: 2010.05.17/outbox.cif.g08.bks.cpg/sg52_17_cif.got.tgz:33998.got - 2010.06.03 12:15:38.
