data_PCOD9408105
_publ_section_title
;
Structure prediction by ZEFSAII (Michael W. Deem and Ramdas Pophale) SiO2 
 PCOD9408105
Probable space group: P N N A
;
_chemical_formula_sum "Si O2"
_cell_formula_units_Z 44
_cell_length_a 16.807903
_cell_length_b 15.568905
_cell_length_c 8.924615
_cell_angle_alpha 90.000000
_cell_angle_beta 90.000000
_cell_angle_gamma 90.000000
_cell_volume 2335.399010
_symmetry_space_group_name_H-M "P N N A"
_symmetry_group_IT_number 52
_symmetry_cell_setting 'orthorhombic'
loop_
_space_group_symop_operation_xyz
x,y,z
1/2-x,-y,z
x,1/2-y,1/2-z
1/2-x,1/2+y,1/2-z
-x,-y,-z
1/2+x,y,-z
-x,1/2+y,1/2+z
1/2+x,1/2-y,1/2+z
loop_
_atom_site_type_symbol
_atom_site_label
_atom_site_fract_x
_atom_site_fract_y
_atom_site_fract_z
Si Si1 0.815863 0.182809 0.390884
Si Si2 0.139571 0.206371 0.522776
Si Si3 0.073545 0.131778 0.820188
Si Si4 0.539831 0.250000 0.750000
Si Si5 0.662937 0.540727 0.344870
Si Si6 0.926203 0.183380 0.000540
O O1 0.808076 0.250000 0.250000
O O2 0.730996 0.179964 0.471140
O O3 0.836402 0.092983 0.312323
O O4 0.881997 0.224918 0.498209
O O5 0.092582 0.153393 0.648870
O O6 0.130073 0.304871 0.581196
O O7 0.096030 0.199698 0.364956
O O8 0.098148 0.034574 0.849253
O O9 0.984955 0.158387 0.867561
O O10 0.483382 0.190480 0.852227
O O11 0.750000 0.500000 0.365412
O O12 0.638975 0.610646 0.469171
#
# Coordination Sequence:
#
# PCOD9408105 Si02
#       6
#     8   8   8   4   8   8
#     4  10  17  34  57  84 114 159 200 238 296 365
#     4  10  19  36  57  84 112 153 203 243 300 360
#     4  10  19  33  57  88 113 146 204 250 292 356
#     4  10  20  36  58  82 114 154 192 256 302 348
#     4  11  18  31  59  91 114 159 199 246 294 371
#     4  10  20  35  57  85 121 156 199 250 297 360
#
# _framework density 18.840461999999999
#
# number of rings (size 3 to 8) (size 9 to 14) (size 15 to 20)
#    0.000    1.818    6.364    1.636    0.000    0.000 
#    0.000    4.545    0.000    0.000   47.273    0.000 
#    0.000    0.000    0.000    0.000    0.000    0.000 
#
# Total GULP energy -245357.761672 kJ/mol
# GULP energy per Si atom -5576.312765 kJ/mol
# Density = 1.879758 g / cm^3
# Si number density = 18.840462 Si / 1000 Ang^3
#
#
#
# Elastic Constant Matrix: (Units=GPa)
#
#
# Indices 1 2 3 4 5 6 
#
# 1 126.7269 13.8881 35.5611 0.0000 0.0000 0.0000
# 2 13.8881 45.1434 -11.2641 0.0000 0.0000 0.0000
# 3 35.5611 -11.2641 47.3742 0.0000 0.0000 0.0000
# 4 0.0000 0.0000 0.0000 10.4665 0.0000 0.0000
# 5 0.0000 0.0000 0.0000 0.0000 31.6176 0.0000
# 6 0.0000 0.0000 0.0000 0.0000 0.0000 31.0043
#
#
#
# Elastic Compliance Matrix: (Units=1/GPa)
#
#
# Indices 1 2 3 4 5 6 
#
# 1 0.011328 -0.005960 -0.009920 0.000000 0.000000 0.000000
# 2 -0.005960 0.026685 0.010819 0.000000 0.000000 0.000000
# 3 -0.009920 0.010819 0.031128 0.000000 0.000000 0.000000
# 4 0.000000 0.000000 0.000000 0.095543 0.000000 0.000000
# 5 0.000000 0.000000 0.000000 0.000000 0.031628 0.000000
# 6 0.000000 0.000000 0.000000 0.000000 0.000000 0.032254
#
#
# Mechanical properties :
#
#
# Convention : Reuss Voigt Hill
#
# Bulk Modulus (GPa) = 16.94434 32.84608 24.89521
# Shear Modulus (GPa) = 19.35279 26.68831 23.02055
#
# Velocity S-wave (km/s) = 3.20846 3.76778 3.49931
# Velocity P-wave (km/s) = 4.76852 6.03323 5.43777
#
# Compressibility (1/GPa) = 0.05901674
#
# Stress axis : x y z
#
# Youngs Moduli (GPa) = 88.27700 37.47445 32.12578
#
# Poissons Ratio (x) = 0.22336 0.31870
# Poissons Ratio (y) = 0.52616 -0.34757
# Poissons Ratio (z) = 0.87575 -0.40543
#
# Static dielectric constant tensor:
#      x y z
#    x 1.685580 0.000000 0.000000 
#    y 0.000000 1.690150 0.000000 
#    z 0.000000 0.000000 1.653520 
# 
# From -- ./inp_files/11935.got.cif
#   From: 2010.05.17/outbox.cif.g08.bks.cpg/sg52_6_cif.got.tgz:11935.got - 2010.06.03 12:15:38.
