data_PCOD9408329
_publ_section_title
;
Structure prediction by ZEFSAII (Michael W. Deem and Ramdas Pophale) SiO2 
 PCOD9408329
Probable space group: P N N A
;
_chemical_formula_sum "Si O2"
_cell_formula_units_Z 48
_cell_length_a 9.070292
_cell_length_b 16.219154
_cell_length_c 17.617841
_cell_angle_alpha 90.000000
_cell_angle_beta 90.000000
_cell_angle_gamma 90.000000
_cell_volume 2591.803978
_symmetry_space_group_name_H-M "P N N A"
_symmetry_group_IT_number 52
_symmetry_cell_setting 'orthorhombic'
loop_
_space_group_symop_operation_xyz
x,y,z
1/2-x,-y,z
x,1/2-y,1/2-z
1/2-x,1/2+y,1/2-z
-x,-y,-z
1/2+x,y,-z
-x,1/2+y,1/2+z
1/2+x,1/2-y,1/2+z
loop_
_atom_site_type_symbol
_atom_site_label
_atom_site_fract_x
_atom_site_fract_y
_atom_site_fract_z
Si Si1 0.250000 0.500000 0.415466
Si Si2 0.989743 0.256313 0.477295
Si Si3 0.676639 0.250000 0.750000
Si Si4 0.953807 0.572609 0.716460
Si Si5 0.264391 0.323377 0.096275
Si Si6 0.250000 0.000000 0.344748
Si Si7 0.259604 0.871026 0.954482
Si Si8 0.250000 0.000000 0.830972
O O1 0.125216 0.463110 0.359707
O O2 0.207631 0.573797 0.473234
O O3 0.881751 0.212441 0.537094
O O4 0.879007 0.314890 0.430009
O O5 0.096471 0.195566 0.430919
O O6 0.106273 0.314911 0.519261
O O7 0.582709 0.330540 0.725866
O O8 0.773298 0.278314 0.822127
O O9 0.879230 0.527952 0.788098
O O10 0.122400 0.545438 0.714223
O O11 0.288773 0.420014 0.106949
O O12 0.312066 0.930877 0.888196
#
# Coordination Sequence:
#
# PCOD9408329 Si02
#       8
#     4   8   4   8   8   4   8   4
#     4  10  18  32  54  80 114 150 174 210 270 346
#     4  10  20  35  55  83 113 144 182 224 271 327
#     4  10  20  38  60  78 110 154 188 218 272 342
#     4  10  20  35  55  77 107 144 185 226 273 326
#     4  10  21  38  60  82 108 144 188 231 274 326
#     4   9  22  41  56  73  98 145 194 226 274 333
#     4  10  19  30  50  82 115 141 173 210 270 343
#     4  11  20  31  50  81 112 139 172 226 276 317
#
# _framework density 18.519919000000002
#
# number of rings (size 3 to 8) (size 9 to 14) (size 15 to 20)
#    0.000    2.000    0.000    5.000    0.000    6.000 
#    0.000    8.333    0.000    5.000    0.000    0.000 
#    0.000    0.000    0.000    0.000    0.000    0.000 
#
# Total GULP energy -267794.732792 kJ/mol
# GULP energy per Si atom -5579.056933 kJ/mol
# Density = 1.847777 g / cm^3
# Si number density = 18.519919 Si / 1000 Ang^3
#
#
#
# Elastic Constant Matrix: (Units=GPa)
#
#
# Indices 1 2 3 4 5 6 
#
# 1 62.4875 35.4685 12.1914 0.0000 0.0000 0.0000
# 2 35.4685 135.3998 31.9024 0.0000 0.0000 0.0000
# 3 12.1914 31.9024 59.7159 0.0000 0.0000 0.0000
# 4 0.0000 0.0000 0.0000 28.2399 0.0000 0.0000
# 5 0.0000 0.0000 0.0000 0.0000 9.3036 0.0000
# 6 0.0000 0.0000 0.0000 0.0000 0.0000 17.8735
#
#
#
# Elastic Compliance Matrix: (Units=1/GPa)
#
#
# Indices 1 2 3 4 5 6 
#
# 1 0.018898 -0.004623 -0.001388 0.000000 0.000000 0.000000
# 2 -0.004623 0.009580 -0.004174 0.000000 0.000000 0.000000
# 3 -0.001388 -0.004174 0.019259 0.000000 0.000000 0.000000
# 4 0.000000 0.000000 0.000000 0.035411 0.000000 0.000000
# 5 0.000000 0.000000 0.000000 0.000000 0.107485 0.000000
# 6 0.000000 0.000000 0.000000 0.000000 0.000000 0.055949
#
#
# Mechanical properties :
#
#
# Convention : Reuss Voigt Hill
#
# Bulk Modulus (GPa) = 36.54138 46.30311 41.42224
# Shear Modulus (GPa) = 18.11094 22.95279 20.53187
#
# Velocity S-wave (km/s) = 3.13056 3.52427 3.33323
# Velocity P-wave (km/s) = 5.73070 6.45110 6.10154
#
# Compressibility (1/GPa) = 0.02736624
#
# Stress axis : x y z
#
# Youngs Moduli (GPa) = 52.91470 104.38246 51.92277
#
# Poissons Ratio (x) = 0.48260 0.07208
# Poissons Ratio (y) = 0.24465 0.21673
# Poissons Ratio (z) = 0.07346 0.43571
#
# Static dielectric constant tensor:
#      x y z
#    x 1.627500 0.000000 0.000000 
#    y 0.000000 1.655400 0.000000 
#    z 0.000000 0.000000 1.650670 
# 
# From -- ./inp_files/31305.got.cif
#   From: 2010.05.17/outbox.cif.g08.bks.cpg/sg52_16_cif.got.tgz:31305.got - 2010.06.03 12:15:38.
