data_PCOD9408684
_publ_section_title
;
Structure prediction by ZEFSAII (Michael W. Deem and Ramdas Pophale) SiO2 
 PCOD9408684
Probable space group: P N N A
;
_chemical_formula_sum "Si O2"
_cell_formula_units_Z 40
_cell_length_a 14.203672
_cell_length_b 9.260255
_cell_length_c 18.918996
_cell_angle_alpha 90.000000
_cell_angle_beta 90.000000
_cell_angle_gamma 90.000000
_cell_volume 2488.408443
_symmetry_space_group_name_H-M "P N N A"
_symmetry_group_IT_number 52
_symmetry_cell_setting 'orthorhombic'
loop_
_space_group_symop_operation_xyz
x,y,z
1/2-x,-y,z
x,1/2-y,1/2-z
1/2-x,1/2+y,1/2-z
-x,-y,-z
1/2+x,y,-z
-x,1/2+y,1/2+z
1/2+x,1/2-y,1/2+z
loop_
_atom_site_type_symbol
_atom_site_label
_atom_site_fract_x
_atom_site_fract_y
_atom_site_fract_z
Si Si1 0.851286 0.040660 0.985069
Si Si2 0.638871 0.967232 0.207062
Si Si3 0.879333 0.925927 0.367101
Si Si4 0.823222 0.276924 0.107855
Si Si5 0.031755 0.351760 0.589798
O O1 0.830140 0.160514 0.045603
O O2 0.750000 0.000000 0.954537
O O3 0.901972 0.906114 0.024860
O O4 0.927027 0.101538 0.930495
O O5 0.633260 0.804835 0.175992
O O6 0.750000 0.000000 0.195899
O O7 0.616726 0.016130 0.286682
O O8 0.573567 0.063376 0.156762
O O9 0.782365 0.832830 0.374707
O O10 0.958124 0.816305 0.392791
O O11 0.875105 0.074137 0.410801
#
# Coordination Sequence:
#
# PCOD9408684 Si02
#       5
#     8   8   8   8   8
#     4  10  19  36  50  66 102 138 180 212 252 311
#     4  11  18  29  47  75 111 131 161 208 270 326
#     4  11  19  27  49  79 106 131 162 213 274 323
#     4  10  19  29  46  75 105 141 158 206 271 316
#     4  10  20  31  50  73  98 135 177 212 251 320
#
# _framework density 16.074532000000001
#
# number of rings (size 3 to 8) (size 9 to 14) (size 15 to 20)
#    0.000    1.600    6.000    2.400    0.000    0.800 
#    0.000    0.000    0.000    0.000    0.000   16.800 
#    6.000    0.000    0.000    0.000    0.000    0.000 
#
# Total GULP energy -222808.799801 kJ/mol
# GULP energy per Si atom -5570.219995 kJ/mol
# Density = 1.603795 g / cm^3
# Si number density = 16.074532 Si / 1000 Ang^3
#
#
#
# Elastic Constant Matrix: (Units=GPa)
#
#
# Indices 1 2 3 4 5 6 
#
# 1 94.6820 30.1619 27.9768 0.0000 0.0000 0.0000
# 2 30.1619 109.2079 20.4124 0.0000 0.0000 0.0000
# 3 27.9768 20.4124 44.3478 0.0000 0.0000 0.0000
# 4 0.0000 0.0000 0.0000 19.8563 0.0000 0.0000
# 5 0.0000 0.0000 0.0000 0.0000 14.8653 0.0000
# 6 0.0000 0.0000 0.0000 0.0000 0.0000 17.4490
#
#
#
# Elastic Compliance Matrix: (Units=1/GPa)
#
#
# Indices 1 2 3 4 5 6 
#
# 1 0.013506 -0.002339 -0.007444 0.000000 0.000000 0.000000
# 2 -0.002339 0.010424 -0.003322 0.000000 0.000000 0.000000
# 3 -0.007444 -0.003322 0.028774 0.000000 0.000000 0.000000
# 4 0.000000 0.000000 0.000000 0.050362 0.000000 0.000000
# 5 0.000000 0.000000 0.000000 0.000000 0.067271 0.000000
# 6 0.000000 0.000000 0.000000 0.000000 0.000000 0.057310
#
#
# Mechanical properties :
#
#
# Convention : Reuss Voigt Hill
#
# Bulk Modulus (GPa) = 37.74440 45.03776 41.39108
# Shear Modulus (GPa) = 19.03394 21.74655 20.39025
#
# Velocity S-wave (km/s) = 3.44482 3.68211 3.56544
# Velocity P-wave (km/s) = 6.27329 6.79383 6.53874
#
# Compressibility (1/GPa) = 0.02649400
#
# Stress axis : x y z
#
# Youngs Moduli (GPa) = 74.03959 95.93402 34.75331
#
# Poissons Ratio (x) = 0.22438 0.25870
# Poissons Ratio (y) = 0.17317 0.11546
# Poissons Ratio (z) = 0.55114 0.31873
#
# Static dielectric constant tensor:
#      x y z
#    x 1.539270 0.000000 0.000000 
#    y 0.000000 1.588970 0.000000 
#    z 0.000000 0.000000 1.548580 
# 
# From -- ./inp_files/26857.got.cif
#   From: 2010.05.17/outbox.cif.g08.bks.cpg/sg52_14_cif.got.tgz:26857.got - 2010.06.03 12:15:38.
