data_PCOD9408828
_publ_section_title
;
Structure prediction by ZEFSAII (Michael W. Deem and Ramdas Pophale) SiO2 
 PCOD9408828
Probable space group: P N N A
;
_chemical_formula_sum "Si O2"
_cell_formula_units_Z 40
_cell_length_a 15.348365
_cell_length_b 6.251002
_cell_length_c 20.103208
_cell_angle_alpha 90.000000
_cell_angle_beta 90.000000
_cell_angle_gamma 90.000000
_cell_volume 1928.755256
_symmetry_space_group_name_H-M "P N N A"
_symmetry_group_IT_number 52
_symmetry_cell_setting 'orthorhombic'
loop_
_space_group_symop_operation_xyz
x,y,z
1/2-x,-y,z
x,1/2-y,1/2-z
1/2-x,1/2+y,1/2-z
-x,-y,-z
1/2+x,y,-z
-x,1/2+y,1/2+z
1/2+x,1/2-y,1/2+z
loop_
_atom_site_type_symbol
_atom_site_label
_atom_site_fract_x
_atom_site_fract_y
_atom_site_fract_z
Si Si1 0.483597 0.284030 0.680360
Si Si2 0.340344 0.494834 0.342320
Si Si3 0.441868 0.102928 0.393055
Si Si4 0.823644 0.682604 0.967854
Si Si5 0.930241 0.554253 0.441149
O O1 0.435069 0.250000 0.750000
O O2 0.568609 0.435876 0.690140
O O3 0.431160 0.372661 0.615959
O O4 0.528570 0.062539 0.661645
O O5 0.250000 0.500000 0.301770
O O6 0.364215 0.262202 0.371752
O O7 0.321023 0.666901 0.401733
O O8 0.524737 0.245373 0.406855
O O9 0.408983 0.963503 0.455167
O O10 0.750000 0.500000 0.977155
O O11 0.842604 0.855622 0.025515
O O12 0.000000 0.500000 0.500000
#
# Coordination Sequence:
#
# PCOD9408828 Si02
#       5
#     8   8   8   8   8
#     4  10  23  38  53  79 114 162 211 248 297 363
#     4  10  19  33  51  80 114 157 193 237 297 374
#     4  10  19  34  58  74 117 152 193 241 301 353
#     4  11  20  31  53  85 120 150 188 250 315 357
#     4  11  20  34  57  85 112 155 201 247 308 372
#
# _framework density 20.738764
#
# number of rings (size 3 to 8) (size 9 to 14) (size 15 to 20)
#    0.000    1.600    8.000    0.600    0.000    3.200 
#    3.600    0.000    0.000    0.000    0.000    0.000 
#    6.000    0.000    0.000    0.000    0.000    0.000 
#
# Total GULP energy -222675.048440 kJ/mol
# GULP energy per Si atom -5566.876211 kJ/mol
# Density = 2.069156 g / cm^3
# Si number density = 20.738764 Si / 1000 Ang^3
#
#
#
# Elastic Constant Matrix: (Units=GPa)
#
#
# Indices 1 2 3 4 5 6 
#
# 1 31.7684 17.8405 16.5388 0.0000 0.0000 0.0000
# 2 17.8405 107.3152 40.2831 0.0000 0.0000 0.0000
# 3 16.5388 40.2831 110.3930 0.0000 0.0000 0.0000
# 4 0.0000 0.0000 0.0000 5.4583 0.0000 0.0000
# 5 0.0000 0.0000 0.0000 0.0000 7.7548 0.0000
# 6 0.0000 0.0000 0.0000 0.0000 0.0000 30.7130
#
#
#
# Elastic Compliance Matrix: (Units=1/GPa)
#
#
# Indices 1 2 3 4 5 6 
#
# 1 0.035990 -0.004587 -0.003718 0.000000 0.000000 0.000000
# 2 -0.004587 0.011382 -0.003466 0.000000 0.000000 0.000000
# 3 -0.003718 -0.003466 0.010880 0.000000 0.000000 0.000000
# 4 0.000000 0.000000 0.000000 0.183206 0.000000 0.000000
# 5 0.000000 0.000000 0.000000 0.000000 0.128952 0.000000
# 6 0.000000 0.000000 0.000000 0.000000 0.000000 0.032559
#
#
# Mechanical properties :
#
#
# Convention : Reuss Voigt Hill
#
# Bulk Modulus (GPa) = 28.81085 44.31127 36.56106
# Shear Modulus (GPa) = 11.41339 20.43951 15.92645
#
# Velocity S-wave (km/s) = 2.34848 3.14279 2.77421
# Velocity P-wave (km/s) = 4.61262 5.88067 5.28481
#
# Compressibility (1/GPa) = 0.03470914
#
# Stress axis : x y z
#
# Youngs Moduli (GPa) = 27.78578 87.85757 91.90877
#
# Poissons Ratio (x) = 0.40304 0.34171
# Poissons Ratio (y) = 0.12747 0.31857
# Poissons Ratio (z) = 0.10330 0.30452
#
# Static dielectric constant tensor:
#      x y z
#    x 1.626640 0.000000 0.000000 
#    y 0.000000 2.193280 0.000000 
#    z 0.000000 0.000000 1.863180 
# 
# From -- ./inp_files/33460.got.cif
#   From: 2010.05.17/outbox.cif.g08.bks.cpg/sg52_17_cif.got.tgz:33460.got - 2010.06.03 12:15:38.
