data_PCOD9408285
_publ_section_title
;
Structure prediction by ZEFSAII (Michael W. Deem and Ramdas Pophale) SiO2 
 PCOD9408285
Probable space group: P N N A
;
_chemical_formula_sum "Si O2"
_cell_formula_units_Z 60
_cell_length_a 15.050069
_cell_length_b 16.122980
_cell_length_c 13.396484
_cell_angle_alpha 90.000000
_cell_angle_beta 90.000000
_cell_angle_gamma 90.000000
_cell_volume 3250.683120
_symmetry_space_group_name_H-M "P N N A"
_symmetry_group_IT_number 52
_symmetry_cell_setting 'orthorhombic'
loop_
_space_group_symop_operation_xyz
x,y,z
1/2-x,-y,z
x,1/2-y,1/2-z
1/2-x,1/2+y,1/2-z
-x,-y,-z
1/2+x,y,-z
-x,1/2+y,1/2+z
1/2+x,1/2-y,1/2+z
loop_
_atom_site_type_symbol
_atom_site_label
_atom_site_fract_x
_atom_site_fract_y
_atom_site_fract_z
Si Si1 0.770741 0.906933 0.627083
Si Si2 0.250000 0.000000 0.040371
Si Si3 0.401696 0.279422 0.364287
Si Si4 0.963918 0.554717 0.868598
Si Si5 0.084221 0.887596 0.457904
Si Si6 0.289647 0.663653 0.341878
Si Si7 0.986918 0.827260 0.815160
Si Si8 0.067565 0.923093 0.996836
O O1 0.870855 0.909745 0.586919
O O2 0.691065 0.890303 0.551220
O O3 0.769511 0.849933 0.724765
O O4 0.750000 0.000000 0.665126
O O5 0.209683 0.073395 0.107520
O O6 0.333211 0.040538 0.983772
O O7 0.414273 0.250000 0.250000
O O8 0.441568 0.205388 0.429930
O O9 0.295592 0.289089 0.384425
O O10 0.436877 0.368630 0.400997
O O11 0.952531 0.455630 0.878296
O O12 0.972484 0.594939 0.760040
O O13 0.044594 0.583879 0.937466
O O14 0.388275 0.699343 0.352517
O O15 0.022574 0.750000 0.750000
O O16 0.043303 0.860521 0.907305
O O17 0.000000 0.000000 0.000000
#
# Coordination Sequence:
#
# PCOD9408285 Si02
#       8
#     8   4   8   8   8   8   8   8
#     4   9  16  28  53  79 109 138 187 237 299 350
#     4  10  20  38  62  90 120 154 208 252 312 366
#     4  11  22  33  57  89 123 148 194 258 318 357
#     4   9  21  34  58  80 116 159 201 243 295 371
#     4  10  19  36  52  85 117 153 193 246 307 358
#     4  10  18  31  56  92 115 149 188 262 313 361
#     4  11  22  37  59  89 126 161 209 250 306 369
#     4  11  24  40  63  92 124 168 206 254 313 379
#
# _framework density 18.457659
#
# number of rings (size 3 to 8) (size 9 to 14) (size 15 to 20)
#    0.000    1.867    3.333    1.200    3.733    0.000 
#    0.000    0.000    7.333    0.800    0.000    0.000 
#    0.000    0.000    0.000    0.000    0.000    0.000 
#
# Total GULP energy -334425.922084 kJ/mol
# GULP energy per Si atom -5573.765368 kJ/mol
# Density = 1.841565 g / cm^3
# Si number density = 18.457659 Si / 1000 Ang^3
#
#
#
# Elastic Constant Matrix: (Units=GPa)
#
#
# Indices 1 2 3 4 5 6 
#
# 1 95.9229 25.7491 39.9882 0.0000 0.0000 0.0000
# 2 25.7491 109.6968 27.1364 0.0000 0.0000 0.0000
# 3 39.9882 27.1364 56.2649 0.0000 0.0000 0.0000
# 4 0.0000 0.0000 0.0000 34.5854 0.0000 0.0000
# 5 0.0000 0.0000 0.0000 0.0000 24.4736 0.0000
# 6 0.0000 0.0000 0.0000 0.0000 0.0000 28.9792
#
#
#
# Elastic Compliance Matrix: (Units=1/GPa)
#
#
# Indices 1 2 3 4 5 6 
#
# 1 0.014910 -0.000997 -0.010115 0.000000 0.000000 0.000000
# 2 -0.000997 0.010418 -0.004316 0.000000 0.000000 0.000000
# 3 -0.010115 -0.004316 0.027044 0.000000 0.000000 0.000000
# 4 0.000000 0.000000 0.000000 0.028914 0.000000 0.000000
# 5 0.000000 0.000000 0.000000 0.000000 0.040860 0.000000
# 6 0.000000 0.000000 0.000000 0.000000 0.000000 0.034508
#
#
# Mechanical properties :
#
#
# Convention : Reuss Voigt Hill
#
# Bulk Modulus (GPa) = 46.48096 49.73689 48.10893
# Shear Modulus (GPa) = 25.68301 28.87504 27.27902
#
# Velocity S-wave (km/s) = 3.73427 3.95953 3.84855
# Velocity P-wave (km/s) = 6.62044 6.92162 6.77270
#
# Compressibility (1/GPa) = 0.02151418
#
# Stress axis : x y z
#
# Youngs Moduli (GPa) = 67.07038 95.99023 36.97721
#
# Poissons Ratio (x) = 0.09574 0.37404
# Poissons Ratio (y) = 0.06690 0.15958
# Poissons Ratio (z) = 0.67845 0.41425
#
# Static dielectric constant tensor:
#      x y z
#    x 1.648480 0.000000 0.000000 
#    y 0.000000 1.714540 0.000000 
#    z 0.000000 0.000000 1.623230 
# 
# From -- ./inp_files/19811.got.cif
#   From: 2010.05.17/outbox.cif.g08.bks.cpg/sg52_10_cif.got.tgz:19811.got - 2010.06.03 12:15:38.
