data_PCOD9408131
_publ_section_title
;
Structure prediction by ZEFSAII (Michael W. Deem and Ramdas Pophale) SiO2 
 PCOD9408131
Probable space group: P N N A
;
_chemical_formula_sum "Si O2"
_cell_formula_units_Z 36
_cell_length_a 5.552574
_cell_length_b 19.451490
_cell_length_c 13.500576
_cell_angle_alpha 90.000000
_cell_angle_beta 90.000000
_cell_angle_gamma 90.000000
_cell_volume 1458.141019
_symmetry_space_group_name_H-M "P N N A"
_symmetry_group_IT_number 52
_symmetry_cell_setting 'orthorhombic'
loop_
_space_group_symop_operation_xyz
x,y,z
1/2-x,-y,z
x,1/2-y,1/2-z
1/2-x,1/2+y,1/2-z
-x,-y,-z
1/2+x,y,-z
-x,1/2+y,1/2+z
1/2+x,1/2-y,1/2+z
loop_
_atom_site_type_symbol
_atom_site_label
_atom_site_fract_x
_atom_site_fract_y
_atom_site_fract_z
Si Si1 0.863249 0.065569 0.407758
Si Si2 0.289775 0.250000 0.750000
Si Si3 0.991834 0.710169 0.953433
Si Si4 0.750000 0.500000 0.761593
Si Si5 0.597836 0.392018 0.286011
Si Si6 0.250000 0.000000 0.938179
O O1 0.993345 0.126946 0.464879
O O2 0.671778 0.097231 0.329356
O O3 0.048242 0.032178 0.330697
O O4 0.750000 0.000000 0.463421
O O5 0.460033 0.275488 0.838526
O O6 0.125649 0.310840 0.705103
O O7 0.232397 0.735484 0.010329
O O8 0.647902 0.565380 0.702342
O O9 0.759963 0.433509 0.364897
O O10 0.500000 0.000000 0.000000
#
# Coordination Sequence:
#
# PCOD9408131 Si02
#       6
#     8   4   8   4   8   4
#     4   9  20  37  68  97 135 187 228 298 361 449
#     4  10  26  50  76 102 152 214 246 334 400 462
#     4  11  27  47  68 107 147 187 251 304 370 466
#     4  10  17  38  74  97 140 186 250 308 361 477
#     4  10  21  43  65 104 137 197 261 302 393 462
#     4  12  25  40  70 105 148 190 254 332 385 455
#
# _framework density 24.688967999999999
#
# number of rings (size 3 to 8) (size 9 to 14) (size 15 to 20)
#    0.000    1.778    3.333    0.667    9.333    3.556 
#    4.000    0.000    0.000    0.000    0.000    0.000 
#    0.000    0.000    0.000    0.000    0.000    0.000 
#
# Total GULP energy -201114.014352 kJ/mol
# GULP energy per Si atom -5586.500399 kJ/mol
# Density = 2.463277 g / cm^3
# Si number density = 24.688968 Si / 1000 Ang^3
#
#
#
# Elastic Constant Matrix: (Units=GPa)
#
#
# Indices 1 2 3 4 5 6 
#
# 1 67.0645 20.2259 17.7342 0.0000 0.0000 0.0000
# 2 20.2259 125.3933 29.7411 0.0000 0.0000 0.0000
# 3 17.7342 29.7411 116.3064 0.0000 0.0000 0.0000
# 4 0.0000 0.0000 0.0000 35.3711 0.0000 0.0000
# 5 0.0000 0.0000 0.0000 0.0000 40.0961 0.0000
# 6 0.0000 0.0000 0.0000 0.0000 0.0000 17.6744
#
#
#
# Elastic Compliance Matrix: (Units=1/GPa)
#
#
# Indices 1 2 3 4 5 6 
#
# 1 0.016059 -0.002139 -0.001902 0.000000 0.000000 0.000000
# 2 -0.002139 0.008775 -0.001918 0.000000 0.000000 0.000000
# 3 -0.001902 -0.001918 0.009378 0.000000 0.000000 0.000000
# 4 0.000000 0.000000 0.000000 0.028272 0.000000 0.000000
# 5 0.000000 0.000000 0.000000 0.000000 0.024940 0.000000
# 6 0.000000 0.000000 0.000000 0.000000 0.000000 0.056579
#
#
# Mechanical properties :
#
#
# Convention : Reuss Voigt Hill
#
# Bulk Modulus (GPa) = 44.85294 49.35184 47.10239
# Shear Modulus (GPa) = 30.60883 34.69919 32.65401
#
# Velocity S-wave (km/s) = 3.52487 3.75300 3.64072
# Velocity P-wave (km/s) = 5.89685 6.23000 6.06571
#
# Compressibility (1/GPa) = 0.02229508
#
# Stress axis : x y z
#
# Youngs Moduli (GPa) = 62.27019 113.96266 106.62912
#
# Poissons Ratio (x) = 0.24380 0.20277
# Poissons Ratio (y) = 0.13321 0.20448
# Poissons Ratio (z) = 0.11841 0.21854
#
# Static dielectric constant tensor:
#      x y z
#    x 2.072510 0.000000 0.000000 
#    y 0.000000 2.046880 0.000000 
#    z 0.000000 0.000000 1.944390 
# 
# From -- ./inp_files/23580.got.cif
#   From: 2010.05.17/outbox.cif.g08.bks.cpg/sg52_12_cif.got.tgz:23580.got - 2010.06.03 12:15:38.
