data_PCOD9408594
_publ_section_title
;
Structure prediction by ZEFSAII (Michael W. Deem and Ramdas Pophale) SiO2 
 PCOD9408594
Probable space group: P N N A
;
_chemical_formula_sum "Si O2"
_cell_formula_units_Z 64
_cell_length_a 17.142855
_cell_length_b 10.607124
_cell_length_c 17.239012
_cell_angle_alpha 90.000000
_cell_angle_beta 90.000000
_cell_angle_gamma 90.000000
_cell_volume 3134.679687
_symmetry_space_group_name_H-M "P N N A"
_symmetry_group_IT_number 52
_symmetry_cell_setting 'orthorhombic'
loop_
_space_group_symop_operation_xyz
x,y,z
1/2-x,-y,z
x,1/2-y,1/2-z
1/2-x,1/2+y,1/2-z
-x,-y,-z
1/2+x,y,-z
-x,1/2+y,1/2+z
1/2+x,1/2-y,1/2+z
loop_
_atom_site_type_symbol
_atom_site_label
_atom_site_fract_x
_atom_site_fract_y
_atom_site_fract_z
Si Si1 0.017883 0.222183 0.658464
Si Si2 0.420217 0.533185 0.146429
Si Si3 0.489678 0.276938 0.659390
Si Si4 0.861496 0.321755 0.593981
Si Si5 0.332636 0.672654 0.570278
Si Si6 0.204567 0.206275 0.401789
Si Si7 0.873375 0.567826 0.675273
Si Si8 0.841966 0.128242 0.083680
O O1 0.029929 0.250000 0.750000
O O2 0.098081 0.251905 0.612961
O O3 0.946648 0.308540 0.629762
O O4 0.977208 0.086837 0.640812
O O5 0.475956 0.650725 0.122542
O O6 0.340539 0.573553 0.101819
O O7 0.390701 0.533545 0.235967
O O8 0.500155 0.250000 0.750000
O O9 0.543337 0.395488 0.637263
O O10 0.402463 0.311660 0.641879
O O11 0.797598 0.213726 0.611268
O O12 0.833405 0.454296 0.629617
O O13 0.864477 0.325465 0.501930
O O14 0.319092 0.724294 0.482702
O O15 0.244797 0.674867 0.604316
O O16 0.349770 0.523075 0.576697
O O17 0.171637 0.300666 0.335667
#
# Coordination Sequence:
#
# PCOD9408594 Si02
#       8
#     8   8   8   8   8   8   8   8
#     4  12  26  41  60  90 128 170 211 254 320 383
#     4  10  23  41  56  87 131 165 203 250 309 386
#     4   9  20  36  64  90 118 158 203 252 314 380
#     4  11  22  37  64  95 120 158 210 270 308 375
#     4  10  23  40  65  92 124 159 205 273 316 372
#     4  10  21  40  62  93 125 163 211 254 323 374
#     4  10  18  37  62  91 120 156 199 260 314 368
#     4  10  21  41  66  95 117 152 216 270 320 365
#
# _framework density 20.416758000000002
#
# number of rings (size 3 to 8) (size 9 to 14) (size 15 to 20)
#    0.000    1.750    2.500    2.250    5.250    3.500 
#    2.250    0.625    0.000    0.000    0.000    0.000 
#    0.000    0.000    0.000    0.000    0.000    0.000 
#
# Total GULP energy -356559.431032 kJ/mol
# GULP energy per Si atom -5571.241110 kJ/mol
# Density = 2.037029 g / cm^3
# Si number density = 20.416758 Si / 1000 Ang^3
#
#
#
# Elastic Constant Matrix: (Units=GPa)
#
#
# Indices 1 2 3 4 5 6 
#
# 1 98.8331 30.4846 28.2418 0.0000 0.0000 0.0000
# 2 30.4846 102.9482 9.2650 0.0000 0.0000 0.0000
# 3 28.2418 9.2650 29.1012 0.0000 0.0000 0.0000
# 4 0.0000 0.0000 0.0000 11.4502 0.0000 0.0000
# 5 0.0000 0.0000 0.0000 0.0000 277.6488 0.0000
# 6 0.0000 0.0000 0.0000 0.0000 0.0000 37.8311
#
#
#
# Elastic Compliance Matrix: (Units=1/GPa)
#
#
# Indices 1 2 3 4 5 6 
#
# 1 0.014969 -0.003217 -0.013502 0.000000 0.000000 0.000000
# 2 -0.003217 0.010692 -0.000282 0.000000 0.000000 0.000000
# 3 -0.013502 -0.000282 0.047556 0.000000 0.000000 0.000000
# 4 0.000000 0.000000 0.000000 0.087334 0.000000 0.000000
# 5 0.000000 0.000000 0.000000 0.000000 0.003602 0.000000
# 6 0.000000 0.000000 0.000000 0.000000 0.000000 0.026433
#
#
# Mechanical properties :
#
#
# Convention : Reuss Voigt Hill
#
# Bulk Modulus (GPa) = 25.50115 40.76282 33.13198
# Shear Modulus (GPa) = 21.03845 76.24544 48.64194
#
# Velocity S-wave (km/s) = 3.21354 6.11765 4.88633
# Velocity P-wave (km/s) = 5.12704 8.36119 6.93528
#
# Compressibility (1/GPa) = 0.03921392
#
# Stress axis : x y z
#
# Youngs Moduli (GPa) = 66.80566 93.53084 21.02773
#
# Poissons Ratio (x) = 0.30092 0.28393
# Poissons Ratio (y) = 0.21493 0.00592
# Poissons Ratio (z) = 0.90204 0.02634
#
# Static dielectric constant tensor:
#      x y z
#    x 1.763630 0.000000 0.000000 
#    y 0.000000 1.850430 0.000000 
#    z 0.000000 0.000000 1.705870 
# 
# From -- ./inp_files/33300.got.cif
#   From: 2010.05.17/outbox.cif.g08.bks.cpg/sg52_17_cif.got.tgz:33300.got - 2010.06.03 12:15:38.
