data_PCOD9408253
_publ_section_title
;
Structure prediction by ZEFSAII (Michael W. Deem and Ramdas Pophale) SiO2 
 PCOD9408253
Probable space group: P N N A
;
_chemical_formula_sum "Si O2"
_cell_formula_units_Z 56
_cell_length_a 16.922139
_cell_length_b 8.050295
_cell_length_c 19.210933
_cell_angle_alpha 90.000000
_cell_angle_beta 90.000000
_cell_angle_gamma 90.000000
_cell_volume 2617.071034
_symmetry_space_group_name_H-M "P N N A"
_symmetry_group_IT_number 52
_symmetry_cell_setting 'orthorhombic'
loop_
_space_group_symop_operation_xyz
x,y,z
1/2-x,-y,z
x,1/2-y,1/2-z
1/2-x,1/2+y,1/2-z
-x,-y,-z
1/2+x,y,-z
-x,1/2+y,1/2+z
1/2+x,1/2-y,1/2+z
loop_
_atom_site_type_symbol
_atom_site_label
_atom_site_fract_x
_atom_site_fract_y
_atom_site_fract_z
Si Si1 0.699035 0.642013 0.073335
Si Si2 0.500813 0.294027 0.065610
Si Si3 0.881325 0.183601 0.827275
Si Si4 0.372559 0.845932 0.112474
Si Si5 0.154610 0.361294 0.547404
Si Si6 0.856066 0.477020 0.921151
Si Si7 0.052899 0.670355 0.584647
O O1 0.750000 0.500000 0.109920
O O2 0.758020 0.800740 0.066141
O O3 0.679484 0.575158 0.995327
O O4 0.615707 0.689906 0.106512
O O5 0.465825 0.197545 0.132482
O O6 0.451824 0.464553 0.069008
O O7 0.468828 0.199568 0.997019
O O8 0.594295 0.293925 0.059220
O O9 0.887451 0.250000 0.750000
O O10 0.834855 0.175394 0.629363
O O11 0.849289 0.996901 0.836817
O O12 0.349924 0.904814 0.034345
O O13 0.340667 0.656955 0.111195
O O14 0.467972 0.832314 0.120367
O O15 0.106886 0.505149 0.586821
#
# Coordination Sequence:
#
# PCOD9408253 Si02
#       7
#     8   8   8   8   8   8   8
#     4  11  21  28  46  79 116 143 170 214 269 340
#     4   8  17  32  49  76 106 136 175 222 272 325
#     4  10  20  36  55  77 103 137 193 238 270 311
#     4  11  18  33  57  75 109 143 173 229 277 331
#     4  11  17  31  52  77 112 142 174 214 281 343
#     4   9  20  35  49  77 107 143 179 222 271 323
#     4  10  18  31  49  77 108 145 172 207 282 342
#
# _framework density 21.397967999999999
#
# number of rings (size 3 to 8) (size 9 to 14) (size 15 to 20)
#    0.857    1.143    4.286    1.286    2.000    2.286 
#    0.000    0.000    0.000    1.714    0.000    0.000 
#   12.857    0.000    0.000    0.000    0.000    0.000 
#
# Total GULP energy -311889.409845 kJ/mol
# GULP energy per Si atom -5569.453747 kJ/mol
# Density = 2.134926 g / cm^3
# Si number density = 21.397968 Si / 1000 Ang^3
#
#
#
# Elastic Constant Matrix: (Units=GPa)
#
#
# Indices 1 2 3 4 5 6 
#
# 1 121.6776 14.5235 2.6127 0.0000 0.0000 0.0000
# 2 14.5235 136.8182 15.0047 0.0000 0.0000 0.0000
# 3 2.6127 15.0047 21.1996 0.0000 0.0000 0.0000
# 4 0.0000 0.0000 0.0000 16.4153 0.0000 0.0000
# 5 0.0000 0.0000 0.0000 0.0000 5.4842 0.0000
# 6 0.0000 0.0000 0.0000 0.0000 0.0000 17.1657
#
#
#
# Elastic Compliance Matrix: (Units=1/GPa)
#
#
# Indices 1 2 3 4 5 6 
#
# 1 0.008328 -0.000836 -0.000434 0.000000 0.000000 0.000000
# 2 -0.000836 0.008008 -0.005565 0.000000 0.000000 0.000000
# 3 -0.000434 -0.005565 0.051163 0.000000 0.000000 0.000000
# 4 0.000000 0.000000 0.000000 0.060919 0.000000 0.000000
# 5 0.000000 0.000000 0.000000 0.000000 0.182342 0.000000
# 6 0.000000 0.000000 0.000000 0.000000 0.000000 0.058256
#
#
# Mechanical properties :
#
#
# Convention : Reuss Voigt Hill
#
# Bulk Modulus (GPa) = 18.57791 38.21968 28.39879
# Shear Modulus (GPa) = 12.48040 24.31668 18.39854
#
# Velocity S-wave (km/s) = 2.41768 3.37471 2.93546
# Velocity P-wave (km/s) = 4.06134 5.75196 4.97893
#
# Compressibility (1/GPa) = 0.05382738
#
# Stress axis : x y z
#
# Youngs Moduli (GPa) = 120.08268 124.87452 19.54541
#
# Poissons Ratio (x) = 0.10444 0.00849
# Poissons Ratio (y) = 0.10043 0.10877
# Poissons Ratio (z) = 0.05216 0.69491
#
# Static dielectric constant tensor:
#      x y z
#    x 1.869610 0.000000 0.000000 
#    y 0.000000 1.959160 0.000000 
#    z 0.000000 0.000000 1.712500 
# 
# From -- ./inp_files/37647.got.cif
#   From: 2010.05.17/outbox.cif.g08.bks.cpg/sg52_19_cif.got.tgz:37647.got - 2010.06.03 12:15:38.
