data_PCOD9408581
_publ_section_title
;
Structure prediction by ZEFSAII (Michael W. Deem and Ramdas Pophale) SiO2 
 PCOD9408581
Probable space group: P N N A
;
_chemical_formula_sum "Si O2"
_cell_formula_units_Z 60
_cell_length_a 9.802509
_cell_length_b 17.472824
_cell_length_c 16.939819
_cell_angle_alpha 90.000000
_cell_angle_beta 90.000000
_cell_angle_gamma 90.000000
_cell_volume 2901.410095
_symmetry_space_group_name_H-M "P N N A"
_symmetry_group_IT_number 52
_symmetry_cell_setting 'orthorhombic'
loop_
_space_group_symop_operation_xyz
x,y,z
1/2-x,-y,z
x,1/2-y,1/2-z
1/2-x,1/2+y,1/2-z
-x,-y,-z
1/2+x,y,-z
-x,1/2+y,1/2+z
1/2+x,1/2-y,1/2+z
loop_
_atom_site_type_symbol
_atom_site_label
_atom_site_fract_x
_atom_site_fract_y
_atom_site_fract_z
Si Si1 0.961194 0.371759 0.707754
Si Si2 0.572856 0.693250 0.180664
Si Si3 0.786517 0.577923 0.610525
Si Si4 0.860673 0.154079 0.624109
Si Si5 0.250000 0.000000 0.388573
Si Si6 0.871965 0.737007 0.125520
Si Si7 0.524748 0.033889 0.740833
Si Si8 0.862717 0.737675 0.558858
O O1 0.860399 0.390351 0.636283
O O2 0.856246 0.353030 0.780317
O O3 0.059111 0.303549 0.679504
O O4 0.035555 0.450746 0.734947
O O5 0.522719 0.750000 0.250000
O O6 0.728005 0.712781 0.160322
O O7 0.561823 0.607451 0.215391
O O8 0.480619 0.713662 0.103731
O O9 0.750000 0.500000 0.563941
O O10 0.870732 0.647738 0.576014
O O11 0.874181 0.553456 0.687019
O O12 0.799870 0.081060 0.577060
O O13 0.775616 0.226212 0.594742
O O14 0.021103 0.167467 0.617462
O O15 0.378342 0.979566 0.334133
O O16 0.856093 0.759694 0.034896
#
# Coordination Sequence:
#
# PCOD9408581 Si02
#       8
#     8   8   8   8   4   8   8   8
#     4  10  20  39  72  95 122 167 235 276 324 394
#     4  12  24  40  65  99 138 173 226 278 339 399
#     4  10  18  36  67 101 120 163 229 280 314 389
#     4  11  21  41  72  93 122 177 229 276 320 401
#     4  10  18  36  68 106 118 150 238 294 308 376
#     4  12  27  42  59 104 145 179 209 277 360 416
#     4  10  18  37  68 100 125 160 229 292 320 379
#     4  12  24  41  70  95 136 182 228 276 332 408
#
# _framework density 20.679600000000001
#
# number of rings (size 3 to 8) (size 9 to 14) (size 15 to 20)
#    0.000    1.067    7.333    2.000    0.000    0.000 
#    0.000   10.667    2.933    0.000    0.000    0.000 
#    0.000    0.000    0.000    0.000    0.000    0.000 
#
# Total GULP energy -334341.566438 kJ/mol
# GULP energy per Si atom -5572.359441 kJ/mol
# Density = 2.063253 g / cm^3
# Si number density = 20.679600 Si / 1000 Ang^3
#
#
#
# Elastic Constant Matrix: (Units=GPa)
#
#
# Indices 1 2 3 4 5 6 
#
# 1 68.1244 36.2216 16.7483 0.0000 0.0000 0.0000
# 2 36.2216 153.7634 41.4166 0.0000 0.0000 0.0000
# 3 16.7483 41.4166 51.1132 0.0000 0.0000 0.0000
# 4 0.0000 0.0000 0.0000 0.9117 0.0000 0.0000
# 5 0.0000 0.0000 0.0000 0.0000 10.2284 0.0000
# 6 0.0000 0.0000 0.0000 0.0000 0.0000 27.4368
#
#
#
# Elastic Compliance Matrix: (Units=1/GPa)
#
#
# Indices 1 2 3 4 5 6 
#
# 1 0.017133 -0.003228 -0.002998 0.000000 0.000000 0.000000
# 2 -0.003228 0.008928 -0.006176 0.000000 0.000000 0.000000
# 3 -0.002998 -0.006176 0.025551 0.000000 0.000000 0.000000
# 4 0.000000 0.000000 0.000000 1.096833 0.000000 0.000000
# 5 0.000000 0.000000 0.000000 0.000000 0.097767 0.000000
# 6 0.000000 0.000000 0.000000 0.000000 0.000000 0.036447
#
#
# Mechanical properties :
#
#
# Convention : Reuss Voigt Hill
#
# Bulk Modulus (GPa) = 37.30431 51.30823 44.30627
# Shear Modulus (GPa) = 3.79824 19.62302 11.71063
#
# Velocity S-wave (km/s) = 1.35672 3.08378 2.38226
# Velocity P-wave (km/s) = 4.53129 6.12735 5.38874
#
# Compressibility (1/GPa) = 0.02680655
#
# Stress axis : x y z
#
# Youngs Moduli (GPa) = 58.36832 112.01300 39.13714
#
# Poissons Ratio (x) = 0.36162 0.11733
# Poissons Ratio (y) = 0.18843 0.24171
# Poissons Ratio (z) = 0.17498 0.69180
#
# Static dielectric constant tensor:
#      x y z
#    x 1.725100 0.000000 0.000000 
#    y 0.000000 1.922170 0.000000 
#    z 0.000000 0.000000 1.815980 
# 
# From -- ./inp_files/31493.got.cif
#   From: 2010.05.17/outbox.cif.g08.bks.cpg/sg52_16_cif.got.tgz:31493.got - 2010.06.03 12:15:38.
