data_PCOD9408756
_publ_section_title
;
Structure prediction by ZEFSAII (Michael W. Deem and Ramdas Pophale) SiO2 
 PCOD9408756
Probable space group: P N N A
;
_chemical_formula_sum "Si O2"
_cell_formula_units_Z 36
_cell_length_a 5.720817
_cell_length_b 13.187307
_cell_length_c 18.553200
_cell_angle_alpha 90.000000
_cell_angle_beta 90.000000
_cell_angle_gamma 90.000000
_cell_volume 1399.693670
_symmetry_space_group_name_H-M "P N N A"
_symmetry_group_IT_number 52
_symmetry_cell_setting 'orthorhombic'
loop_
_space_group_symop_operation_xyz
x,y,z
1/2-x,-y,z
x,1/2-y,1/2-z
1/2-x,1/2+y,1/2-z
-x,-y,-z
1/2+x,y,-z
-x,1/2+y,1/2+z
1/2+x,1/2-y,1/2+z
loop_
_atom_site_type_symbol
_atom_site_label
_atom_site_fract_x
_atom_site_fract_y
_atom_site_fract_z
Si Si1 0.132317 0.157849 0.422573
Si Si2 0.750000 0.000000 0.037763
Si Si3 0.834870 0.642933 0.334803
Si Si4 0.366582 0.855900 0.594817
Si Si5 0.661769 0.165859 0.809931
O O1 0.131934 0.172676 0.508996
O O2 0.370837 0.103765 0.398191
O O3 0.138313 0.268954 0.384480
O O4 0.894709 0.100060 0.399915
O O5 0.774442 0.903278 0.088325
O O6 0.500000 0.000000 0.000000
O O7 0.858301 0.763147 0.348058
O O8 0.594070 0.619251 0.293074
O O9 0.093659 0.605468 0.312955
O O10 0.698084 0.250000 0.750000
#
# Coordination Sequence:
#
# PCOD9408756 Si02
#       5
#     8   4   8   8   8
#     4   8  14  22  37  56  77 103 145 180 232 279
#     4  12  26  34  52  76 106 144 182 226 256 308
#     4  10  21  33  47  68  98 125 176 214 255 303
#     4   8  14  23  39  54  79 111 139 186 230 276
#     4  10  19  32  49  65  88 126 170 220 258 301
#
# _framework density 25.719915
#
# number of rings (size 3 to 8) (size 9 to 14) (size 15 to 20)
#    0.000    2.667    0.000    2.000   12.444    0.000 
#    0.000    0.000    0.000    0.000    0.000    0.000 
#    0.000    0.000    0.000    0.000    0.000  355.556 
#
# Total GULP energy -200539.527218 kJ/mol
# GULP energy per Si atom -5570.542423 kJ/mol
# Density = 2.566138 g / cm^3
# Si number density = 25.719915 Si / 1000 Ang^3
#
#
#
# Elastic Constant Matrix: (Units=GPa)
#
#
# Indices 1 2 3 4 5 6 
#
# 1 381.8615 43.7569 25.3277 0.0000 0.0000 0.0000
# 2 43.7569 31.1115 -2.9351 0.0000 0.0000 0.0000
# 3 25.3277 -2.9351 47.9885 0.0000 0.0000 0.0000
# 4 0.0000 0.0000 0.0000 -30.9537 0.0000 0.0000
# 5 0.0000 0.0000 0.0000 0.0000 34.7577 0.0000
# 6 0.0000 0.0000 0.0000 0.0000 0.0000 32.9256
#
#
#
# Elastic Compliance Matrix: (Units=1/GPa)
#
#
# Indices 1 2 3 4 5 6 
#
# 1 0.003310 -0.004848 -0.002043 0.000000 0.000000 0.000000
# 2 -0.004848 0.039430 0.004970 0.000000 0.000000 0.000000
# 3 -0.002043 0.004970 0.022221 0.000000 0.000000 0.000000
# 4 0.000000 0.000000 0.000000 -0.032306 0.000000 0.000000
# 5 0.000000 0.000000 0.000000 0.000000 0.028771 0.000000
# 6 0.000000 0.000000 0.000000 0.000000 0.000000 0.030372
#
#
# Mechanical properties :
#
#
# Convention : Reuss Voigt Hill
#
# Bulk Modulus (GPa) = 16.36172 65.91784 41.13978
# Shear Modulus (GPa) = 43.09944 33.66670 38.38307
#
# Velocity S-wave (km/s) = 4.09800 3.62190 3.86728
# Velocity P-wave (km/s) = 5.36347 6.57082 5.99760
#
# Compressibility (1/GPa) = 0.06111826
#
# Stress axis : x y z
#
# Youngs Moduli (GPa) = 302.13426 25.36163 45.00291
#
# Poissons Ratio (x) = 0.12295 0.09196
# Poissons Ratio (y) = 1.46470 -0.22367
# Poissons Ratio (z) = 0.61737 -0.12605
#
# Static dielectric constant tensor:
#      x y z
#    x 2.549690 0.000000 0.000000 
#    y 0.000000 2.021590 0.000000 
#    z 0.000000 0.000000 2.043660 
# 
# From -- ./inp_files/34951.got.cif
#   From: 2010.05.17/outbox.cif.g08.bks.cpg/sg52_18_cif.got.tgz:34951.got - 2010.06.03 12:15:38.
