data_PCOD9408450
_publ_section_title
;
Structure prediction by ZEFSAII (Michael W. Deem and Ramdas Pophale) SiO2 
 PCOD9408450
Probable space group: P N N A
;
_chemical_formula_sum "Si O2"
_cell_formula_units_Z 36
_cell_length_a 18.735696
_cell_length_b 4.983961
_cell_length_c 18.360677
_cell_angle_alpha 90.000000
_cell_angle_beta 90.000000
_cell_angle_gamma 90.000000
_cell_volume 1714.482896
_symmetry_space_group_name_H-M "P N N A"
_symmetry_group_IT_number 52
_symmetry_cell_setting 'orthorhombic'
loop_
_space_group_symop_operation_xyz
x,y,z
1/2-x,-y,z
x,1/2-y,1/2-z
1/2-x,1/2+y,1/2-z
-x,-y,-z
1/2+x,y,-z
-x,1/2+y,1/2+z
1/2+x,1/2-y,1/2+z
loop_
_atom_site_type_symbol
_atom_site_label
_atom_site_fract_x
_atom_site_fract_y
_atom_site_fract_z
Si Si1 0.250000 0.500000 0.696565
Si Si2 0.527024 0.154024 0.929015
Si Si3 0.597421 0.887314 0.170473
Si Si4 0.100168 0.871911 0.368539
Si Si5 0.750000 0.500000 0.801754
Si Si6 0.997836 0.250000 0.750000
O O1 0.266585 0.750000 0.750000
O O2 0.320793 0.436065 0.651049
O O3 0.453900 0.243471 0.888131
O O4 0.574015 0.422972 0.930725
O O5 0.575955 0.931636 0.887068
O O6 0.500000 0.000000 0.000000
O O7 0.599109 0.750000 0.250000
O O8 0.552503 0.152380 0.188460
O O9 0.055904 0.942791 0.294040
O O10 0.182552 0.908501 0.349739
O O11 0.770248 0.750000 0.750000
#
# Coordination Sequence:
#
# PCOD9408450 Si02
#       6
#     4   8   8   8   4   4
#     4  10  20  32  50  84 114 140 180 244 306 348
#     4  11  24  41  63  88 123 167 215 256 309 384
#     4  10  19  34  57  83 116 146 198 249 306 362
#     4  11  23  39  62  90 127 163 209 256 321 371
#     4  12  24  38  62 100 136 164 208 276 332 386
#     4  10  18  34  56  90 112 156 194 256 298 370
#
# _framework density 20.997585999999998
#
# number of rings (size 3 to 8) (size 9 to 14) (size 15 to 20)
#    0.000    1.333    4.444    2.000    3.111    0.000 
#    0.000    2.222    0.000    1.333    0.000    0.000 
#    0.000    0.000    0.000    0.000    0.000    0.000 
#
# Total GULP energy -200586.376184 kJ/mol
# GULP energy per Si atom -5571.843783 kJ/mol
# Density = 2.094979 g / cm^3
# Si number density = 20.997586 Si / 1000 Ang^3
#
#
#
# Elastic Constant Matrix: (Units=GPa)
#
#
# Indices 1 2 3 4 5 6 
#
# 1 180.4455 7.9691 20.6335 0.0000 0.0000 0.0000
# 2 7.9691 77.7468 -4.3588 0.0000 0.0000 0.0000
# 3 20.6335 -4.3588 41.6317 0.0000 0.0000 0.0000
# 4 0.0000 0.0000 0.0000 30.8911 0.0000 0.0000
# 5 0.0000 0.0000 0.0000 0.0000 12.6995 0.0000
# 6 0.0000 0.0000 0.0000 0.0000 0.0000 26.9581
#
#
#
# Elastic Compliance Matrix: (Units=1/GPa)
#
#
# Indices 1 2 3 4 5 6 
#
# 1 0.005921 -0.000776 -0.003016 0.000000 0.000000 0.000000
# 2 -0.000776 0.013040 0.001750 0.000000 0.000000 0.000000
# 3 -0.003016 0.001750 0.025698 0.000000 0.000000 0.000000
# 4 0.000000 0.000000 0.000000 0.032372 0.000000 0.000000
# 5 0.000000 0.000000 0.000000 0.000000 0.078743 0.000000
# 6 0.000000 0.000000 0.000000 0.000000 0.000000 0.037095
#
#
# Mechanical properties :
#
#
# Convention : Reuss Voigt Hill
#
# Bulk Modulus (GPa) = 24.64563 38.70128 31.67345
# Shear Modulus (GPa) = 23.75551 32.48174 28.11862
#
# Velocity S-wave (km/s) = 3.36720 3.93737 3.66339
# Velocity P-wave (km/s) = 5.18461 6.25634 5.74552
#
# Compressibility (1/GPa) = 0.04057515
#
# Stress axis : x y z
#
# Youngs Moduli (GPa) = 168.89156 76.68760 38.91342
#
# Poissons Ratio (x) = 0.05951 0.11735
# Poissons Ratio (y) = 0.13106 -0.06809
# Poissons Ratio (z) = 0.50934 -0.13419
#
# Static dielectric constant tensor:
#      x y z
#    x 1.751520 0.000000 0.000000 
#    y 0.000000 1.866110 0.000000 
#    z 0.000000 0.000000 1.837240 
# 
# From -- ./inp_files/37104.got.cif
#   From: 2010.05.17/outbox.cif.g08.bks.cpg/sg52_19_cif.got.tgz:37104.got - 2010.06.03 12:15:38.
