data_PCOD9408391
_publ_section_title
;
Structure prediction by ZEFSAII (Michael W. Deem and Ramdas Pophale) SiO2 
 PCOD9408391
Probable space group: P N N A
;
_chemical_formula_sum "Si O2"
_cell_formula_units_Z 60
_cell_length_a 20.311608
_cell_length_b 12.334726
_cell_length_c 11.982323
_cell_angle_alpha 90.000000
_cell_angle_beta 90.000000
_cell_angle_gamma 90.000000
_cell_volume 3002.028669
_symmetry_space_group_name_H-M "P N N A"
_symmetry_group_IT_number 52
_symmetry_cell_setting 'orthorhombic'
loop_
_space_group_symop_operation_xyz
x,y,z
1/2-x,-y,z
x,1/2-y,1/2-z
1/2-x,1/2+y,1/2-z
-x,-y,-z
1/2+x,y,-z
-x,1/2+y,1/2+z
1/2+x,1/2-y,1/2+z
loop_
_atom_site_type_symbol
_atom_site_label
_atom_site_fract_x
_atom_site_fract_y
_atom_site_fract_z
Si Si1 0.338338 0.554703 0.787201
Si Si2 0.550139 0.187071 0.409346
Si Si3 0.594098 0.751146 0.632469
Si Si4 0.737329 0.750000 0.250000
Si Si5 0.638204 0.662646 0.098233
Si Si6 0.550604 0.503604 0.645110
Si Si7 0.983954 0.650134 0.833525
Si Si8 0.591193 0.433242 0.423900
O O1 0.403657 0.607067 0.841768
O O2 0.284391 0.648579 0.775512
O O3 0.328100 0.450398 0.865224
O O4 0.353515 0.522933 0.658902
O O5 0.476439 0.188186 0.360832
O O6 0.544605 0.160953 0.541328
O O7 0.578915 0.307592 0.395367
O O8 0.630746 0.750000 0.750000
O O9 0.630341 0.807629 0.530757
O O10 0.574025 0.625577 0.619792
O O11 0.684993 0.755555 0.149092
O O12 0.563644 0.653551 0.148008
O O13 0.546758 0.453084 0.768480
O O14 0.595025 0.437245 0.557376
O O15 0.474150 0.499121 0.607909
O O16 0.969336 0.750000 0.750000
#
# Coordination Sequence:
#
# PCOD9408391 Si02
#       8
#     8   8   8   4   8   8   8   8
#     4  12  23  40  63  88 126 165 214 276 316 384
#     4  10  20  34  58  91 129 164 201 260 330 389
#     4  10  23  39  60  93 131 166 206 264 324 408
#     4  12  26  44  64  88 118 174 224 272 312 374
#     4  11  26  40  61  91 126 170 221 265 326 376
#     4  10  20  32  59  90 124 171 202 251 334 400
#     4  11  20  35  59  91 136 165 204 265 323 399
#     4  10  18  33  54  85 121 160 206 253 321 378
#
# _framework density 19.986484999999998
#
# number of rings (size 3 to 8) (size 9 to 14) (size 15 to 20)
#    0.000    1.333    4.667    2.000    5.600    1.067 
#    0.000    0.000    0.000    2.400    0.000    0.000 
#    0.000    0.000    0.000    0.000    0.000    0.000 
#
# Total GULP energy -334453.507409 kJ/mol
# GULP energy per Si atom -5574.225123 kJ/mol
# Density = 1.994100 g / cm^3
# Si number density = 19.986485 Si / 1000 Ang^3
#
#
#
# Elastic Constant Matrix: (Units=GPa)
#
#
# Indices 1 2 3 4 5 6 
#
# 1 62.1112 27.4143 39.6674 0.0000 0.0000 0.0000
# 2 27.4143 96.4237 47.8521 0.0000 0.0000 0.0000
# 3 39.6674 47.8521 159.1171 0.0000 0.0000 0.0000
# 4 0.0000 0.0000 0.0000 39.8765 0.0000 0.0000
# 5 0.0000 0.0000 0.0000 0.0000 12.5033 0.0000
# 6 0.0000 0.0000 0.0000 0.0000 0.0000 20.0742
#
#
#
# Elastic Compliance Matrix: (Units=1/GPa)
#
#
# Indices 1 2 3 4 5 6 
#
# 1 0.020284 -0.003829 -0.003905 0.000000 0.000000 0.000000
# 2 -0.003829 0.012913 -0.002929 0.000000 0.000000 0.000000
# 3 -0.003905 -0.002929 0.008139 0.000000 0.000000 0.000000
# 4 0.000000 0.000000 0.000000 0.025077 0.000000 0.000000
# 5 0.000000 0.000000 0.000000 0.000000 0.079979 0.000000
# 6 0.000000 0.000000 0.000000 0.000000 0.000000 0.049815
#
#
# Mechanical properties :
#
#
# Convention : Reuss Voigt Hill
#
# Bulk Modulus (GPa) = 49.97467 60.83551 55.40509
# Shear Modulus (GPa) = 22.30110 28.00536 25.15323
#
# Velocity S-wave (km/s) = 3.34400 3.74734 3.55140
# Velocity P-wave (km/s) = 6.32205 7.01625 6.67818
#
# Compressibility (1/GPa) = 0.02001014
#
# Stress axis : x y z
#
# Youngs Moduli (GPa) = 49.29931 77.44136 122.86427
#
# Poissons Ratio (x) = 0.29652 0.47982
# Poissons Ratio (y) = 0.18876 0.35985
# Poissons Ratio (z) = 0.19253 0.22681
#
# Static dielectric constant tensor:
#      x y z
#    x 1.691670 0.000000 0.000000 
#    y 0.000000 1.794300 0.000000 
#    z 0.000000 0.000000 1.753960 
# 
# From -- ./inp_files/21756.got.cif
#   From: 2010.05.17/outbox.cif.g08.bks.cpg/sg52_11_cif.got.tgz:21756.got - 2010.06.03 12:15:38.
