data_PCOD9408712
_publ_section_title
;
Structure prediction by ZEFSAII (Michael W. Deem and Ramdas Pophale) SiO2 
 PCOD9408712
Probable space group: P N N A
;
_chemical_formula_sum "Si O2"
_cell_formula_units_Z 48
_cell_length_a 22.209519
_cell_length_b 15.337874
_cell_length_c 5.680617
_cell_angle_alpha 90.000000
_cell_angle_beta 90.000000
_cell_angle_gamma 90.000000
_cell_volume 1935.084026
_symmetry_space_group_name_H-M "P N N A"
_symmetry_group_IT_number 52
_symmetry_cell_setting 'orthorhombic'
loop_
_space_group_symop_operation_xyz
x,y,z
1/2-x,-y,z
x,1/2-y,1/2-z
1/2-x,1/2+y,1/2-z
-x,-y,-z
1/2+x,y,-z
-x,1/2+y,1/2+z
1/2+x,1/2-y,1/2+z
loop_
_atom_site_type_symbol
_atom_site_label
_atom_site_fract_x
_atom_site_fract_y
_atom_site_fract_z
Si Si1 0.267402 0.647143 0.750000
Si Si2 0.050995 0.065116 0.750000
Si Si3 0.128021 0.609301 0.750000
Si Si4 0.365002 0.378749 0.250000
Si Si5 0.270740 0.598900 0.250000
Si Si6 0.931557 0.553025 0.750000
O O1 0.257088 0.750000 0.750000
O O2 0.201028 0.601880 0.750000
O O3 0.298574 0.622654 0.502826
O O4 0.298574 0.622654 0.997174
O O5 0.060726 0.105975 0.492482
O O6 0.097638 0.984639 0.750000
O O7 0.060726 0.105975 0.007518
O O8 0.985662 0.018889 0.750000
O O9 0.110175 0.650958 0.501290
O O10 0.110175 0.650958 0.998710
O O11 0.294789 0.353312 0.250000
O O12 0.375097 0.485170 0.250000
O O13 0.250000 0.500000 0.250000
#
# Coordination Sequence:
#
# PCOD9408712 Si02
#       6
#     8   8   8   8   8   8
#     4  10  19  31  46  64  87 114 145 179 218 269
#     4   8  12  18  29  46  69  97 125 151 186 229
#     4   8  14  23  35  52  75 103 131 160 197 243
#     4   8  14  23  35  52  75 103 132 163 205 249
#     4  10  19  31  46  64  87 116 146 183 230 269
#     4   8  12  18  29  46  69  97 125 154 188 229
#
# _framework density 24.805123999999999
#
# number of rings (size 3 to 8) (size 9 to 14) (size 15 to 20)
#    0.000    3.333    0.000    1.000    0.000    0.000 
#    0.000    0.000    0.000    0.000    0.000    0.000 
#    0.000    2.667    0.000    9.667    0.000    6.000 
#
# Total GULP energy -267406.863738 kJ/mol
# GULP energy per Si atom -5570.976328 kJ/mol
# Density = 2.474867 g / cm^3
# Si number density = 24.805124 Si / 1000 Ang^3
#
#
#
# Elastic Constant Matrix: (Units=GPa)
#
#
# Indices 1 2 3 4 5 6 
#
# 1 88.6113 -2.4526 1.6779 0.0000 0.0000 0.0000
# 2 -2.4526 41.0617 11.6738 0.0000 0.0000 0.0000
# 3 1.6779 11.6738 355.2840 0.0000 0.0000 0.0000
# 4 0.0000 0.0000 0.0000 -10.9912 0.0000 0.0000
# 5 0.0000 0.0000 0.0000 0.0000 1.4098 0.0000
# 6 0.0000 0.0000 0.0000 0.0000 0.0000 -25.0071
#
#
#
# Elastic Compliance Matrix: (Units=1/GPa)
#
#
# Indices 1 2 3 4 5 6 
#
# 1 0.011306 0.000697 -0.000076 0.000000 0.000000 0.000000
# 2 0.000697 0.024626 -0.000812 0.000000 0.000000 0.000000
# 3 -0.000076 -0.000812 0.002842 0.000000 0.000000 0.000000
# 4 0.000000 0.000000 0.000000 -0.090982 0.000000 0.000000
# 5 0.000000 0.000000 0.000000 0.000000 0.709335 0.000000
# 6 0.000000 0.000000 0.000000 0.000000 0.000000 -0.039989
#
#
# Mechanical properties :
#
#
# Convention : Reuss Voigt Hill
#
# Bulk Modulus (GPa) = 26.04822 56.30615 41.17718
# Shear Modulus (GPa) = 7.93249 24.68615 16.30932
#
# Velocity S-wave (km/s) = 1.79021 3.15811 2.56695
# Velocity P-wave (km/s) = 3.84670 6.00390 5.04202
#
# Compressibility (1/GPa) = 0.03839034
#
# Stress axis : x y z
#
# Youngs Moduli (GPa) = 88.44874 40.60719 351.90141
#
# Poissons Ratio (x) = -0.02830 0.02685
# Poissons Ratio (y) = -0.06165 0.28590
# Poissons Ratio (z) = 0.00675 0.03299
#
# Static dielectric constant tensor:
#      x y z
#    x 2.031610 0.000000 0.000000 
#    y 0.000000 1.883680 0.000000 
#    z 0.000000 0.000000 2.149730 
# 
# From -- ./inp_files/6375.got.cif
#   From: 2010.05.17/outbox.cif.g08.bks.cpg/sg52_4_cif.got.tgz:6375.got - 2010.06.03 12:15:38.
