data_PCOD9408636
_publ_section_title
;
Structure prediction by ZEFSAII (Michael W. Deem and Ramdas Pophale) SiO2 
 PCOD9408636
Probable space group: P N N A
;
_chemical_formula_sum "Si O2"
_cell_formula_units_Z 40
_cell_length_a 14.170355
_cell_length_b 11.237161
_cell_length_c 10.110700
_cell_angle_alpha 90.000000
_cell_angle_beta 90.000000
_cell_angle_gamma 90.000000
_cell_volume 1609.972871
_symmetry_space_group_name_H-M "P N N A"
_symmetry_group_IT_number 52
_symmetry_cell_setting 'orthorhombic'
loop_
_space_group_symop_operation_xyz
x,y,z
1/2-x,-y,z
x,1/2-y,1/2-z
1/2-x,1/2+y,1/2-z
-x,-y,-z
1/2+x,y,-z
-x,1/2+y,1/2+z
1/2+x,1/2-y,1/2+z
loop_
_atom_site_type_symbol
_atom_site_label
_atom_site_fract_x
_atom_site_fract_y
_atom_site_fract_z
Si Si1 0.601618 0.780102 0.596939
Si Si2 0.180827 0.295313 0.450570
Si Si3 0.996866 0.610288 0.598392
Si Si4 0.144721 0.048391 0.787369
Si Si5 0.858477 0.540711 0.993343
O O1 0.577787 0.750000 0.750000
O O2 0.706795 0.720046 0.571726
O O3 0.535466 0.719349 0.487748
O O4 0.596732 0.921834 0.567507
O O5 0.154524 0.352172 0.595960
O O6 0.142225 0.164486 0.419057
O O7 0.112307 0.377611 0.361928
O O8 0.076284 0.566731 0.697760
O O9 0.000000 0.500000 0.500000
O O10 0.116127 0.086113 0.640894
O O11 0.250000 0.000000 0.784941
O O12 0.750000 0.500000 0.002225
#
# Coordination Sequence:
#
# PCOD9408636 Si02
#       5
#     8   8   8   8   8
#     4  11  24  46  65  94 144 184 220 281 346 423
#     4  10  21  43  64  99 131 173 226 277 341 410
#     4  10  23  40  66 102 126 179 229 271 351 408
#     4  10  18  38  69  93 127 165 219 285 337 397
#     4   9  21  39  65  98 121 172 224 271 338 398
#
# _framework density 24.845140000000001
#
# number of rings (size 3 to 8) (size 9 to 14) (size 15 to 20)
#    0.000    2.000    2.000    0.600    0.000    4.800 
#   25.200    0.000    0.000    0.000    0.000    0.000 
#    0.000    0.000    0.000    0.000    0.000    0.000 
#
# Total GULP energy -222780.584509 kJ/mol
# GULP energy per Si atom -5569.514613 kJ/mol
# Density = 2.478859 g / cm^3
# Si number density = 24.845140 Si / 1000 Ang^3
#
#
#
# Elastic Constant Matrix: (Units=GPa)
#
#
# Indices 1 2 3 4 5 6 
#
# 1 123.2170 -0.3273 -17.2430 0.0000 0.0000 0.0000
# 2 -0.3273 88.4766 8.1667 0.0000 0.0000 0.0000
# 3 -17.2430 8.1667 99.6447 0.0000 0.0000 0.0000
# 4 0.0000 0.0000 0.0000 23.2411 0.0000 0.0000
# 5 0.0000 0.0000 0.0000 0.0000 -47.9770 0.0000
# 6 0.0000 0.0000 0.0000 0.0000 0.0000 33.6544
#
#
#
# Elastic Compliance Matrix: (Units=1/GPa)
#
#
# Indices 1 2 3 4 5 6 
#
# 1 0.008318 -0.000103 0.001448 0.000000 0.000000 0.000000
# 2 -0.000103 0.011390 -0.000951 0.000000 0.000000 0.000000
# 3 0.001448 -0.000951 0.010364 0.000000 0.000000 0.000000
# 4 0.000000 0.000000 0.000000 0.043027 0.000000 0.000000
# 5 0.000000 0.000000 0.000000 0.000000 -0.020843 0.000000
# 6 0.000000 0.000000 0.000000 0.000000 0.000000 0.029714
#
#
# Mechanical properties :
#
#
# Convention : Reuss Voigt Hill
#
# Bulk Modulus (GPa) = 32.40500 32.50349 32.45424
# Shear Modulus (GPa) = 54.66337 23.16649 38.91493
#
# Velocity S-wave (km/s) = 4.69568 3.05689 3.96194
# Velocity P-wave (km/s) = 6.51692 5.05671 5.83269
#
# Compressibility (1/GPa) = 0.03085943
#
# Stress axis : x y z
#
# Youngs Moduli (GPa) = 120.21980 87.79749 96.48632
#
# Poissons Ratio (x) = 0.00903 -0.13970
# Poissons Ratio (y) = 0.01237 0.09179
# Poissons Ratio (z) = -0.17406 0.08352
#
# Static dielectric constant tensor:
#      x y z
#    x 1.681230 0.000000 0.000000 
#    y 0.000000 2.015870 0.000000 
#    z 0.000000 0.000000 2.420170 
# 
# From -- ./inp_files/19263.got.cif
#   From: 2010.05.17/outbox.cif.g08.bks.cpg/sg52_10_cif.got.tgz:19263.got - 2010.06.03 12:15:38.
