data_PCOD9408710
_publ_section_title
;
Structure prediction by ZEFSAII (Michael W. Deem and Ramdas Pophale) SiO2 
 PCOD9408710
Probable space group: P N N A
;
_chemical_formula_sum "Si O2"
_cell_formula_units_Z 60
_cell_length_a 5.592197
_cell_length_b 23.963141
_cell_length_c 26.962275
_cell_angle_alpha 90.000000
_cell_angle_beta 90.000000
_cell_angle_gamma 90.000000
_cell_volume 3613.122942
_symmetry_space_group_name_H-M "P N N A"
_symmetry_group_IT_number 52
_symmetry_cell_setting 'orthorhombic'
loop_
_space_group_symop_operation_xyz
x,y,z
1/2-x,-y,z
x,1/2-y,1/2-z
1/2-x,1/2+y,1/2-z
-x,-y,-z
1/2+x,y,-z
-x,1/2+y,1/2+z
1/2+x,1/2-y,1/2+z
loop_
_atom_site_type_symbol
_atom_site_label
_atom_site_fract_x
_atom_site_fract_y
_atom_site_fract_z
Si Si1 0.750000 0.500000 0.832410
Si Si2 0.817047 0.177009 0.624033
Si Si3 0.031404 0.268912 0.692024
Si Si4 0.495207 0.889906 0.300794
Si Si5 0.291608 0.212207 0.484770
Si Si6 0.471382 0.804885 0.214212
Si Si7 0.863455 0.572982 0.124205
Si Si8 0.651007 0.584166 0.022043
O O1 0.669919 0.445142 0.802237
O O2 0.525163 0.519506 0.865206
O O3 0.987795 0.216318 0.656558
O O4 0.610746 0.155315 0.660372
O O5 0.737604 0.205694 0.573554
O O6 0.956903 0.121741 0.607667
O O7 0.041985 0.250000 0.750000
O O8 0.787029 0.304787 0.687861
O O9 0.288001 0.296856 0.682337
O O10 0.503425 0.858729 0.248869
O O11 0.745392 0.909033 0.323936
O O12 0.555383 0.238653 0.490921
O O13 0.333665 0.150780 0.510000
O O14 0.460438 0.750000 0.250000
O O15 0.672694 0.572484 0.080251
O O16 0.398909 0.562262 0.001636
#
# Coordination Sequence:
#
# PCOD9408710 Si02
#       8
#     4   8   8   8   8   8   8   8
#     4  10  26  36  48  76  86 126 180 204 268 312
#     4  11  20  30  55  70  98 129 155 213 264 299
#     4  10  19  32  45  80  97 118 154 192 257 312
#     4  11  21  36  53  69  96 130 158 214 260 315
#     4  10  19  31  45  72  94 123 169 199 249 307
#     4  10  19  33  51  73 101 117 150 195 253 307
#     4  11  21  35  53  65  91 124 164 213 261 304
#     4  10  19  34  50  68  88 113 163 209 258 306
#
# _framework density 16.606131999999999
#
# number of rings (size 3 to 8) (size 9 to 14) (size 15 to 20)
#    0.000    1.600    5.333    3.600    3.733    0.000 
#    0.000    0.667    0.000    0.000    0.000    0.000 
#    0.000    0.000    0.000    0.000    0.000    0.000 
#
# Total GULP energy -334716.293032 kJ/mol
# GULP energy per Si atom -5578.604884 kJ/mol
# Density = 1.656834 g / cm^3
# Si number density = 16.606132 Si / 1000 Ang^3
#
#
#
# Elastic Constant Matrix: (Units=GPa)
#
#
# Indices 1 2 3 4 5 6 
#
# 1 104.8182 1.3473 -1.1611 0.0000 0.0000 0.0000
# 2 1.3473 35.3140 23.7901 0.0000 0.0000 0.0000
# 3 -1.1611 23.7901 28.6511 0.0000 0.0000 0.0000
# 4 0.0000 0.0000 0.0000 10.6893 0.0000 0.0000
# 5 0.0000 0.0000 0.0000 0.0000 21.5043 0.0000
# 6 0.0000 0.0000 0.0000 0.0000 0.0000 35.5220
#
#
#
# Elastic Compliance Matrix: (Units=1/GPa)
#
#
# Indices 1 2 3 4 5 6 
#
# 1 0.009576 -0.001422 0.001569 0.000000 0.000000 0.000000
# 2 -0.001422 0.064478 -0.053596 0.000000 0.000000 0.000000
# 3 0.001569 -0.053596 0.079469 0.000000 0.000000 0.000000
# 4 0.000000 0.000000 0.000000 0.093552 0.000000 0.000000
# 5 0.000000 0.000000 0.000000 0.000000 0.046502 0.000000
# 6 0.000000 0.000000 0.000000 0.000000 0.000000 0.028152
#
#
# Mechanical properties :
#
#
# Convention : Reuss Voigt Hill
#
# Bulk Modulus (GPa) = 21.44805 24.08175 22.76490
# Shear Modulus (GPa) = 11.25698 23.19692 17.22695
#
# Velocity S-wave (km/s) = 2.60644 3.74155 3.22434
# Velocity P-wave (km/s) = 4.69061 5.76184 5.25360
#
# Compressibility (1/GPa) = 0.04662429
#
# Stress axis : x y z
#
# Youngs Moduli (GPa) = 104.42778 15.50917 12.58350
#
# Poissons Ratio (x) = 0.02206 -0.01975
# Poissons Ratio (y) = 0.14854 0.67443
# Poissons Ratio (z) = -0.16387 0.83123
#
# Static dielectric constant tensor:
#      x y z
#    x 1.672750 0.000000 0.000000 
#    y 0.000000 1.560300 0.000000 
#    z 0.000000 0.000000 1.588680 
# 
# From -- ./inp_files/43932.got.cif
#   From: 2010.05.17/outbox.cif.g08.bks.cpg/sg52_22_cif.got.tgz:43932.got - 2010.06.03 12:15:38.
