data_PCOD9408281
_publ_section_title
;
Structure prediction by ZEFSAII (Michael W. Deem and Ramdas Pophale) SiO2 
 PCOD9408281
Probable space group: P N N A
;
_chemical_formula_sum "Si O2"
_cell_formula_units_Z 48
_cell_length_a 20.087241
_cell_length_b 16.382911
_cell_length_c 7.887723
_cell_angle_alpha 90.000000
_cell_angle_beta 90.000000
_cell_angle_gamma 90.000000
_cell_volume 2595.750897
_symmetry_space_group_name_H-M "P N N A"
_symmetry_group_IT_number 52
_symmetry_cell_setting 'orthorhombic'
loop_
_space_group_symop_operation_xyz
x,y,z
1/2-x,-y,z
x,1/2-y,1/2-z
1/2-x,1/2+y,1/2-z
-x,-y,-z
1/2+x,y,-z
-x,1/2+y,1/2+z
1/2+x,1/2-y,1/2+z
loop_
_atom_site_type_symbol
_atom_site_label
_atom_site_fract_x
_atom_site_fract_y
_atom_site_fract_z
Si Si1 0.064309 0.505097 0.627703
Si Si2 0.102901 0.163325 0.224721
Si Si3 0.540621 0.665400 0.154915
Si Si4 0.828530 0.497513 0.658483
Si Si5 0.539678 0.167209 0.153165
Si Si6 0.894861 0.336428 0.785286
O O1 0.059690 0.585042 0.740588
O O2 0.130830 0.507400 0.517122
O O3 0.061827 0.419808 0.730079
O O4 0.000000 0.500000 0.500000
O O5 0.138906 0.250000 0.250000
O O6 0.145657 0.081933 0.241401
O O7 0.426326 0.163131 0.471944
O O8 0.039786 0.162843 0.350747
O O9 0.558246 0.750000 0.250000
O O10 0.430210 0.665119 0.463980
O O11 0.750000 0.500000 0.636441
O O12 0.851639 0.416625 0.757475
O O13 0.559324 0.250000 0.250000
O O14 0.459137 0.164247 0.159161
O O15 0.859415 0.250000 0.750000
#
# Coordination Sequence:
#
# PCOD9408281 Si02
#       6
#     8   8   8   8   8   8
#     4  11  19  39  58  83 116 148 194 240 284 341
#     4  10  19  34  55  83 115 146 188 236 289 343
#     4  11  20  33  61  89 115 146 188 249 295 329
#     4  11  23  39  57  80 118 160 189 234 291 343
#     4  10  18  31  55  86 115 141 180 244 288 333
#     4  11  21  34  58  88 116 147 192 240 287 349
#
# _framework density 18.491759999999999
#
# number of rings (size 3 to 8) (size 9 to 14) (size 15 to 20)
#    0.000    1.333    5.000    5.000    0.000    4.667 
#    0.000    0.833    0.000   12.000    0.000    1.167 
#    0.000    0.000    0.000    0.000    0.000    0.000 
#
# Total GULP energy -267817.668043 kJ/mol
# GULP energy per Si atom -5579.534751 kJ/mol
# Density = 1.844967 g / cm^3
# Si number density = 18.491760 Si / 1000 Ang^3
#
#
#
# Elastic Constant Matrix: (Units=GPa)
#
#
# Indices 1 2 3 4 5 6 
#
# 1 98.5713 62.5161 33.0765 0.0000 0.0000 0.0000
# 2 62.5161 230.4225 50.7401 0.0000 0.0000 0.0000
# 3 33.0765 50.7401 61.3326 0.0000 0.0000 0.0000
# 4 0.0000 0.0000 0.0000 37.9778 0.0000 0.0000
# 5 0.0000 0.0000 0.0000 0.0000 11.5334 0.0000
# 6 0.0000 0.0000 0.0000 0.0000 0.0000 6.0924
#
#
#
# Elastic Compliance Matrix: (Units=1/GPa)
#
#
# Indices 1 2 3 4 5 6 
#
# 1 0.013481 -0.002515 -0.005190 0.000000 0.000000 0.000000
# 2 -0.002515 0.005776 -0.003422 0.000000 0.000000 0.000000
# 3 -0.005190 -0.003422 0.021935 0.000000 0.000000 0.000000
# 4 0.000000 0.000000 0.000000 0.026331 0.000000 0.000000
# 5 0.000000 0.000000 0.000000 0.000000 0.086705 0.000000
# 6 0.000000 0.000000 0.000000 0.000000 0.000000 0.164138
#
#
# Mechanical properties :
#
#
# Convention : Reuss Voigt Hill
#
# Bulk Modulus (GPa) = 52.80381 75.88797 64.34589
# Shear Modulus (GPa) = 14.41205 27.38696 20.89951
#
# Velocity S-wave (km/s) = 2.79476 3.85260 3.36550
# Velocity P-wave (km/s) = 6.24752 7.80499 7.06928
#
# Compressibility (1/GPa) = 0.01893803
#
# Stress axis : x y z
#
# Youngs Moduli (GPa) = 74.17606 173.13989 45.59026
#
# Poissons Ratio (x) = 0.43541 0.23662
# Poissons Ratio (y) = 0.18654 0.15601
# Poissons Ratio (z) = 0.38498 0.59248
#
# Static dielectric constant tensor:
#      x y z
#    x 1.594910 0.000000 0.000000 
#    y 0.000000 1.736050 0.000000 
#    z 0.000000 0.000000 1.666770 
# 
# From -- ./inp_files/20737.got.cif
#   From: 2010.05.17/outbox.cif.g08.bks.cpg/sg52_11_cif.got.tgz:20737.got - 2010.06.03 12:15:38.
