data_PCOD9408299
_publ_section_title
;
Structure prediction by ZEFSAII (Michael W. Deem and Ramdas Pophale) SiO2 
 PCOD9408299
Probable space group: P N N A
;
_chemical_formula_sum "Si O2"
_cell_formula_units_Z 36
_cell_length_a 26.752708
_cell_length_b 5.141393
_cell_length_c 13.928702
_cell_angle_alpha 90.000000
_cell_angle_beta 90.000000
_cell_angle_gamma 90.000000
_cell_volume 1915.839831
_symmetry_space_group_name_H-M "P N N A"
_symmetry_group_IT_number 52
_symmetry_cell_setting 'orthorhombic'
loop_
_space_group_symop_operation_xyz
x,y,z
1/2-x,-y,z
x,1/2-y,1/2-z
1/2-x,1/2+y,1/2-z
-x,-y,-z
1/2+x,y,-z
-x,1/2+y,1/2+z
1/2+x,1/2-y,1/2+z
loop_
_atom_site_type_symbol
_atom_site_label
_atom_site_fract_x
_atom_site_fract_y
_atom_site_fract_z
Si Si1 0.196172 0.349605 0.457740
Si Si2 0.782295 0.750000 0.750000
Si Si3 0.136184 0.827975 0.465009
Si Si4 0.094952 0.750000 0.250000
Si Si5 0.526202 0.744011 0.045851
Si Si6 0.022863 0.250000 0.250000
O O1 0.250000 0.500000 0.469713
O O2 0.188913 0.341442 0.342591
O O3 0.159432 0.558844 0.499722
O O4 0.176043 0.061758 0.485831
O O5 0.750000 0.500000 0.782397
O O6 0.125319 0.810041 0.349099
O O7 0.083294 0.818992 0.518209
O O8 0.059148 0.499357 0.262024
O O9 0.512324 0.740585 0.157361
O O10 0.500000 0.500000 0.000000
O O11 0.500000 0.000000 0.000000
#
# Coordination Sequence:
#
# PCOD9408299 Si02
#       6
#     8   4   8   4   8   4
#     4  11  22  36  53  79 118 158 203 246 298 352
#     4  10  18  32  50  72 110 154 190 234 282 346
#     4  12  22  36  57  86 116 161 205 244 297 369
#     4  12  22  35  60  87 120 167 208 242 305 372
#     4  12  23  41  61  89 123 159 207 255 308 370
#     4  12  22  41  60  87 124 165 200 256 315 364
#
# _framework density 18.790716
#
# number of rings (size 3 to 8) (size 9 to 14) (size 15 to 20)
#    0.000    0.444    4.444    7.333    0.000    0.889 
#    0.000    0.000    0.000    0.000    0.000    3.111 
#    0.000    1.778    0.000    0.000    0.000    0.000 
#
# Total GULP energy -200489.681680 kJ/mol
# GULP energy per Si atom -5569.157824 kJ/mol
# Density = 1.874795 g / cm^3
# Si number density = 18.790716 Si / 1000 Ang^3
#
#
#
# Elastic Constant Matrix: (Units=GPa)
#
#
# Indices 1 2 3 4 5 6 
#
# 1 75.6444 40.4082 17.8369 0.0000 0.0000 0.0000
# 2 40.4082 155.2817 25.7984 0.0000 0.0000 0.0000
# 3 17.8369 25.7984 80.9594 0.0000 0.0000 0.0000
# 4 0.0000 0.0000 0.0000 11.1712 0.0000 0.0000
# 5 0.0000 0.0000 0.0000 0.0000 28.3155 0.0000
# 6 0.0000 0.0000 0.0000 0.0000 0.0000 24.5692
#
#
#
# Elastic Compliance Matrix: (Units=1/GPa)
#
#
# Indices 1 2 3 4 5 6 
#
# 1 0.015744 -0.003718 -0.002284 0.000000 0.000000 0.000000
# 2 -0.003718 0.007678 -0.001628 0.000000 0.000000 0.000000
# 3 -0.002284 -0.001628 0.013374 0.000000 0.000000 0.000000
# 4 0.000000 0.000000 0.000000 0.089516 0.000000 0.000000
# 5 0.000000 0.000000 0.000000 0.000000 0.035316 0.000000
# 6 0.000000 0.000000 0.000000 0.000000 0.000000 0.040701
#
#
# Mechanical properties :
#
#
# Convention : Reuss Voigt Hill
#
# Bulk Modulus (GPa) = 46.43117 53.33026 49.88071
# Shear Modulus (GPa) = 22.24528 28.00065 25.12297
#
# Velocity S-wave (km/s) = 3.44444 3.86441 3.66045
# Velocity P-wave (km/s) = 6.37041 6.95373 6.66845
#
# Compressibility (1/GPa) = 0.02153726
#
# Stress axis : x y z
#
# Youngs Moduli (GPa) = 63.51547 130.24731 74.77352
#
# Poissons Ratio (x) = 0.48420 0.17079
# Poissons Ratio (y) = 0.23612 0.12169
# Poissons Ratio (z) = 0.14508 0.21198
#
# Static dielectric constant tensor:
#      x y z
#    x 1.671590 0.000000 0.000000 
#    y 0.000000 1.700880 0.000000 
#    z 0.000000 0.000000 1.496790 
# 
# From -- ./inp_files/22122.got.cif
#   From: 2010.05.17/outbox.cif.g08.bks.cpg/sg52_12_cif.got.tgz:22122.got - 2010.06.03 12:15:38.
