data_PCOD9408641
_publ_section_title
;
Structure prediction by ZEFSAII (Michael W. Deem and Ramdas Pophale) SiO2 
 PCOD9408641
Probable space group: P N N A
;
_chemical_formula_sum "Si O2"
_cell_formula_units_Z 48
_cell_length_a 10.108703
_cell_length_b 7.949944
_cell_length_c 28.794686
_cell_angle_alpha 90.000000
_cell_angle_beta 90.000000
_cell_angle_gamma 90.000000
_cell_volume 2314.045283
_symmetry_space_group_name_H-M "P N N A"
_symmetry_group_IT_number 52
_symmetry_cell_setting 'orthorhombic'
loop_
_space_group_symop_operation_xyz
x,y,z
1/2-x,-y,z
x,1/2-y,1/2-z
1/2-x,1/2+y,1/2-z
-x,-y,-z
1/2+x,y,-z
-x,1/2+y,1/2+z
1/2+x,1/2-y,1/2+z
loop_
_atom_site_type_symbol
_atom_site_label
_atom_site_fract_x
_atom_site_fract_y
_atom_site_fract_z
Si Si1 0.750000 0.000000 0.797731
Si Si2 0.582713 0.739128 0.857209
Si Si3 0.370335 0.367213 0.945078
Si Si4 0.729009 0.308010 0.360778
Si Si5 0.250000 0.000000 0.709403
Si Si6 0.620421 0.608481 0.952479
Si Si7 0.962546 0.442543 0.768567
O O1 0.823725 0.132623 0.829966
O O2 0.865001 0.945082 0.761764
O O3 0.430057 0.790889 0.866157
O O4 0.642188 0.720021 0.907831
O O5 0.572876 0.575321 0.823180
O O6 0.250000 0.500000 0.944623
O O7 0.321154 0.236119 0.905870
O O8 0.499944 0.483670 0.938285
O O9 0.396602 0.301112 0.997647
O O10 0.750000 0.500000 0.346719
O O11 0.761092 0.165211 0.322900
O O12 0.385376 0.989635 0.737369
O O13 0.750000 0.500000 0.958891
O O14 0.950339 0.250000 0.750000
#
# Coordination Sequence:
#
# PCOD9408641 Si02
#       7
#     4   8   8   8   4   8   8
#     4  10  22  42  60  83 130 167 206 278 344 388
#     4  10  21  42  60  88 134 167 219 277 321 404
#     4  10  18  39  64  95 135 181 218 279 323 385
#     4  11  22  41  69 101 132 177 230 268 326 400
#     4  10  20  44  72  91 134 169 218 278 328 392
#     4  10  21  34  67  96 128 179 231 261 337 402
#     4   9  20  41  63  90 121 168 217 270 335 401
#
# _framework density 20.742895000000001
#
# number of rings (size 3 to 8) (size 9 to 14) (size 15 to 20)
#    0.000    2.000    2.500    1.000    1.167    1.333 
#   24.000    0.833    0.000    0.000    0.000    0.000 
#    0.000    0.000    0.000    0.000    0.000    0.000 
#
# Total GULP energy -267435.201541 kJ/mol
# GULP energy per Si atom -5571.566699 kJ/mol
# Density = 2.069568 g / cm^3
# Si number density = 20.742895 Si / 1000 Ang^3
#
#
#
# Elastic Constant Matrix: (Units=GPa)
#
#
# Indices 1 2 3 4 5 6 
#
# 1 120.9897 23.8613 42.4150 0.0000 0.0000 0.0000
# 2 23.8613 73.1235 33.8704 0.0000 0.0000 0.0000
# 3 42.4150 33.8704 117.5675 0.0000 0.0000 0.0000
# 4 0.0000 0.0000 0.0000 15.2528 0.0000 0.0000
# 5 0.0000 0.0000 0.0000 0.0000 31.7000 0.0000
# 6 0.0000 0.0000 0.0000 0.0000 0.0000 30.3431
#
#
#
# Elastic Compliance Matrix: (Units=1/GPa)
#
#
# Indices 1 2 3 4 5 6 
#
# 1 0.009657 -0.001774 -0.002973 0.000000 0.000000 0.000000
# 2 -0.001774 0.016107 -0.004000 0.000000 0.000000 0.000000
# 3 -0.002973 -0.004000 0.010731 0.000000 0.000000 0.000000
# 4 0.000000 0.000000 0.000000 0.065562 0.000000 0.000000
# 5 0.000000 0.000000 0.000000 0.000000 0.031546 0.000000
# 6 0.000000 0.000000 0.000000 0.000000 0.000000 0.032956
#
#
# Mechanical properties :
#
#
# Convention : Reuss Voigt Hill
#
# Bulk Modulus (GPa) = 52.63045 56.88602 54.75823
# Shear Modulus (GPa) = 26.26216 29.56143 27.91180
#
# Velocity S-wave (km/s) = 3.56206 3.77919 3.67223
# Velocity P-wave (km/s) = 6.50735 6.82107 6.66605
#
# Compressibility (1/GPa) = 0.01900041
#
# Stress axis : x y z
#
# Youngs Moduli (GPa) = 103.54865 62.08329 93.19008
#
# Poissons Ratio (x) = 0.11015 0.27705
# Poissons Ratio (y) = 0.18373 0.37279
# Poissons Ratio (z) = 0.30784 0.24835
#
# Static dielectric constant tensor:
#      x y z
#    x 1.719790 0.000000 0.000000 
#    y 0.000000 1.873970 0.000000 
#    z 0.000000 0.000000 1.880660 
# 
# From -- ./inp_files/44444.got.cif
#   From: 2010.05.17/outbox.cif.g08.bks.cpg/sg52_23_cif.got.tgz:44444.got - 2010.06.03 12:15:38.
