data_PCOD9408241
_publ_section_title
;
Structure prediction by ZEFSAII (Michael W. Deem and Ramdas Pophale) SiO2 
 PCOD9408241
Probable space group: P N N A
;
_chemical_formula_sum "Si O2"
_cell_formula_units_Z 48
_cell_length_a 8.495893
_cell_length_b 8.977876
_cell_length_c 28.214422
_cell_angle_alpha 90.000000
_cell_angle_beta 90.000000
_cell_angle_gamma 90.000000
_cell_volume 2152.057122
_symmetry_space_group_name_H-M "P N N A"
_symmetry_group_IT_number 52
_symmetry_cell_setting 'orthorhombic'
loop_
_space_group_symop_operation_xyz
x,y,z
1/2-x,-y,z
x,1/2-y,1/2-z
1/2-x,1/2+y,1/2-z
-x,-y,-z
1/2+x,y,-z
-x,1/2+y,1/2+z
1/2+x,1/2-y,1/2+z
loop_
_atom_site_type_symbol
_atom_site_label
_atom_site_fract_x
_atom_site_fract_y
_atom_site_fract_z
Si Si1 0.250000 0.500000 0.576734
Si Si2 0.005347 0.176921 0.296055
Si Si3 0.455179 0.239703 0.537568
Si Si4 0.199958 0.839166 0.447132
Si Si5 0.750000 0.500000 0.099559
Si Si6 0.250000 0.000000 0.357391
Si Si7 0.289362 0.784298 0.844043
Si Si8 0.250000 0.500000 0.736004
O O1 0.362608 0.390945 0.548360
O O2 0.338168 0.609600 0.613011
O O3 0.087010 0.250000 0.250000
O O4 0.901078 0.276945 0.332480
O O5 0.873495 0.080406 0.269399
O O6 0.125146 0.083615 0.326033
O O7 0.436420 0.214444 0.481272
O O8 0.637962 0.251797 0.550326
O O9 0.369217 0.103209 0.567360
O O10 0.169483 0.880903 0.393017
O O11 0.250000 0.000000 0.468340
O O12 0.674320 0.379382 0.135912
O O13 0.336070 0.874296 0.796580
#
# Coordination Sequence:
#
# PCOD9408241 Si02
#       8
#     4   8   8   8   4   4   8   4
#     4   9  20  34  59  87 122 151 193 240 302 369
#     4  10  20  37  59  81 119 156 203 250 308 360
#     4  11  21  38  58  91 118 160 193 246 302 360
#     4  10  23  37  62  84 119 150 203 247 296 358
#     4  10  18  30  61  88 120 146 201 238 286 364
#     4  10  21  36  56  84 110 154 192 248 301 358
#     4   9  18  34  56  92 116 153 192 248 295 353
#     4   9  19  36  60  87 116 151 200 254 303 353
#
# _framework density 22.304238999999999
#
# number of rings (size 3 to 8) (size 9 to 14) (size 15 to 20)
#    0.500    1.667    0.833    3.000    0.000    0.667 
#    0.000    5.833    0.000    3.000    0.000    0.000 
#    0.000    0.000    0.000    0.000    0.000    0.000 
#
# Total GULP energy -267454.292270 kJ/mol
# GULP energy per Si atom -5571.964422 kJ/mol
# Density = 2.225347 g / cm^3
# Si number density = 22.304239 Si / 1000 Ang^3
#
#
#
# Elastic Constant Matrix: (Units=GPa)
#
#
# Indices 1 2 3 4 5 6 
#
# 1 47.1598 12.4343 32.3304 0.0000 0.0000 0.0000
# 2 12.4343 110.4597 37.3950 0.0000 0.0000 0.0000
# 3 32.3304 37.3950 141.2313 0.0000 0.0000 0.0000
# 4 0.0000 0.0000 0.0000 34.1841 0.0000 0.0000
# 5 0.0000 0.0000 0.0000 0.0000 16.9171 0.0000
# 6 0.0000 0.0000 0.0000 0.0000 0.0000 27.2217
#
#
#
# Elastic Compliance Matrix: (Units=1/GPa)
#
#
# Indices 1 2 3 4 5 6 
#
# 1 0.025246 -0.000973 -0.005522 0.000000 0.000000 0.000000
# 2 -0.000973 0.009982 -0.002420 0.000000 0.000000 0.000000
# 3 -0.005522 -0.002420 0.008985 0.000000 0.000000 0.000000
# 4 0.000000 0.000000 0.000000 0.029253 0.000000 0.000000
# 5 0.000000 0.000000 0.000000 0.000000 0.059112 0.000000
# 6 0.000000 0.000000 0.000000 0.000000 0.000000 0.036735
#
#
# Mechanical properties :
#
#
# Convention : Reuss Voigt Hill
#
# Bulk Modulus (GPa) = 37.90133 51.46336 44.68235
# Shear Modulus (GPa) = 25.51818 30.11065 27.81442
#
# Velocity S-wave (km/s) = 3.38612 3.67822 3.53519
# Velocity P-wave (km/s) = 5.68485 6.41580 6.06135
#
# Compressibility (1/GPa) = 0.02638430
#
# Stress axis : x y z
#
# Youngs Moduli (GPa) = 39.60951 100.18083 111.29045
#
# Poissons Ratio (x) = 0.09743 0.61453
# Poissons Ratio (y) = 0.03852 0.26936
# Poissons Ratio (z) = 0.21872 0.24247
#
# Static dielectric constant tensor:
#      x y z
#    x 1.871770 0.000000 0.000000 
#    y 0.000000 1.924790 0.000000 
#    z 0.000000 0.000000 1.870430 
# 
# From -- ./inp_files/44478.got.cif
#   From: 2010.05.17/outbox.cif.g08.bks.cpg/sg52_23_cif.got.tgz:44478.got - 2010.06.03 12:15:38.
