data_PCOD9408337
_publ_section_title
;
Structure prediction by ZEFSAII (Michael W. Deem and Ramdas Pophale) SiO2 
 PCOD9408337
Probable space group: P N N A
;
_chemical_formula_sum "Si O2"
_cell_formula_units_Z 32
_cell_length_a 5.531034
_cell_length_b 29.978632
_cell_length_c 7.306530
_cell_angle_alpha 90.000000
_cell_angle_beta 90.000000
_cell_angle_gamma 90.000000
_cell_volume 1211.516438
_symmetry_space_group_name_H-M "P N N A"
_symmetry_group_IT_number 52
_symmetry_cell_setting 'orthorhombic'
loop_
_space_group_symop_operation_xyz
x,y,z
1/2-x,-y,z
x,1/2-y,1/2-z
1/2-x,1/2+y,1/2-z
-x,-y,-z
1/2+x,y,-z
-x,1/2+y,1/2+z
1/2+x,1/2-y,1/2+z
loop_
_atom_site_type_symbol
_atom_site_label
_atom_site_fract_x
_atom_site_fract_y
_atom_site_fract_z
Si Si1 0.309602 0.052114 0.211402
Si Si2 0.808702 0.413470 0.294733
Si Si3 0.337415 0.833054 0.594192
Si Si4 0.671831 0.234215 0.959849
O O1 0.578335 0.060200 0.288794
O O2 0.070763 0.075943 0.290455
O O3 0.250000 0.000000 0.204550
O O4 0.331278 0.071164 0.004345
O O5 0.738003 0.362087 0.267437
O O6 0.613404 0.844444 0.542528
O O7 0.327118 0.779252 0.585079
O O8 0.659817 0.250000 0.750000
O O9 0.424624 0.210241 0.009933
#
# Coordination Sequence:
#
# PCOD9408337 Si02
#       4
#     8   8   8   8
#     4  10  19  33  58  84 116 154 204 254 303 367
#     4  10  18  32  56  82 114 157 197 251 298 355
#     4  10  21  37  60  81 120 161 197 245 307 358
#     4  10  21  40  70  93 128 168 210 258 316 382
#
# _framework density 26.413176
#
# number of rings (size 3 to 8) (size 9 to 14) (size 15 to 20)
#    0.000    2.000    0.000    6.000    0.000    0.000 
#    0.000    0.000  132.000   25.500    0.000    0.000 
#    0.000    0.000    0.000    0.000    0.000    0.000 
#
# Total GULP energy -178877.462423 kJ/mol
# GULP energy per Si atom -5589.920701 kJ/mol
# Density = 2.635306 g / cm^3
# Si number density = 26.413176 Si / 1000 Ang^3
#
#
#
# Elastic Constant Matrix: (Units=GPa)
#
#
# Indices 1 2 3 4 5 6 
#
# 1 291.6317 17.2358 28.5660 0.0000 0.0000 0.0000
# 2 17.2358 111.3221 24.4961 0.0000 0.0000 0.0000
# 3 28.5660 24.4961 69.7251 0.0000 0.0000 0.0000
# 4 0.0000 0.0000 0.0000 33.0575 0.0000 0.0000
# 5 0.0000 0.0000 0.0000 0.0000 19.4668 0.0000
# 6 0.0000 0.0000 0.0000 0.0000 0.0000 43.4828
#
#
#
# Elastic Compliance Matrix: (Units=1/GPa)
#
#
# Indices 1 2 3 4 5 6 
#
# 1 0.003579 -0.000251 -0.001378 0.000000 0.000000 0.000000
# 2 -0.000251 0.009753 -0.003324 0.000000 0.000000 0.000000
# 3 -0.001378 -0.003324 0.016074 0.000000 0.000000 0.000000
# 4 0.000000 0.000000 0.000000 0.030250 0.000000 0.000000
# 5 0.000000 0.000000 0.000000 0.000000 0.051369 0.000000
# 6 0.000000 0.000000 0.000000 0.000000 0.000000 0.022998
#
#
# Mechanical properties :
#
#
# Convention : Reuss Voigt Hill
#
# Bulk Modulus (GPa) = 51.27960 68.14163 59.71062
# Shear Modulus (GPa) = 33.23821 46.02683 39.63252
#
# Velocity S-wave (km/s) = 3.55123 4.17894 3.87781
# Velocity P-wave (km/s) = 6.02259 7.00993 6.53493
#
# Compressibility (1/GPa) = 0.01950093
#
# Stress axis : x y z
#
# Youngs Moduli (GPa) = 279.42369 102.53086 62.21097
#
# Poissons Ratio (x) = 0.02572 0.08573
# Poissons Ratio (y) = 0.07010 0.20677
# Poissons Ratio (z) = 0.38507 0.34079
#
# Static dielectric constant tensor:
#      x y z
#    x 2.159120 0.000000 0.000000 
#    y 0.000000 2.010150 0.000000 
#    z 0.000000 0.000000 2.007730 
# 
# From -- ./inp_files/6706.got.cif
#   From: 2010.05.17/outbox.cif.g08.bks.cpg/sg52_4_cif.got.tgz:6706.got - 2010.06.03 12:15:38.
