data_PCOD9408918
_publ_section_title
;
Structure prediction by ZEFSAII (Michael W. Deem and Ramdas Pophale) SiO2 
 PCOD9408918
Probable space group: P N N A
;
_chemical_formula_sum "Si O2"
_cell_formula_units_Z 48
_cell_length_a 10.894919
_cell_length_b 14.492498
_cell_length_c 18.360297
_cell_angle_alpha 90.000000
_cell_angle_beta 90.000000
_cell_angle_gamma 90.000000
_cell_volume 2898.991600
_symmetry_space_group_name_H-M "P N N A"
_symmetry_group_IT_number 52
_symmetry_cell_setting 'orthorhombic'
loop_
_space_group_symop_operation_xyz
x,y,z
1/2-x,-y,z
x,1/2-y,1/2-z
1/2-x,1/2+y,1/2-z
-x,-y,-z
1/2+x,y,-z
-x,1/2+y,1/2+z
1/2+x,1/2-y,1/2+z
loop_
_atom_site_type_symbol
_atom_site_label
_atom_site_fract_x
_atom_site_fract_y
_atom_site_fract_z
Si Si1 0.240733 0.607971 0.554089
Si Si2 0.062917 0.625335 0.944433
Si Si3 0.501317 0.811562 0.977868
Si Si4 0.277143 0.267556 0.830004
Si Si5 0.991917 0.288785 0.827457
Si Si6 0.878788 0.461609 0.906090
O O1 0.250000 0.500000 0.569783
O O2 0.369564 0.638826 0.517135
O O3 0.118723 0.632392 0.507589
O O4 0.229470 0.671597 0.625777
O O5 0.148213 0.661957 0.880047
O O6 0.972779 0.545778 0.917052
O O7 0.994600 0.715309 0.977271
O O8 0.136432 0.584597 0.013702
O O9 0.524456 0.783335 0.893815
O O10 0.330239 0.250000 0.750000
O O11 0.138392 0.303677 0.821352
O O12 0.947979 0.250000 0.750000
O O13 0.930079 0.383260 0.853026
O O14 0.750000 0.500000 0.880109
#
# Coordination Sequence:
#
# PCOD9408918 Si02
#       6
#     8   8   8   8   8   8
#     4  10  19  34  55  81 102 139 183 222 261 325
#     4   9  20  33  55  82 108 137 179 229 270 315
#     4   9  19  33  57  75 108 139 176 224 272 310
#     4   9  19  37  54  78 109 141 173 221 280 313
#     4   9  19  36  53  75 109 145 175 216 276 327
#     4  10  21  32  55  84 108 139 186 221 266 333
#
# _framework density 16.557482
#
# number of rings (size 3 to 8) (size 9 to 14) (size 15 to 20)
#    0.000    2.667    0.000    0.500   14.000    0.000 
#    9.000    1.667    0.000    0.000    0.000    0.000 
#    0.000    0.000    0.000    0.000    0.000    0.000 
#
# Total GULP energy -267513.902117 kJ/mol
# GULP energy per Si atom -5573.206294 kJ/mol
# Density = 1.651980 g / cm^3
# Si number density = 16.557482 Si / 1000 Ang^3
#
#
#
# Elastic Constant Matrix: (Units=GPa)
#
#
# Indices 1 2 3 4 5 6 
#
# 1 79.8786 50.6405 50.4655 0.0000 0.0000 0.0000
# 2 50.6405 107.0960 49.5339 0.0000 0.0000 0.0000
# 3 50.4655 49.5339 114.2998 0.0000 0.0000 0.0000
# 4 0.0000 0.0000 0.0000 9.2865 0.0000 0.0000
# 5 0.0000 0.0000 0.0000 0.0000 19.2702 0.0000
# 6 0.0000 0.0000 0.0000 0.0000 0.0000 21.8011
#
#
#
# Elastic Compliance Matrix: (Units=1/GPa)
#
#
# Indices 1 2 3 4 5 6 
#
# 1 0.020863 -0.007010 -0.006174 0.000000 0.000000 0.000000
# 2 -0.007010 0.014033 -0.002987 0.000000 0.000000 0.000000
# 3 -0.006174 -0.002987 0.012769 0.000000 0.000000 0.000000
# 4 0.000000 0.000000 0.000000 0.107683 0.000000 0.000000
# 5 0.000000 0.000000 0.000000 0.000000 0.051894 0.000000
# 6 0.000000 0.000000 0.000000 0.000000 0.000000 0.045869
#
#
# Mechanical properties :
#
#
# Convention : Reuss Voigt Hill
#
# Bulk Modulus (GPa) = 65.25106 66.95047 66.10077
# Shear Modulus (GPa) = 17.20810 20.11385 18.66098
#
# Velocity S-wave (km/s) = 3.22731 3.48916 3.36079
# Velocity P-wave (km/s) = 7.30628 7.53361 7.42082
#
# Compressibility (1/GPa) = 0.01532542
#
# Stress axis : x y z
#
# Youngs Moduli (GPa) = 47.93072 71.25847 78.31417
#
# Poissons Ratio (x) = 0.49951 0.48349
# Poissons Ratio (y) = 0.33599 0.23390
# Poissons Ratio (z) = 0.29591 0.21283
#
# Static dielectric constant tensor:
#      x y z
#    x 1.554620 0.000000 0.000000 
#    y 0.000000 1.544470 0.000000 
#    z 0.000000 0.000000 1.553470 
# 
# From -- ./inp_files/26052.got.cif
#   From: 2010.05.17/outbox.cif.g08.bks.cpg/sg52_14_cif.got.tgz:26052.got - 2010.06.03 12:15:38.
