data_PCOD9408818
_publ_section_title
;
Structure prediction by ZEFSAII (Michael W. Deem and Ramdas Pophale) SiO2 
 PCOD9408818
Probable space group: P N N A
;
_chemical_formula_sum "Si O2"
_cell_formula_units_Z 56
_cell_length_a 10.204458
_cell_length_b 17.026913
_cell_length_c 21.104418
_cell_angle_alpha 90.000000
_cell_angle_beta 90.000000
_cell_angle_gamma 90.000000
_cell_volume 3666.901461
_symmetry_space_group_name_H-M "P N N A"
_symmetry_group_IT_number 52
_symmetry_cell_setting 'orthorhombic'
loop_
_space_group_symop_operation_xyz
x,y,z
1/2-x,-y,z
x,1/2-y,1/2-z
1/2-x,1/2+y,1/2-z
-x,-y,-z
1/2+x,y,-z
-x,1/2+y,1/2+z
1/2+x,1/2-y,1/2+z
loop_
_atom_site_type_symbol
_atom_site_label
_atom_site_fract_x
_atom_site_fract_y
_atom_site_fract_z
Si Si1 0.866761 0.057287 0.241754
Si Si2 0.724841 0.634771 0.125833
Si Si3 0.880555 0.051050 0.745457
Si Si4 0.780646 0.295000 0.317570
Si Si5 0.479485 0.197061 0.186016
Si Si6 0.871822 0.054427 0.502776
Si Si7 0.042061 0.852296 0.378400
O O1 0.824598 0.090977 0.310825
O O2 0.872396 0.130454 0.193495
O O3 0.750000 0.000000 0.221426
O O4 0.997909 0.007989 0.247730
O O5 0.686444 0.726726 0.132652
O O6 0.884049 0.633611 0.124479
O O7 0.665288 0.592810 0.064612
O O8 0.897030 0.119847 0.797998
O O9 0.895758 0.095912 0.678149
O O10 0.750000 0.000000 0.749294
O O11 0.779236 0.250000 0.250000
O O12 0.631195 0.323642 0.327589
O O13 0.481854 0.250000 0.250000
O O14 0.433293 0.260128 0.134385
O O15 0.901026 0.119364 0.555438
O O16 0.750000 0.000000 0.522065
O O17 0.000000 0.000000 0.500000
#
# Coordination Sequence:
#
# PCOD9408818 Si02
#       7
#     8   8   8   8   8   8   8
#     4  11  16  29  52  74  95 121 160 201 239 279
#     4  10  19  33  49  70 100 130 164 202 232 280
#     4  11  20  30  47  77 104 124 155 198 249 291
#     4   8  15  28  49  72  90 123 165 197 237 283
#     4   8  15  30  49  67  93 129 162 189 236 299
#     4  12  22  33  48  73  99 130 167 197 233 276
#     4  10  19  34  50  68  98 136 164 192 236 294
#
# _framework density 15.271750000000001
#
# number of rings (size 3 to 8) (size 9 to 14) (size 15 to 20)
#    0.000    2.000    4.286    3.429    0.000    0.000 
#    0.000    7.857    0.000    0.000    0.000    2.000 
#    0.000    0.000    0.000    0.000    0.000    0.000 
#
# Total GULP energy -312017.531050 kJ/mol
# GULP energy per Si atom -5571.741626 kJ/mol
# Density = 1.523699 g / cm^3
# Si number density = 15.271750 Si / 1000 Ang^3
#
#
#
# Elastic Constant Matrix: (Units=GPa)
#
#
# Indices 1 2 3 4 5 6 
#
# 1 78.6922 45.4372 14.2185 0.0000 0.0000 0.0000
# 2 45.4372 110.4291 39.5346 0.0000 0.0000 0.0000
# 3 14.2185 39.5346 51.8165 0.0000 0.0000 0.0000
# 4 0.0000 0.0000 0.0000 35.1096 0.0000 0.0000
# 5 0.0000 0.0000 0.0000 0.0000 16.1141 0.0000
# 6 0.0000 0.0000 0.0000 0.0000 0.0000 22.1988
#
#
#
# Elastic Compliance Matrix: (Units=1/GPa)
#
#
# Indices 1 2 3 4 5 6 
#
# 1 0.016699 -0.007196 0.000908 0.000000 0.000000 0.000000
# 2 -0.007196 0.015560 -0.009897 0.000000 0.000000 0.000000
# 3 0.000908 -0.009897 0.026601 0.000000 0.000000 0.000000
# 4 0.000000 0.000000 0.000000 0.028482 0.000000 0.000000
# 5 0.000000 0.000000 0.000000 0.000000 0.062057 0.000000
# 6 0.000000 0.000000 0.000000 0.000000 0.000000 0.045047
#
#
# Mechanical properties :
#
#
# Convention : Reuss Voigt Hill
#
# Bulk Modulus (GPa) = 37.75078 48.81319 43.28199
# Shear Modulus (GPa) = 21.21832 24.13434 22.67633
#
# Velocity S-wave (km/s) = 3.73149 3.97964 3.85756
# Velocity P-wave (km/s) = 6.58319 7.29035 6.94577
#
# Compressibility (1/GPa) = 0.02648952
#
# Stress axis : x y z
#
# Youngs Moduli (GPa) = 59.88518 64.26875 37.59285
#
# Poissons Ratio (x) = 0.46248 -0.03414
# Poissons Ratio (y) = 0.43093 0.37206
# Poissons Ratio (z) = -0.05439 0.63607
#
# Static dielectric constant tensor:
#      x y z
#    x 1.494410 0.000000 0.000000 
#    y 0.000000 1.539290 0.000000 
#    z 0.000000 0.000000 1.503500 
# 
# From -- ./inp_files/36135.got.cif
#   From: 2010.05.17/outbox.cif.g08.bks.cpg/sg52_19_cif.got.tgz:36135.got - 2010.06.03 12:15:38.
