data_PCOD9408132
_publ_section_title
;
Structure prediction by ZEFSAII (Michael W. Deem and Ramdas Pophale) SiO2 
 PCOD9408132
Probable space group: P N N A
;
_chemical_formula_sum "Si O2"
_cell_formula_units_Z 64
_cell_length_a 14.087811
_cell_length_b 8.346437
_cell_length_c 19.506155
_cell_angle_alpha 90.000000
_cell_angle_beta 90.000000
_cell_angle_gamma 90.000000
_cell_volume 2293.592750
_symmetry_space_group_name_H-M "P N N A"
_symmetry_group_IT_number 52
_symmetry_cell_setting 'orthorhombic'
loop_
_space_group_symop_operation_xyz
x,y,z
1/2-x,-y,z
x,1/2-y,1/2-z
1/2-x,1/2+y,1/2-z
-x,-y,-z
1/2+x,y,-z
-x,1/2+y,1/2+z
1/2+x,1/2-y,1/2+z
loop_
_atom_site_type_symbol
_atom_site_label
_atom_site_fract_x
_atom_site_fract_y
_atom_site_fract_z
Si Si1 0.847180 0.943303 0.833563
Si Si2 0.634930 0.326359 0.025321
Si Si3 0.088580 0.652681 0.008516
Si Si4 0.439094 0.128461 0.655309
Si Si5 0.337745 0.809983 0.681760
Si Si6 0.441755 0.491318 0.649748
Si Si7 0.114044 0.988386 0.998242
Si Si8 0.651283 0.437100 0.821247
O O1 0.945775 0.994865 0.867204
O O2 0.841841 0.754217 0.824165
O O3 0.851378 0.008900 0.755876
O O4 0.750000 0.000000 0.865777
O O5 0.643452 0.487107 0.980914
O O6 0.687770 0.318397 0.099188
O O7 0.651155 0.163795 0.983387
O O8 0.519006 0.334139 0.037511
O O9 0.079969 0.651668 0.925629
O O10 0.140851 0.815881 0.026915
O O11 0.436330 0.312371 0.682609
O O12 0.542430 0.044367 0.656257
O O13 0.370955 0.995166 0.688819
O O14 0.280000 0.750000 0.750000
O O15 0.414546 0.837417 0.817774
O O16 0.372097 0.483230 0.584454
O O17 0.000000 0.000000 0.000000
O O18 0.750000 0.500000 0.850713
#
# Coordination Sequence:
#
# PCOD9408132 Si02
#       8
#     8   8   8   8   8   8   8   8
#     4   9  17  26  34  43  58  84 108 133 166 194
#     4   8  14  23  33  49  64  78 100 125 157 193
#     4   8  13  23  37  47  61  78  98 130 162 190
#     4   9  17  27  37  49  61  81 108 138 171 192
#     4  10  18  24  35  50  66  86 105 130 164 196
#     4   9  17  27  36  48  64  81 109 139 162 199
#     4   8  13  22  36  50  62  76  95 128 170 196
#     4   9  17  26  34  44  59  79 108 139 165 194
#
# _framework density 27.903821000000001
#
# number of rings (size 3 to 8) (size 9 to 14) (size 15 to 20)
#    0.000    3.250    0.000    0.750    1.750    1.500 
#    0.000    0.000    0.000    0.000    0.000    0.000 
#    0.000    0.000    0.000    0.000    0.000    0.000 
#
# Total GULP energy -356859.117309 kJ/mol
# GULP energy per Si atom -5575.923708 kJ/mol
# Density = 2.784031 g / cm^3
# Si number density = 27.903821 Si / 1000 Ang^3
#
#
#
# Elastic Constant Matrix: (Units=GPa)
#
#
# Indices 1 2 3 4 5 6 
#
# 1 123.6777 28.4740 22.5561 0.0000 0.0000 0.0000
# 2 28.4740 215.7693 28.8809 0.0000 0.0000 0.0000
# 3 22.5561 28.8809 112.8739 0.0000 0.0000 0.0000
# 4 0.0000 0.0000 0.0000 37.2397 0.0000 0.0000
# 5 0.0000 0.0000 0.0000 0.0000 6.2223 0.0000
# 6 0.0000 0.0000 0.0000 0.0000 0.0000 9.3540
#
#
#
# Elastic Compliance Matrix: (Units=1/GPa)
#
#
# Indices 1 2 3 4 5 6 
#
# 1 0.008569 -0.000934 -0.001474 0.000000 0.000000 0.000000
# 2 -0.000934 0.004901 -0.001067 0.000000 0.000000 0.000000
# 3 -0.001474 -0.001067 0.009427 0.000000 0.000000 0.000000
# 4 0.000000 0.000000 0.000000 0.026853 0.000000 0.000000
# 5 0.000000 0.000000 0.000000 0.000000 0.160712 0.000000
# 6 0.000000 0.000000 0.000000 0.000000 0.000000 0.106906
#
#
# Mechanical properties :
#
#
# Convention : Reuss Voigt Hill
#
# Bulk Modulus (GPa) = 62.70430 68.01587 65.36008
# Shear Modulus (GPa) = 15.16841 35.39054 25.27948
#
# Velocity S-wave (km/s) = 2.33404 3.56519 3.01317
# Velocity P-wave (km/s) = 5.45748 6.43238 5.96488
#
# Compressibility (1/GPa) = 0.01594787
#
# Stress axis : x y z
#
# Youngs Moduli (GPa) = 116.69679 204.05458 106.07821
#
# Poissons Ratio (x) = 0.19051 0.15631
# Poissons Ratio (y) = 0.10895 0.11322
# Poissons Ratio (z) = 0.17196 0.21780
#
# Static dielectric constant tensor:
#      x y z
#    x 2.144420 0.000000 0.000000 
#    y 0.000000 2.191370 0.000000 
#    z 0.000000 0.000000 2.369810 
# 
# From -- ./inp_files/38209.got.cif
#   From: 2010.05.17/outbox.cif.g08.bks.cpg/sg52_20_cif.got.tgz:38209.got - 2010.06.03 12:15:38.
