data_PCOD9408218
_publ_section_title
;
Structure prediction by ZEFSAII (Michael W. Deem and Ramdas Pophale) SiO2 
 PCOD9408218
Probable space group: P N N A
;
_chemical_formula_sum "Si O2"
_cell_formula_units_Z 44
_cell_length_a 11.565380
_cell_length_b 12.118056
_cell_length_c 18.379490
_cell_angle_alpha 90.000000
_cell_angle_beta 90.000000
_cell_angle_gamma 90.000000
_cell_volume 2575.884099
_symmetry_space_group_name_H-M "P N N A"
_symmetry_group_IT_number 52
_symmetry_cell_setting 'orthorhombic'
loop_
_space_group_symop_operation_xyz
x,y,z
1/2-x,-y,z
x,1/2-y,1/2-z
1/2-x,1/2+y,1/2-z
-x,-y,-z
1/2+x,y,-z
-x,1/2+y,1/2+z
1/2+x,1/2-y,1/2+z
loop_
_atom_site_type_symbol
_atom_site_label
_atom_site_fract_x
_atom_site_fract_y
_atom_site_fract_z
Si Si1 0.930451 0.636570 0.209847
Si Si2 0.867839 0.931723 0.440061
Si Si3 0.953441 0.631906 0.909121
Si Si4 0.566183 0.677072 0.321536
Si Si5 0.623793 0.462912 0.763692
Si Si6 0.250000 0.500000 0.695048
O O1 0.943345 0.750000 0.250000
O O2 0.882058 0.648149 0.128591
O O3 0.838125 0.563631 0.252942
O O4 0.050051 0.570641 0.215263
O O5 0.886541 0.865675 0.514755
O O6 0.750000 0.000000 0.442312
O O7 0.962378 0.027216 0.422752
O O8 0.872833 0.605939 0.839366
O O9 0.027555 0.738007 0.884239
O O10 0.602578 0.750000 0.250000
O O11 0.454528 0.607395 0.292750
O O12 0.668785 0.592453 0.342895
O O13 0.750000 0.500000 0.738576
#
# Coordination Sequence:
#
# PCOD9408218 Si02
#       6
#     8   8   8   8   8   4
#     4  10  20  30  50  80 101 132 174 218 262 305
#     4  10  19  32  51  78 107 131 167 221 267 319
#     4   9  19  33  50  77 107 135 171 212 273 315
#     4   9  18  31  51  78 105 139 175 214 266 313
#     4   9  18  33  50  74 104 137 175 215 254 312
#     4  10  18  30  50  76 108 134 174 220 258 310
#
# _framework density 17.081513999999999
#
# number of rings (size 3 to 8) (size 9 to 14) (size 15 to 20)
#    0.000    2.545    0.909    2.182    2.545    2.182 
#    0.000    0.000    0.000    4.364    4.727    0.000 
#    0.000    0.000    0.000    0.000    0.000    0.000 
#
# Total GULP energy -245008.194023 kJ/mol
# GULP energy per Si atom -5568.368046 kJ/mol
# Density = 1.704264 g / cm^3
# Si number density = 17.081514 Si / 1000 Ang^3
#
#
#
# Elastic Constant Matrix: (Units=GPa)
#
#
# Indices 1 2 3 4 5 6 
#
# 1 72.4326 29.0268 18.4110 0.0000 0.0000 0.0000
# 2 29.0268 88.1865 45.1604 0.0000 0.0000 0.0000
# 3 18.4110 45.1604 91.3912 0.0000 0.0000 0.0000
# 4 0.0000 0.0000 0.0000 26.1453 0.0000 0.0000
# 5 0.0000 0.0000 0.0000 0.0000 8.4534 0.0000
# 6 0.0000 0.0000 0.0000 0.0000 0.0000 8.4920
#
#
#
# Elastic Compliance Matrix: (Units=1/GPa)
#
#
# Indices 1 2 3 4 5 6 
#
# 1 0.015950 -0.004826 -0.000829 0.000000 0.000000 0.000000
# 2 -0.004826 0.016641 -0.007251 0.000000 0.000000 0.000000
# 3 -0.000829 -0.007251 0.014692 0.000000 0.000000 0.000000
# 4 0.000000 0.000000 0.000000 0.038248 0.000000 0.000000
# 5 0.000000 0.000000 0.000000 0.000000 0.118295 0.000000
# 6 0.000000 0.000000 0.000000 0.000000 0.000000 0.117758
#
#
# Mechanical properties :
#
#
# Convention : Reuss Voigt Hill
#
# Bulk Modulus (GPa) = 46.57053 48.57853 47.57453
# Shear Modulus (GPa) = 14.10226 19.24562 16.67394
#
# Velocity S-wave (km/s) = 2.87642 3.36027 3.12771
# Velocity P-wave (km/s) = 6.19311 6.59971 6.39964
#
# Compressibility (1/GPa) = 0.02147281
#
# Stress axis : x y z
#
# Youngs Moduli (GPa) = 62.69411 60.09161 68.06458
#
# Poissons Ratio (x) = 0.28999 0.05640
# Poissons Ratio (y) = 0.30255 0.49354
# Poissons Ratio (z) = 0.05195 0.43572
#
# Static dielectric constant tensor:
#      x y z
#    x 1.568300 0.000000 0.000000 
#    y 0.000000 1.565100 0.000000 
#    z 0.000000 0.000000 1.590950 
# 
# From -- ./inp_files/32163.got.cif
#   From: 2010.05.17/outbox.cif.g08.bks.cpg/sg52_17_cif.got.tgz:32163.got - 2010.06.03 12:15:38.
