data_PCOD9408971
_publ_section_title
;
Structure prediction by ZEFSAII (Michael W. Deem and Ramdas Pophale) SiO2 
 PCOD9408971
Probable space group: P N N A
;
_chemical_formula_sum "Si O2"
_cell_formula_units_Z 60
_cell_length_a 16.794257
_cell_length_b 9.151697
_cell_length_c 20.030635
_cell_angle_alpha 90.000000
_cell_angle_beta 90.000000
_cell_angle_gamma 90.000000
_cell_volume 3078.627504
_symmetry_space_group_name_H-M "P N N A"
_symmetry_group_IT_number 52
_symmetry_cell_setting 'orthorhombic'
loop_
_space_group_symop_operation_xyz
x,y,z
1/2-x,-y,z
x,1/2-y,1/2-z
1/2-x,1/2+y,1/2-z
-x,-y,-z
1/2+x,y,-z
-x,1/2+y,1/2+z
1/2+x,1/2-y,1/2+z
loop_
_atom_site_type_symbol
_atom_site_label
_atom_site_fract_x
_atom_site_fract_y
_atom_site_fract_z
Si Si1 0.307679 0.718366 0.174897
Si Si2 0.487192 0.250000 0.250000
Si Si3 0.129458 0.444059 0.421260
Si Si4 0.064501 0.194352 0.515923
Si Si5 0.534929 0.421389 0.370003
Si Si6 0.386051 0.379917 0.990142
Si Si7 0.327317 0.406311 0.555776
Si Si8 0.365942 0.404913 0.147673
O O1 0.331678 0.750000 0.250000
O O2 0.315477 0.867728 0.133376
O O3 0.360838 0.581258 0.150617
O O4 0.217650 0.661198 0.172066
O O5 0.536370 0.367113 0.293869
O O6 0.432389 0.336291 0.196051
O O7 0.106293 0.307889 0.467770
O O8 0.160569 0.555322 0.477016
O O9 0.052064 0.512815 0.386348
O O10 0.047719 0.278621 0.584256
O O11 0.979492 0.159411 0.482048
O O12 0.116969 0.050743 0.526737
O O13 0.600215 0.534611 0.398632
O O14 0.331603 0.269608 0.947710
O O15 0.372455 0.366945 0.069623
O O16 0.250000 0.500000 0.576111
#
# Coordination Sequence:
#
# PCOD9408971 Si02
#       8
#     8   4   8   8   8   8   8   8
#     4  11  23  36  52  82 130 167 195 231 284 358
#     4  12  22  40  60  82 116 158 206 240 298 372
#     4  11  19  38  56  86 121 155 199 245 292 366
#     4  10  19  34  61  84 118 147 198 252 299 343
#     4  11  22  39  61  88 114 155 205 251 302 379
#     4  11  19  36  60  88 117 152 197 259 302 352
#     4  11  22  38  61  91 118 155 201 259 324 365
#     4  11  22  37  54  85 119 165 201 235 291 355
#
# _framework density 19.489205999999999
#
# number of rings (size 3 to 8) (size 9 to 14) (size 15 to 20)
#    0.000    1.067    6.000    2.400    0.000    0.000 
#    2.400    0.000    0.000    1.600    0.000    0.000 
#    0.000    0.000    0.000    0.000    0.000    0.000 
#
# Total GULP energy -334875.101513 kJ/mol
# GULP energy per Si atom -5581.251692 kJ/mol
# Density = 1.944485 g / cm^3
# Si number density = 19.489206 Si / 1000 Ang^3
#
#
#
# Elastic Constant Matrix: (Units=GPa)
#
#
# Indices 1 2 3 4 5 6 
#
# 1 27.3262 16.2640 13.2599 0.0000 0.0000 0.0000
# 2 16.2640 128.8715 34.1031 0.0000 0.0000 0.0000
# 3 13.2599 34.1031 73.5046 0.0000 0.0000 0.0000
# 4 0.0000 0.0000 0.0000 19.2078 0.0000 0.0000
# 5 0.0000 0.0000 0.0000 0.0000 8.3619 0.0000
# 6 0.0000 0.0000 0.0000 0.0000 0.0000 22.4241
#
#
#
# Elastic Compliance Matrix: (Units=1/GPa)
#
#
# Indices 1 2 3 4 5 6 
#
# 1 0.041615 -0.003722 -0.005780 0.000000 0.000000 0.000000
# 2 -0.003722 0.009179 -0.003587 0.000000 0.000000 0.000000
# 3 -0.005780 -0.003587 0.016312 0.000000 0.000000 0.000000
# 4 0.000000 0.000000 0.000000 0.052062 0.000000 0.000000
# 5 0.000000 0.000000 0.000000 0.000000 0.119590 0.000000
# 6 0.000000 0.000000 0.000000 0.000000 0.000000 0.044595
#
#
# Mechanical properties :
#
#
# Convention : Reuss Voigt Hill
#
# Bulk Modulus (GPa) = 24.43416 39.66182 32.04799
# Shear Modulus (GPa) = 15.47156 21.07045 18.27100
#
# Velocity S-wave (km/s) = 2.82060 3.29163 3.06517
# Velocity P-wave (km/s) = 4.81375 5.90265 5.38579
#
# Compressibility (1/GPa) = 0.04092631
#
# Stress axis : x y z
#
# Youngs Moduli (GPa) = 24.02965 108.94823 61.30635
#
# Poissons Ratio (x) = 0.40555 0.35436
# Poissons Ratio (y) = 0.08945 0.21991
# Poissons Ratio (z) = 0.13890 0.39080
#
# Static dielectric constant tensor:
#      x y z
#    x 1.746850 0.000000 0.000000 
#    y 0.000000 1.826570 0.000000 
#    z 0.000000 0.000000 1.679400 
# 
# From -- ./inp_files/33776.got.cif
#   From: 2010.05.17/outbox.cif.g08.bks.cpg/sg52_17_cif.got.tgz:33776.got - 2010.06.03 12:15:38.
