data_PCOD9408508
_publ_section_title
;
Structure prediction by ZEFSAII (Michael W. Deem and Ramdas Pophale) SiO2 
 PCOD9408508
Probable space group: P N N A
;
_chemical_formula_sum "Si O2"
_cell_formula_units_Z 28
_cell_length_a 9.297962
_cell_length_b 10.314915
_cell_length_c 13.620160
_cell_angle_alpha 90.000000
_cell_angle_beta 90.000000
_cell_angle_gamma 90.000000
_cell_volume 1306.278052
_symmetry_space_group_name_H-M "P N N A"
_symmetry_group_IT_number 52
_symmetry_cell_setting 'orthorhombic'
loop_
_space_group_symop_operation_xyz
x,y,z
1/2-x,-y,z
x,1/2-y,1/2-z
1/2-x,1/2+y,1/2-z
-x,-y,-z
1/2+x,y,-z
-x,1/2+y,1/2+z
1/2+x,1/2-y,1/2+z
loop_
_atom_site_type_symbol
_atom_site_label
_atom_site_fract_x
_atom_site_fract_y
_atom_site_fract_z
Si Si1 0.141639 0.750000 0.750000
Si Si2 0.423815 0.474374 0.638092
Si Si3 0.429025 0.296040 0.447568
Si Si4 0.204614 0.351251 0.947147
O O1 0.050269 0.622188 0.727497
O O2 0.235141 0.709336 0.844878
O O3 0.250000 0.500000 0.637689
O O4 0.455151 0.385991 0.543233
O O5 0.519255 0.603915 0.636366
O O6 0.272753 0.236256 0.465224
O O7 0.536139 0.175069 0.447771
O O8 0.250000 0.500000 0.953848
#
# Coordination Sequence:
#
# PCOD9408508 Si02
#       4
#     4   8   8   8
#     4  10  20  34  56  92 116 150 198 258 300 334
#     4  10  18  35  58  88 116 149 197 242 295 358
#     4  10  20  35  57  90 112 156 195 244 294 358
#     4  11  22  36  59  89 121 155 204 254 294 352
#
# _framework density 21.434947000000001
#
# number of rings (size 3 to 8) (size 9 to 14) (size 15 to 20)
#    0.000    1.714    5.714    1.714    0.000    0.000 
#    0.000    0.000    0.000    6.857   29.714    0.000 
#    0.000    0.000    0.000    0.000    0.000    0.000 
#
# Total GULP energy -155948.971469 kJ/mol
# GULP energy per Si atom -5569.606124 kJ/mol
# Density = 2.138616 g / cm^3
# Si number density = 21.434947 Si / 1000 Ang^3
#
#
#
# Elastic Constant Matrix: (Units=GPa)
#
#
# Indices 1 2 3 4 5 6 
#
# 1 34.8543 13.8976 11.5542 0.0000 0.0000 0.0000
# 2 13.8976 120.0540 20.5780 0.0000 0.0000 0.0000
# 3 11.5542 20.5780 20.1563 0.0000 0.0000 0.0000
# 4 0.0000 0.0000 0.0000 44.2729 0.0000 0.0000
# 5 0.0000 0.0000 0.0000 0.0000 10.3655 0.0000
# 6 0.0000 0.0000 0.0000 0.0000 0.0000 1031.6979
#
#
#
# Elastic Compliance Matrix: (Units=1/GPa)
#
#
# Indices 1 2 3 4 5 6 
#
# 1 0.035478 -0.000753 -0.019569 0.000000 0.000000 0.000000
# 2 -0.000753 0.010112 -0.009892 0.000000 0.000000 0.000000
# 3 -0.019569 -0.009892 0.070929 0.000000 0.000000 0.000000
# 4 0.000000 0.000000 0.000000 0.022587 0.000000 0.000000
# 5 0.000000 0.000000 0.000000 0.000000 0.096474 0.000000
# 6 0.000000 0.000000 0.000000 0.000000 0.000000 0.000969
#
#
# Mechanical properties :
#
#
# Convention : Reuss Voigt Hill
#
# Bulk Modulus (GPa) = 17.82790 29.68048 23.75419
# Shear Modulus (GPa) = 15.83906 225.86956 120.85431
#
# Velocity S-wave (km/s) = 2.72129 10.27634 7.51693
# Velocity P-wave (km/s) = 4.26722 12.43709 9.29759
#
# Compressibility (1/GPa) = 0.05609185
#
# Stress axis : x y z
#
# Youngs Moduli (GPa) = 28.18644 98.88896 14.09857
#
# Poissons Ratio (x) = 0.07444 0.27589
# Poissons Ratio (y) = 0.02122 0.13947
# Poissons Ratio (z) = 0.55157 0.97825
#
# Static dielectric constant tensor:
#      x y z
#    x 1.885220 0.000000 0.000000 
#    y 0.000000 1.874120 0.000000 
#    z 0.000000 0.000000 1.851320 
# 
# From -- ./inp_files/17537.got.cif
#   From: 2010.05.17/outbox.cif.g08.bks.cpg/sg52_9_cif.got.tgz:17537.got - 2010.06.03 12:15:38.
