data_PCOD9408783
_publ_section_title
;
Structure prediction by ZEFSAII (Michael W. Deem and Ramdas Pophale) SiO2 
 PCOD9408783
Probable space group: P N N A
;
_chemical_formula_sum "Si O2"
_cell_formula_units_Z 56
_cell_length_a 5.121638
_cell_length_b 16.381114
_cell_length_c 34.355106
_cell_angle_alpha 90.000000
_cell_angle_beta 90.000000
_cell_angle_gamma 90.000000
_cell_volume 2882.329354
_symmetry_space_group_name_H-M "P N N A"
_symmetry_group_IT_number 52
_symmetry_cell_setting 'orthorhombic'
loop_
_space_group_symop_operation_xyz
x,y,z
1/2-x,-y,z
x,1/2-y,1/2-z
1/2-x,1/2+y,1/2-z
-x,-y,-z
1/2+x,y,-z
-x,1/2+y,1/2+z
1/2+x,1/2-y,1/2+z
loop_
_atom_site_type_symbol
_atom_site_label
_atom_site_fract_x
_atom_site_fract_y
_atom_site_fract_z
Si Si1 0.475461 0.143054 0.976427
Si Si2 0.843427 0.362324 0.110790
Si Si3 0.499421 0.944185 0.104602
Si Si4 0.457997 0.159246 0.522994
Si Si5 0.355115 0.413965 0.156431
Si Si6 0.675667 0.701026 0.341453
Si Si7 0.336867 0.254551 0.203819
O O1 0.550047 0.106434 0.934910
O O2 0.469031 0.241729 0.974102
O O3 0.691476 0.117889 0.008156
O O4 0.862168 0.371102 0.064742
O O5 0.618341 0.415400 0.131143
O O6 0.785979 0.269126 0.124568
O O7 0.125140 0.382602 0.128370
O O8 0.579100 0.881392 0.138490
O O9 0.750000 0.000000 0.097281
O O10 0.250000 0.000000 0.113913
O O11 0.746108 0.134559 0.509433
O O12 0.250000 0.500000 0.171643
O O13 0.394620 0.346885 0.189745
O O14 0.447524 0.731738 0.312712
O O15 0.945222 0.699054 0.317558
O O16 0.349323 0.250000 0.250000
#
# Coordination Sequence:
#
# PCOD9408783 Si02
#       7
#     8   8   8   8   8   8   8
#     4  10  21  35  52  76 110 151 200 254 296 333
#     4  10  19  36  60  80 111 153 187 236 282 334
#     4  12  24  37  55  79 118 161 200 247 293 340
#     4  10  19  32  54  81 108 143 196 245 287 333
#     4  10  21  36  60  90 116 142 185 232 283 339
#     4  10  21  39  58  84 114 148 199 231 280 351
#     4  10  21  39  66  90 115 149 184 232 285 348
#
# _framework density 19.428730999999999
#
# number of rings (size 3 to 8) (size 9 to 14) (size 15 to 20)
#    0.000    1.714    1.429    3.429    0.000    1.714 
#    0.000    2.143    0.000   10.286    0.000    0.000 
#    0.000    0.000    0.000    0.000    0.000    0.000 
#
# Total GULP energy -312809.655906 kJ/mol
# GULP energy per Si atom -5585.886713 kJ/mol
# Density = 1.938451 g / cm^3
# Si number density = 19.428731 Si / 1000 Ang^3
#
#
#
# Elastic Constant Matrix: (Units=GPa)
#
#
# Indices 1 2 3 4 5 6 
#
# 1 94.5124 12.3816 8.7456 0.0000 0.0000 0.0000
# 2 12.3816 45.9804 22.4784 0.0000 0.0000 0.0000
# 3 8.7456 22.4784 104.2280 0.0000 0.0000 0.0000
# 4 0.0000 0.0000 0.0000 0.1728 0.0000 0.0000
# 5 0.0000 0.0000 0.0000 0.0000 29.1863 0.0000
# 6 0.0000 0.0000 0.0000 0.0000 0.0000 27.7460
#
#
#
# Elastic Compliance Matrix: (Units=1/GPa)
#
#
# Indices 1 2 3 4 5 6 
#
# 1 0.010977 -0.002801 -0.000317 0.000000 0.000000 0.000000
# 2 -0.002801 0.025026 -0.005162 0.000000 0.000000 0.000000
# 3 -0.000317 -0.005162 0.010734 0.000000 0.000000 0.000000
# 4 0.000000 0.000000 0.000000 5.785635 0.000000 0.000000
# 5 0.000000 0.000000 0.000000 0.000000 0.034263 0.000000
# 6 0.000000 0.000000 0.000000 0.000000 0.000000 0.036041
#
#
# Mechanical properties :
#
#
# Convention : Reuss Voigt Hill
#
# Bulk Modulus (GPa) = 33.13770 36.88132 35.00951
# Shear Modulus (GPa) = 0.84327 24.82871 12.83599
#
# Velocity S-wave (km/s) = 0.65953 3.57870 2.57314
# Velocity P-wave (km/s) = 4.20393 6.00835 5.18523
#
# Compressibility (1/GPa) = 0.03017711
#
# Stress axis : x y z
#
# Youngs Moduli (GPa) = 91.10051 39.95799 93.15949
#
# Poissons Ratio (x) = 0.11192 0.02953
# Poissons Ratio (y) = 0.25516 0.48092
# Poissons Ratio (z) = 0.02888 0.20627
#
# Static dielectric constant tensor:
#      x y z
#    x 1.657000 0.000000 0.000000 
#    y 0.000000 1.708020 0.000000 
#    z 0.000000 0.000000 1.632010 
# 
# From -- ./inp_files/43785.got.cif
#   From: 2010.05.17/outbox.cif.g08.bks.cpg/sg52_22_cif.got.tgz:43785.got - 2010.06.03 12:15:38.
