data_PCOD9408911
_publ_section_title
;
Structure prediction by ZEFSAII (Michael W. Deem and Ramdas Pophale) SiO2 
 PCOD9408911
Probable space group: P N N A
;
_chemical_formula_sum "Si O2"
_cell_formula_units_Z 48
_cell_length_a 15.594019
_cell_length_b 18.009597
_cell_length_c 8.641842
_cell_angle_alpha 90.000000
_cell_angle_beta 90.000000
_cell_angle_gamma 90.000000
_cell_volume 2426.992172
_symmetry_space_group_name_H-M "P N N A"
_symmetry_group_IT_number 52
_symmetry_cell_setting 'orthorhombic'
loop_
_space_group_symop_operation_xyz
x,y,z
1/2-x,-y,z
x,1/2-y,1/2-z
1/2-x,1/2+y,1/2-z
-x,-y,-z
1/2+x,y,-z
-x,1/2+y,1/2+z
1/2+x,1/2-y,1/2+z
loop_
_atom_site_type_symbol
_atom_site_label
_atom_site_fract_x
_atom_site_fract_y
_atom_site_fract_z
Si Si1 0.657590 0.532715 0.901098
Si Si2 0.159191 0.040030 0.881702
Si Si3 0.260407 0.175232 0.316258
Si Si4 0.265299 0.671466 0.815049
Si Si5 0.911239 0.401074 0.213216
Si Si6 0.904154 0.895363 0.800983
O O1 0.750000 0.500000 0.960666
O O2 0.683296 0.601302 0.790652
O O3 0.613239 0.466208 0.810901
O O4 0.602198 0.567802 0.038874
O O5 0.180299 0.102557 0.752294
O O6 0.250000 0.000000 0.925177
O O7 0.101457 0.974456 0.815504
O O8 0.112142 0.077236 0.025649
O O9 0.300990 0.250000 0.250000
O O10 0.240919 0.176183 0.499522
O O11 0.170484 0.163054 0.231916
O O12 0.295711 0.750000 0.750000
O O13 0.168353 0.653807 0.758961
O O14 0.002166 0.367327 0.256426
#
# Coordination Sequence:
#
# PCOD9408911 Si02
#       6
#     8   8   8   8   8   8
#     4   9  18  34  54  78 106 141 178 213 261 318
#     4  10  19  34  54  78 106 140 179 215 259 320
#     4  10  20  35  55  78 104 139 182 218 258 317
#     4  10  21  37  55  74 104 145 181 214 261 320
#     4  10  20  34  54  79 108 137 170 218 271 317
#     4  11  20  32  55  83 107 132 172 226 269 310
#
# _framework density 19.777567000000001
#
# number of rings (size 3 to 8) (size 9 to 14) (size 15 to 20)
#    0.000    2.000    0.000    7.000    0.000    2.000 
#    0.000    0.000    0.000    7.000    0.000    0.000 
#    0.000    0.000    0.000    0.000    0.000    0.000 
#
# Total GULP energy -267937.518157 kJ/mol
# GULP energy per Si atom -5582.031628 kJ/mol
# Density = 1.973255 g / cm^3
# Si number density = 19.777567 Si / 1000 Ang^3
#
#
#
# Elastic Constant Matrix: (Units=GPa)
#
#
# Indices 1 2 3 4 5 6 
#
# 1 40.0639 -15.4166 -0.6112 0.0000 0.0000 0.0000
# 2 -15.4166 63.3021 -6.5110 0.0000 0.0000 0.0000
# 3 -0.6112 -6.5110 56.4641 0.0000 0.0000 0.0000
# 4 0.0000 0.0000 0.0000 19.9473 0.0000 0.0000
# 5 0.0000 0.0000 0.0000 0.0000 22.1748 0.0000
# 6 0.0000 0.0000 0.0000 0.0000 0.0000 7.6376
#
#
#
# Elastic Compliance Matrix: (Units=1/GPa)
#
#
# Indices 1 2 3 4 5 6 
#
# 1 0.027607 0.006835 0.001087 0.000000 0.000000 0.000000
# 2 0.006835 0.017679 0.002113 0.000000 0.000000 0.000000
# 3 0.001087 0.002113 0.017966 0.000000 0.000000 0.000000
# 4 0.000000 0.000000 0.000000 0.050132 0.000000 0.000000
# 5 0.000000 0.000000 0.000000 0.000000 0.045096 0.000000
# 6 0.000000 0.000000 0.000000 0.000000 0.000000 0.130932
#
#
# Mechanical properties :
#
#
# Convention : Reuss Voigt Hill
#
# Bulk Modulus (GPa) = 12.00168 12.75026 12.37597
# Shear Modulus (GPa) = 16.82844 22.10986 19.46915
#
# Velocity S-wave (km/s) = 2.92016 3.34717 3.14093
# Velocity P-wave (km/s) = 4.17747 4.62589 4.40739
#
# Compressibility (1/GPa) = 0.08332164
#
# Stress axis : x y z
#
# Youngs Moduli (GPa) = 36.22279 56.56365 55.66144
#
# Poissons Ratio (x) = -0.38662 -0.06051
# Poissons Ratio (y) = -0.24759 -0.11759
# Poissons Ratio (z) = -0.03938 -0.11950
#
# Static dielectric constant tensor:
#      x y z
#    x 1.698120 0.000000 0.000000 
#    y 0.000000 1.675150 0.000000 
#    z 0.000000 0.000000 1.711410 
# 
# From -- ./inp_files/10462.got.cif
#   From: 2010.05.17/outbox.cif.g08.bks.cpg/sg52_6_cif.got.tgz:10462.got - 2010.06.03 12:15:38.
