data_PCOD9408203
_publ_section_title
;
Structure prediction by ZEFSAII (Michael W. Deem and Ramdas Pophale) SiO2 
 PCOD9408203
Probable space group: P N N A
;
_chemical_formula_sum "Si O2"
_cell_formula_units_Z 60
_cell_length_a 17.629659
_cell_length_b 11.991045
_cell_length_c 13.900114
_cell_angle_alpha 90.000000
_cell_angle_beta 90.000000
_cell_angle_gamma 90.000000
_cell_volume 2938.456778
_symmetry_space_group_name_H-M "P N N A"
_symmetry_group_IT_number 52
_symmetry_cell_setting 'orthorhombic'
loop_
_space_group_symop_operation_xyz
x,y,z
1/2-x,-y,z
x,1/2-y,1/2-z
1/2-x,1/2+y,1/2-z
-x,-y,-z
1/2+x,y,-z
-x,1/2+y,1/2+z
1/2+x,1/2-y,1/2+z
loop_
_atom_site_type_symbol
_atom_site_label
_atom_site_fract_x
_atom_site_fract_y
_atom_site_fract_z
Si Si1 0.104046 0.409345 0.988100
Si Si2 0.953264 0.115885 0.618110
Si Si3 0.000746 0.463576 0.272451
Si Si4 0.935874 0.797879 0.906796
Si Si5 0.250000 0.500000 0.688867
Si Si6 0.149901 0.583017 0.849817
Si Si7 0.615330 0.024111 0.061811
Si Si8 0.107564 0.774659 0.982849
O O1 0.161523 0.471276 0.915123
O O2 0.039663 0.361883 0.915592
O O3 0.073524 0.514633 0.049009
O O4 0.113797 0.311382 0.066651
O O5 0.902895 0.220568 0.587789
O O6 0.954758 0.065114 0.723585
O O7 0.053817 0.361208 0.304978
O O8 0.935610 0.425469 0.196097
O O9 0.955123 0.507522 0.365312
O O10 0.023088 0.771055 0.935906
O O11 0.905777 0.891787 0.979192
O O12 0.295774 0.417872 0.758650
O O13 0.312444 0.560153 0.623988
O O14 0.155474 0.691297 0.916148
O O15 0.633291 0.901211 0.020790
#
# Coordination Sequence:
#
# PCOD9408203 Si02
#       8
#     8   8   8   8   4   8   8   8
#     4   8  15  28  45  68 103 134 164 213 276 317
#     4   8  14  26  47  73  97 128 169 218 271 323
#     4   9  16  27  48  75 105 127 174 220 269 322
#     4  10  18  30  47  73 107 143 169 225 284 330
#     4  10  22  38  52  74 108 150 198 218 270 346
#     4   9  18  34  50  77 103 144 182 225 267 336
#     4  10  21  35  45  72 108 150 180 218 269 339
#     4   9  17  32  53  70 107 141 176 223 281 329
#
# _framework density 20.418880000000001
#
# number of rings (size 3 to 8) (size 9 to 14) (size 15 to 20)
#    0.000    2.933    0.000    4.000    0.000    7.467 
#    4.800   14.667    0.000    0.000    0.000    3.733 
#    8.000    0.000    0.000    0.000    0.000    0.000 
#
# Total GULP energy -334213.491856 kJ/mol
# GULP energy per Si atom -5570.224864 kJ/mol
# Density = 2.037241 g / cm^3
# Si number density = 20.418880 Si / 1000 Ang^3
#
#
#
# Elastic Constant Matrix: (Units=GPa)
#
#
# Indices 1 2 3 4 5 6 
#
# 1 39.6326 14.1902 25.7016 0.0000 0.0000 0.0000
# 2 14.1902 83.1711 37.9139 0.0000 0.0000 0.0000
# 3 25.7016 37.9139 70.0262 0.0000 0.0000 0.0000
# 4 0.0000 0.0000 0.0000 29.1436 0.0000 0.0000
# 5 0.0000 0.0000 0.0000 0.0000 32.3988 0.0000
# 6 0.0000 0.0000 0.0000 0.0000 0.0000 6.3771
#
#
#
# Elastic Compliance Matrix: (Units=1/GPa)
#
#
# Indices 1 2 3 4 5 6 
#
# 1 0.033115 -0.000145 -0.012075 0.000000 0.000000 0.000000
# 2 -0.000145 0.015964 -0.008590 0.000000 0.000000 0.000000
# 3 -0.012075 -0.008590 0.023363 0.000000 0.000000 0.000000
# 4 0.000000 0.000000 0.000000 0.034313 0.000000 0.000000
# 5 0.000000 0.000000 0.000000 0.000000 0.030865 0.000000
# 6 0.000000 0.000000 0.000000 0.000000 0.000000 0.156810
#
#
# Mechanical properties :
#
#
# Convention : Reuss Voigt Hill
#
# Bulk Modulus (GPa) = 32.44583 38.71570 35.58077
# Shear Modulus (GPa) = 14.43732 21.25220 17.84476
#
# Velocity S-wave (km/s) = 2.66194 3.22966 2.95945
# Velocity P-wave (km/s) = 5.03711 5.73668 5.39824
#
# Compressibility (1/GPa) = 0.03082060
#
# Stress axis : x y z
#
# Youngs Moduli (GPa) = 30.19821 62.64107 42.80236
#
# Poissons Ratio (x) = 0.00910 0.51685
# Poissons Ratio (y) = 0.00438 0.36767
# Poissons Ratio (z) = 0.36465 0.53809
#
# Static dielectric constant tensor:
#      x y z
#    x 1.759210 0.000000 0.000000 
#    y 0.000000 1.778980 0.000000 
#    z 0.000000 0.000000 1.785060 
# 
# From -- ./inp_files/28283.got.cif
#   From: 2010.05.17/outbox.cif.g08.bks.cpg/sg52_15_cif.got.tgz:28283.got - 2010.06.03 12:15:38.
