data_PCOD9408827
_publ_section_title
;
Structure prediction by ZEFSAII (Michael W. Deem and Ramdas Pophale) SiO2 
 PCOD9408827
Probable space group: P N N A
;
_chemical_formula_sum "Si O2"
_cell_formula_units_Z 40
_cell_length_a 5.385049
_cell_length_b 20.629684
_cell_length_c 13.436992
_cell_angle_alpha 90.000000
_cell_angle_beta 90.000000
_cell_angle_gamma 90.000000
_cell_volume 1492.740423
_symmetry_space_group_name_H-M "P N N A"
_symmetry_group_IT_number 52
_symmetry_cell_setting 'orthorhombic'
loop_
_space_group_symop_operation_xyz
x,y,z
1/2-x,-y,z
x,1/2-y,1/2-z
1/2-x,1/2+y,1/2-z
-x,-y,-z
1/2+x,y,-z
-x,1/2+y,1/2+z
1/2+x,1/2-y,1/2+z
loop_
_atom_site_type_symbol
_atom_site_label
_atom_site_fract_x
_atom_site_fract_y
_atom_site_fract_z
Si Si1 0.454531 0.784884 0.898354
Si Si2 0.627476 0.411517 0.536218
Si Si3 0.042615 0.286547 0.146361
Si Si4 0.490403 0.927345 0.544469
Si Si5 0.837057 0.114590 0.748652
O O1 0.423730 0.840469 0.983582
O O2 0.703319 0.741455 0.902293
O O3 0.489987 0.828230 0.796613
O O4 0.217762 0.737981 0.896049
O O5 0.854407 0.439469 0.473233
O O6 0.720155 0.413438 0.649914
O O7 0.040453 0.250000 0.250000
O O8 0.106811 0.358156 0.183972
O O9 0.233270 0.896425 0.507747
O O10 0.517673 0.925673 0.664301
O O11 0.500000 0.000000 0.500000
#
# Coordination Sequence:
#
# PCOD9408827 Si02
#       5
#     8   8   8   8   8
#     4  10  20  35  52  83 127 169 208 254 305 382
#     4  10  20  34  54  84 121 162 207 248 302 384
#     4  10  19  33  51  78 124 170 211 250 295 367
#     4  10  24  47  70  96 125 162 223 292 352 406
#     4  10  22  39  65  91 125 175 223 270 337 397
#
# _framework density 26.796354999999998
#
# number of rings (size 3 to 8) (size 9 to 14) (size 15 to 20)
#    0.000    2.000    0.000    5.400    0.000    9.600 
#    0.000   22.000    0.000    0.000    0.000   67.200 
#    0.000    0.000    0.000    0.000    0.000    0.000 
#
# Total GULP energy -223216.168523 kJ/mol
# GULP energy per Si atom -5580.404213 kJ/mol
# Density = 2.673537 g / cm^3
# Si number density = 26.796355 Si / 1000 Ang^3
#
#
#
# Elastic Constant Matrix: (Units=GPa)
#
#
# Indices 1 2 3 4 5 6 
#
# 1 247.5497 31.2713 53.5642 0.0000 0.0000 0.0000
# 2 31.2713 79.8648 40.9125 0.0000 0.0000 0.0000
# 3 53.5642 40.9125 233.7413 0.0000 0.0000 0.0000
# 4 0.0000 0.0000 0.0000 21.1529 0.0000 0.0000
# 5 0.0000 0.0000 0.0000 0.0000 721.7023 0.0000
# 6 0.0000 0.0000 0.0000 0.0000 0.0000 23.8190
#
#
#
# Elastic Compliance Matrix: (Units=1/GPa)
#
#
# Indices 1 2 3 4 5 6 
#
# 1 0.004373 -0.001317 -0.000772 0.000000 0.000000 0.000000
# 2 -0.001317 0.014151 -0.002175 0.000000 0.000000 0.000000
# 3 -0.000772 -0.002175 0.004836 0.000000 0.000000 0.000000
# 4 0.000000 0.000000 0.000000 0.047275 0.000000 0.000000
# 5 0.000000 0.000000 0.000000 0.000000 0.001386 0.000000
# 6 0.000000 0.000000 0.000000 0.000000 0.000000 0.041983
#
#
# Mechanical properties :
#
#
# Convention : Reuss Voigt Hill
#
# Bulk Modulus (GPa) = 67.41987 90.29465 78.85726
# Shear Modulus (GPa) = 39.22338 182.36202 110.79270
#
# Velocity S-wave (km/s) = 3.83006 8.25848 6.43708
# Velocity P-wave (km/s) = 6.69133 11.16721 9.20544
#
# Compressibility (1/GPa) = 0.01483242
#
# Stress axis : x y z
#
# Youngs Moduli (GPa) = 228.68074 70.66606 206.79241
#
# Poissons Ratio (x) = 0.09306 0.15956
# Poissons Ratio (y) = 0.30116 0.44980
# Poissons Ratio (z) = 0.17645 0.15371
#
# Static dielectric constant tensor:
#      x y z
#    x 2.239050 0.000000 0.000000 
#    y 0.000000 2.426810 0.000000 
#    z 0.000000 0.000000 2.115150 
# 
# From -- ./inp_files/23616.got.cif
#   From: 2010.05.17/outbox.cif.g08.bks.cpg/sg52_12_cif.got.tgz:23616.got - 2010.06.03 12:15:38.
