data_PCOD9408151
_publ_section_title
;
Structure prediction by ZEFSAII (Michael W. Deem and Ramdas Pophale) SiO2 
 PCOD9408151
Probable space group: P N N A
;
_chemical_formula_sum "Si O2"
_cell_formula_units_Z 48
_cell_length_a 8.985511
_cell_length_b 14.170044
_cell_length_c 20.315513
_cell_angle_alpha 90.000000
_cell_angle_beta 90.000000
_cell_angle_gamma 90.000000
_cell_volume 2586.674445
_symmetry_space_group_name_H-M "P N N A"
_symmetry_group_IT_number 52
_symmetry_cell_setting 'orthorhombic'
loop_
_space_group_symop_operation_xyz
x,y,z
1/2-x,-y,z
x,1/2-y,1/2-z
1/2-x,1/2+y,1/2-z
-x,-y,-z
1/2+x,y,-z
-x,1/2+y,1/2+z
1/2+x,1/2-y,1/2+z
loop_
_atom_site_type_symbol
_atom_site_label
_atom_site_fract_x
_atom_site_fract_y
_atom_site_fract_z
Si Si1 0.340416 0.855704 0.223672
Si Si2 0.223503 0.716290 0.409756
Si Si3 0.100391 0.957004 0.706889
Si Si4 0.790358 0.109584 0.427594
Si Si5 0.028765 0.273874 0.989183
Si Si6 0.849454 0.082868 0.655518
O O1 0.368284 0.750000 0.250000
O O2 0.272426 0.848308 0.151106
O O3 0.490921 0.912262 0.239700
O O4 0.218102 0.898535 0.272423
O O5 0.366197 0.728161 0.455843
O O6 0.177488 0.820038 0.381690
O O7 0.076572 0.697475 0.453023
O O8 0.148698 0.886947 0.647511
O O9 0.250000 0.000000 0.736015
O O10 0.010403 0.039205 0.667980
O O11 0.644136 0.172199 0.441351
O O12 0.918985 0.150848 0.475111
O O13 0.750000 0.000000 0.441376
O O14 0.750000 0.000000 0.623383
#
# Coordination Sequence:
#
# PCOD9408151 Si02
#       6
#     8   8   8   8   8   8
#     4   9  18  33  52  68  94 133 167 202 247 292
#     4  10  19  33  48  70  98 129 166 200 239 292
#     4  10  19  32  49  76 103 127 162 210 250 289
#     4  10  18  28  43  68 103 134 160 191 229 287
#     4  10  20  29  44  69  99 135 165 190 232 293
#     4   9  17  31  50  71  96 128 162 197 238 291
#
# _framework density 18.556646000000001
#
# number of rings (size 3 to 8) (size 9 to 14) (size 15 to 20)
#    0.000    2.333    0.000    5.500    0.000    4.000 
#    0.000    7.500    0.000    0.000    0.000   15.167 
#    0.000    0.000    0.000    0.000    0.000    0.000 
#
# Total GULP energy -267511.619199 kJ/mol
# GULP energy per Si atom -5573.158733 kJ/mol
# Density = 1.851441 g / cm^3
# Si number density = 18.556646 Si / 1000 Ang^3
#
#
#
# Elastic Constant Matrix: (Units=GPa)
#
#
# Indices 1 2 3 4 5 6 
#
# 1 139.2612 14.4427 47.4319 0.0000 0.0000 0.0000
# 2 14.4427 18.9334 16.5084 0.0000 0.0000 0.0000
# 3 47.4319 16.5084 84.0807 0.0000 0.0000 0.0000
# 4 0.0000 0.0000 0.0000 23.3878 0.0000 0.0000
# 5 0.0000 0.0000 0.0000 0.0000 9.0348 0.0000
# 6 0.0000 0.0000 0.0000 0.0000 0.0000 15.5340
#
#
#
# Elastic Compliance Matrix: (Units=1/GPa)
#
#
# Indices 1 2 3 4 5 6 
#
# 1 0.009023 -0.002950 -0.004511 0.000000 0.000000 0.000000
# 2 -0.002950 0.064691 -0.011037 0.000000 0.000000 0.000000
# 3 -0.004511 -0.011037 0.016605 0.000000 0.000000 0.000000
# 4 0.000000 0.000000 0.000000 0.042757 0.000000 0.000000
# 5 0.000000 0.000000 0.000000 0.000000 0.110683 0.000000
# 6 0.000000 0.000000 0.000000 0.000000 0.000000 0.064375
#
#
# Mechanical properties :
#
#
# Convention : Reuss Voigt Hill
#
# Bulk Modulus (GPa) = 18.75373 44.33792 31.54582
# Shear Modulus (GPa) = 13.77772 20.51748 17.14760
#
# Velocity S-wave (km/s) = 2.72778 3.32876 3.04315
# Velocity P-wave (km/s) = 4.47763 6.22249 5.42073
#
# Compressibility (1/GPa) = 0.05332272
#
# Stress axis : x y z
#
# Youngs Moduli (GPa) = 110.82673 15.45819 60.22217
#
# Poissons Ratio (x) = 0.04560 0.27166
# Poissons Ratio (y) = 0.32691 0.66469
# Poissons Ratio (z) = 0.49994 0.17062
#
# Static dielectric constant tensor:
#      x y z
#    x 1.661350 0.000000 0.000000 
#    y 0.000000 1.741680 0.000000 
#    z 0.000000 0.000000 1.683850 
# 
# From -- ./inp_files/31371.got.cif
#   From: 2010.05.17/outbox.cif.g08.bks.cpg/sg52_16_cif.got.tgz:31371.got - 2010.06.03 12:15:38.
