data_PCOD9408617
_publ_section_title
;
Structure prediction by ZEFSAII (Michael W. Deem and Ramdas Pophale) SiO2 
 PCOD9408617
Probable space group: P N N A
;
_chemical_formula_sum "Si O2"
_cell_formula_units_Z 56
_cell_length_a 22.067907
_cell_length_b 9.035887
_cell_length_c 13.341219
_cell_angle_alpha 90.000000
_cell_angle_beta 90.000000
_cell_angle_gamma 90.000000
_cell_volume 2660.280613
_symmetry_space_group_name_H-M "P N N A"
_symmetry_group_IT_number 52
_symmetry_cell_setting 'orthorhombic'
loop_
_space_group_symop_operation_xyz
x,y,z
1/2-x,-y,z
x,1/2-y,1/2-z
1/2-x,1/2+y,1/2-z
-x,-y,-z
1/2+x,y,-z
-x,1/2+y,1/2+z
1/2+x,1/2-y,1/2+z
loop_
_atom_site_type_symbol
_atom_site_label
_atom_site_fract_x
_atom_site_fract_y
_atom_site_fract_z
Si Si1 0.803941 0.884763 0.120268
Si Si2 0.506924 0.678964 0.362806
Si Si3 0.719597 0.658839 0.064187
Si Si4 0.257673 0.825720 0.349493
Si Si5 0.882495 0.727080 0.945633
Si Si6 0.914824 0.072084 0.437354
Si Si7 0.422933 0.577230 0.730738
O O1 0.761765 0.743876 0.141068
O O2 0.851527 0.940588 0.202493
O O3 0.750000 0.000000 0.093276
O O4 0.850234 0.819543 0.035496
O O5 0.510399 0.750000 0.250000
O O6 0.437963 0.683599 0.399021
O O7 0.541149 0.786222 0.443311
O O8 0.538216 0.518293 0.349036
O O9 0.750000 0.500000 0.053910
O O10 0.650172 0.642592 0.087673
O O11 0.725479 0.726454 0.952106
O O12 0.234141 0.750000 0.250000
O O13 0.328502 0.794987 0.367049
O O14 0.250000 0.000000 0.338839
O O15 0.903984 0.561483 0.982746
O O16 0.936605 0.989528 0.338657
O O17 0.434683 0.750000 0.750000
#
# Coordination Sequence:
#
# PCOD9408617 Si02
#       7
#     8   8   8   8   8   8   8
#     4  11  23  37  60  96 131 167 209 265 335 395
#     4  10  24  40  66  93 120 170 233 270 327 400
#     4  10  18  38  60  86 124 162 211 250 321 398
#     4  10  20  36  62  88 122 165 208 264 324 384
#     4  11  21  42  65  88 128 173 218 274 325 396
#     4  11  20  41  66  92 126 170 218 272 319 404
#     4  11  22  41  61  95 137 166 211 275 338 383
#
# _framework density 21.050411
#
# number of rings (size 3 to 8) (size 9 to 14) (size 15 to 20)
#    0.000    1.429    5.714    1.714    0.000    4.571 
#    0.000    0.000    0.000    6.000    0.000    0.000 
#    0.000    0.000    0.000    0.000    0.000    0.000 
#
# Total GULP energy -312016.208694 kJ/mol
# GULP energy per Si atom -5571.718012 kJ/mol
# Density = 2.100250 g / cm^3
# Si number density = 21.050411 Si / 1000 Ang^3
#
#
#
# Elastic Constant Matrix: (Units=GPa)
#
#
# Indices 1 2 3 4 5 6 
#
# 1 88.1779 41.8819 -17.3406 0.0000 0.0000 0.0000
# 2 41.8819 98.5425 25.2535 0.0000 0.0000 0.0000
# 3 -17.3406 25.2535 45.2694 0.0000 0.0000 0.0000
# 4 0.0000 0.0000 0.0000 5.8053 0.0000 0.0000
# 5 0.0000 0.0000 0.0000 0.0000 8.5660 0.0000
# 6 0.0000 0.0000 0.0000 0.0000 0.0000 28.9050
#
#
#
# Elastic Compliance Matrix: (Units=1/GPa)
#
#
# Indices 1 2 3 4 5 6 
#
# 1 0.019975 -0.012193 0.014453 0.000000 0.000000 0.000000
# 2 -0.012193 0.019284 -0.015428 0.000000 0.000000 0.000000
# 3 0.014453 -0.015428 0.036233 0.000000 0.000000 0.000000
# 4 0.000000 0.000000 0.000000 0.172257 0.000000 0.000000
# 5 0.000000 0.000000 0.000000 0.000000 0.116741 0.000000
# 6 0.000000 0.000000 0.000000 0.000000 0.000000 0.034596
#
#
# Mechanical properties :
#
#
# Convention : Reuss Voigt Hill
#
# Bulk Modulus (GPa) = 20.34377 36.84216 28.59297
# Shear Modulus (GPa) = 11.31714 20.80159 16.05936
#
# Velocity S-wave (km/s) = 2.32118 3.14694 2.76506
# Velocity P-wave (km/s) = 4.10720 5.54475 4.87921
#
# Compressibility (1/GPa) = 0.04915509
#
# Stress axis : x y z
#
# Youngs Moduli (GPa) = 50.06356 51.85600 27.59900
#
# Poissons Ratio (x) = 0.63231 -0.39890
# Poissons Ratio (y) = 0.61045 0.42581
# Poissons Ratio (z) = -0.72359 0.80006
#
# Static dielectric constant tensor:
#      x y z
#    x 1.716940 0.000000 0.000000 
#    y 0.000000 1.831510 0.000000 
#    z 0.000000 0.000000 1.806800 
# 
# From -- ./inp_files/28745.got.cif
#   From: 2010.05.17/outbox.cif.g08.bks.cpg/sg52_15_cif.got.tgz:28745.got - 2010.06.03 12:15:38.
