data_PCOD9408146
_publ_section_title
;
Structure prediction by ZEFSAII (Michael W. Deem and Ramdas Pophale) SiO2 
 PCOD9408146
Probable space group: P N N A
;
_chemical_formula_sum "Si O2"
_cell_formula_units_Z 64
_cell_length_a 9.281592
_cell_length_b 15.767181
_cell_length_c 19.173343
_cell_angle_alpha 90.000000
_cell_angle_beta 90.000000
_cell_angle_gamma 90.000000
_cell_volume 2805.914081
_symmetry_space_group_name_H-M "P N N A"
_symmetry_group_IT_number 52
_symmetry_cell_setting 'orthorhombic'
loop_
_space_group_symop_operation_xyz
x,y,z
1/2-x,-y,z
x,1/2-y,1/2-z
1/2-x,1/2+y,1/2-z
-x,-y,-z
1/2+x,y,-z
-x,1/2+y,1/2+z
1/2+x,1/2-y,1/2+z
loop_
_atom_site_type_symbol
_atom_site_label
_atom_site_fract_x
_atom_site_fract_y
_atom_site_fract_z
Si Si1 0.961261 0.353135 0.757498
Si Si2 0.708299 0.645325 0.253051
Si Si3 0.589040 0.811042 0.591488
Si Si4 0.636516 0.558032 0.490138
Si Si5 0.896084 0.390462 0.102720
Si Si6 0.851397 0.617938 0.992228
Si Si7 0.463853 0.189590 0.883316
Si Si8 0.290022 0.359259 0.369123
O O1 0.947623 0.250000 0.750000
O O2 0.932724 0.366894 0.839203
O O3 0.846639 0.393756 0.704617
O O4 0.124485 0.378519 0.740574
O O5 0.708340 0.750000 0.250000
O O6 0.641811 0.598272 0.184847
O O7 0.616246 0.636733 0.322563
O O8 0.740814 0.833074 0.556982
O O9 0.462569 0.827844 0.537531
O O10 0.594340 0.713568 0.612462
O O11 0.750000 0.500000 0.448976
O O12 0.500000 0.500000 0.500000
O O13 0.584947 0.642476 0.452771
O O14 0.706078 0.582083 0.563920
O O15 0.921630 0.287854 0.106098
O O16 0.038083 0.428860 0.062758
O O17 0.760514 0.412715 0.052756
O O18 0.631958 0.181006 0.864868
#
# Coordination Sequence:
#
# PCOD9408146 Si02
#       8
#     8   8   8   8   8   8   8   8
#     4   9  19  33  49  72 101 132 173 219 263 321
#     4   9  19  33  49  72 101 132 173 219 263 322
#     4  10  19  31  49  75 106 136 180 210 259 322
#     4  12  26  43  56  74 104 138 190 243 272 307
#     4  10  19  31  49  75 106 136 180 210 259 323
#     4  10  18  27  44  70 104 140 162 201 240 305
#     4  11  23  35  54  72  95 136 180 228 278 312
#     4  11  23  35  54  72  95 136 180 228 278 313
#
# _framework density 22.808966999999999
#
# number of rings (size 3 to 8) (size 9 to 14) (size 15 to 20)
#    0.000    1.750    3.750    1.500    5.250    1.500 
#    0.000    0.000    0.000    0.000    0.000    0.000 
#    0.000    0.000    0.000   22.500    0.000    7.500 
#
# Total GULP energy -356829.040829 kJ/mol
# GULP energy per Si atom -5575.453763 kJ/mol
# Density = 2.275705 g / cm^3
# Si number density = 22.808967 Si / 1000 Ang^3
#
#
#
# Elastic Constant Matrix: (Units=GPa)
#
#
# Indices 1 2 3 4 5 6 
#
# 1 111.1953 8.9752 42.9341 0.0000 0.0000 0.0000
# 2 8.9752 26.4703 9.8468 0.0000 0.0000 0.0000
# 3 42.9341 9.8468 140.4081 0.0000 0.0000 0.0000
# 4 0.0000 0.0000 0.0000 -3.4466 0.0000 0.0000
# 5 0.0000 0.0000 0.0000 0.0000 45.5033 0.0000
# 6 0.0000 0.0000 0.0000 0.0000 0.0000 -8.0413
#
#
#
# Elastic Compliance Matrix: (Units=1/GPa)
#
#
# Indices 1 2 3 4 5 6 
#
# 1 0.010343 -0.002393 -0.002995 0.000000 0.000000 0.000000
# 2 -0.002393 0.039344 -0.002027 0.000000 0.000000 0.000000
# 3 -0.002995 -0.002027 0.008180 0.000000 0.000000 0.000000
# 4 0.000000 0.000000 0.000000 -0.290137 0.000000 0.000000
# 5 0.000000 0.000000 0.000000 0.000000 0.021976 0.000000
# 6 0.000000 0.000000 0.000000 0.000000 0.000000 -0.124358
#
#
# Mechanical properties :
#
#
# Convention : Reuss Voigt Hill
#
# Bulk Modulus (GPa) = 23.23623 44.62066 33.92845
# Shear Modulus (GPa) = -16.36787 21.22423 2.42818
#
# Velocity S-wave (km/s) = -2.68172 3.05375 1.03290
# Velocity P-wave (km/s) = 0.78777 5.66031 4.04102
#
# Compressibility (1/GPa) = 0.04303623
#
# Stress axis : x y z
#
# Youngs Moduli (GPa) = 96.68704 25.41701 122.24897
#
# Poissons Ratio (x) = 0.06082 0.36611
# Poissons Ratio (y) = 0.23135 0.24786
# Poissons Ratio (z) = 0.28956 0.05153
#
# Static dielectric constant tensor:
#      x y z
#    x 1.809230 0.000000 0.000000 
#    y 0.000000 1.894530 0.000000 
#    z 0.000000 0.000000 1.911890 
# 
# From -- ./inp_files/36201.got.cif
#   From: 2010.05.17/outbox.cif.g08.bks.cpg/sg52_19_cif.got.tgz:36201.got - 2010.06.03 12:15:38.
