data_PCOD9408764
_publ_section_title
;
Structure prediction by ZEFSAII (Michael W. Deem and Ramdas Pophale) SiO2 
 PCOD9408764
Probable space group: P N N A
;
_chemical_formula_sum "Si O2"
_cell_formula_units_Z 40
_cell_length_a 20.863279
_cell_length_b 8.951053
_cell_length_c 10.017756
_cell_angle_alpha 90.000000
_cell_angle_beta 90.000000
_cell_angle_gamma 90.000000
_cell_volume 1870.799064
_symmetry_space_group_name_H-M "P N N A"
_symmetry_group_IT_number 52
_symmetry_cell_setting 'orthorhombic'
loop_
_space_group_symop_operation_xyz
x,y,z
1/2-x,-y,z
x,1/2-y,1/2-z
1/2-x,1/2+y,1/2-z
-x,-y,-z
1/2+x,y,-z
-x,1/2+y,1/2+z
1/2+x,1/2-y,1/2+z
loop_
_atom_site_type_symbol
_atom_site_label
_atom_site_fract_x
_atom_site_fract_y
_atom_site_fract_z
Si Si1 0.021781 0.169347 0.395482
Si Si2 0.918529 0.109901 0.999439
Si Si3 0.985580 0.921989 0.217691
Si Si4 0.664419 0.155117 0.609995
Si Si5 0.804416 0.198219 0.596811
O O1 0.022499 0.250000 0.250000
O O2 0.093918 0.179303 0.449072
O O3 0.969953 0.260168 0.476104
O O4 0.993938 0.008872 0.355851
O O5 0.850883 0.189946 0.982761
O O6 0.946280 0.048360 0.859647
O O7 0.931850 0.994241 0.119766
O O8 0.975529 0.750000 0.250000
O O9 0.663859 0.250000 0.750000
O O10 0.731329 0.206744 0.544098
O O11 0.672762 0.974414 0.609036
O O12 0.804372 0.250000 0.750000
#
# Coordination Sequence:
#
# PCOD9408764 Si02
#       5
#     8   8   8   8   8
#     4   9  18  33  51  77 108 135 171 220 269 323
#     4  10  20  33  53  78 108 145 180 222 280 326
#     4  10  20  33  51  78 110 143 185 229 271 326
#     4   9  18  31  49  74 107 140 171 217 278 336
#     4  10  19  32  50  76 110 142 172 216 276 337
#
# _framework density 21.381238
#
# number of rings (size 3 to 8) (size 9 to 14) (size 15 to 20)
#    0.000    2.400    0.000    3.000    0.000    4.800 
#    0.000    0.000    0.000    0.000    0.000   28.000 
#    0.000    0.000    0.000    0.000    0.000    0.000 
#
# Total GULP energy -223058.780535 kJ/mol
# GULP energy per Si atom -5576.469513 kJ/mol
# Density = 2.133257 g / cm^3
# Si number density = 21.381238 Si / 1000 Ang^3
#
#
#
# Elastic Constant Matrix: (Units=GPa)
#
#
# Indices 1 2 3 4 5 6 
#
# 1 146.4596 37.0926 23.3449 0.0000 0.0000 0.0000
# 2 37.0926 136.4791 32.4274 0.0000 0.0000 0.0000
# 3 23.3449 32.4274 59.9038 0.0000 0.0000 0.0000
# 4 0.0000 0.0000 0.0000 41.3990 0.0000 0.0000
# 5 0.0000 0.0000 0.0000 0.0000 21.9782 0.0000
# 6 0.0000 0.0000 0.0000 0.0000 0.0000 36.5156
#
#
#
# Elastic Compliance Matrix: (Units=1/GPa)
#
#
# Indices 1 2 3 4 5 6 
#
# 1 0.007557 -0.001554 -0.002104 0.000000 0.000000 0.000000
# 2 -0.001554 0.008728 -0.004119 0.000000 0.000000 0.000000
# 3 -0.002104 -0.004119 0.019743 0.000000 0.000000 0.000000
# 4 0.000000 0.000000 0.000000 0.024155 0.000000 0.000000
# 5 0.000000 0.000000 0.000000 0.000000 0.045500 0.000000
# 6 0.000000 0.000000 0.000000 0.000000 0.000000 0.027386
#
#
# Mechanical properties :
#
#
# Convention : Reuss Voigt Hill
#
# Bulk Modulus (GPa) = 48.84179 58.73026 53.78602
# Shear Modulus (GPa) = 32.16536 36.64375 34.40456
#
# Velocity S-wave (km/s) = 3.88283 4.14433 4.01571
# Velocity P-wave (km/s) = 6.55704 7.10130 6.83459
#
# Compressibility (1/GPa) = 0.02047427
#
# Stress axis : x y z
#
# Youngs Moduli (GPa) = 132.33306 114.57135 50.65062
#
# Poissons Ratio (x) = 0.17804 0.10655
# Poissons Ratio (y) = 0.20564 0.20864
# Poissons Ratio (z) = 0.27839 0.47194
#
# Static dielectric constant tensor:
#      x y z
#    x 1.772020 0.000000 0.000000 
#    y 0.000000 2.186780 0.000000 
#    z 0.000000 0.000000 1.859510 
# 
# From -- ./inp_files/21443.got.cif
#   From: 2010.05.17/outbox.cif.g08.bks.cpg/sg52_11_cif.got.tgz:21443.got - 2010.06.03 12:15:38.
