data_PCOD9408059
_publ_section_title
;
Structure prediction by ZEFSAII (Michael W. Deem and Ramdas Pophale) SiO2 
 PCOD9408059
Probable space group: P N N A
;
_chemical_formula_sum "Si O2"
_cell_formula_units_Z 48
_cell_length_a 8.850363
_cell_length_b 25.866469
_cell_length_c 11.495570
_cell_angle_alpha 90.000000
_cell_angle_beta 90.000000
_cell_angle_gamma 90.000000
_cell_volume 2631.653713
_symmetry_space_group_name_H-M "P N N A"
_symmetry_group_IT_number 52
_symmetry_cell_setting 'orthorhombic'
loop_
_space_group_symop_operation_xyz
x,y,z
1/2-x,-y,z
x,1/2-y,1/2-z
1/2-x,1/2+y,1/2-z
-x,-y,-z
1/2+x,y,-z
-x,1/2+y,1/2+z
1/2+x,1/2-y,1/2+z
loop_
_atom_site_type_symbol
_atom_site_label
_atom_site_fract_x
_atom_site_fract_y
_atom_site_fract_z
Si Si1 0.382585 0.285433 0.643749
Si Si2 0.331359 0.765385 0.463989
Si Si3 0.890051 0.967512 0.654821
Si Si4 0.425728 0.161712 0.447820
Si Si5 0.102816 0.437318 0.891170
Si Si6 0.889706 0.116342 0.292614
O O1 0.326999 0.250000 0.750000
O O2 0.279562 0.272398 0.533353
O O3 0.552003 0.266012 0.614755
O O4 0.375375 0.343576 0.688622
O O5 0.436145 0.798040 0.552926
O O6 0.224027 0.808946 0.405096
O O7 0.847030 0.945763 0.525920
O O8 0.962432 0.919204 0.720176
O O9 0.750000 0.000000 0.702878
O O10 0.023822 0.009326 0.641159
O O11 0.479432 0.108808 0.389543
O O12 0.402974 0.147921 0.585021
O O13 0.243314 0.419421 0.814186
#
# Coordination Sequence:
#
# PCOD9408059 Si02
#       6
#     8   8   8   8   8   8
#     4  11  21  38  57  78 113 153 194 237 283 331
#     4  10  20  34  54  81 111 150 192 235 279 328
#     4  10  20  30  49  82 117 139 181 230 285 353
#     4  10  17  31  52  76 112 146 178 220 283 341
#     4  10  18  30  51  81 114 150 175 219 288 362
#     4  11  20  33  54  73 110 155 180 218 282 343
#
# _framework density 18.239483
#
# number of rings (size 3 to 8) (size 9 to 14) (size 15 to 20)
#    0.000    1.667    5.000    3.500    2.333    0.000 
#    0.000   10.000    0.000    0.000    0.000    8.167 
#    0.000    0.000    0.000    0.000    0.000    0.000 
#
# Total GULP energy -267770.033882 kJ/mol
# GULP energy per Si atom -5578.542373 kJ/mol
# Density = 1.819797 g / cm^3
# Si number density = 18.239483 Si / 1000 Ang^3
#
#
#
# Elastic Constant Matrix: (Units=GPa)
#
#
# Indices 1 2 3 4 5 6 
#
# 1 88.5890 32.0520 8.1185 0.0000 0.0000 0.0000
# 2 32.0520 98.5600 18.3596 0.0000 0.0000 0.0000
# 3 8.1185 18.3596 21.3388 0.0000 0.0000 0.0000
# 4 0.0000 0.0000 0.0000 24.3141 0.0000 0.0000
# 5 0.0000 0.0000 0.0000 0.0000 18.7345 0.0000
# 6 0.0000 0.0000 0.0000 0.0000 0.0000 36.0612
#
#
#
# Elastic Compliance Matrix: (Units=1/GPa)
#
#
# Indices 1 2 3 4 5 6 
#
# 1 0.012836 -0.003888 -0.001539 0.000000 0.000000 0.000000
# 2 -0.003888 0.013260 -0.009930 0.000000 0.000000 0.000000
# 3 -0.001539 -0.009930 0.055992 0.000000 0.000000 0.000000
# 4 0.000000 0.000000 0.000000 0.041128 0.000000 0.000000
# 5 0.000000 0.000000 0.000000 0.000000 0.053377 0.000000
# 6 0.000000 0.000000 0.000000 0.000000 0.000000 0.027731
#
#
# Mechanical properties :
#
#
# Convention : Reuss Voigt Hill
#
# Bulk Modulus (GPa) = 19.46444 36.17200 27.81822
# Shear Modulus (GPa) = 19.82861 25.81914 22.82387
#
# Velocity S-wave (km/s) = 3.30074 3.76648 3.54127
# Velocity P-wave (km/s) = 5.02208 6.22815 5.65735
#
# Compressibility (1/GPa) = 0.05137573
#
# Stress axis : x y z
#
# Youngs Moduli (GPa) = 77.90813 75.41458 17.85975
#
# Poissons Ratio (x) = 0.29318 0.02748
# Poissons Ratio (y) = 0.30287 0.17734
# Poissons Ratio (z) = 0.11987 0.74884
#
# Static dielectric constant tensor:
#      x y z
#    x 1.689710 0.000000 0.000000 
#    y 0.000000 1.652470 0.000000 
#    z 0.000000 0.000000 1.591670 
# 
# From -- ./inp_files/17041.got.cif
#   From: 2010.05.17/outbox.cif.g08.bks.cpg/sg52_9_cif.got.tgz:17041.got - 2010.06.03 12:15:38.
