data_PCOD9408638
_publ_section_title
;
Structure prediction by ZEFSAII (Michael W. Deem and Ramdas Pophale) SiO2 
 PCOD9408638
Probable space group: P N N A
;
_chemical_formula_sum "Si O2"
_cell_formula_units_Z 60
_cell_length_a 8.626445
_cell_length_b 25.125102
_cell_length_c 13.330889
_cell_angle_alpha 90.000000
_cell_angle_beta 90.000000
_cell_angle_gamma 90.000000
_cell_volume 2889.341021
_symmetry_space_group_name_H-M "P N N A"
_symmetry_group_IT_number 52
_symmetry_cell_setting 'orthorhombic'
loop_
_space_group_symop_operation_xyz
x,y,z
1/2-x,-y,z
x,1/2-y,1/2-z
1/2-x,1/2+y,1/2-z
-x,-y,-z
1/2+x,y,-z
-x,1/2+y,1/2+z
1/2+x,1/2-y,1/2+z
loop_
_atom_site_type_symbol
_atom_site_label
_atom_site_fract_x
_atom_site_fract_y
_atom_site_fract_z
Si Si1 0.591802 0.195876 0.597788
Si Si2 0.667921 0.723733 0.420107
Si Si3 0.410036 0.750000 0.750000
Si Si4 0.941967 0.540915 0.085613
Si Si5 0.397968 0.968938 0.268482
Si Si6 0.483675 0.860379 0.211691
Si Si7 0.235561 0.595612 0.045023
Si Si8 0.296362 0.294308 0.352549
O O1 0.466227 0.234261 0.549075
O O2 0.493845 0.160095 0.675082
O O3 0.697536 0.154497 0.538769
O O4 0.708187 0.236855 0.653223
O O5 0.792961 0.752642 0.346653
O O6 0.593996 0.675891 0.355450
O O7 0.711957 0.699315 0.526704
O O8 0.536832 0.708395 0.702196
O O9 0.981049 0.511817 0.188231
O O10 0.056470 0.591291 0.071292
O O11 0.775103 0.562724 0.055710
O O12 0.000000 0.500000 0.000000
O O13 0.483591 0.923632 0.205380
O O14 0.321131 0.936804 0.364178
O O15 0.250000 0.000000 0.223059
O O16 0.308227 0.841455 0.189786
#
# Coordination Sequence:
#
# PCOD9408638 Si02
#       8
#     8   8   4   8   8   8   8   8
#     4  10  19  37  52  77 117 161 187 228 296 367
#     4  11  22  36  56  84 119 156 200 247 303 358
#     4  12  20  38  60  80 126 154 202 262 288 350
#     4   9  16  31  47  77 106 145 189 235 271 345
#     4   8  16  31  55  75  93 138 195 230 280 346
#     4  10  18  39  58  73 115 155 189 240 302 357
#     4   9  18  28  52  72 113 148 186 229 285 345
#     4  11  22  36  56  85 117 157 207 246 295 367
#
# _framework density 20.765981
#
# number of rings (size 3 to 8) (size 9 to 14) (size 15 to 20)
#    0.000    2.133    2.667    3.600    1.867    0.000 
#    0.000    0.000    2.933    0.800    0.000    0.000 
#    0.000    0.000    0.000    0.000    0.000    0.000 
#
# Total GULP energy -334015.829892 kJ/mol
# GULP energy per Si atom -5566.930498 kJ/mol
# Density = 2.071872 g / cm^3
# Si number density = 20.765981 Si / 1000 Ang^3
#
#
#
# Elastic Constant Matrix: (Units=GPa)
#
#
# Indices 1 2 3 4 5 6 
#
# 1 78.7701 21.9485 10.5672 0.0000 0.0000 0.0000
# 2 21.9485 86.5018 11.0739 0.0000 0.0000 0.0000
# 3 10.5672 11.0739 48.4666 0.0000 0.0000 0.0000
# 4 0.0000 0.0000 0.0000 18.5563 0.0000 0.0000
# 5 0.0000 0.0000 0.0000 0.0000 24.0251 0.0000
# 6 0.0000 0.0000 0.0000 0.0000 0.0000 11.4093
#
#
#
# Elastic Compliance Matrix: (Units=1/GPa)
#
#
# Indices 1 2 3 4 5 6 
#
# 1 0.013904 -0.003234 -0.002292 0.000000 0.000000 0.000000
# 2 -0.003234 0.012661 -0.002188 0.000000 0.000000 0.000000
# 3 -0.002292 -0.002188 0.021632 0.000000 0.000000 0.000000
# 4 0.000000 0.000000 0.000000 0.053890 0.000000 0.000000
# 5 0.000000 0.000000 0.000000 0.000000 0.041623 0.000000
# 6 0.000000 0.000000 0.000000 0.000000 0.000000 0.087648
#
#
# Mechanical properties :
#
#
# Convention : Reuss Voigt Hill
#
# Bulk Modulus (GPa) = 30.51719 33.43531 31.97625
# Shear Modulus (GPa) = 19.40158 22.14138 20.77148
#
# Velocity S-wave (km/s) = 3.05994 3.26887 3.16613
# Velocity P-wave (km/s) = 5.21651 5.51210 5.36634
#
# Compressibility (1/GPa) = 0.03276842
#
# Stress axis : x y z
#
# Youngs Moduli (GPa) = 71.92197 78.98139 46.22680
#
# Poissons Ratio (x) = 0.25546 0.10597
# Poissons Ratio (y) = 0.23263 0.10113
# Poissons Ratio (z) = 0.16488 0.17279
#
# Static dielectric constant tensor:
#      x y z
#    x 1.825410 0.000000 0.000000 
#    y 0.000000 1.778980 0.000000 
#    z 0.000000 0.000000 1.797680 
# 
# From -- ./inp_files/25195.got.cif
#   From: 2010.05.17/outbox.cif.g08.bks.cpg/sg52_13_cif.got.tgz:25195.got - 2010.06.03 12:15:38.
