data_PCOD9408440
_publ_section_title
;
Structure prediction by ZEFSAII (Michael W. Deem and Ramdas Pophale) SiO2 
 PCOD9408440
Probable space group: P N N A
;
_chemical_formula_sum "Si O2"
_cell_formula_units_Z 56
_cell_length_a 15.223873
_cell_length_b 9.672247
_cell_length_c 21.305218
_cell_angle_alpha 90.000000
_cell_angle_beta 90.000000
_cell_angle_gamma 90.000000
_cell_volume 3137.173323
_symmetry_space_group_name_H-M "P N N A"
_symmetry_group_IT_number 52
_symmetry_cell_setting 'orthorhombic'
loop_
_space_group_symop_operation_xyz
x,y,z
1/2-x,-y,z
x,1/2-y,1/2-z
1/2-x,1/2+y,1/2-z
-x,-y,-z
1/2+x,y,-z
-x,1/2+y,1/2+z
1/2+x,1/2-y,1/2+z
loop_
_atom_site_type_symbol
_atom_site_label
_atom_site_fract_x
_atom_site_fract_y
_atom_site_fract_z
Si Si1 0.620804 0.750000 0.250000
Si Si2 0.163290 0.348891 0.604202
Si Si3 0.169513 0.403734 0.078732
Si Si4 0.987878 0.169474 0.372638
Si Si5 0.750000 0.500000 0.283088
Si Si6 0.938449 0.403991 0.461205
Si Si7 0.352172 0.545330 0.931925
Si Si8 0.729351 0.845768 0.977946
O O1 0.556560 0.770264 0.309736
O O2 0.681294 0.608461 0.250825
O O3 0.199483 0.391660 0.671457
O O4 0.110473 0.484492 0.582803
O O5 0.124731 0.194933 0.598629
O O6 0.236510 0.334368 0.549748
O O7 0.250000 0.500000 0.100055
O O8 0.217573 0.258690 0.064444
O O9 0.086114 0.393560 0.124692
O O10 0.139193 0.449663 0.007994
O O11 0.991429 0.295452 0.421297
O O12 0.918023 0.062961 0.401681
O O13 0.873536 0.328274 0.510395
O O14 0.000000 0.500000 0.500000
O O15 0.250000 0.500000 0.919730
O O16 0.750000 0.000000 0.956529
#
# Coordination Sequence:
#
# PCOD9408440 Si02
#       8
#     4   8   8   8   4   8   8   8
#     4  12  28  40  64  86 120 170 208 258 300 382
#     4  10  18  34  54  80 118 157 194 234 288 363
#     4  10  21  36  59  85 119 158 198 252 310 362
#     4  12  23  40  56  90 125 158 212 249 308 363
#     4  12  22  42  58  84 120 166 208 240 306 368
#     4  11  19  32  58  88 122 156 196 257 309 370
#     4  10  20  33  59  94 126 160 188 249 317 371
#     4   9  16  31  52  84 118 155 188 234 304 357
#
# _framework density 17.850465
#
# number of rings (size 3 to 8) (size 9 to 14) (size 15 to 20)
#    0.000    1.429    3.571    6.429    3.000    1.143 
#    0.000    0.000    0.000    2.571    0.000    0.000 
#    0.000    0.000    0.000    0.000    0.000    0.000 
#
# Total GULP energy -311871.608563 kJ/mol
# GULP energy per Si atom -5569.135867 kJ/mol
# Density = 1.780984 g / cm^3
# Si number density = 17.850465 Si / 1000 Ang^3
#
#
#
# Elastic Constant Matrix: (Units=GPa)
#
#
# Indices 1 2 3 4 5 6 
#
# 1 93.8523 28.4453 28.5796 0.0000 0.0000 0.0000
# 2 28.4453 99.5090 21.9997 0.0000 0.0000 0.0000
# 3 28.5796 21.9997 36.3034 0.0000 0.0000 0.0000
# 4 0.0000 0.0000 0.0000 16.7376 0.0000 0.0000
# 5 0.0000 0.0000 0.0000 0.0000 1.4920 0.0000
# 6 0.0000 0.0000 0.0000 0.0000 0.0000 21.3535
#
#
#
# Elastic Compliance Matrix: (Units=1/GPa)
#
#
# Indices 1 2 3 4 5 6 
#
# 1 0.014303 -0.001847 -0.010141 0.000000 0.000000 0.000000
# 2 -0.001847 0.011842 -0.005723 0.000000 0.000000 0.000000
# 3 -0.010141 -0.005723 0.038997 0.000000 0.000000 0.000000
# 4 0.000000 0.000000 0.000000 0.059746 0.000000 0.000000
# 5 0.000000 0.000000 0.000000 0.000000 0.670247 0.000000
# 6 0.000000 0.000000 0.000000 0.000000 0.000000 0.046831
#
#
# Mechanical properties :
#
#
# Convention : Reuss Voigt Hill
#
# Bulk Modulus (GPa) = 33.64527 43.07933 38.36230
# Shear Modulus (GPa) = 5.63512 17.95929 11.79720
#
# Velocity S-wave (km/s) = 1.77868 3.17534 2.57357
# Velocity P-wave (km/s) = 4.80703 6.13430 5.51077
#
# Compressibility (1/GPa) = 0.02972186
#
# Stress axis : x y z
#
# Youngs Moduli (GPa) = 69.91672 84.44239 25.64313
#
# Poissons Ratio (x) = 0.15593 0.26004
# Poissons Ratio (y) = 0.12911 0.14675
# Poissons Ratio (z) = 0.70901 0.48324
#
# Static dielectric constant tensor:
#      x y z
#    x 1.589610 0.000000 0.000000 
#    y 0.000000 1.670310 0.000000 
#    z 0.000000 0.000000 1.574850 
# 
# From -- ./inp_files/37378.got.cif
#   From: 2010.05.17/outbox.cif.g08.bks.cpg/sg52_19_cif.got.tgz:37378.got - 2010.06.03 12:15:38.
