data_PCOD9408264
_publ_section_title
;
Structure prediction by ZEFSAII (Michael W. Deem and Ramdas Pophale) SiO2 
 PCOD9408264
Probable space group: P N N A
;
_chemical_formula_sum "Si O2"
_cell_formula_units_Z 56
_cell_length_a 21.988408
_cell_length_b 11.481537
_cell_length_c 12.555661
_cell_angle_alpha 90.000000
_cell_angle_beta 90.000000
_cell_angle_gamma 90.000000
_cell_volume 3169.811216
_symmetry_space_group_name_H-M "P N N A"
_symmetry_group_IT_number 52
_symmetry_cell_setting 'orthorhombic'
loop_
_space_group_symop_operation_xyz
x,y,z
1/2-x,-y,z
x,1/2-y,1/2-z
1/2-x,1/2+y,1/2-z
-x,-y,-z
1/2+x,y,-z
-x,1/2+y,1/2+z
1/2+x,1/2-y,1/2+z
loop_
_atom_site_type_symbol
_atom_site_label
_atom_site_fract_x
_atom_site_fract_y
_atom_site_fract_z
Si Si1 0.179843 0.988913 0.659560
Si Si2 0.617598 0.643142 0.331066
Si Si3 0.423612 0.666008 0.848179
Si Si4 0.549769 0.543889 0.825344
Si Si5 0.397683 0.322436 0.992047
Si Si6 0.008910 0.458299 0.379146
Si Si7 0.961413 0.704322 0.925216
O O1 0.141287 0.106670 0.668268
O O2 0.250000 0.000000 0.632412
O O3 0.172025 0.922351 0.772367
O O4 0.143226 0.915650 0.570429
O O5 0.603122 0.750000 0.250000
O O6 0.627118 0.698684 0.447878
O O7 0.559491 0.559075 0.334943
O O8 0.437206 0.750000 0.750000
O O9 0.480049 0.575959 0.855802
O O10 0.426687 0.724482 0.963647
O O11 0.547250 0.542560 0.697288
O O12 0.561870 0.412798 0.868226
O O13 0.593037 0.635039 0.886714
O O14 0.467199 0.319019 0.949491
O O15 0.000000 0.500000 0.500000
O O16 0.038173 0.329670 0.369452
#
# Coordination Sequence:
#
# PCOD9408264 Si02
#       7
#     8   8   8   8   8   8   8
#     4  11  20  33  53  76 108 151 187 223 272 320
#     4   9  18  34  51  70 106 150 178 215 263 340
#     4  11  20  31  48  79 117 136 172 235 276 317
#     4  11  17  33  53  71 107 147 176 219 278 335
#     4   9  17  32  52  72  98 142 192 214 254 341
#     4  11  20  29  49  83 112 137 168 218 288 344
#     4  10  18  31  52  73 104 148 171 209 278 336
#
# _framework density 17.666667
#
# number of rings (size 3 to 8) (size 9 to 14) (size 15 to 20)
#    0.000    1.714    4.286    3.857    0.000    1.714 
#    0.000    0.000    0.000    0.000    0.000    1.000 
#   30.000    0.000    0.000    0.000    0.000    0.000 
#
# Total GULP energy -311804.578078 kJ/mol
# GULP energy per Si atom -5567.938894 kJ/mol
# Density = 1.762646 g / cm^3
# Si number density = 17.666667 Si / 1000 Ang^3
#
#
#
# Elastic Constant Matrix: (Units=GPa)
#
#
# Indices 1 2 3 4 5 6 
#
# 1 59.8435 23.4482 25.0295 0.0000 0.0000 0.0000
# 2 23.4482 37.2684 19.7051 0.0000 0.0000 0.0000
# 3 25.0295 19.7051 97.1940 0.0000 0.0000 0.0000
# 4 0.0000 0.0000 0.0000 28.2753 0.0000 0.0000
# 5 0.0000 0.0000 0.0000 0.0000 7.2265 0.0000
# 6 0.0000 0.0000 0.0000 0.0000 0.0000 7.6324
#
#
#
# Elastic Compliance Matrix: (Units=1/GPa)
#
#
# Indices 1 2 3 4 5 6 
#
# 1 0.023120 -0.012767 -0.003366 0.000000 0.000000 0.000000
# 2 -0.012767 0.037104 -0.004235 0.000000 0.000000 0.000000
# 3 -0.003366 -0.004235 0.012014 0.000000 0.000000 0.000000
# 4 0.000000 0.000000 0.000000 0.035367 0.000000 0.000000
# 5 0.000000 0.000000 0.000000 0.000000 0.138379 0.000000
# 6 0.000000 0.000000 0.000000 0.000000 0.000000 0.131021
#
#
# Mechanical properties :
#
#
# Convention : Reuss Voigt Hill
#
# Bulk Modulus (GPa) = 31.74237 36.74127 34.24182
# Shear Modulus (GPa) = 11.67567 17.03504 14.35536
#
# Velocity S-wave (km/s) = 2.57356 3.10860 2.85365
# Velocity P-wave (km/s) = 5.18048 5.80746 5.50291
#
# Compressibility (1/GPa) = 0.03150364
#
# Stress axis : x y z
#
# Youngs Moduli (GPa) = 43.25182 26.95118 83.23663
#
# Poissons Ratio (x) = 0.34409 0.28014
# Poissons Ratio (y) = 0.55220 0.35248
# Poissons Ratio (z) = 0.14557 0.11413
#
# Static dielectric constant tensor:
#      x y z
#    x 1.541960 0.000000 0.000000 
#    y 0.000000 1.683400 0.000000 
#    z 0.000000 0.000000 1.688330 
# 
# From -- ./inp_files/21713.got.cif
#   From: 2010.05.17/outbox.cif.g08.bks.cpg/sg52_11_cif.got.tgz:21713.got - 2010.06.03 12:15:38.
