data_PCOD9408903
_publ_section_title
;
Structure prediction by ZEFSAII (Michael W. Deem and Ramdas Pophale) SiO2 
 PCOD9408903
Probable space group: P N N A
;
_chemical_formula_sum "Si O2"
_cell_formula_units_Z 52
_cell_length_a 25.302978
_cell_length_b 10.164722
_cell_length_c 11.592881
_cell_angle_alpha 90.000000
_cell_angle_beta 90.000000
_cell_angle_gamma 90.000000
_cell_volume 2981.662760
_symmetry_space_group_name_H-M "P N N A"
_symmetry_group_IT_number 52
_symmetry_cell_setting 'orthorhombic'
loop_
_space_group_symop_operation_xyz
x,y,z
1/2-x,-y,z
x,1/2-y,1/2-z
1/2-x,1/2+y,1/2-z
-x,-y,-z
1/2+x,y,-z
-x,1/2+y,1/2+z
1/2+x,1/2-y,1/2+z
loop_
_atom_site_type_symbol
_atom_site_label
_atom_site_fract_x
_atom_site_fract_y
_atom_site_fract_z
Si Si1 0.757180 0.848805 0.354537
Si Si2 0.572182 0.250000 0.250000
Si Si3 0.547891 0.661103 0.493700
Si Si4 0.499790 0.985523 0.805104
Si Si5 0.632373 0.382407 0.060905
Si Si6 0.469546 0.887543 0.427046
Si Si7 0.137532 0.817680 0.625170
O O1 0.770689 0.750000 0.250000
O O2 0.805075 0.856415 0.445799
O O3 0.699937 0.804471 0.400642
O O4 0.750000 0.000000 0.311244
O O5 0.533814 0.126657 0.255664
O O6 0.609178 0.266237 0.139915
O O7 0.543444 0.588001 0.615978
O O8 0.540010 0.553938 0.394178
O O9 0.497033 0.754934 0.472869
O O10 0.599314 0.747251 0.466357
O O11 0.519924 0.084258 0.707396
O O12 0.626566 0.525557 0.123396
O O13 0.592757 0.389485 0.953586
O O14 0.500000 0.000000 0.500000
O O15 0.127901 0.750000 0.750000
#
# Coordination Sequence:
#
# PCOD9408903 Si02
#       7
#     8   4   8   8   8   8   8
#     4   9  19  33  51  77 106 142 182 225 280 330
#     4  12  18  32  50  76 112 134 174 214 266 326
#     4  11  21  36  52  77 112 141 182 223 273 329
#     4  11  23  33  52  80 109 147 182 216 275 339
#     4  11  20  31  53  76 108 143 177 223 272 326
#     4  12  20  34  51  77 110 144 175 220 271 326
#     4  10  19  34  52  75 109 143 178 227 279 329
#
# _framework density 17.439933
#
# number of rings (size 3 to 8) (size 9 to 14) (size 15 to 20)
#    0.000    1.231    5.385    2.308    0.000    0.000 
#    0.000    0.000    0.000    0.000    0.000   12.923 
#    0.000    0.000    0.000    0.000    0.000    0.000 
#
# Total GULP energy -289819.022371 kJ/mol
# GULP energy per Si atom -5573.442738 kJ/mol
# Density = 1.740024 g / cm^3
# Si number density = 17.439933 Si / 1000 Ang^3
#
#
#
# Elastic Constant Matrix: (Units=GPa)
#
#
# Indices 1 2 3 4 5 6 
#
# 1 111.4728 14.7540 23.4258 0.0000 0.0000 0.0000
# 2 14.7540 45.3444 0.2609 0.0000 0.0000 0.0000
# 3 23.4258 0.2609 58.5056 0.0000 0.0000 0.0000
# 4 0.0000 0.0000 0.0000 22.9272 0.0000 0.0000
# 5 0.0000 0.0000 0.0000 0.0000 22.9230 0.0000
# 6 0.0000 0.0000 0.0000 0.0000 0.0000 21.4229
#
#
#
# Elastic Compliance Matrix: (Units=1/GPa)
#
#
# Indices 1 2 3 4 5 6 
#
# 1 0.010271 -0.003318 -0.004098 0.000000 0.000000 0.000000
# 2 -0.003318 0.023126 0.001226 0.000000 0.000000 0.000000
# 3 -0.004098 0.001226 0.018728 0.000000 0.000000 0.000000
# 4 0.000000 0.000000 0.000000 0.043616 0.000000 0.000000
# 5 0.000000 0.000000 0.000000 0.000000 0.043624 0.000000
# 6 0.000000 0.000000 0.000000 0.000000 0.000000 0.046679
#
#
# Mechanical properties :
#
#
# Convention : Reuss Voigt Hill
#
# Bulk Modulus (GPa) = 25.16124 32.46712 28.81418
# Shear Modulus (GPa) = 23.62124 25.24675 24.43400
#
# Velocity S-wave (km/s) = 3.68426 3.80891 3.74710
# Velocity P-wave (km/s) = 5.70588 6.16447 5.93960
#
# Compressibility (1/GPa) = 0.03974366
#
# Stress axis : x y z
#
# Youngs Moduli (GPa) = 97.36011 43.24119 53.39693
#
# Poissons Ratio (x) = 0.14349 0.21881
# Poissons Ratio (y) = 0.32308 -0.06544
# Poissons Ratio (z) = 0.39896 -0.05299
#
# Static dielectric constant tensor:
#      x y z
#    x 1.620900 0.000000 0.000000 
#    y 0.000000 1.659410 0.000000 
#    z 0.000000 0.000000 1.606930 
# 
# From -- ./inp_files/22818.got.cif
#   From: 2010.05.17/outbox.cif.g08.bks.cpg/sg52_12_cif.got.tgz:22818.got - 2010.06.03 12:15:38.
