data_PCOD9408843
_publ_section_title
;
Structure prediction by ZEFSAII (Michael W. Deem and Ramdas Pophale) SiO2 
 PCOD9408843
Probable space group: P N N A
;
_chemical_formula_sum "Si O2"
_cell_formula_units_Z 48
_cell_length_a 19.020956
_cell_length_b 16.051477
_cell_length_c 7.472242
_cell_angle_alpha 90.000000
_cell_angle_beta 90.000000
_cell_angle_gamma 90.000000
_cell_volume 2281.383365
_symmetry_space_group_name_H-M "P N N A"
_symmetry_group_IT_number 52
_symmetry_cell_setting 'orthorhombic'
loop_
_space_group_symop_operation_xyz
x,y,z
1/2-x,-y,z
x,1/2-y,1/2-z
1/2-x,1/2+y,1/2-z
-x,-y,-z
1/2+x,y,-z
-x,1/2+y,1/2+z
1/2+x,1/2-y,1/2+z
loop_
_atom_site_type_symbol
_atom_site_label
_atom_site_fract_x
_atom_site_fract_y
_atom_site_fract_z
Si Si1 0.548527 0.578123 0.465250
Si Si2 0.536156 0.260774 0.530385
Si Si3 0.083741 0.834065 0.625227
Si Si4 0.271722 0.091936 0.485072
Si Si5 0.213191 0.584326 0.442354
Si Si6 0.696255 0.244059 0.968743
O O1 0.500000 0.500000 0.500000
O O2 0.504552 0.657357 0.530425
O O3 0.554641 0.595142 0.254638
O O4 0.629290 0.578910 0.530074
O O5 0.541361 0.250000 0.750000
O O6 0.478827 0.189510 0.489270
O O7 0.616045 0.267368 0.471421
O O8 0.099117 0.750000 0.750000
O O9 0.153182 0.871576 0.541572
O O10 0.272930 0.086759 0.269868
O O11 0.219401 0.165840 0.538466
O O12 0.250000 0.000000 0.551377
O O13 0.250000 0.500000 0.512638
O O14 0.250666 0.668314 0.516365
O O15 0.697709 0.250000 0.750000
#
# Coordination Sequence:
#
# PCOD9408843 Si02
#       6
#     8   8   8   8   8   8
#     4  10  19  33  54  80 109 141 180 223 267 318
#     4   8  16  31  52  76 104 140 175 213 271 325
#     4   9  19  36  56  76 106 146 177 219 277 328
#     4  10  21  36  55  80 110 146 184 223 273 325
#     4  10  20  33  55  83 109 142 185 226 264 317
#     4   9  16  31  54  77 104 139 180 224 264 317
#
# _framework density 21.039867999999998
#
# number of rings (size 3 to 8) (size 9 to 14) (size 15 to 20)
#    0.000    3.000    0.000    3.000    0.000    4.667 
#    0.000    5.000    0.000    2.000    0.000    0.000 
#    0.000    0.000    0.000    0.000    0.000    0.000 
#
# Total GULP energy -267326.133133 kJ/mol
# GULP energy per Si atom -5569.294440 kJ/mol
# Density = 2.099198 g / cm^3
# Si number density = 21.039868 Si / 1000 Ang^3
#
#
#
# Elastic Constant Matrix: (Units=GPa)
#
#
# Indices 1 2 3 4 5 6 
#
# 1 216.5944 109.0123 2.0419 0.0000 0.0000 0.0000
# 2 109.0123 168.4642 19.1367 0.0000 0.0000 0.0000
# 3 2.0419 19.1367 35.4966 0.0000 0.0000 0.0000
# 4 0.0000 0.0000 0.0000 7.0976 0.0000 0.0000
# 5 0.0000 0.0000 0.0000 0.0000 15.7806 0.0000
# 6 0.0000 0.0000 0.0000 0.0000 0.0000 -530.5238
#
#
#
# Elastic Compliance Matrix: (Units=1/GPa)
#
#
# Indices 1 2 3 4 5 6 
#
# 1 0.007001 -0.004777 0.002173 0.000000 0.000000 0.000000
# 2 -0.004777 0.009583 -0.004891 0.000000 0.000000 0.000000
# 3 0.002173 -0.004891 0.030684 0.000000 0.000000 0.000000
# 4 0.000000 0.000000 0.000000 0.140893 0.000000 0.000000
# 5 0.000000 0.000000 0.000000 0.000000 0.063369 0.000000
# 6 0.000000 0.000000 0.000000 0.000000 0.000000 -0.001885
#
#
# Mechanical properties :
#
#
# Convention : Reuss Voigt Hill
#
# Bulk Modulus (GPa) = 30.98306 75.65968 53.32137
# Shear Modulus (GPa) = 18.15580 -82.17150 -32.00785
#
# Velocity S-wave (km/s) = 2.94074 -6.25619 -3.90461
# Velocity P-wave (km/s) = 5.12723 4.01850 2.25168
#
# Compressibility (1/GPa) = 0.03227570
#
# Stress axis : x y z
#
# Youngs Moduli (GPa) = 142.84370 104.35456 32.59058
#
# Poissons Ratio (x) = 0.49849 -0.07081
# Poissons Ratio (y) = 0.68235 0.15941
# Poissons Ratio (z) = -0.31034 0.51044
#
# Static dielectric constant tensor:
#      x y z
#    x 1.797750 0.000000 0.000000 
#    y 0.000000 1.848380 0.000000 
#    z 0.000000 0.000000 1.831600 
# 
# From -- ./inp_files/12070.got.cif
#   From: 2010.05.17/outbox.cif.g08.bks.cpg/sg52_7_cif.got.tgz:12070.got - 2010.06.03 12:15:38.
