data_PCOD9408862
_publ_section_title
;
Structure prediction by ZEFSAII (Michael W. Deem and Ramdas Pophale) SiO2 
 PCOD9408862
Probable space group: P N N A
;
_chemical_formula_sum "Si O2"
_cell_formula_units_Z 60
_cell_length_a 18.974564
_cell_length_b 10.335649
_cell_length_c 13.045341
_cell_angle_alpha 90.000000
_cell_angle_beta 90.000000
_cell_angle_gamma 90.000000
_cell_volume 2558.379659
_symmetry_space_group_name_H-M "P N N A"
_symmetry_group_IT_number 52
_symmetry_cell_setting 'orthorhombic'
loop_
_space_group_symop_operation_xyz
x,y,z
1/2-x,-y,z
x,1/2-y,1/2-z
1/2-x,1/2+y,1/2-z
-x,-y,-z
1/2+x,y,-z
-x,1/2+y,1/2+z
1/2+x,1/2-y,1/2+z
loop_
_atom_site_type_symbol
_atom_site_label
_atom_site_fract_x
_atom_site_fract_y
_atom_site_fract_z
Si Si1 0.637870 0.147382 0.382013
Si Si2 0.516196 0.010748 0.826023
Si Si3 0.340405 0.238389 0.366395
Si Si4 0.356329 0.936514 0.830487
Si Si5 0.021254 0.594500 0.094730
Si Si6 0.152067 0.496568 0.453997
Si Si7 0.813775 0.807009 0.596060
Si Si8 0.574955 0.250000 0.750000
O O1 0.655774 0.047243 0.290858
O O2 0.665737 0.289301 0.352808
O O3 0.553355 0.167310 0.389382
O O4 0.666917 0.116699 0.493288
O O5 0.571832 0.977815 0.914527
O O6 0.524060 0.165514 0.820205
O O7 0.439724 0.956290 0.845902
O O8 0.532059 0.967057 0.708385
O O9 0.364873 0.250000 0.250000
O O10 0.407313 0.176475 0.425594
O O11 0.314733 0.382210 0.397208
O O12 0.266222 0.164181 0.373374
O O13 0.329308 0.017382 0.926550
O O14 0.000000 0.500000 0.000000
O O15 0.169316 0.347641 0.425135
O O16 0.870112 0.835819 0.684563
#
# Coordination Sequence:
#
# PCOD9408862 Si02
#       8
#     8   8   8   8   8   8   8   4
#     4   9  19  37  61  84 120 163 211 261 323 400
#     4  10  19  33  55  87 124 165 209 264 328 394
#     4  12  23  40  65  95 133 176 221 284 351 409
#     4   9  18  33  60  87 111 157 215 260 319 388
#     4  11  23  38  58  90 133 173 218 266 335 416
#     4  10  20  35  60  94 121 161 215 280 326 399
#     4  10  21  39  59  91 129 168 217 268 345 411
#     4  10  20  32  52  84 130 164 204 270 334 398
#
# _framework density 23.452345000000001
#
# number of rings (size 3 to 8) (size 9 to 14) (size 15 to 20)
#    0.000    1.867    2.000    2.400    1.867    3.200 
#    0.000    2.667    0.000   20.800    0.000    0.000 
#    0.000    0.000    0.000    0.000    0.000    0.000 
#
# Total GULP energy -334130.575353 kJ/mol
# GULP energy per Si atom -5568.842923 kJ/mol
# Density = 2.339897 g / cm^3
# Si number density = 23.452345 Si / 1000 Ang^3
#
#
#
# Elastic Constant Matrix: (Units=GPa)
#
#
# Indices 1 2 3 4 5 6 
#
# 1 68.8319 13.8105 17.6917 0.0000 0.0000 0.0000
# 2 13.8105 37.4499 13.8240 0.0000 0.0000 0.0000
# 3 17.6917 13.8240 141.5012 0.0000 0.0000 0.0000
# 4 0.0000 0.0000 0.0000 28.1151 0.0000 0.0000
# 5 0.0000 0.0000 0.0000 0.0000 63.4651 0.0000
# 6 0.0000 0.0000 0.0000 0.0000 0.0000 2.7013
#
#
#
# Elastic Compliance Matrix: (Units=1/GPa)
#
#
# Indices 1 2 3 4 5 6 
#
# 1 0.015981 -0.005349 -0.001475 0.000000 0.000000 0.000000
# 2 -0.005349 0.029491 -0.002212 0.000000 0.000000 0.000000
# 3 -0.001475 -0.002212 0.007468 0.000000 0.000000 0.000000
# 4 0.000000 0.000000 0.000000 0.035568 0.000000 0.000000
# 5 0.000000 0.000000 0.000000 0.000000 0.015757 0.000000
# 6 0.000000 0.000000 0.000000 0.000000 0.000000 0.370189
#
#
# Mechanical properties :
#
#
# Convention : Reuss Voigt Hill
#
# Bulk Modulus (GPa) = 28.68066 37.60393 33.14230
# Shear Modulus (GPa) = 9.91771 32.35341 21.13556
#
# Velocity S-wave (km/s) = 2.05865 3.71824 3.00528
# Velocity P-wave (km/s) = 4.23162 5.87391 5.11905
#
# Compressibility (1/GPa) = 0.03486670
#
# Stress axis : x y z
#
# Youngs Moduli (GPa) = 62.57616 33.90816 133.91001
#
# Poissons Ratio (x) = 0.18136 0.19758
# Poissons Ratio (y) = 0.33469 0.29627
# Poissons Ratio (z) = 0.09233 0.07502
#
# Static dielectric constant tensor:
#      x y z
#    x 1.911940 0.000000 0.000000 
#    y 0.000000 1.945920 0.000000 
#    z 0.000000 0.000000 1.938950 
# 
# From -- ./inp_files/21758.got.cif
#   From: 2010.05.17/outbox.cif.g08.bks.cpg/sg52_11_cif.got.tgz:21758.got - 2010.06.03 12:15:38.
