data_PCOD9408859
_publ_section_title
;
Structure prediction by ZEFSAII (Michael W. Deem and Ramdas Pophale) SiO2 
 PCOD9408859
Probable space group: P N N A
;
_chemical_formula_sum "Si O2"
_cell_formula_units_Z 48
_cell_length_a 5.086556
_cell_length_b 16.002914
_cell_length_c 31.119691
_cell_angle_alpha 90.000000
_cell_angle_beta 90.000000
_cell_angle_gamma 90.000000
_cell_volume 2533.134079
_symmetry_space_group_name_H-M "P N N A"
_symmetry_group_IT_number 52
_symmetry_cell_setting 'orthorhombic'
loop_
_space_group_symop_operation_xyz
x,y,z
1/2-x,-y,z
x,1/2-y,1/2-z
1/2-x,1/2+y,1/2-z
-x,-y,-z
1/2+x,y,-z
-x,1/2+y,1/2+z
1/2+x,1/2-y,1/2+z
loop_
_atom_site_type_symbol
_atom_site_label
_atom_site_fract_x
_atom_site_fract_y
_atom_site_fract_z
Si Si1 0.516114 0.946107 0.717418
Si Si2 0.319002 0.207653 0.337553
Si Si3 0.157412 0.887719 0.187416
Si Si4 0.713695 0.906895 0.468903
Si Si5 0.652490 0.587050 0.371672
Si Si6 0.179177 0.728369 0.894167
O O1 0.534791 0.861593 0.690609
O O2 0.600119 0.925211 0.766177
O O3 0.750000 0.000000 0.697565
O O4 0.250000 0.000000 0.716679
O O5 0.276516 0.289731 0.308736
O O6 0.528476 0.227168 0.374794
O O7 0.039147 0.192300 0.360728
O O8 0.395813 0.923574 0.158496
O O9 0.888843 0.894328 0.161061
O O10 0.460426 0.901509 0.499271
O O11 0.688893 0.832230 0.434963
O O12 0.750000 0.000000 0.448266
O O13 0.750000 0.500000 0.393317
O O14 0.611954 0.672053 0.399301
#
# Coordination Sequence:
#
# PCOD9408859 Si02
#       6
#     8   8   8   8   8   8
#     4  12  23  34  50  74 105 142 187 233 279 322
#     4  10  22  37  52  76 107 144 182 223 279 330
#     4  10  20  35  53  72 103 146 191 232 268 316
#     4  10  21  38  61  86 109 139 178 218 265 329
#     4  10  19  33  55  81 107 140 185 229 271 318
#     4  10  21  37  58  81 109 142 176 223 277 329
#
# _framework density 18.948858999999999
#
# number of rings (size 3 to 8) (size 9 to 14) (size 15 to 20)
#    0.000    1.667    0.000    5.500    0.000    2.000 
#    0.000    6.667    0.000    1.000    0.000    0.000 
#    0.000    0.000    0.000    0.000    0.000    0.000 
#
# Total GULP energy -267470.882782 kJ/mol
# GULP energy per Si atom -5572.310058 kJ/mol
# Density = 1.890573 g / cm^3
# Si number density = 18.948859 Si / 1000 Ang^3
#
#
#
# Elastic Constant Matrix: (Units=GPa)
#
#
# Indices 1 2 3 4 5 6 
#
# 1 130.6488 32.3917 17.0607 0.0000 0.0000 0.0000
# 2 32.3917 164.5371 63.1994 0.0000 0.0000 0.0000
# 3 17.0607 63.1994 43.5258 0.0000 0.0000 0.0000
# 4 0.0000 0.0000 0.0000 19.7916 0.0000 0.0000
# 5 0.0000 0.0000 0.0000 0.0000 15.2493 0.0000
# 6 0.0000 0.0000 0.0000 0.0000 0.0000 31.1342
#
#
#
# Elastic Compliance Matrix: (Units=1/GPa)
#
#
# Indices 1 2 3 4 5 6 
#
# 1 0.008119 -0.000850 -0.001948 0.000000 0.000000 0.000000
# 2 -0.000850 0.013831 -0.019749 0.000000 0.000000 0.000000
# 3 -0.001948 -0.019749 0.052414 0.000000 0.000000 0.000000
# 4 0.000000 0.000000 0.000000 0.050527 0.000000 0.000000
# 5 0.000000 0.000000 0.000000 0.000000 0.065577 0.000000
# 6 0.000000 0.000000 0.000000 0.000000 0.000000 0.032119
#
#
# Mechanical properties :
#
#
# Convention : Reuss Voigt Hill
#
# Bulk Modulus (GPa) = 34.16519 62.66837 48.41678
# Shear Modulus (GPa) = 18.02212 28.30567 23.16390
#
# Velocity S-wave (km/s) = 3.08732 3.86915 3.50014
# Velocity P-wave (km/s) = 5.54780 7.28729 6.47622
#
# Compressibility (1/GPa) = 0.02926956
#
# Stress axis : x y z
#
# Youngs Moduli (GPa) = 123.16372 72.30324 19.07894
#
# Poissons Ratio (x) = 0.06147 0.03717
# Poissons Ratio (y) = 0.10471 0.37679
# Poissons Ratio (z) = 0.23993 1.42791
#
# Static dielectric constant tensor:
#      x y z
#    x 1.637920 0.000000 0.000000 
#    y 0.000000 1.751120 0.000000 
#    z 0.000000 0.000000 1.608970 
# 
# From -- ./inp_files/41689.got.cif
#   From: 2010.05.17/outbox.cif.g08.bks.cpg/sg52_21_cif.got.tgz:41689.got - 2010.06.03 12:15:38.
