data_PCOD9408568
_publ_section_title
;
Structure prediction by ZEFSAII (Michael W. Deem and Ramdas Pophale) SiO2 
 PCOD9408568
Probable space group: P N N A
;
_chemical_formula_sum "Si O2"
_cell_formula_units_Z 36
_cell_length_a 8.891783
_cell_length_b 13.646439
_cell_length_c 13.923981
_cell_angle_alpha 90.000000
_cell_angle_beta 90.000000
_cell_angle_gamma 90.000000
_cell_volume 1689.552206
_symmetry_space_group_name_H-M "P N N A"
_symmetry_group_IT_number 52
_symmetry_cell_setting 'orthorhombic'
loop_
_space_group_symop_operation_xyz
x,y,z
1/2-x,-y,z
x,1/2-y,1/2-z
1/2-x,1/2+y,1/2-z
-x,-y,-z
1/2+x,y,-z
-x,1/2+y,1/2+z
1/2+x,1/2-y,1/2+z
loop_
_atom_site_type_symbol
_atom_site_label
_atom_site_fract_x
_atom_site_fract_y
_atom_site_fract_z
Si Si1 0.953185 0.595166 0.623824
Si Si2 0.562083 0.750000 0.250000
Si Si3 0.437995 0.400727 0.054992
Si Si4 0.750000 0.000000 0.034107
Si Si5 0.250000 0.500000 0.215337
Si Si6 0.249175 0.618289 0.878063
O O1 0.967670 0.705638 0.662376
O O2 0.116360 0.552410 0.593429
O O3 0.838882 0.575644 0.536000
O O4 0.880514 0.539685 0.715501
O O5 0.669339 0.664505 0.212327
O O6 0.325582 0.424710 0.141405
O O7 0.581691 0.349550 0.100482
O O8 0.500000 0.500000 0.000000
O O9 0.346673 0.350300 0.970850
O O10 0.250000 0.500000 0.869344
#
# Coordination Sequence:
#
# PCOD9408568 Si02
#       6
#     8   4   8   4   4   8
#     4  10  23  42  69  97 129 181 233 286 331 425
#     4  12  26  38  68 106 132 174 240 284 316 418
#     4  10  18  36  63  94 125 168 208 270 344 398
#     4   9  22  48  71  88 138 192 227 272 370 401
#     4  11  20  38  71  96 122 168 225 278 340 399
#     4  10  22  39  63  92 134 173 214 273 345 396
#
# _framework density 21.30742
#
# number of rings (size 3 to 8) (size 9 to 14) (size 15 to 20)
#    0.000    1.778    3.333    2.667    4.667    1.778 
#    0.000    1.111    0.000    0.000    0.000    0.000 
#    0.000    0.000    0.000    0.000    0.000    0.000 
#
# Total GULP energy -200888.380114 kJ/mol
# GULP energy per Si atom -5580.232781 kJ/mol
# Density = 2.125892 g / cm^3
# Si number density = 21.307420 Si / 1000 Ang^3
#
#
#
# Elastic Constant Matrix: (Units=GPa)
#
#
# Indices 1 2 3 4 5 6 
#
# 1 141.0812 28.1434 54.7623 0.0000 0.0000 0.0000
# 2 28.1434 48.8026 32.0256 0.0000 0.0000 0.0000
# 3 54.7623 32.0256 123.3347 0.0000 0.0000 0.0000
# 4 0.0000 0.0000 0.0000 11.8748 0.0000 0.0000
# 5 0.0000 0.0000 0.0000 0.0000 41.6454 0.0000
# 6 0.0000 0.0000 0.0000 0.0000 0.0000 15.3087
#
#
#
# Elastic Compliance Matrix: (Units=1/GPa)
#
#
# Indices 1 2 3 4 5 6 
#
# 1 0.008930 -0.003071 -0.003168 0.000000 0.000000 0.000000
# 2 -0.003071 0.025756 -0.005324 0.000000 0.000000 0.000000
# 3 -0.003168 -0.005324 0.010897 0.000000 0.000000 0.000000
# 4 0.000000 0.000000 0.000000 0.084212 0.000000 0.000000
# 5 0.000000 0.000000 0.000000 0.000000 0.024012 0.000000
# 6 0.000000 0.000000 0.000000 0.000000 0.000000 0.065322
#
#
# Mechanical properties :
#
#
# Convention : Reuss Voigt Hill
#
# Bulk Modulus (GPa) = 44.52981 60.34235 52.43608
# Shear Modulus (GPa) = 20.02074 26.98494 23.50284
#
# Velocity S-wave (km/s) = 3.06864 3.56259 3.32480
# Velocity P-wave (km/s) = 5.78787 6.73083 6.27709
#
# Compressibility (1/GPa) = 0.02245687
#
# Stress axis : x y z
#
# Youngs Moduli (GPa) = 111.97765 38.82642 91.76817
#
# Poissons Ratio (x) = 0.11924 0.29070
# Poissons Ratio (y) = 0.34390 0.48859
# Poissons Ratio (z) = 0.35471 0.20672
#
# Static dielectric constant tensor:
#      x y z
#    x 1.842360 0.000000 0.000000 
#    y 0.000000 1.800180 0.000000 
#    z 0.000000 0.000000 1.781670 
# 
# From -- ./inp_files/24347.got.cif
#   From: 2010.05.17/outbox.cif.g08.bks.cpg/sg52_13_cif.got.tgz:24347.got - 2010.06.03 12:15:38.
