data_PCOD9408995
_publ_section_title
;
Structure prediction by ZEFSAII (Michael W. Deem and Ramdas Pophale) SiO2 
 PCOD9408995
Probable space group: P N N A
;
_chemical_formula_sum "Si O2"
_cell_formula_units_Z 52
_cell_length_a 19.335673
_cell_length_b 12.938853
_cell_length_c 11.265715
_cell_angle_alpha 90.000000
_cell_angle_beta 90.000000
_cell_angle_gamma 90.000000
_cell_volume 2818.472695
_symmetry_space_group_name_H-M "P N N A"
_symmetry_group_IT_number 52
_symmetry_cell_setting 'orthorhombic'
loop_
_space_group_symop_operation_xyz
x,y,z
1/2-x,-y,z
x,1/2-y,1/2-z
1/2-x,1/2+y,1/2-z
-x,-y,-z
1/2+x,y,-z
-x,1/2+y,1/2+z
1/2+x,1/2-y,1/2+z
loop_
_atom_site_type_symbol
_atom_site_label
_atom_site_fract_x
_atom_site_fract_y
_atom_site_fract_z
Si Si1 0.508284 0.291131 0.871265
Si Si2 0.815254 0.570781 0.557951
Si Si3 0.489938 0.250000 0.250000
Si Si4 0.957354 0.898946 0.046661
Si Si5 0.599708 0.638533 0.950667
Si Si6 0.142277 0.069394 0.325944
Si Si7 0.737645 0.721532 0.884308
O O1 0.476610 0.250000 0.750000
O O2 0.527508 0.193257 0.952945
O O3 0.578503 0.351309 0.838011
O O4 0.452321 0.360418 0.939357
O O5 0.750000 0.500000 0.529556
O O6 0.877463 0.569187 0.465606
O O7 0.845708 0.540188 0.688003
O O8 0.785555 0.685879 0.571751
O O9 0.527652 0.341779 0.326762
O O10 0.443275 0.308292 0.154435
O O11 0.000000 0.000000 0.000000
O O12 0.623086 0.527416 0.905619
O O13 0.670702 0.702601 0.964125
O O14 0.212693 0.123052 0.369600
O O15 0.714183 0.750000 0.750000
#
# Coordination Sequence:
#
# PCOD9408995 Si02
#       7
#     8   8   4   8   8   8   8
#     4  11  22  40  59  88 124 162 205 259 318 380
#     4  11  22  35  64  91 125 162 203 268 325 377
#     4  10  24  38  60  96 126 168 216 258 306 386
#     4  11  23  41  65  92 129 169 215 264 316 390
#     4  11  22  35  61  90 121 158 210 259 308 385
#     4  11  19  37  58  91 121 158 201 265 333 372
#     4  10  19  35  54  89 125 148 198 257 318 371
#
# _framework density 18.44971
#
# number of rings (size 3 to 8) (size 9 to 14) (size 15 to 20)
#    0.000    1.231    3.846    4.154    4.308    0.000 
#    0.000    0.000    1.692    0.000    0.000    0.000 
#    0.000    0.000    0.000    0.000    0.000    0.000 
#
# Total GULP energy -290183.013163 kJ/mol
# GULP energy per Si atom -5580.442561 kJ/mol
# Density = 1.840772 g / cm^3
# Si number density = 18.449710 Si / 1000 Ang^3
#
#
#
# Elastic Constant Matrix: (Units=GPa)
#
#
# Indices 1 2 3 4 5 6 
#
# 1 125.5245 32.3064 42.5222 0.0000 0.0000 0.0000
# 2 32.3064 75.6172 14.7611 0.0000 0.0000 0.0000
# 3 42.5222 14.7611 66.9134 0.0000 0.0000 0.0000
# 4 0.0000 0.0000 0.0000 22.3249 0.0000 0.0000
# 5 0.0000 0.0000 0.0000 0.0000 25.7982 0.0000
# 6 0.0000 0.0000 0.0000 0.0000 0.0000 10.2074
#
#
#
# Elastic Compliance Matrix: (Units=1/GPa)
#
#
# Indices 1 2 3 4 5 6 
#
# 1 0.010960 -0.003473 -0.006199 0.000000 0.000000 0.000000
# 2 -0.003473 0.014920 -0.001085 0.000000 0.000000 0.000000
# 3 -0.006199 -0.001085 0.019123 0.000000 0.000000 0.000000
# 4 0.000000 0.000000 0.000000 0.044793 0.000000 0.000000
# 5 0.000000 0.000000 0.000000 0.000000 0.038762 0.000000
# 6 0.000000 0.000000 0.000000 0.000000 0.000000 0.097968
#
#
# Mechanical properties :
#
#
# Convention : Reuss Voigt Hill
#
# Bulk Modulus (GPa) = 42.56923 49.69273 46.13098
# Shear Modulus (GPa) = 19.54120 23.56378 21.55249
#
# Velocity S-wave (km/s) = 3.25800 3.57766 3.42157
# Velocity P-wave (km/s) = 6.10541 6.63768 6.37710
#
# Compressibility (1/GPa) = 0.02349114
#
# Stress axis : x y z
#
# Youngs Moduli (GPa) = 91.23888 67.02500 52.29221
#
# Poissons Ratio (x) = 0.23275 0.32416
# Poissons Ratio (y) = 0.31683 0.05672
# Poissons Ratio (z) = 0.56559 0.07270
#
# Static dielectric constant tensor:
#      x y z
#    x 1.641640 0.000000 0.000000 
#    y 0.000000 1.658050 0.000000 
#    z 0.000000 0.000000 1.640300 
# 
# From -- ./inp_files/20802.got.cif
#   From: 2010.05.17/outbox.cif.g08.bks.cpg/sg52_11_cif.got.tgz:20802.got - 2010.06.03 12:15:38.
