data_PCOD9408832
_publ_section_title
;
Structure prediction by ZEFSAII (Michael W. Deem and Ramdas Pophale) SiO2 
 PCOD9408832
Probable space group: P N N A
;
_chemical_formula_sum "Si O2"
_cell_formula_units_Z 24
_cell_length_a 27.659079
_cell_length_b 7.141876
_cell_length_c 5.198982
_cell_angle_alpha 90.000000
_cell_angle_beta 90.000000
_cell_angle_gamma 90.000000
_cell_volume 1026.995012
_symmetry_space_group_name_H-M "P N N A"
_symmetry_group_IT_number 52
_symmetry_cell_setting 'orthorhombic'
loop_
_space_group_symop_operation_xyz
x,y,z
1/2-x,-y,z
x,1/2-y,1/2-z
1/2-x,1/2+y,1/2-z
-x,-y,-z
1/2+x,y,-z
-x,1/2+y,1/2+z
1/2+x,1/2-y,1/2+z
loop_
_atom_site_type_symbol
_atom_site_label
_atom_site_fract_x
_atom_site_fract_y
_atom_site_fract_z
Si Si1 0.548566 0.119393 0.496772
Si Si2 0.851960 0.524323 0.204217
Si Si3 0.804888 0.971600 0.791523
O O1 0.555030 0.250000 0.750000
O O2 0.596182 0.997486 0.430825
O O3 0.500000 0.000000 0.500000
O O4 0.543830 0.250000 0.250000
O O5 0.847970 0.750000 0.250000
O O6 0.841254 0.453613 0.490565
O O7 0.813427 0.453575 0.995613
O O8 0.813142 0.750000 0.750000
O O9 0.750000 0.000000 0.877605
#
# Coordination Sequence:
#
# PCOD9408832 Si02
#       3
#     8   8   8
#     4  11  22  39  62  88 116 153 196 241 290 348
#     4   9  18  34  55  75 105 147 183 216 275 349
#     4  10  19  33  53  77 104 140 182 225 272 329
#
# _framework density 23.369150000000001
#
# number of rings (size 3 to 8) (size 9 to 14) (size 15 to 20)
#    0.000    2.000    0.000    7.000    0.000    0.000 
#    0.000    5.000    0.000    0.000    0.000    0.000 
#    0.000    0.000    0.000    0.000    0.000    0.000 
#
# Total GULP energy -133965.004693 kJ/mol
# GULP energy per Si atom -5581.875196 kJ/mol
# Density = 2.331596 g / cm^3
# Si number density = 23.369150 Si / 1000 Ang^3
#
#
#
# Elastic Constant Matrix: (Units=GPa)
#
#
# Indices 1 2 3 4 5 6 
#
# 1 136.4140 -3.5828 70.3962 0.0000 0.0000 0.0000
# 2 -3.5828 58.6535 15.3875 0.0000 0.0000 0.0000
# 3 70.3962 15.3875 193.0309 0.0000 0.0000 0.0000
# 4 0.0000 0.0000 0.0000 -2.3673 0.0000 0.0000
# 5 0.0000 0.0000 0.0000 0.0000 38.4867 0.0000
# 6 0.0000 0.0000 0.0000 0.0000 0.0000 27.1391
#
#
#
# Elastic Compliance Matrix: (Units=1/GPa)
#
#
# Indices 1 2 3 4 5 6 
#
# 1 0.009152 0.001465 -0.003454 0.000000 0.000000 0.000000
# 2 0.001465 0.017648 -0.001941 0.000000 0.000000 0.000000
# 3 -0.003454 -0.001941 0.006595 0.000000 0.000000 0.000000
# 4 0.000000 0.000000 0.000000 -0.422421 0.000000 0.000000
# 5 0.000000 0.000000 0.000000 0.000000 0.025983 0.000000
# 6 0.000000 0.000000 0.000000 0.000000 0.000000 0.036847
#
#
# Mechanical properties :
#
#
# Convention : Reuss Voigt Hill
#
# Bulk Modulus (GPa) = 39.16305 61.38890 50.27597
# Shear Modulus (GPa) = -16.13818 33.04486 8.45334
#
# Velocity S-wave (km/s) = -2.63073 3.76445 1.90399
# Velocity P-wave (km/s) = 2.75085 6.72466 5.13752
#
# Compressibility (1/GPa) = 0.02553427
#
# Stress axis : x y z
#
# Youngs Moduli (GPa) = 109.26921 56.66349 151.62970
#
# Poissons Ratio (x) = -0.08303 0.52378
# Poissons Ratio (y) = -0.16011 0.29434
# Poissons Ratio (z) = 0.37745 0.10999
#
# Static dielectric constant tensor:
#      x y z
#    x 1.967580 0.000000 0.000000 
#    y 0.000000 1.865640 0.000000 
#    z 0.000000 0.000000 1.869770 
# 
# From -- ./inp_files/4697.got.cif
#   From: 2010.05.17/outbox.cif.g08.bks.cpg/sg52_3_cif.got.tgz:4697.got - 2010.06.03 12:15:38.
