data_PCOD9408569
_publ_section_title
;
Structure prediction by ZEFSAII (Michael W. Deem and Ramdas Pophale) SiO2 
 PCOD9408569
Probable space group: P N N A
;
_chemical_formula_sum "Si O2"
_cell_formula_units_Z 48
_cell_length_a 14.512300
_cell_length_b 16.102910
_cell_length_c 11.619058
_cell_angle_alpha 90.000000
_cell_angle_beta 90.000000
_cell_angle_gamma 90.000000
_cell_volume 2715.260694
_symmetry_space_group_name_H-M "P N N A"
_symmetry_group_IT_number 52
_symmetry_cell_setting 'orthorhombic'
loop_
_space_group_symop_operation_xyz
x,y,z
1/2-x,-y,z
x,1/2-y,1/2-z
1/2-x,1/2+y,1/2-z
-x,-y,-z
1/2+x,y,-z
-x,1/2+y,1/2+z
1/2+x,1/2-y,1/2+z
loop_
_atom_site_type_symbol
_atom_site_label
_atom_site_fract_x
_atom_site_fract_y
_atom_site_fract_z
Si Si1 0.485643 0.133838 0.253128
Si Si2 0.284819 0.686178 0.506238
Si Si3 0.845573 0.750000 0.250000
Si Si4 0.457969 0.023127 0.874382
Si Si5 0.024720 0.209147 0.128175
Si Si6 0.400315 0.238626 0.431108
Si Si7 0.250000 0.500000 0.562602
O O1 0.584900 0.174632 0.282482
O O2 0.419662 0.156013 0.358679
O O3 0.447690 0.187357 0.144413
O O4 0.496233 0.039885 0.215417
O O5 0.291090 0.716411 0.639273
O O6 0.383262 0.699966 0.447711
O O7 0.205414 0.738700 0.445748
O O8 0.259748 0.588348 0.497908
O O9 0.481620 0.118260 0.853506
O O10 0.347965 0.008170 0.873019
O O11 0.500000 0.000000 0.000000
O O12 0.044781 0.250000 0.250000
O O13 0.951468 0.260765 0.052859
#
# Coordination Sequence:
#
# PCOD9408569 Si02
#       7
#     8   8   4   8   8   8   4
#     4  10  19  40  63  84 117 171 198 251 307 374
#     4  12  22  37  61  95 122 158 209 255 311 371
#     4  10  18  36  64  82 120 156 202 258 298 362
#     4  12  20  40  61  92 125 154 215 265 305 367
#     4  12  25  39  57  93 132 160 199 266 317 362
#     4  10  21  37  60  88 121 160 203 239 318 370
#     4  12  20  32  68  96 114 150 214 278 298 348
#
# _framework density 17.677861
#
# number of rings (size 3 to 8) (size 9 to 14) (size 15 to 20)
#    0.000    1.000   10.000    0.000    3.500    0.000 
#    0.000    0.833    0.000    0.000    0.000    0.000 
#    0.000    0.000    0.000    0.000    0.000    0.000 
#
# Total GULP energy -267792.287827 kJ/mol
# GULP energy per Si atom -5579.005996 kJ/mol
# Density = 1.763763 g / cm^3
# Si number density = 17.677861 Si / 1000 Ang^3
#
#
#
# Elastic Constant Matrix: (Units=GPa)
#
#
# Indices 1 2 3 4 5 6 
#
# 1 103.8463 29.5218 21.0068 0.0000 0.0000 0.0000
# 2 29.5218 74.0489 49.9451 0.0000 0.0000 0.0000
# 3 21.0068 49.9451 72.3318 0.0000 0.0000 0.0000
# 4 0.0000 0.0000 0.0000 32.7766 0.0000 0.0000
# 5 0.0000 0.0000 0.0000 0.0000 15.7759 0.0000
# 6 0.0000 0.0000 0.0000 0.0000 0.0000 16.1789
#
#
#
# Elastic Compliance Matrix: (Units=1/GPa)
#
#
# Indices 1 2 3 4 5 6 
#
# 1 0.010864 -0.004124 -0.000308 0.000000 0.000000 0.000000
# 2 -0.004124 0.026842 -0.017337 0.000000 0.000000 0.000000
# 3 -0.000308 -0.017337 0.025886 0.000000 0.000000 0.000000
# 4 0.000000 0.000000 0.000000 0.030510 0.000000 0.000000
# 5 0.000000 0.000000 0.000000 0.000000 0.063388 0.000000
# 6 0.000000 0.000000 0.000000 0.000000 0.000000 0.061809
#
#
# Mechanical properties :
#
#
# Convention : Reuss Voigt Hill
#
# Bulk Modulus (GPa) = 49.86228 50.13050 49.99639
# Shear Modulus (GPa) = 18.55150 22.92985 20.74067
#
# Velocity S-wave (km/s) = 3.24299 3.60543 3.42900
# Velocity P-wave (km/s) = 6.50307 6.76398 6.63481
#
# Compressibility (1/GPa) = 0.02005524
#
# Stress axis : x y z
#
# Youngs Moduli (GPa) = 92.04556 37.25477 38.63138
#
# Poissons Ratio (x) = 0.15363 0.01189
# Poissons Ratio (y) = 0.37957 0.66975
# Poissons Ratio (z) = 0.02833 0.64588
#
# Static dielectric constant tensor:
#      x y z
#    x 1.619200 0.000000 0.000000 
#    y 0.000000 1.617700 0.000000 
#    z 0.000000 0.000000 1.615120 
# 
# From -- ./inp_files/19571.got.cif
#   From: 2010.05.17/outbox.cif.g08.bks.cpg/sg52_10_cif.got.tgz:19571.got - 2010.06.03 12:15:38.
