data_PCOD9408274
_publ_section_title
;
Structure prediction by ZEFSAII (Michael W. Deem and Ramdas Pophale) SiO2 
 PCOD9408274
Probable space group: P N N A
;
_chemical_formula_sum "Si O2"
_cell_formula_units_Z 52
_cell_length_a 8.877160
_cell_length_b 14.706642
_cell_length_c 20.996078
_cell_angle_alpha 90.000000
_cell_angle_beta 90.000000
_cell_angle_gamma 90.000000
_cell_volume 2741.105466
_symmetry_space_group_name_H-M "P N N A"
_symmetry_group_IT_number 52
_symmetry_cell_setting 'orthorhombic'
loop_
_space_group_symop_operation_xyz
x,y,z
1/2-x,-y,z
x,1/2-y,1/2-z
1/2-x,1/2+y,1/2-z
-x,-y,-z
1/2+x,y,-z
-x,1/2+y,1/2+z
1/2+x,1/2-y,1/2+z
loop_
_atom_site_type_symbol
_atom_site_label
_atom_site_fract_x
_atom_site_fract_y
_atom_site_fract_z
Si Si1 0.750000 0.500000 0.973039
Si Si2 0.514739 0.707390 0.458437
Si Si3 0.517905 0.377204 0.052829
Si Si4 0.179881 0.399308 0.550134
Si Si5 0.707190 0.105990 0.326718
Si Si6 0.305911 0.896545 0.812450
Si Si7 0.464183 0.248380 0.820064
O O1 0.637534 0.567873 0.936518
O O2 0.638266 0.441110 0.016635
O O3 0.508250 0.792285 0.506360
O O4 0.427244 0.625175 0.492128
O O5 0.685846 0.674103 0.452173
O O6 0.454470 0.732025 0.387677
O O7 0.598633 0.356108 0.119034
O O8 0.250000 0.500000 0.545775
O O9 0.107303 0.387452 0.620706
O O10 0.629549 0.119999 0.257674
O O11 0.863989 0.160882 0.328094
O O12 0.750000 0.000000 0.336150
O O13 0.159820 0.831942 0.815316
O O14 0.250000 0.000000 0.811252
O O15 0.541399 0.250000 0.750000
#
# Coordination Sequence:
#
# PCOD9408274 Si02
#       7
#     4   8   8   8   8   8   8
#     4  10  22  32  48  72 112 152 182 224 254 310
#     4  11  21  34  56  81 107 142 181 226 277 332
#     4  11  20  34  50  79 112 149 188 217 266 320
#     4  10  20  36  57  86 109 137 178 235 285 328
#     4  10  18  31  53  82 108 145 181 227 268 321
#     4   8  16  31  53  80 107 131 178 230 278 318
#     4   9  18  32  51  79 108 138 184 229 273 322
#
# _framework density 18.970447
#
# number of rings (size 3 to 8) (size 9 to 14) (size 15 to 20)
#    0.000    2.154    0.769    4.154    2.154    0.000 
#    0.000    0.000    0.000    3.692    4.000    0.000 
#    0.000    0.000    0.000    0.000    0.000    0.000 
#
# Total GULP energy -289660.023401 kJ/mol
# GULP energy per Si atom -5570.385065 kJ/mol
# Density = 1.892727 g / cm^3
# Si number density = 18.970447 Si / 1000 Ang^3
#
#
#
# Elastic Constant Matrix: (Units=GPa)
#
#
# Indices 1 2 3 4 5 6 
#
# 1 29.5500 -4.1530 18.9415 0.0000 0.0000 0.0000
# 2 -4.1530 92.6894 20.3081 0.0000 0.0000 0.0000
# 3 18.9415 20.3081 185.9562 0.0000 0.0000 0.0000
# 4 0.0000 0.0000 0.0000 24.9170 0.0000 0.0000
# 5 0.0000 0.0000 0.0000 0.0000 33.9824 0.0000
# 6 0.0000 0.0000 0.0000 0.0000 0.0000 19.8975
#
#
#
# Elastic Compliance Matrix: (Units=1/GPa)
#
#
# Indices 1 2 3 4 5 6 
#
# 1 0.036774 0.002529 -0.004022 0.000000 0.000000 0.000000
# 2 0.002529 0.011227 -0.001484 0.000000 0.000000 0.000000
# 3 -0.004022 -0.001484 0.005949 0.000000 0.000000 0.000000
# 4 0.000000 0.000000 0.000000 0.040133 0.000000 0.000000
# 5 0.000000 0.000000 0.000000 0.000000 0.029427 0.000000
# 6 0.000000 0.000000 0.000000 0.000000 0.000000 0.050258
#
#
# Mechanical properties :
#
#
# Convention : Reuss Voigt Hill
#
# Bulk Modulus (GPa) = 20.83451 42.04320 31.43886
# Shear Modulus (GPa) = 25.54651 33.96597 29.75624
#
# Velocity S-wave (km/s) = 3.67365 4.23598 3.96480
# Velocity P-wave (km/s) = 5.38523 6.79230 6.12928
#
# Compressibility (1/GPa) = 0.04799729
#
# Stress axis : x y z
#
# Youngs Moduli (GPa) = 27.19278 89.07010 168.08620
#
# Poissons Ratio (x) = -0.22525 0.67605
# Poissons Ratio (y) = -0.06877 0.24939
# Poissons Ratio (z) = 0.10937 0.13215
#
# Static dielectric constant tensor:
#      x y z
#    x 1.637860 0.000000 0.000000 
#    y 0.000000 1.683950 0.000000 
#    z 0.000000 0.000000 1.746380 
# 
# From -- ./inp_files/35960.got.cif
#   From: 2010.05.17/outbox.cif.g08.bks.cpg/sg52_18_cif.got.tgz:35960.got - 2010.06.03 12:15:38.
