data_PCOD9408265
_publ_section_title
;
Structure prediction by ZEFSAII (Michael W. Deem and Ramdas Pophale) SiO2 
 PCOD9408265
Probable space group: P N N A
;
_chemical_formula_sum "Si O2"
_cell_formula_units_Z 60
_cell_length_a 16.751601
_cell_length_b 12.443288
_cell_length_c 17.254913
_cell_angle_alpha 90.000000
_cell_angle_beta 90.000000
_cell_angle_gamma 90.000000
_cell_volume 3596.700266
_symmetry_space_group_name_H-M "P N N A"
_symmetry_group_IT_number 52
_symmetry_cell_setting 'orthorhombic'
loop_
_space_group_symop_operation_xyz
x,y,z
1/2-x,-y,z
x,1/2-y,1/2-z
1/2-x,1/2+y,1/2-z
-x,-y,-z
1/2+x,y,-z
-x,1/2+y,1/2+z
1/2+x,1/2-y,1/2+z
loop_
_atom_site_type_symbol
_atom_site_label
_atom_site_fract_x
_atom_site_fract_y
_atom_site_fract_z
Si Si1 0.840379 0.346266 0.401611
Si Si2 0.345915 0.591322 0.611676
Si Si3 0.600642 0.192275 0.444853
Si Si4 0.921398 0.250000 0.250000
Si Si5 0.078156 0.366111 0.775203
Si Si6 0.162532 0.037233 0.427624
Si Si7 0.512193 0.435819 0.831555
Si Si8 0.572217 0.849267 0.484611
O O1 0.745196 0.368121 0.400808
O O2 0.868084 0.469944 0.412345
O O3 0.867310 0.297502 0.318841
O O4 0.879167 0.258528 0.460369
O O5 0.392927 0.679827 0.562620
O O6 0.366232 0.598639 0.703612
O O7 0.620887 0.149080 0.358469
O O8 0.655405 0.133077 0.508623
O O9 0.508841 0.170502 0.467434
O O10 0.980215 0.343832 0.223705
O O11 0.045792 0.250000 0.750000
O O12 0.010316 0.452314 0.792240
O O13 0.103322 0.068973 0.358180
O O14 0.250000 0.000000 0.404098
O O15 0.125225 0.932459 0.468483
O O16 0.459116 0.413030 0.908574
#
# Coordination Sequence:
#
# PCOD9408265 Si02
#       8
#     8   8   8   4   8   8   8   8
#     4  10  21  33  48  77 109 138 170 210 252 315
#     4  10  21  34  48  77 112 136 167 211 262 303
#     4  10  19  34  52  75 105 137 173 211 254 311
#     4  10  20  32  52  72 100 144 168 202 262 310
#     4  10  18  31  52  75 106 138 165 211 255 309
#     4  11  20  33  55  78 100 134 171 221 262 290
#     4  10  18  36  52  75 103 131 175 213 248 318
#     4  10  19  34  54  75 103 136 176 210 253 305
#
# _framework density 16.681958000000002
#
# number of rings (size 3 to 8) (size 9 to 14) (size 15 to 20)
#    0.000    1.867    4.000    1.600    2.800    0.533 
#    2.400    0.000    1.467    0.000    0.000    0.000 
#    0.000    0.000    0.000    0.000    0.000    0.000 
#
# Total GULP energy -334029.441430 kJ/mol
# GULP energy per Si atom -5567.157357 kJ/mol
# Density = 1.664399 g / cm^3
# Si number density = 16.681958 Si / 1000 Ang^3
#
#
#
# Elastic Constant Matrix: (Units=GPa)
#
#
# Indices 1 2 3 4 5 6 
#
# 1 37.5444 -1.6197 -5.9270 0.0000 0.0000 0.0000
# 2 -1.6197 93.3026 7.8568 0.0000 0.0000 0.0000
# 3 -5.9270 7.8568 19.6755 0.0000 0.0000 0.0000
# 4 0.0000 0.0000 0.0000 19.8004 0.0000 0.0000
# 5 0.0000 0.0000 0.0000 0.0000 33.0733 0.0000
# 6 0.0000 0.0000 0.0000 0.0000 0.0000 25.1421
#
#
#
# Elastic Compliance Matrix: (Units=1/GPa)
#
#
# Indices 1 2 3 4 5 6 
#
# 1 0.027970 -0.000232 0.008518 0.000000 0.000000 0.000000
# 2 -0.000232 0.011093 -0.004499 0.000000 0.000000 0.000000
# 3 0.008518 -0.004499 0.055187 0.000000 0.000000 0.000000
# 4 0.000000 0.000000 0.000000 0.050504 0.000000 0.000000
# 5 0.000000 0.000000 0.000000 0.000000 0.030236 0.000000
# 6 0.000000 0.000000 0.000000 0.000000 0.000000 0.039774
#
#
# Mechanical properties :
#
#
# Convention : Reuss Voigt Hill
#
# Bulk Modulus (GPa) = 9.82089 16.79364 13.30726
# Shear Modulus (GPa) = 20.73564 25.61732 23.17648
#
# Velocity S-wave (km/s) = 3.52944 3.92296 3.73139
# Velocity P-wave (km/s) = 4.74439 5.53248 5.15352
#
# Compressibility (1/GPa) = 0.10182377
#
# Stress axis : x y z
#
# Youngs Moduli (GPa) = 35.75280 90.14960 18.12014
#
# Poissons Ratio (x) = 0.02089 -0.15435
# Poissons Ratio (y) = 0.00829 0.08153
# Poissons Ratio (z) = -0.30455 0.40561
#
# Static dielectric constant tensor:
#      x y z
#    x 1.542180 0.000000 0.000000 
#    y 0.000000 1.598880 0.000000 
#    z 0.000000 0.000000 1.575080 
# 
# From -- ./inp_files/33253.got.cif
#   From: 2010.05.17/outbox.cif.g08.bks.cpg/sg52_17_cif.got.tgz:33253.got - 2010.06.03 12:15:38.
