data_PCOD9408986
_publ_section_title
;
Structure prediction by ZEFSAII (Michael W. Deem and Ramdas Pophale) SiO2 
 PCOD9408986
Probable space group: P N N A
;
_chemical_formula_sum "Si O2"
_cell_formula_units_Z 56
_cell_length_a 14.044118
_cell_length_b 17.735305
_cell_length_c 11.445774
_cell_angle_alpha 90.000000
_cell_angle_beta 90.000000
_cell_angle_gamma 90.000000
_cell_volume 2850.875802
_symmetry_space_group_name_H-M "P N N A"
_symmetry_group_IT_number 52
_symmetry_cell_setting 'orthorhombic'
loop_
_space_group_symop_operation_xyz
x,y,z
1/2-x,-y,z
x,1/2-y,1/2-z
1/2-x,1/2+y,1/2-z
-x,-y,-z
1/2+x,y,-z
-x,1/2+y,1/2+z
1/2+x,1/2-y,1/2+z
loop_
_atom_site_type_symbol
_atom_site_label
_atom_site_fract_x
_atom_site_fract_y
_atom_site_fract_z
Si Si1 0.491256 0.432331 0.709371
Si Si2 0.600542 0.198898 0.346498
Si Si3 0.599854 0.787010 0.130505
Si Si4 0.768193 0.769600 0.968515
Si Si5 0.838707 0.551481 0.276968
Si Si6 0.069910 0.321731 0.095602
Si Si7 0.675762 0.064284 0.943065
O O1 0.413532 0.375938 0.649899
O O2 0.435624 0.506154 0.748152
O O3 0.536261 0.385985 0.817197
O O4 0.574616 0.448196 0.617849
O O5 0.547457 0.250000 0.250000
O O6 0.669633 0.242236 0.087001
O O7 0.657418 0.131576 0.285786
O O8 0.549645 0.161849 0.458828
O O9 0.639625 0.750000 0.250000
O O10 0.661683 0.766297 0.017627
O O11 0.494548 0.751983 0.118916
O O12 0.819402 0.703809 0.893425
O O13 0.787735 0.851412 0.915667
O O14 0.750000 0.500000 0.238798
O O15 0.833399 0.560787 0.416726
O O16 0.750000 0.000000 0.906547
#
# Coordination Sequence:
#
# PCOD9408986 Si02
#       7
#     8   8   8   8   8   8   8
#     4  11  22  39  60  89 128 166 206 250 322 388
#     4  10  20  39  60  84 123 154 197 259 310 360
#     4  10  19  34  65  92 114 159 207 253 306 366
#     4  10  20  37  63  91 123 152 211 260 306 367
#     4  11  23  36  61  94 117 153 209 270 311 367
#     4   9  22  37  62  90 123 162 204 254 312 378
#     4  11  22  39  59  90 126 165 207 260 321 368
#
# _framework density 19.643084999999999
#
# number of rings (size 3 to 8) (size 9 to 14) (size 15 to 20)
#    0.857    0.857    2.857    2.571    4.000    0.571 
#    0.000    2.143    0.000    0.000    0.000    0.000 
#    0.000    0.000    0.000    0.000    0.000    0.000 
#
# Total GULP energy -311920.824031 kJ/mol
# GULP energy per Si atom -5570.014715 kJ/mol
# Density = 1.959838 g / cm^3
# Si number density = 19.643085 Si / 1000 Ang^3
#
#
#
# Elastic Constant Matrix: (Units=GPa)
#
#
# Indices 1 2 3 4 5 6 
#
# 1 58.3505 3.7984 7.1194 0.0000 0.0000 0.0000
# 2 3.7984 46.9394 -1.5133 0.0000 0.0000 0.0000
# 3 7.1194 -1.5133 51.9100 0.0000 0.0000 0.0000
# 4 0.0000 0.0000 0.0000 21.7251 0.0000 0.0000
# 5 0.0000 0.0000 0.0000 0.0000 7.6765 0.0000
# 6 0.0000 0.0000 0.0000 0.0000 0.0000 20.0977
#
#
#
# Elastic Compliance Matrix: (Units=1/GPa)
#
#
# Indices 1 2 3 4 5 6 
#
# 1 0.017534 -0.001498 -0.002448 0.000000 0.000000 0.000000
# 2 -0.001498 0.021452 0.000831 0.000000 0.000000 0.000000
# 3 -0.002448 0.000831 0.019624 0.000000 0.000000 0.000000
# 4 0.000000 0.000000 0.000000 0.046030 0.000000 0.000000
# 5 0.000000 0.000000 0.000000 0.000000 0.130268 0.000000
# 6 0.000000 0.000000 0.000000 0.000000 0.000000 0.049757
#
#
# Mechanical properties :
#
#
# Convention : Reuss Voigt Hill
#
# Bulk Modulus (GPa) = 19.09151 19.55655 19.32403
# Shear Modulus (GPa) = 16.21504 19.75288 17.98396
#
# Velocity S-wave (km/s) = 2.87624 3.17454 3.02907
# Velocity P-wave (km/s) = 4.55748 4.83886 4.70027
#
# Compressibility (1/GPa) = 0.05237931
#
# Stress axis : x y z
#
# Youngs Moduli (GPa) = 57.03187 46.61560 50.95767
#
# Poissons Ratio (x) = 0.06982 0.12477
# Poissons Ratio (y) = 0.08542 -0.04234
# Poissons Ratio (z) = 0.13964 -0.03873
#
# Static dielectric constant tensor:
#      x y z
#    x 1.714980 0.000000 0.000000 
#    y 0.000000 1.698250 0.000000 
#    z 0.000000 0.000000 1.731060 
# 
# From -- ./inp_files/18355.got.cif
#   From: 2010.05.17/outbox.cif.g08.bks.cpg/sg52_10_cif.got.tgz:18355.got - 2010.06.03 12:15:38.
