data_PCOD9408305
_publ_section_title
;
Structure prediction by ZEFSAII (Michael W. Deem and Ramdas Pophale) SiO2 
 PCOD9408305
Probable space group: P N N A
;
_chemical_formula_sum "Si O2"
_cell_formula_units_Z 48
_cell_length_a 18.952219
_cell_length_b 18.104028
_cell_length_c 5.541140
_cell_angle_alpha 90.000000
_cell_angle_beta 90.000000
_cell_angle_gamma 90.000000
_cell_volume 1901.228876
_symmetry_space_group_name_H-M "P N N A"
_symmetry_group_IT_number 52
_symmetry_cell_setting 'orthorhombic'
loop_
_space_group_symop_operation_xyz
x,y,z
1/2-x,-y,z
x,1/2-y,1/2-z
1/2-x,1/2+y,1/2-z
-x,-y,-z
1/2+x,y,-z
-x,1/2+y,1/2+z
1/2+x,1/2-y,1/2+z
loop_
_atom_site_type_symbol
_atom_site_label
_atom_site_fract_x
_atom_site_fract_y
_atom_site_fract_z
Si Si1 0.665232 0.511667 0.732541
Si Si2 0.253866 0.250000 0.250000
Si Si3 0.958535 0.590416 0.239264
Si Si4 0.814016 0.832088 0.367608
Si Si5 0.163491 0.596064 0.766935
Si Si6 0.154897 0.750000 0.750000
Si Si7 0.480368 0.925437 0.236094
O O1 0.750000 0.500000 0.734290
O O2 0.653269 0.555777 0.484858
O O3 0.602869 0.450490 0.728535
O O4 0.652325 0.552470 0.986461
O O5 0.202783 0.184617 0.348380
O O6 0.302169 0.258824 0.489911
O O7 0.878844 0.617684 0.209708
O O8 0.990420 0.617905 0.488936
O O9 0.974774 0.502021 0.255209
O O10 0.991744 0.614222 0.987950
O O11 0.823624 0.750000 0.250000
O O12 0.744849 0.875453 0.277642
O O13 0.119571 0.671566 0.773111
#
# Coordination Sequence:
#
# PCOD9408305 Si02
#       7
#     8   4   8   8   8   4   8
#     4  12  23  35  57  87 119 149 191 237 291 346
#     4  10  18  32  50  83 116 141 180 250 270 344
#     4  10  22  39  65  80 116 154 195 247 297 335
#     4  11  22  35  60  89 119 147 199 244 291 343
#     4  11  21  35  57  81 119 150 181 242 280 353
#     4  10  20  36  54  79 114 157 198 212 300 332
#     4  10  22  42  58  88 112 155 199 238 294 359
#
# _framework density 25.246832000000001
#
# number of rings (size 3 to 8) (size 9 to 14) (size 15 to 20)
#    0.000    1.333    3.333    5.500    2.333    0.000 
#    0.000    0.000    3.667    0.000    0.000    0.000 
#    0.000    0.000    0.000    0.000    0.000    0.000 
#
# Total GULP energy -267790.743031 kJ/mol
# GULP energy per Si atom -5578.973813 kJ/mol
# Density = 2.518937 g / cm^3
# Si number density = 25.246832 Si / 1000 Ang^3
#
#
#
# Elastic Constant Matrix: (Units=GPa)
#
#
# Indices 1 2 3 4 5 6 
#
# 1 169.9694 35.8981 46.9310 0.0000 0.0000 0.0000
# 2 35.8981 45.0646 60.1816 0.0000 0.0000 0.0000
# 3 46.9310 60.1816 282.1761 0.0000 0.0000 0.0000
# 4 0.0000 0.0000 0.0000 32.2045 0.0000 0.0000
# 5 0.0000 0.0000 0.0000 0.0000 25.4962 0.0000
# 6 0.0000 0.0000 0.0000 0.0000 0.0000 25.3282
#
#
#
# Elastic Compliance Matrix: (Units=1/GPa)
#
#
# Indices 1 2 3 4 5 6 
#
# 1 0.007074 -0.005682 0.000035 0.000000 0.000000 0.000000
# 2 -0.005682 0.035592 -0.006646 0.000000 0.000000 0.000000
# 3 0.000035 -0.006646 0.004955 0.000000 0.000000 0.000000
# 4 0.000000 0.000000 0.000000 0.031052 0.000000 0.000000
# 5 0.000000 0.000000 0.000000 0.000000 0.039221 0.000000
# 6 0.000000 0.000000 0.000000 0.000000 0.000000 0.039482
#
#
# Mechanical properties :
#
#
# Convention : Reuss Voigt Hill
#
# Bulk Modulus (GPa) = 43.41060 87.02572 65.21816
# Shear Modulus (GPa) = 26.36577 40.21908 33.29242
#
# Velocity S-wave (km/s) = 3.23510 3.99561 3.63530
# Velocity P-wave (km/s) = 5.58447 7.47204 6.59612
#
# Compressibility (1/GPa) = 0.02303585
#
# Stress axis : x y z
#
# Youngs Moduli (GPa) = 141.36823 28.09619 201.79918
#
# Poissons Ratio (x) = 0.15965 -0.00714
# Poissons Ratio (y) = 0.80327 1.34114
# Poissons Ratio (z) = -0.00500 0.18672
#
# Static dielectric constant tensor:
#      x y z
#    x 2.090260 0.000000 0.000000 
#    y 0.000000 2.093760 0.000000 
#    z 0.000000 0.000000 2.010420 
# 
# From -- ./inp_files/4392.got.cif
#   From: 2010.05.17/outbox.cif.g08.bks.cpg/sg52_3_cif.got.tgz:4392.got - 2010.06.03 12:15:38.
