data_PCOD9408576
_publ_section_title
;
Structure prediction by ZEFSAII (Michael W. Deem and Ramdas Pophale) SiO2 
 PCOD9408576
Probable space group: P N N A
;
_chemical_formula_sum "Si O2"
_cell_formula_units_Z 36
_cell_length_a 10.117507
_cell_length_b 12.602937
_cell_length_c 13.667324
_cell_angle_alpha 90.000000
_cell_angle_beta 90.000000
_cell_angle_gamma 90.000000
_cell_volume 1742.724629
_symmetry_space_group_name_H-M "P N N A"
_symmetry_group_IT_number 52
_symmetry_cell_setting 'orthorhombic'
loop_
_space_group_symop_operation_xyz
x,y,z
1/2-x,-y,z
x,1/2-y,1/2-z
1/2-x,1/2+y,1/2-z
-x,-y,-z
1/2+x,y,-z
-x,1/2+y,1/2+z
1/2+x,1/2-y,1/2+z
loop_
_atom_site_type_symbol
_atom_site_label
_atom_site_fract_x
_atom_site_fract_y
_atom_site_fract_z
Si Si1 0.102720 0.528619 0.084805
Si Si2 0.250000 0.000000 0.864392
Si Si3 0.867786 0.642351 0.533182
Si Si4 0.535051 0.511219 0.702847
Si Si5 0.098767 0.775017 0.095187
O O1 0.250000 0.500000 0.050058
O O2 0.087301 0.475857 0.191899
O O3 0.075056 0.651637 0.110141
O O4 0.000000 0.500000 0.000000
O O5 0.380067 0.017232 0.801007
O O6 0.296660 0.907981 0.938310
O O7 0.899487 0.552111 0.612629
O O8 0.755561 0.716830 0.576892
O O9 0.004972 0.692005 0.496529
O O10 0.561768 0.635136 0.675500
#
# Coordination Sequence:
#
# PCOD9408576 Si02
#       5
#     8   4   8   8   8
#     4  12  28  47  62  89 135 185 217 260 312 386
#     4  10  18  36  66 104 130 152 196 276 336 370
#     4  11  18  38  69 104 126 154 212 277 329 376
#     4  11  22  39  72 100 129 163 215 272 327 380
#     4  11  21  39  68  96 128 170 214 263 325 385
#
# _framework density 20.657308
#
# number of rings (size 3 to 8) (size 9 to 14) (size 15 to 20)
#    0.000    0.889    4.444    4.667    1.556    0.000 
#    0.000    3.333    0.000    0.000    0.000    0.000 
#    0.000    0.000    0.000    0.000    0.000    0.000 
#
# Total GULP energy -200866.491396 kJ/mol
# GULP energy per Si atom -5579.624761 kJ/mol
# Density = 2.061029 g / cm^3
# Si number density = 20.657308 Si / 1000 Ang^3
#
#
#
# Elastic Constant Matrix: (Units=GPa)
#
#
# Indices 1 2 3 4 5 6 
#
# 1 151.2971 10.0668 54.6693 0.0000 0.0000 0.0000
# 2 10.0668 55.2806 26.9835 0.0000 0.0000 0.0000
# 3 54.6693 26.9835 101.2280 0.0000 0.0000 0.0000
# 4 0.0000 0.0000 0.0000 0.5721 0.0000 0.0000
# 5 0.0000 0.0000 0.0000 0.0000 -13.7707 0.0000
# 6 0.0000 0.0000 0.0000 0.0000 0.0000 21.8427
#
#
#
# Elastic Compliance Matrix: (Units=1/GPa)
#
#
# Indices 1 2 3 4 5 6 
#
# 1 0.008241 0.000772 -0.004656 0.000000 0.000000 0.000000
# 2 0.000772 0.020868 -0.005980 0.000000 0.000000 0.000000
# 3 -0.004656 -0.005980 0.013987 0.000000 0.000000 0.000000
# 4 0.000000 0.000000 0.000000 1.747851 0.000000 0.000000
# 5 0.000000 0.000000 0.000000 0.000000 -0.072618 0.000000
# 6 0.000000 0.000000 0.000000 0.000000 0.000000 0.045782
#
#
# Mechanical properties :
#
#
# Convention : Reuss Voigt Hill
#
# Bulk Modulus (GPa) = 42.79306 54.58276 48.68791
# Shear Modulus (GPa) = 2.79076 16.13456 9.46266
#
# Velocity S-wave (km/s) = 1.16358 2.79777 2.14260
# Velocity P-wave (km/s) = 4.75036 6.07594 5.45357
#
# Compressibility (1/GPa) = 0.02336827
#
# Stress axis : x y z
#
# Youngs Moduli (GPa) = 121.35012 47.92111 71.49358
#
# Poissons Ratio (x) = -0.03700 0.33289
# Poissons Ratio (y) = -0.09370 0.42750
# Poissons Ratio (z) = 0.56504 0.28655
#
# Static dielectric constant tensor:
#      x y z
#    x 1.755650 0.000000 0.000000 
#    y 0.000000 1.775560 0.000000 
#    z 0.000000 0.000000 1.758950 
# 
# From -- ./inp_files/17925.got.cif
#   From: 2010.05.17/outbox.cif.g08.bks.cpg/sg52_9_cif.got.tgz:17925.got - 2010.06.03 12:15:38.
