data_PCOD9408790
_publ_section_title
;
Structure prediction by ZEFSAII (Michael W. Deem and Ramdas Pophale) SiO2 
 PCOD9408790
Probable space group: P N N A
;
_chemical_formula_sum "Si O2"
_cell_formula_units_Z 40
_cell_length_a 7.880096
_cell_length_b 8.392587
_cell_length_c 29.314518
_cell_angle_alpha 90.000000
_cell_angle_beta 90.000000
_cell_angle_gamma 90.000000
_cell_volume 1938.697803
_symmetry_space_group_name_H-M "P N N A"
_symmetry_group_IT_number 52
_symmetry_cell_setting 'orthorhombic'
loop_
_space_group_symop_operation_xyz
x,y,z
1/2-x,-y,z
x,1/2-y,1/2-z
1/2-x,1/2+y,1/2-z
-x,-y,-z
1/2+x,y,-z
-x,1/2+y,1/2+z
1/2+x,1/2-y,1/2+z
loop_
_atom_site_type_symbol
_atom_site_label
_atom_site_fract_x
_atom_site_fract_y
_atom_site_fract_z
Si Si1 0.508825 0.406776 0.437686
Si Si2 0.936054 0.928366 0.269242
Si Si3 0.750000 0.000000 0.575027
Si Si4 0.250000 0.000000 0.208446
Si Si5 0.421528 0.234642 0.353781
Si Si6 0.361135 0.711391 0.471134
O O1 0.533463 0.353275 0.385575
O O2 0.495430 0.596231 0.445547
O O3 0.323122 0.347626 0.454568
O O4 0.626280 0.324414 0.475261
O O5 0.932235 0.750000 0.250000
O O6 0.085178 0.019367 0.241357
O O7 0.986012 0.891484 0.321183
O O8 0.750000 0.000000 0.264234
O O9 0.669834 0.873838 0.609301
O O10 0.873595 0.895219 0.543146
O O11 0.202326 0.848683 0.176348
#
# Coordination Sequence:
#
# PCOD9408790 Si02
#       6
#     8   8   4   4   8   8
#     4   9  18  36  55  77 116 156 199 229 287 369
#     4  10  23  41  62  90 120 156 203 256 319 381
#     4  10  19  32  54  90 116 146 204 240 297 350
#     4  10  21  42  68  80 116 170 196 246 327 380
#     4  10  20  36  59  89 114 153 201 251 297 368
#     4   9  18  32  54  78 112 160 189 238 287 349
#
# _framework density 20.632404999999999
#
# number of rings (size 3 to 8) (size 9 to 14) (size 15 to 20)
#    0.000    2.400    0.000    3.000    0.000    7.200 
#    5.400    0.000   30.800    0.000    0.000    0.000 
#    0.000    0.000    0.000    0.000    0.000    0.000 
#
# Total GULP energy -222718.079778 kJ/mol
# GULP energy per Si atom -5567.951994 kJ/mol
# Density = 2.058544 g / cm^3
# Si number density = 20.632405 Si / 1000 Ang^3
#
#
#
# Elastic Constant Matrix: (Units=GPa)
#
#
# Indices 1 2 3 4 5 6 
#
# 1 76.0595 38.7789 37.7814 0.0000 0.0000 0.0000
# 2 38.7789 89.5796 60.3354 0.0000 0.0000 0.0000
# 3 37.7814 60.3354 119.5274 0.0000 0.0000 0.0000
# 4 0.0000 0.0000 0.0000 62.6462 0.0000 0.0000
# 5 0.0000 0.0000 0.0000 0.0000 25.9586 0.0000
# 6 0.0000 0.0000 0.0000 0.0000 0.0000 18.1816
#
#
#
# Elastic Compliance Matrix: (Units=1/GPa)
#
#
# Indices 1 2 3 4 5 6 
#
# 1 0.017377 -0.005792 -0.002569 0.000000 0.000000 0.000000
# 2 -0.005792 0.018844 -0.007682 0.000000 0.000000 0.000000
# 3 -0.002569 -0.007682 0.013056 0.000000 0.000000 0.000000
# 4 0.000000 0.000000 0.000000 0.015963 0.000000 0.000000
# 5 0.000000 0.000000 0.000000 0.000000 0.038523 0.000000
# 6 0.000000 0.000000 0.000000 0.000000 0.000000 0.055001
#
#
# Mechanical properties :
#
#
# Convention : Reuss Voigt Hill
#
# Bulk Modulus (GPa) = 58.16671 62.10644 60.13658
# Shear Modulus (GPa) = 25.43507 31.24200 28.33853
#
# Velocity S-wave (km/s) = 3.51490 3.89552 3.71009
# Velocity P-wave (km/s) = 6.68773 7.09931 6.89659
#
# Compressibility (1/GPa) = 0.01719196
#
# Stress axis : x y z
#
# Youngs Moduli (GPa) = 57.54814 53.06592 76.59440
#
# Poissons Ratio (x) = 0.30737 0.19676
# Poissons Ratio (y) = 0.33333 0.58836
# Poissons Ratio (z) = 0.14783 0.40763
#
# Static dielectric constant tensor:
#      x y z
#    x 1.781730 0.000000 0.000000 
#    y 0.000000 1.878700 0.000000 
#    z 0.000000 0.000000 1.869580 
# 
# From -- ./inp_files/44214.got.cif
#   From: 2010.05.17/outbox.cif.g08.bks.cpg/sg52_23_cif.got.tgz:44214.got - 2010.06.03 12:15:38.
