data_PCOD9408206
_publ_section_title
;
Structure prediction by ZEFSAII (Michael W. Deem and Ramdas Pophale) SiO2 
 PCOD9408206
Probable space group: P N N A
;
_chemical_formula_sum "Si O2"
_cell_formula_units_Z 60
_cell_length_a 5.256447
_cell_length_b 18.247441
_cell_length_c 29.731193
_cell_angle_alpha 90.000000
_cell_angle_beta 90.000000
_cell_angle_gamma 90.000000
_cell_volume 2851.718113
_symmetry_space_group_name_H-M "P N N A"
_symmetry_group_IT_number 52
_symmetry_cell_setting 'orthorhombic'
loop_
_space_group_symop_operation_xyz
x,y,z
1/2-x,-y,z
x,1/2-y,1/2-z
1/2-x,1/2+y,1/2-z
-x,-y,-z
1/2+x,y,-z
-x,1/2+y,1/2+z
1/2+x,1/2-y,1/2+z
loop_
_atom_site_type_symbol
_atom_site_label
_atom_site_fract_x
_atom_site_fract_y
_atom_site_fract_z
Si Si1 0.501700 0.417431 0.271241
Si Si2 0.836099 0.232046 0.468489
Si Si3 0.723380 0.635685 0.402456
Si Si4 0.000332 0.337169 0.244535
Si Si5 0.281044 0.077838 0.134461
Si Si6 0.796596 0.922493 0.470569
Si Si7 0.750000 0.000000 0.030164
Si Si8 0.000435 0.528963 0.814868
O O1 0.279207 0.359025 0.261614
O O2 0.424327 0.446891 0.319651
O O3 0.498205 0.479524 0.232292
O O4 0.770212 0.376834 0.270600
O O5 0.598510 0.239366 0.503403
O O6 0.834153 0.291326 0.429530
O O7 0.784589 0.152123 0.446828
O O8 0.495556 0.615321 0.367872
O O9 0.732182 0.570813 0.438687
O O10 0.009840 0.634468 0.383765
O O11 0.967740 0.250000 0.250000
O O12 0.991144 0.385006 0.197698
O O13 0.250000 0.000000 0.108764
O O14 0.587602 0.921367 0.511792
O O15 0.750000 0.000000 0.447433
O O16 0.500000 0.000000 0.000000
O O17 0.250000 0.500000 0.838454
O O18 0.750000 0.500000 0.838785
#
# Coordination Sequence:
#
# PCOD9408206 Si02
#       8
#     8   8   8   8   8   8   4   8
#     4  10  20  33  51  70  98 139 160 194 255 295
#     4  10  19  33  49  67  96 129 157 201 265 319
#     4  12  23  35  48  72  91 128 180 220 258 300
#     4  10  18  30  48  75 102 123 156 191 233 291
#     4  12  22  37  51  68  98 128 177 221 247 291
#     4   8  14  25  44  68  91 113 137 173 229 303
#     4  12  22  36  50  62  92 128 174 226 274 306
#     4   8  15  27  43  65  92 124 159 176 226 290
#
# _framework density 21.039946
#
# number of rings (size 3 to 8) (size 9 to 14) (size 15 to 20)
#    0.000    1.867    1.333    4.800    0.000    2.133 
#    0.000    0.000    0.000    0.000    0.000    0.000 
#    0.000   32.000    0.000    0.000    0.000    0.000 
#
# Total GULP energy -334170.654412 kJ/mol
# GULP energy per Si atom -5569.510907 kJ/mol
# Density = 2.099206 g / cm^3
# Si number density = 21.039946 Si / 1000 Ang^3
#
#
#
# Elastic Constant Matrix: (Units=GPa)
#
#
# Indices 1 2 3 4 5 6 
#
# 1 160.0523 10.8464 7.8961 0.0000 0.0000 0.0000
# 2 10.8464 134.0401 -7.4922 0.0000 0.0000 0.0000
# 3 7.8961 -7.4922 14.9686 0.0000 0.0000 0.0000
# 4 0.0000 0.0000 0.0000 6.7862 0.0000 0.0000
# 5 0.0000 0.0000 0.0000 0.0000 14.1196 0.0000
# 6 0.0000 0.0000 0.0000 0.0000 0.0000 24.6176
#
#
#
# Elastic Compliance Matrix: (Units=1/GPa)
#
#
# Indices 1 2 3 4 5 6 
#
# 1 0.006485 -0.000737 -0.003789 0.000000 0.000000 0.000000
# 2 -0.000737 0.007759 0.004272 0.000000 0.000000 0.000000
# 3 -0.003789 0.004272 0.070944 0.000000 0.000000 0.000000
# 4 0.000000 0.000000 0.000000 0.147357 0.000000 0.000000
# 5 0.000000 0.000000 0.000000 0.000000 0.070824 0.000000
# 6 0.000000 0.000000 0.000000 0.000000 0.000000 0.040621
#
#
# Mechanical properties :
#
#
# Convention : Reuss Voigt Hill
#
# Bulk Modulus (GPa) = 11.80927 36.84018 24.32472
# Shear Modulus (GPa) = 13.41477 28.95873 21.18675
#
# Velocity S-wave (km/s) = 2.52779 3.71397 3.17673
# Velocity P-wave (km/s) = 3.76093 5.99492 5.00418
#
# Compressibility (1/GPa) = 0.08467927
#
# Stress axis : x y z
#
# Youngs Moduli (GPa) = 154.20613 128.88519 14.09571
#
# Poissons Ratio (x) = 0.09493 0.05342
# Poissons Ratio (y) = 0.11358 -0.06022
# Poissons Ratio (z) = 0.58436 -0.55060
#
# Static dielectric constant tensor:
#      x y z
#    x 1.917330 0.000000 0.000000 
#    y 0.000000 1.759760 0.000000 
#    z 0.000000 0.000000 1.820350 
# 
# From -- ./inp_files/43878.got.cif
#   From: 2010.05.17/outbox.cif.g08.bks.cpg/sg52_22_cif.got.tgz:43878.got - 2010.06.03 12:15:38.
