data_PCOD9408102
_publ_section_title
;
Structure prediction by ZEFSAII (Michael W. Deem and Ramdas Pophale) SiO2 
 PCOD9408102
Probable space group: P N N A
;
_chemical_formula_sum "Si O2"
_cell_formula_units_Z 60
_cell_length_a 13.582382
_cell_length_b 23.972034
_cell_length_c 9.621707
_cell_angle_alpha 90.000000
_cell_angle_beta 90.000000
_cell_angle_gamma 90.000000
_cell_volume 3132.802043
_symmetry_space_group_name_H-M "P N N A"
_symmetry_group_IT_number 52
_symmetry_cell_setting 'orthorhombic'
loop_
_space_group_symop_operation_xyz
x,y,z
1/2-x,-y,z
x,1/2-y,1/2-z
1/2-x,1/2+y,1/2-z
-x,-y,-z
1/2+x,y,-z
-x,1/2+y,1/2+z
1/2+x,1/2-y,1/2+z
loop_
_atom_site_type_symbol
_atom_site_label
_atom_site_fract_x
_atom_site_fract_y
_atom_site_fract_z
Si Si1 0.587328 0.587617 0.858507
Si Si2 0.048445 0.024449 0.253000
Si Si3 0.383053 0.815882 0.236881
Si Si4 0.410137 0.886319 0.492558
Si Si5 0.291123 0.121297 0.087868
Si Si6 0.077212 0.882092 0.841175
Si Si7 0.750000 0.500000 0.598062
Si Si8 0.277251 0.436601 0.879726
O O1 0.518780 0.537045 0.800619
O O2 0.650375 0.611571 0.731972
O O3 0.510615 0.629690 0.929571
O O4 0.661452 0.562958 0.974654
O O5 0.058303 0.063194 0.388634
O O6 0.156159 0.014361 0.191883
O O7 0.982858 0.058837 0.143434
O O8 0.376483 0.750000 0.250000
O O9 0.364536 0.841038 0.389614
O O10 0.305080 0.843383 0.128833
O O11 0.492327 0.838667 0.201932
O O12 0.324951 0.905897 0.593556
O O13 0.267600 0.059181 0.026163
O O14 0.366073 0.142921 0.972579
O O15 0.155569 0.900824 0.724615
O O16 0.250000 0.500000 0.837604
#
# Coordination Sequence:
#
# PCOD9408102 Si02
#       8
#     8   8   8   8   8   8   4   8
#     4  11  20  34  64  93 128 170 213 255 314 396
#     4  10  17  34  56  88 126 168 196 249 312 375
#     4  11  24  48  69  85 124 176 220 275 333 378
#     4  11  19  36  60  91 122 156 215 268 313 367
#     4  11  24  42  63  96 127 174 208 259 333 408
#     4  11  25  41  61  95 135 164 216 261 330 394
#     4  10  18  34  62  82 130 168 202 232 318 404
#     4  12  21  34  63 102 131 169 215 263 319 396
#
# _framework density 19.152183999999998
#
# number of rings (size 3 to 8) (size 9 to 14) (size 15 to 20)
#    0.000    1.067    8.000    2.000    1.867    3.200 
#    4.800    0.000    0.000    1.600    0.000    0.000 
#    0.000    0.000    0.000    0.000    0.000    0.000 
#
# Total GULP energy -334481.304344 kJ/mol
# GULP energy per Si atom -5574.688406 kJ/mol
# Density = 1.910859 g / cm^3
# Si number density = 19.152184 Si / 1000 Ang^3
#
#
#
# Elastic Constant Matrix: (Units=GPa)
#
#
# Indices 1 2 3 4 5 6 
#
# 1 118.8017 41.5263 35.4739 0.0000 0.0000 0.0000
# 2 41.5263 74.2401 31.5716 0.0000 0.0000 0.0000
# 3 35.4739 31.5716 54.7150 0.0000 0.0000 0.0000
# 4 0.0000 0.0000 0.0000 7.5534 0.0000 0.0000
# 5 0.0000 0.0000 0.0000 0.0000 22.2513 0.0000
# 6 0.0000 0.0000 0.0000 0.0000 0.0000 13.8939
#
#
#
# Elastic Compliance Matrix: (Units=1/GPa)
#
#
# Indices 1 2 3 4 5 6 
#
# 1 0.011378 -0.004277 -0.004909 0.000000 0.000000 0.000000
# 2 -0.004277 0.019457 -0.008455 0.000000 0.000000 0.000000
# 3 -0.004909 -0.008455 0.026338 0.000000 0.000000 0.000000
# 4 0.000000 0.000000 0.000000 0.132391 0.000000 0.000000
# 5 0.000000 0.000000 0.000000 0.000000 0.044941 0.000000
# 6 0.000000 0.000000 0.000000 0.000000 0.000000 0.071974
#
#
# Mechanical properties :
#
#
# Convention : Reuss Voigt Hill
#
# Bulk Modulus (GPa) = 45.67775 51.65561 48.66668
# Shear Modulus (GPa) = 14.32428 18.01872 16.17150
#
# Velocity S-wave (km/s) = 2.73778 3.07060 2.90895
# Velocity P-wave (km/s) = 5.82199 6.29294 6.06204
#
# Compressibility (1/GPa) = 0.02189250
#
# Stress axis : x y z
#
# Youngs Moduli (GPa) = 87.88776 51.39437 37.96830
#
# Poissons Ratio (x) = 0.21980 0.18639
# Poissons Ratio (y) = 0.37587 0.32100
# Poissons Ratio (z) = 0.43146 0.43452
#
# Static dielectric constant tensor:
#      x y z
#    x 1.707850 0.000000 0.000000 
#    y 0.000000 1.702250 0.000000 
#    z 0.000000 0.000000 1.711560 
# 
# From -- ./inp_files/10981.got.cif
#   From: 2010.05.17/outbox.cif.g08.bks.cpg/sg52_6_cif.got.tgz:10981.got - 2010.06.03 12:15:38.
