data_PCOD9408196
_publ_section_title
;
Structure prediction by ZEFSAII (Michael W. Deem and Ramdas Pophale) SiO2 
 PCOD9408196
Probable space group: P N N A
;
_chemical_formula_sum "Si O2"
_cell_formula_units_Z 44
_cell_length_a 32.140322
_cell_length_b 7.259291
_cell_length_c 8.118157
_cell_angle_alpha 90.000000
_cell_angle_beta 90.000000
_cell_angle_gamma 90.000000
_cell_volume 1894.095515
_symmetry_space_group_name_H-M "P N N A"
_symmetry_group_IT_number 52
_symmetry_cell_setting 'orthorhombic'
loop_
_space_group_symop_operation_xyz
x,y,z
1/2-x,-y,z
x,1/2-y,1/2-z
1/2-x,1/2+y,1/2-z
-x,-y,-z
1/2+x,y,-z
-x,1/2+y,1/2+z
1/2+x,1/2-y,1/2+z
loop_
_atom_site_type_symbol
_atom_site_label
_atom_site_fract_x
_atom_site_fract_y
_atom_site_fract_z
Si Si1 0.702819 0.453626 0.089858
Si Si2 0.500059 0.750000 0.750000
Si Si3 0.432090 0.486853 0.151681
Si Si4 0.840714 0.977002 0.731824
Si Si5 0.161240 0.451258 0.591417
Si Si6 0.434008 0.635452 0.522330
O O1 0.750000 0.500000 0.131674
O O2 0.674687 0.537021 0.235923
O O3 0.688325 0.238600 0.084259
O O4 0.693472 0.515025 0.904353
O O5 0.532098 0.659662 0.879563
O O6 0.469845 0.608056 0.655716
O O7 0.383481 0.439127 0.161220
O O8 0.440037 0.548249 0.341898
O O9 0.435162 0.648501 0.020933
O O10 0.848056 0.750000 0.750000
O O11 0.830615 0.044375 0.915044
O O12 0.111830 0.412094 0.588733
#
# Coordination Sequence:
#
# PCOD9408196 Si02
#       6
#     8   4   8   8   8   8
#     4  10  18  29  55  84 101 127 184 238 275 324
#     4  12  22  28  56  92 114 138 186 252 284 306
#     4  10  19  36  54  79 114 145 192 231 273 333
#     4   9  16  35  59  73 103 152 190 217 264 352
#     4   9  18  35  57  76 104 148 190 219 269 349
#     4  10  19  37  57  78 107 160 194 213 272 358
#
# _framework density 23.230084999999999
#
# number of rings (size 3 to 8) (size 9 to 14) (size 15 to 20)
#    0.000    2.182    5.455    2.182    0.000    0.727 
#    0.000    0.000   22.000    0.000    0.000    0.000 
#    0.000    0.000    0.000    0.000    0.000    0.000 
#
# Total GULP energy -245434.835021 kJ/mol
# GULP energy per Si atom -5578.064432 kJ/mol
# Density = 2.317721 g / cm^3
# Si number density = 23.230085 Si / 1000 Ang^3
#
#
#
# Elastic Constant Matrix: (Units=GPa)
#
#
# Indices 1 2 3 4 5 6 
#
# 1 135.9058 13.9888 48.4752 0.0000 0.0000 0.0000
# 2 13.9888 50.3939 -7.9318 0.0000 0.0000 0.0000
# 3 48.4752 -7.9318 125.1272 0.0000 0.0000 0.0000
# 4 0.0000 0.0000 0.0000 1.1167 0.0000 0.0000
# 5 0.0000 0.0000 0.0000 0.0000 -28.3767 0.0000
# 6 0.0000 0.0000 0.0000 0.0000 0.0000 12.9129
#
#
#
# Elastic Compliance Matrix: (Units=1/GPa)
#
#
# Indices 1 2 3 4 5 6 
#
# 1 0.008985 -0.003073 -0.003676 0.000000 0.000000 0.000000
# 2 -0.003073 0.021094 0.002528 0.000000 0.000000 0.000000
# 3 -0.003676 0.002528 0.009576 0.000000 0.000000 0.000000
# 4 0.000000 0.000000 0.000000 0.895482 0.000000 0.000000
# 5 0.000000 0.000000 0.000000 0.000000 -0.035240 0.000000
# 6 0.000000 0.000000 0.000000 0.000000 0.000000 0.077442
#
#
# Mechanical properties :
#
#
# Convention : Reuss Voigt Hill
#
# Bulk Modulus (GPa) = 32.03688 46.72126 39.37907
# Shear Modulus (GPa) = 5.01914 14.25690 9.63802
#
# Velocity S-wave (km/s) = 1.47150 2.48004 2.03910
# Velocity P-wave (km/s) = 4.08756 5.32511 4.74684
#
# Compressibility (1/GPa) = 0.03121402
#
# Stress axis : x y z
#
# Youngs Moduli (GPa) = 111.29139 47.40574 104.42637
#
# Poissons Ratio (x) = 0.14567 0.38385
# Poissons Ratio (y) = 0.34198 -0.26395
# Poissons Ratio (z) = 0.40909 -0.11982
#
# Static dielectric constant tensor:
#      x y z
#    x 1.823610 0.000000 0.000000 
#    y 0.000000 2.007610 0.000000 
#    z 0.000000 0.000000 1.920220 
# 
# From -- ./inp_files/15406.got.cif
#   From: 2010.05.17/outbox.cif.g08.bks.cpg/sg52_8_cif.got.tgz:15406.got - 2010.06.03 12:15:38.
