data_PCOD9408280
_publ_section_title
;
Structure prediction by ZEFSAII (Michael W. Deem and Ramdas Pophale) SiO2 
 PCOD9408280
Probable space group: P N N A
;
_chemical_formula_sum "Si O2"
_cell_formula_units_Z 48
_cell_length_a 15.104123
_cell_length_b 16.973329
_cell_length_c 10.414116
_cell_angle_alpha 90.000000
_cell_angle_beta 90.000000
_cell_angle_gamma 90.000000
_cell_volume 2669.838269
_symmetry_space_group_name_H-M "P N N A"
_symmetry_group_IT_number 52
_symmetry_cell_setting 'orthorhombic'
loop_
_space_group_symop_operation_xyz
x,y,z
1/2-x,-y,z
x,1/2-y,1/2-z
1/2-x,1/2+y,1/2-z
-x,-y,-z
1/2+x,y,-z
-x,1/2+y,1/2+z
1/2+x,1/2-y,1/2+z
loop_
_atom_site_type_symbol
_atom_site_label
_atom_site_fract_x
_atom_site_fract_y
_atom_site_fract_z
Si Si1 0.114035 0.507002 0.131974
Si Si2 0.017262 0.243604 0.403354
Si Si3 0.788711 0.716810 0.547303
Si Si4 0.347175 0.174494 0.843161
Si Si5 0.936204 0.425715 0.135698
Si Si6 0.252501 0.369856 0.188430
O O1 0.178884 0.433234 0.148678
O O2 0.156674 0.582214 0.201076
O O3 0.017505 0.480759 0.178712
O O4 0.109695 0.530698 0.982339
O O5 0.038124 0.250000 0.250000
O O6 0.107580 0.265190 0.474511
O O7 0.935640 0.303119 0.424132
O O8 0.981797 0.154720 0.419701
O O9 0.737330 0.672866 0.434115
O O10 0.776994 0.667221 0.677370
O O11 0.743902 0.801128 0.581927
O O12 0.335091 0.250000 0.750000
O O13 0.372474 0.102260 0.750348
#
# Coordination Sequence:
#
# PCOD9408280 Si02
#       6
#     8   8   8   8   8   8
#     4  10  18  31  55  81 108 137 190 233 271 332
#     4   9  15  31  53  80 109 148 187 224 276 329
#     4  11  18  33  56  79 115 146 187 233 268 336
#     4   9  19  32  55  79 110 150 181 225 291 328
#     4   9  17  32  52  81 110 144 181 229 283 335
#     4  10  19  30  52  84 102 140 191 235 268 315
#
# _framework density 17.978618999999998
#
# number of rings (size 3 to 8) (size 9 to 14) (size 15 to 20)
#    0.000    2.667    3.333    3.000    0.000    0.000 
#    0.000    0.833    7.333    8.000    0.000    0.000 
#    0.000    0.000    0.000    0.000    0.000    0.000 
#
# Total GULP energy -267429.694653 kJ/mol
# GULP energy per Si atom -5571.451972 kJ/mol
# Density = 1.793770 g / cm^3
# Si number density = 17.978619 Si / 1000 Ang^3
#
#
#
# Elastic Constant Matrix: (Units=GPa)
#
#
# Indices 1 2 3 4 5 6 
#
# 1 74.4678 17.0671 34.2564 0.0000 0.0000 0.0000
# 2 17.0671 70.9074 24.4834 0.0000 0.0000 0.0000
# 3 34.2564 24.4834 46.8036 0.0000 0.0000 0.0000
# 4 0.0000 0.0000 0.0000 24.9494 0.0000 0.0000
# 5 0.0000 0.0000 0.0000 0.0000 23.4233 0.0000
# 6 0.0000 0.0000 0.0000 0.0000 0.0000 20.7499
#
#
#
# Elastic Compliance Matrix: (Units=1/GPa)
#
#
# Indices 1 2 3 4 5 6 
#
# 1 0.020250 0.000297 -0.014977 0.000000 0.000000 0.000000
# 2 0.000297 0.017216 -0.009223 0.000000 0.000000 0.000000
# 3 -0.014977 -0.009223 0.037153 0.000000 0.000000 0.000000
# 4 0.000000 0.000000 0.000000 0.040081 0.000000 0.000000
# 5 0.000000 0.000000 0.000000 0.000000 0.042692 0.000000
# 6 0.000000 0.000000 0.000000 0.000000 0.000000 0.048193
#
#
# Mechanical properties :
#
#
# Convention : Reuss Voigt Hill
#
# Bulk Modulus (GPa) = 37.29591 38.19916 37.74753
# Shear Modulus (GPa) = 19.06003 21.58266 20.32134
#
# Velocity S-wave (km/s) = 3.25953 3.46853 3.36565
# Velocity P-wave (km/s) = 5.91233 6.11016 6.01206
#
# Compressibility (1/GPa) = 0.02681259
#
# Stress axis : x y z
#
# Youngs Moduli (GPa) = 49.38249 58.08522 26.91603
#
# Poissons Ratio (x) = -0.01726 0.40312
# Poissons Ratio (y) = -0.01468 0.24826
# Poissons Ratio (z) = 0.73960 0.53574
#
# Static dielectric constant tensor:
#      x y z
#    x 1.668700 0.000000 0.000000 
#    y 0.000000 1.632110 0.000000 
#    z 0.000000 0.000000 1.603820 
# 
# From -- ./inp_files/19543.got.cif
#   From: 2010.05.17/outbox.cif.g08.bks.cpg/sg52_10_cif.got.tgz:19543.got - 2010.06.03 12:15:38.
