data_PCOD9408190
_publ_section_title
;
Structure prediction by ZEFSAII (Michael W. Deem and Ramdas Pophale) SiO2 
 PCOD9408190
Probable space group: P N N A
;
_chemical_formula_sum "Si O2"
_cell_formula_units_Z 36
_cell_length_a 8.702754
_cell_length_b 13.087152
_cell_length_c 14.299748
_cell_angle_alpha 90.000000
_cell_angle_beta 90.000000
_cell_angle_gamma 90.000000
_cell_volume 1628.659280
_symmetry_space_group_name_H-M "P N N A"
_symmetry_group_IT_number 52
_symmetry_cell_setting 'orthorhombic'
loop_
_space_group_symop_operation_xyz
x,y,z
1/2-x,-y,z
x,1/2-y,1/2-z
1/2-x,1/2+y,1/2-z
-x,-y,-z
1/2+x,y,-z
-x,1/2+y,1/2+z
1/2+x,1/2-y,1/2+z
loop_
_atom_site_type_symbol
_atom_site_label
_atom_site_fract_x
_atom_site_fract_y
_atom_site_fract_z
Si Si1 0.096856 0.368790 0.822344
Si Si2 0.227303 0.146103 0.874345
Si Si3 0.750000 0.000000 0.466050
Si Si4 0.186407 0.804111 0.410075
Si Si5 0.965086 0.672251 0.545712
O O1 0.196314 0.269864 0.859226
O O2 0.155412 0.396580 0.720232
O O3 0.118468 0.460800 0.895183
O O4 0.920104 0.333946 0.823243
O O5 0.407532 0.123718 0.887155
O O6 0.137487 0.112939 0.968670
O O7 0.719901 0.905528 0.532393
O O8 0.074065 0.739615 0.477921
O O9 0.342335 0.740836 0.398107
#
# Coordination Sequence:
#
# PCOD9408190 Si02
#       5
#     8   8   4   8   8
#     4  10  20  31  50  74 117 135 177 217 262 328
#     4   9  18  34  50  75  99 143 181 221 260 307
#     4  12  18  30  54  82 120 144 162 208 290 334
#     4  10  18  29  51  80 105 144 167 210 276 328
#     4   9  16  33  53  72 102 140 180 217 269 307
#
# _framework density 22.104073
#
# number of rings (size 3 to 8) (size 9 to 14) (size 15 to 20)
#    0.000    2.222    6.667    0.667    0.000    0.000 
#    0.000   13.333    0.000    1.333    0.000    0.000 
#    0.000    0.000    0.000    0.000    0.000    0.000 
#
# Total GULP energy -200694.506374 kJ/mol
# GULP energy per Si atom -5574.847399 kJ/mol
# Density = 2.205376 g / cm^3
# Si number density = 22.104073 Si / 1000 Ang^3
#
#
#
# Elastic Constant Matrix: (Units=GPa)
#
#
# Indices 1 2 3 4 5 6 
#
# 1 173.8922 9.9732 70.9381 0.0000 0.0000 0.0000
# 2 9.9732 42.1551 16.4232 0.0000 0.0000 0.0000
# 3 70.9381 16.4232 115.7977 0.0000 0.0000 0.0000
# 4 0.0000 0.0000 0.0000 6.2877 0.0000 0.0000
# 5 0.0000 0.0000 0.0000 0.0000 18.7795 0.0000
# 6 0.0000 0.0000 0.0000 0.0000 0.0000 8.6813
#
#
#
# Elastic Compliance Matrix: (Units=1/GPa)
#
#
# Indices 1 2 3 4 5 6 
#
# 1 0.007667 0.000017 -0.004699 0.000000 0.000000 0.000000
# 2 0.000017 0.025109 -0.003572 0.000000 0.000000 0.000000
# 3 -0.004699 -0.003572 0.012021 0.000000 0.000000 0.000000
# 4 0.000000 0.000000 0.000000 0.159041 0.000000 0.000000
# 5 0.000000 0.000000 0.000000 0.000000 0.053250 0.000000
# 6 0.000000 0.000000 0.000000 0.000000 0.000000 0.115191
#
#
# Mechanical properties :
#
#
# Convention : Reuss Voigt Hill
#
# Bulk Modulus (GPa) = 35.34863 58.50152 46.92508
# Shear Modulus (GPa) = 12.55602 22.38372 17.46987
#
# Velocity S-wave (km/s) = 2.38595 3.18567 2.81436
# Velocity P-wave (km/s) = 4.85973 6.32892 5.64235
#
# Compressibility (1/GPa) = 0.02828964
#
# Stress axis : x y z
#
# Youngs Moduli (GPa) = 130.43508 39.82581 83.18831
#
# Poissons Ratio (x) = -0.00067 0.39090
# Poissons Ratio (y) = -0.00220 0.29711
# Poissons Ratio (z) = 0.61292 0.14224
#
# Static dielectric constant tensor:
#      x y z
#    x 1.860850 0.000000 0.000000 
#    y 0.000000 1.882690 0.000000 
#    z 0.000000 0.000000 1.854970 
# 
# From -- ./inp_files/24295.got.cif
#   From: 2010.05.17/outbox.cif.g08.bks.cpg/sg52_13_cif.got.tgz:24295.got - 2010.06.03 12:15:38.
