data_PCOD9408965
_publ_section_title
;
Structure prediction by ZEFSAII (Michael W. Deem and Ramdas Pophale) SiO2 
 PCOD9408965
Probable space group: P N N A
;
_chemical_formula_sum "Si O2"
_cell_formula_units_Z 40
_cell_length_a 8.704719
_cell_length_b 20.978647
_cell_length_c 10.678913
_cell_angle_alpha 90.000000
_cell_angle_beta 90.000000
_cell_angle_gamma 90.000000
_cell_volume 1950.110765
_symmetry_space_group_name_H-M "P N N A"
_symmetry_group_IT_number 52
_symmetry_cell_setting 'orthorhombic'
loop_
_space_group_symop_operation_xyz
x,y,z
1/2-x,-y,z
x,1/2-y,1/2-z
1/2-x,1/2+y,1/2-z
-x,-y,-z
1/2+x,y,-z
-x,1/2+y,1/2+z
1/2+x,1/2-y,1/2+z
loop_
_atom_site_type_symbol
_atom_site_label
_atom_site_fract_x
_atom_site_fract_y
_atom_site_fract_z
Si Si1 0.500185 0.412623 0.948048
Si Si2 0.361770 0.724191 0.117656
Si Si3 0.750000 0.500000 0.188684
Si Si4 0.985160 0.223599 0.873905
Si Si5 0.515937 0.910885 0.749140
Si Si6 0.250000 0.000000 0.325481
O O1 0.574652 0.347689 0.894679
O O2 0.346243 0.443433 0.885643
O O3 0.623103 0.466902 0.912337
O O4 0.486140 0.398920 0.096871
O O5 0.419020 0.750000 0.250000
O O6 0.177831 0.738220 0.117552
O O7 0.427069 0.762749 0.000494
O O8 0.625707 0.459284 0.266394
O O9 0.069899 0.250000 0.750000
O O10 0.975203 0.149676 0.837830
O O11 0.673351 0.948345 0.762113
#
# Coordination Sequence:
#
# PCOD9408965 Si02
#       6
#     8   8   4   8   8   4
#     4  11  20  36  62  98 137 167 224 278 332 403
#     4  11  26  42  66  94 133 178 224 269 337 401
#     4  10  23  34  64 105 130 177 220 283 344 385
#     4  11  24  44  64  94 131 178 215 277 334 394
#     4  11  20  37  64  94 136 168 224 276 335 399
#     4  10  19  34  60 101 134 173 212 283 336 389
#
# _framework density 20.511654
#
# number of rings (size 3 to 8) (size 9 to 14) (size 15 to 20)
#    0.000    1.200    2.000    7.200    2.800    2.400 
#    0.000    0.000    0.000   20.400    0.000    0.000 
#    0.000    0.000    0.000    0.000    0.000    0.000 
#
# Total GULP energy -223003.244432 kJ/mol
# GULP energy per Si atom -5575.081111 kJ/mol
# Density = 2.046497 g / cm^3
# Si number density = 20.511654 Si / 1000 Ang^3
#
#
#
# Elastic Constant Matrix: (Units=GPa)
#
#
# Indices 1 2 3 4 5 6 
#
# 1 73.0351 18.5600 16.2183 0.0000 0.0000 0.0000
# 2 18.5600 124.7326 39.6152 0.0000 0.0000 0.0000
# 3 16.2183 39.6152 102.7508 0.0000 0.0000 0.0000
# 4 0.0000 0.0000 0.0000 39.1057 0.0000 0.0000
# 5 0.0000 0.0000 0.0000 0.0000 13.1093 0.0000
# 6 0.0000 0.0000 0.0000 0.0000 0.0000 39.0012
#
#
#
# Elastic Compliance Matrix: (Units=1/GPa)
#
#
# Indices 1 2 3 4 5 6 
#
# 1 0.014474 -0.001627 -0.001657 0.000000 0.000000 0.000000
# 2 -0.001627 0.009319 -0.003336 0.000000 0.000000 0.000000
# 3 -0.001657 -0.003336 0.011280 0.000000 0.000000 0.000000
# 4 0.000000 0.000000 0.000000 0.025572 0.000000 0.000000
# 5 0.000000 0.000000 0.000000 0.000000 0.076282 0.000000
# 6 0.000000 0.000000 0.000000 0.000000 0.000000 0.025640
#
#
# Mechanical properties :
#
#
# Convention : Reuss Voigt Hill
#
# Bulk Modulus (GPa) = 45.80526 49.92282 47.86404
# Shear Modulus (GPa) = 27.30988 33.31825 30.31407
#
# Velocity S-wave (km/s) = 3.65284 4.03470 3.84851
# Velocity P-wave (km/s) = 6.33804 6.78946 6.56763
#
# Compressibility (1/GPa) = 0.02183156
#
# Stress axis : x y z
#
# Youngs Moduli (GPa) = 69.09144 107.30991 88.65244
#
# Poissons Ratio (x) = 0.17463 0.14691
# Poissons Ratio (y) = 0.11244 0.29574
# Poissons Ratio (z) = 0.11449 0.35798
#
# Static dielectric constant tensor:
#      x y z
#    x 1.794260 0.000000 0.000000 
#    y 0.000000 1.800640 0.000000 
#    z 0.000000 0.000000 1.740870 
# 
# From -- ./inp_files/16842.got.cif
#   From: 2010.05.17/outbox.cif.g08.bks.cpg/sg52_9_cif.got.tgz:16842.got - 2010.06.03 12:15:38.
