data_PCOD9408179
_publ_section_title
;
Structure prediction by ZEFSAII (Michael W. Deem and Ramdas Pophale) SiO2 
 PCOD9408179
Probable space group: P N N A
;
_chemical_formula_sum "Si O2"
_cell_formula_units_Z 44
_cell_length_a 21.672476
_cell_length_b 5.410068
_cell_length_c 20.831963
_cell_angle_alpha 90.000000
_cell_angle_beta 90.000000
_cell_angle_gamma 90.000000
_cell_volume 2442.538681
_symmetry_space_group_name_H-M "P N N A"
_symmetry_group_IT_number 52
_symmetry_cell_setting 'orthorhombic'
loop_
_space_group_symop_operation_xyz
x,y,z
1/2-x,-y,z
x,1/2-y,1/2-z
1/2-x,1/2+y,1/2-z
-x,-y,-z
1/2+x,y,-z
-x,1/2+y,1/2+z
1/2+x,1/2-y,1/2+z
loop_
_atom_site_type_symbol
_atom_site_label
_atom_site_fract_x
_atom_site_fract_y
_atom_site_fract_z
Si Si1 0.644641 0.750000 0.750000
Si Si2 0.250000 0.500000 0.312836
Si Si3 0.250000 0.500000 0.103875
Si Si4 0.939934 0.241169 0.871774
Si Si5 0.483380 0.757868 0.412983
Si Si6 0.110416 0.814765 0.984731
Si Si7 0.143803 0.322910 0.007153
O O1 0.689287 0.522205 0.731073
O O2 0.602781 0.696862 0.811697
O O3 0.241857 0.750558 0.354127
O O4 0.194079 0.406262 0.059012
O O5 0.986725 0.469037 0.882572
O O6 0.900814 0.215703 0.938150
O O7 0.968834 0.968286 0.865189
O O8 0.543302 0.677379 0.452482
O O9 0.424158 0.786059 0.460326
O O10 0.139558 0.558518 0.961402
O O11 0.152349 0.055083 0.976117
#
# Coordination Sequence:
#
# PCOD9408179 Si02
#       7
#     4   4   4   8   8   8   8
#     4  12  26  38  50  70  98 144 186 232 260 288
#     4  12  25  38  50  62  94 144 200 224 245 284
#     4  12  23  38  52  70 100 144 182 226 261 292
#     4  10  20  32  48  68  94 118 161 214 265 305
#     4  10  18  33  53  72  90 119 165 222 268 315
#     4  10  18  32  53  73  91 118 165 221 269 315
#     4  10  18  29  48  71  95 119 159 210 260 308
#
# _framework density 18.014046
#
# number of rings (size 3 to 8) (size 9 to 14) (size 15 to 20)
#    0.000    1.455    0.000   11.455    0.000    3.636 
#    0.000    0.000    0.000    0.000    0.000    0.000 
#    0.000    0.000    0.000    0.000    0.000  130.909 
#
# Total GULP energy -245076.906175 kJ/mol
# GULP energy per Si atom -5569.929686 kJ/mol
# Density = 1.797305 g / cm^3
# Si number density = 18.014046 Si / 1000 Ang^3
#
#
#
# Elastic Constant Matrix: (Units=GPa)
#
#
# Indices 1 2 3 4 5 6 
#
# 1 44.4446 28.0037 35.9042 0.0000 0.0000 0.0000
# 2 28.0037 191.0617 14.9534 0.0000 0.0000 0.0000
# 3 35.9042 14.9534 39.4776 0.0000 0.0000 0.0000
# 4 0.0000 0.0000 0.0000 16.3649 0.0000 0.0000
# 5 0.0000 0.0000 0.0000 0.0000 15.5513 0.0000
# 6 0.0000 0.0000 0.0000 0.0000 0.0000 28.0082
#
#
#
# Elastic Compliance Matrix: (Units=1/GPa)
#
#
# Indices 1 2 3 4 5 6 
#
# 1 0.093709 -0.007280 -0.082469 0.000000 0.000000 0.000000
# 2 -0.007280 0.005959 0.004364 0.000000 0.000000 0.000000
# 3 -0.082469 0.004364 0.098682 0.000000 0.000000 0.000000
# 4 0.000000 0.000000 0.000000 0.061107 0.000000 0.000000
# 5 0.000000 0.000000 0.000000 0.000000 0.064303 0.000000
# 6 0.000000 0.000000 0.000000 0.000000 0.000000 0.035704
#
#
# Mechanical properties :
#
#
# Convention : Reuss Voigt Hill
#
# Bulk Modulus (GPa) = 36.25857 48.07848 42.16853
# Shear Modulus (GPa) = 9.26907 25.05970 17.16439
#
# Velocity S-wave (km/s) = 2.27082 3.73382 3.09015
# Velocity P-wave (km/s) = 5.20069 6.73320 6.01594
#
# Compressibility (1/GPa) = 0.02757969
#
# Stress axis : x y z
#
# Youngs Moduli (GPa) = 10.67133 167.80109 10.13356
#
# Poissons Ratio (x) = 1.22166 0.83571
# Poissons Ratio (y) = 0.07769 -0.04422
# Poissons Ratio (z) = 0.88005 -0.73229
#
# Static dielectric constant tensor:
#      x y z
#    x 1.678170 0.000000 0.000000 
#    y 0.000000 1.792530 0.000000 
#    z 0.000000 0.000000 1.622260 
# 
# From -- ./inp_files/40779.got.cif
#   From: 2010.05.17/outbox.cif.g08.bks.cpg/sg52_21_cif.got.tgz:40779.got - 2010.06.03 12:15:38.
