data_PCOD9408806
_publ_section_title
;
Structure prediction by ZEFSAII (Michael W. Deem and Ramdas Pophale) SiO2 
 PCOD9408806
Probable space group: P N N A
;
_chemical_formula_sum "Si O2"
_cell_formula_units_Z 52
_cell_length_a 18.541788
_cell_length_b 12.673387
_cell_length_c 11.394312
_cell_angle_alpha 90.000000
_cell_angle_beta 90.000000
_cell_angle_gamma 90.000000
_cell_volume 2677.518099
_symmetry_space_group_name_H-M "P N N A"
_symmetry_group_IT_number 52
_symmetry_cell_setting 'orthorhombic'
loop_
_space_group_symop_operation_xyz
x,y,z
1/2-x,-y,z
x,1/2-y,1/2-z
1/2-x,1/2+y,1/2-z
-x,-y,-z
1/2+x,y,-z
-x,1/2+y,1/2+z
1/2+x,1/2-y,1/2+z
loop_
_atom_site_type_symbol
_atom_site_label
_atom_site_fract_x
_atom_site_fract_y
_atom_site_fract_z
Si Si1 0.459733 0.295017 0.878707
Si Si2 0.830607 0.526347 0.632104
Si Si3 0.438872 0.250000 0.250000
Si Si4 0.959787 0.102075 0.946965
Si Si5 0.653444 0.640618 0.958768
Si Si6 0.092741 0.074745 0.373569
Si Si7 0.798581 0.747773 0.891570
O O1 0.468164 0.250000 0.750000
O O2 0.509104 0.399661 0.891529
O O3 0.476354 0.197627 0.965090
O O4 0.379622 0.325285 0.917767
O O5 0.750000 0.500000 0.679751
O O6 0.874993 0.434969 0.565272
O O7 0.884533 0.555633 0.738166
O O8 0.812154 0.633944 0.563899
O O9 0.478392 0.154161 0.180869
O O10 0.390010 0.302604 0.148601
O O11 0.000000 0.000000 0.000000
O O12 0.632689 0.519173 0.940319
O O13 0.734103 0.680745 0.945831
O O14 0.128736 0.184315 0.408981
O O15 0.784439 0.750000 0.750000
#
# Coordination Sequence:
#
# PCOD9408806 Si02
#       7
#     8   8   4   8   8   8   8
#     4  11  24  38  53  83 118 164 202 235 294 374
#     4  11  20  35  63  92 121 149 197 268 327 369
#     4  10  20  34  56  88 116 144 208 244 306 362
#     4  11  22  38  61  88 126 163 204 261 314 375
#     4  11  20  36  58  83 120 150 194 247 305 368
#     4  11  20  34  57  88 122 144 188 250 323 362
#     4  10  19  32  58  93 119 141 185 257 323 369
#
# _framework density 19.420971000000002
#
# number of rings (size 3 to 8) (size 9 to 14) (size 15 to 20)
#    0.000    1.231    2.308    7.846    0.000    0.000 
#    0.000    0.000    0.000    5.538   10.000    0.000 
#    0.000    0.000    0.000    0.000    0.000    0.000 
#
# Total GULP energy -289592.422187 kJ/mol
# GULP energy per Si atom -5569.085042 kJ/mol
# Density = 1.937677 g / cm^3
# Si number density = 19.420971 Si / 1000 Ang^3
#
#
#
# Elastic Constant Matrix: (Units=GPa)
#
#
# Indices 1 2 3 4 5 6 
#
# 1 74.4194 14.0502 18.1418 0.0000 0.0000 0.0000
# 2 14.0502 90.0543 22.9733 0.0000 0.0000 0.0000
# 3 18.1418 22.9733 42.9247 0.0000 0.0000 0.0000
# 4 0.0000 0.0000 0.0000 29.1182 0.0000 0.0000
# 5 0.0000 0.0000 0.0000 0.0000 18.2416 0.0000
# 6 0.0000 0.0000 0.0000 0.0000 0.0000 35.8972
#
#
#
# Elastic Compliance Matrix: (Units=1/GPa)
#
#
# Indices 1 2 3 4 5 6 
#
# 1 0.015035 -0.000839 -0.005905 0.000000 0.000000 0.000000
# 2 -0.000839 0.012907 -0.006553 0.000000 0.000000 0.000000
# 3 -0.005905 -0.006553 0.029300 0.000000 0.000000 0.000000
# 4 0.000000 0.000000 0.000000 0.034343 0.000000 0.000000
# 5 0.000000 0.000000 0.000000 0.000000 0.054820 0.000000
# 6 0.000000 0.000000 0.000000 0.000000 0.000000 0.027857
#
#
# Mechanical properties :
#
#
# Convention : Reuss Voigt Hill
#
# Bulk Modulus (GPa) = 32.63014 35.30323 33.96669
# Shear Modulus (GPa) = 23.68845 26.80028 25.24437
#
# Velocity S-wave (km/s) = 3.49626 3.71882 3.60926
# Velocity P-wave (km/s) = 5.75642 6.05449 5.90734
#
# Compressibility (1/GPa) = 0.03064651
#
# Stress axis : x y z
#
# Youngs Moduli (GPa) = 66.50956 77.47664 34.12996
#
# Poissons Ratio (x) = 0.06503 0.20155
# Poissons Ratio (y) = 0.05582 0.22366
# Poissons Ratio (z) = 0.39277 0.50772
#
# Static dielectric constant tensor:
#      x y z
#    x 1.681860 0.000000 0.000000 
#    y 0.000000 1.777340 0.000000 
#    z 0.000000 0.000000 1.676400 
# 
# From -- ./inp_files/20801.got.cif
#   From: 2010.05.17/outbox.cif.g08.bks.cpg/sg52_11_cif.got.tgz:20801.got - 2010.06.03 12:15:38.
