data_PCOD9408629
_publ_section_title
;
Structure prediction by ZEFSAII (Michael W. Deem and Ramdas Pophale) SiO2 
 PCOD9408629
Probable space group: P N N A
;
_chemical_formula_sum "Si O2"
_cell_formula_units_Z 64
_cell_length_a 17.964569
_cell_length_b 9.616931
_cell_length_c 21.476402
_cell_angle_alpha 90.000000
_cell_angle_beta 90.000000
_cell_angle_gamma 90.000000
_cell_volume 3710.349556
_symmetry_space_group_name_H-M "P N N A"
_symmetry_group_IT_number 52
_symmetry_cell_setting 'orthorhombic'
loop_
_space_group_symop_operation_xyz
x,y,z
1/2-x,-y,z
x,1/2-y,1/2-z
1/2-x,1/2+y,1/2-z
-x,-y,-z
1/2+x,y,-z
-x,1/2+y,1/2+z
1/2+x,1/2-y,1/2+z
loop_
_atom_site_type_symbol
_atom_site_label
_atom_site_fract_x
_atom_site_fract_y
_atom_site_fract_z
Si Si1 0.456563 0.465176 0.164945
Si Si2 0.058404 0.889265 0.973175
Si Si3 0.059533 0.942687 0.191141
Si Si4 0.417333 0.745346 0.821620
Si Si5 0.442622 0.776624 0.119381
Si Si6 0.285206 0.654648 0.445944
Si Si7 0.135870 0.743520 0.406008
Si Si8 0.180834 0.088517 0.914286
O O1 0.428959 0.433595 0.235183
O O2 0.540265 0.399533 0.162836
O O3 0.448244 0.626583 0.150408
O O4 0.406141 0.380430 0.116525
O O5 0.009730 0.789600 0.929987
O O6 0.118464 0.975859 0.933997
O O7 0.097881 0.815926 0.031386
O O8 0.000000 0.000000 0.000000
O O9 0.121870 0.868172 0.149296
O O10 0.984849 0.856899 0.175344
O O11 0.049347 0.100154 0.169465
O O12 0.391166 0.750000 0.750000
O O13 0.354770 0.798292 0.868611
O O14 0.364525 0.811619 0.084780
O O15 0.250000 0.500000 0.433250
O O16 0.222623 0.757980 0.420216
O O17 0.294032 0.657794 0.520525
O O18 0.250000 0.000000 0.888021
#
# Coordination Sequence:
#
# PCOD9408629 Si02
#       8
#     8   8   8   8   8   8   8   8
#     4  10  24  37  56  90 124 152 190 240 299 346
#     4  12  18  33  62  87 108 149 198 248 275 340
#     4  10  18  38  64  84 111 159 204 235 270 348
#     4   9  19  38  64  86 116 153 191 243 289 351
#     4  12  22  35  60  88 117 150 201 242 291 338
#     4  11  20  35  58  86 114 149 196 251 277 338
#     4  11  20  38  57  83 119 152 196 237 297 343
#     4  11  19  35  64  93 103 148 206 240 282 344
#
# _framework density 17.249048999999999
#
# number of rings (size 3 to 8) (size 9 to 14) (size 15 to 20)
#    0.000    1.250    7.500    2.250    0.000    1.000 
#    0.000    3.750    5.500    0.000    0.000    0.000 
#    0.000    0.000    0.000    0.000    0.000    0.000 
#
# Total GULP energy -357014.281572 kJ/mol
# GULP energy per Si atom -5578.348150 kJ/mol
# Density = 1.720979 g / cm^3
# Si number density = 17.249049 Si / 1000 Ang^3
#
#
#
# Elastic Constant Matrix: (Units=GPa)
#
#
# Indices 1 2 3 4 5 6 
#
# 1 84.6893 13.8511 39.7625 0.0000 0.0000 0.0000
# 2 13.8511 84.3301 18.9072 0.0000 0.0000 0.0000
# 3 39.7625 18.9072 76.6777 0.0000 0.0000 0.0000
# 4 0.0000 0.0000 0.0000 23.3336 0.0000 0.0000
# 5 0.0000 0.0000 0.0000 0.0000 23.9209 0.0000
# 6 0.0000 0.0000 0.0000 0.0000 0.0000 21.4262
#
#
#
# Elastic Compliance Matrix: (Units=1/GPa)
#
#
# Indices 1 2 3 4 5 6 
#
# 1 0.015658 -0.000795 -0.007924 0.000000 0.000000 0.000000
# 2 -0.000795 0.012592 -0.002693 0.000000 0.000000 0.000000
# 3 -0.007924 -0.002693 0.017815 0.000000 0.000000 0.000000
# 4 0.000000 0.000000 0.000000 0.042857 0.000000 0.000000
# 5 0.000000 0.000000 0.000000 0.000000 0.041804 0.000000
# 6 0.000000 0.000000 0.000000 0.000000 0.000000 0.046672
#
#
# Mechanical properties :
#
#
# Convention : Reuss Voigt Hill
#
# Bulk Modulus (GPa) = 43.02572 43.41540 43.22056
# Shear Modulus (GPa) = 24.04208 25.28124 24.66166
#
# Velocity S-wave (km/s) = 3.73744 3.83255 3.78529
# Velocity P-wave (km/s) = 6.60474 6.69395 6.64949
#
# Compressibility (1/GPa) = 0.02324191
#
# Stress axis : x y z
#
# Youngs Moduli (GPa) = 63.86432 79.41244 56.13400
#
# Poissons Ratio (x) = 0.06316 0.44479
# Poissons Ratio (y) = 0.05079 0.15115
# Poissons Ratio (z) = 0.50604 0.21383
#
# Static dielectric constant tensor:
#      x y z
#    x 1.600760 0.000000 0.000000 
#    y 0.000000 1.591930 0.000000 
#    z 0.000000 0.000000 1.595850 
# 
# From -- ./inp_files/37681.got.cif
#   From: 2010.05.17/outbox.cif.g08.bks.cpg/sg52_19_cif.got.tgz:37681.got - 2010.06.03 12:15:38.
