data_PCOD9408506
_publ_section_title
;
Structure prediction by ZEFSAII (Michael W. Deem and Ramdas Pophale) SiO2 
 PCOD9408506
Probable space group: P N N A
;
_chemical_formula_sum "Si O2"
_cell_formula_units_Z 28
_cell_length_a 14.188615
_cell_length_b 9.298836
_cell_length_c 7.471178
_cell_angle_alpha 90.000000
_cell_angle_beta 90.000000
_cell_angle_gamma 90.000000
_cell_volume 985.729324
_symmetry_space_group_name_H-M "P N N A"
_symmetry_group_IT_number 52
_symmetry_cell_setting 'orthorhombic'
loop_
_space_group_symop_operation_xyz
x,y,z
1/2-x,-y,z
x,1/2-y,1/2-z
1/2-x,1/2+y,1/2-z
-x,-y,-z
1/2+x,y,-z
-x,1/2+y,1/2+z
1/2+x,1/2-y,1/2+z
loop_
_atom_site_type_symbol
_atom_site_label
_atom_site_fract_x
_atom_site_fract_y
_atom_site_fract_z
Si Si1 0.590808 0.339313 0.001394
Si Si2 0.857398 0.544137 0.612018
Si Si3 0.631213 0.750000 0.750000
Si Si4 0.629408 0.635509 0.091339
O O1 0.622068 0.388022 0.804632
O O2 0.615006 0.172033 0.022529
O O3 0.476973 0.350024 0.990293
O O4 0.634428 0.465052 0.127181
O O5 0.750000 0.500000 0.579075
O O6 0.909300 0.390046 0.641780
O O7 0.688535 0.821374 0.584538
O O8 0.641918 0.750000 0.250000
#
# Coordination Sequence:
#
# PCOD9408506 Si02
#       4
#     8   8   4   8
#     4   9  19  35  54  88 121 164 212 259 329 375
#     4  10  18  35  58  86 122 165 220 265 309 399
#     4  10  22  32  60  96 110 164 214 252 342 384
#     4  10  19  38  58  85 132 154 204 275 322 393
#
# _framework density 28.405360999999999
#
# number of rings (size 3 to 8) (size 9 to 14) (size 15 to 20)
#    0.000    2.286    2.857    1.714    0.000    1.143 
#    0.000    0.000    0.000   10.286   14.857    0.000 
#    0.000    0.000    0.000    0.000    0.000    0.000 
#
# Total GULP energy -156115.692863 kJ/mol
# GULP energy per Si atom -5575.560459 kJ/mol
# Density = 2.834071 g / cm^3
# Si number density = 28.405361 Si / 1000 Ang^3
#
#
#
# Elastic Constant Matrix: (Units=GPa)
#
#
# Indices 1 2 3 4 5 6 
#
# 1 108.7931 30.8270 -7.9179 0.0000 0.0000 0.0000
# 2 30.8270 348.2650 95.2821 0.0000 0.0000 0.0000
# 3 -7.9179 95.2821 119.6776 0.0000 0.0000 0.0000
# 4 0.0000 0.0000 0.0000 76.0659 0.0000 0.0000
# 5 0.0000 0.0000 0.0000 0.0000 13.2786 0.0000
# 6 0.0000 0.0000 0.0000 0.0000 0.0000 35.4074
#
#
#
# Elastic Compliance Matrix: (Units=1/GPa)
#
#
# Indices 1 2 3 4 5 6 
#
# 1 0.009689 -0.001321 0.001693 0.000000 0.000000 0.000000
# 2 -0.001321 0.003851 -0.003153 0.000000 0.000000 0.000000
# 3 0.001693 -0.003153 0.010978 0.000000 0.000000 0.000000
# 4 0.000000 0.000000 0.000000 0.013146 0.000000 0.000000
# 5 0.000000 0.000000 0.000000 0.000000 0.075309 0.000000
# 6 0.000000 0.000000 0.000000 0.000000 0.000000 0.028243
#
#
# Mechanical properties :
#
#
# Convention : Reuss Voigt Hill
#
# Bulk Modulus (GPa) = 52.75539 90.34645 71.55092
# Shear Modulus (GPa) = 32.65870 55.52001 44.08935
#
# Velocity S-wave (km/s) = 3.39446 4.42584 3.94401
# Velocity P-wave (km/s) = 5.82887 7.61528 6.78116
#
# Compressibility (1/GPa) = 0.01895541
#
# Stress axis : x y z
#
# Youngs Moduli (GPa) = 103.20799 259.67147 91.08833
#
# Poissons Ratio (x) = 0.34295 -0.15417
# Poissons Ratio (y) = 0.13631 0.28724
# Poissons Ratio (z) = -0.17468 0.81885
#
# Static dielectric constant tensor:
#      x y z
#    x 2.542540 0.000000 0.000000 
#    y 0.000000 2.376870 0.000000 
#    z 0.000000 0.000000 2.181410 
# 
# From -- ./inp_files/11338.got.cif
#   From: 2010.05.17/outbox.cif.g08.bks.cpg/sg52_6_cif.got.tgz:11338.got - 2010.06.03 12:15:38.
