data_PCOD9408053
_publ_section_title
;
Structure prediction by ZEFSAII (Michael W. Deem and Ramdas Pophale) SiO2 
 PCOD9408053
Probable space group: P N N A
;
_chemical_formula_sum "Si O2"
_cell_formula_units_Z 40
_cell_length_a 15.898988
_cell_length_b 12.287736
_cell_length_c 8.273951
_cell_angle_alpha 90.000000
_cell_angle_beta 90.000000
_cell_angle_gamma 90.000000
_cell_volume 1616.420308
_symmetry_space_group_name_H-M "P N N A"
_symmetry_group_IT_number 52
_symmetry_cell_setting 'orthorhombic'
loop_
_space_group_symop_operation_xyz
x,y,z
1/2-x,-y,z
x,1/2-y,1/2-z
1/2-x,1/2+y,1/2-z
-x,-y,-z
1/2+x,y,-z
-x,1/2+y,1/2+z
1/2+x,1/2-y,1/2+z
loop_
_atom_site_type_symbol
_atom_site_label
_atom_site_fract_x
_atom_site_fract_y
_atom_site_fract_z
Si Si1 0.997750 0.327751 0.591044
Si Si2 0.541554 0.750000 0.250000
Si Si3 0.809874 0.095188 0.888644
Si Si4 0.698533 0.250000 0.750000
Si Si5 0.378706 0.966394 0.384895
Si Si6 0.572889 0.991844 0.276438
O O1 0.996109 0.250000 0.750000
O O2 0.008498 0.265494 0.420820
O O3 0.905774 0.381707 0.565460
O O4 0.065794 0.422294 0.629025
O O5 0.592301 0.636648 0.235403
O O6 0.758212 0.205855 0.892705
O O7 0.750000 0.000000 0.960638
O O8 0.824657 0.060242 0.700603
O O9 0.647897 0.144775 0.698274
O O10 0.372984 0.962208 0.576552
O O11 0.475112 0.989809 0.334906
#
# Coordination Sequence:
#
# PCOD9408053 Si02
#       6
#     8   4   8   4   8   8
#     4  11  22  39  64  94 131 172 226 281 345 420
#     4  12  23  38  66  92 130 179 218 280 350 406
#     4   9  18  32  56  88 124 168 220 266 331 412
#     4  10  17  30  60  92 128 171 218 266 336 392
#     4   9  18  33  56  92 126 166 217 272 331 408
#     4  10  21  37  58  93 132 171 222 279 343 405
#
# _framework density 24.746039
#
# number of rings (size 3 to 8) (size 9 to 14) (size 15 to 20)
#    0.000    2.000    1.000    4.800    0.000    0.000 
#    0.000    2.000    4.400    0.000    0.000    0.000 
#    0.000    0.000    0.000    0.000    0.000    0.000 
#
# Total GULP energy -223151.119934 kJ/mol
# GULP energy per Si atom -5578.777998 kJ/mol
# Density = 2.468972 g / cm^3
# Si number density = 24.746039 Si / 1000 Ang^3
#
#
#
# Elastic Constant Matrix: (Units=GPa)
#
#
# Indices 1 2 3 4 5 6 
#
# 1 50.6291 7.2646 6.2166 0.0000 0.0000 0.0000
# 2 7.2646 143.2569 56.6164 0.0000 0.0000 0.0000
# 3 6.2166 56.6164 150.4032 0.0000 0.0000 0.0000
# 4 0.0000 0.0000 0.0000 44.6951 0.0000 0.0000
# 5 0.0000 0.0000 0.0000 0.0000 5.4213 0.0000
# 6 0.0000 0.0000 0.0000 0.0000 0.0000 20.9715
#
#
#
# Elastic Compliance Matrix: (Units=1/GPa)
#
#
# Indices 1 2 3 4 5 6 
#
# 1 0.019931 -0.000805 -0.000521 0.000000 0.000000 0.000000
# 2 -0.000805 0.008233 -0.003066 0.000000 0.000000 0.000000
# 3 -0.000521 -0.003066 0.007824 0.000000 0.000000 0.000000
# 4 0.000000 0.000000 0.000000 0.022374 0.000000 0.000000
# 5 0.000000 0.000000 0.000000 0.000000 0.184458 0.000000
# 6 0.000000 0.000000 0.000000 0.000000 0.000000 0.047684
#
#
# Mechanical properties :
#
#
# Convention : Reuss Voigt Hill
#
# Bulk Modulus (GPa) = 36.75772 53.83159 45.29466
# Shear Modulus (GPa) = 16.21507 32.49700 24.35603
#
# Velocity S-wave (km/s) = 2.56258 3.62777 3.14066
# Velocity P-wave (km/s) = 4.86230 6.27284 5.61206
#
# Compressibility (1/GPa) = 0.02720517
#
# Stress axis : x y z
#
# Youngs Moduli (GPa) = 50.17326 121.46330 127.80512
#
# Poissons Ratio (x) = 0.09776 0.06656
# Poissons Ratio (y) = 0.04038 0.39183
# Poissons Ratio (z) = 0.02613 0.37239
#
# Static dielectric constant tensor:
#      x y z
#    x 1.991120 0.000000 0.000000 
#    y 0.000000 2.020590 0.000000 
#    z 0.000000 0.000000 2.012480 
# 
# From -- ./inp_files/11703.got.cif
#   From: 2010.05.17/outbox.cif.g08.bks.cpg/sg52_6_cif.got.tgz:11703.got - 2010.06.03 12:15:38.
