data_PCOD9408107
_publ_section_title
;
Structure prediction by ZEFSAII (Michael W. Deem and Ramdas Pophale) SiO2 
 PCOD9408107
Probable space group: P N N A
;
_chemical_formula_sum "Si O2"
_cell_formula_units_Z 48
_cell_length_a 26.174096
_cell_length_b 8.101560
_cell_length_c 9.717243
_cell_angle_alpha 90.000000
_cell_angle_beta 90.000000
_cell_angle_gamma 90.000000
_cell_volume 2060.551185
_symmetry_space_group_name_H-M "P N N A"
_symmetry_group_IT_number 52
_symmetry_cell_setting 'orthorhombic'
loop_
_space_group_symop_operation_xyz
x,y,z
1/2-x,-y,z
x,1/2-y,1/2-z
1/2-x,1/2+y,1/2-z
-x,-y,-z
1/2+x,y,-z
-x,1/2+y,1/2+z
1/2+x,1/2-y,1/2+z
loop_
_atom_site_type_symbol
_atom_site_label
_atom_site_fract_x
_atom_site_fract_y
_atom_site_fract_z
Si Si1 0.516523 0.765277 0.412366
Si Si2 0.191335 0.110243 0.643308
Si Si3 0.112817 0.852998 0.018553
Si Si4 0.918805 0.899035 0.478987
Si Si5 0.358938 0.040313 0.285071
Si Si6 0.750000 0.000000 0.605084
Si Si7 0.823930 0.250000 0.250000
O O1 0.506855 0.750000 0.250000
O O2 0.554895 0.629353 0.471761
O O3 0.465522 0.774883 0.502064
O O4 0.550840 0.932984 0.434229
O O5 0.206001 0.250000 0.750000
O O6 0.130002 0.124395 0.618759
O O7 0.300083 0.077726 0.695986
O O8 0.221941 0.127313 0.499618
O O9 0.130764 0.991082 0.124383
O O10 0.121589 0.700347 0.125072
O O11 0.144298 0.814128 0.882202
O O12 0.891088 0.909874 0.627144
O O13 0.298121 0.053656 0.305744
#
# Coordination Sequence:
#
# PCOD9408107 Si02
#       7
#     8   8   8   8   8   4   4
#     4  10  17  34  62  89 127 180 227 273 340 403
#     4  11  24  42  69 102 139 174 228 290 348 409
#     4  10  18  36  65  92 122 179 232 266 335 426
#     4   9  19  38  58  91 136 173 217 292 337 397
#     4   9  19  37  63  91 127 177 225 275 350 414
#     4  10  20  42  68  92 138 178 222 298 346 406
#     4  12  20  44  70  96 136 180 220 282 340 404
#
# _framework density 23.294737000000001
#
# number of rings (size 3 to 8) (size 9 to 14) (size 15 to 20)
#    0.000    2.000    5.833    0.000    1.167    0.000 
#   12.000    5.000    7.333    0.000    0.000    0.000 
#    0.000    0.000    0.000    0.000    0.000    0.000 
#
# Total GULP energy -267325.779401 kJ/mol
# GULP energy per Si atom -5569.287071 kJ/mol
# Density = 2.324172 g / cm^3
# Si number density = 23.294737 Si / 1000 Ang^3
#
#
#
# Elastic Constant Matrix: (Units=GPa)
#
#
# Indices 1 2 3 4 5 6 
#
# 1 120.3327 23.2765 26.4320 0.0000 0.0000 0.0000
# 2 23.2765 50.2536 25.9399 0.0000 0.0000 0.0000
# 3 26.4320 25.9399 120.6860 0.0000 0.0000 0.0000
# 4 0.0000 0.0000 0.0000 9.9357 0.0000 0.0000
# 5 0.0000 0.0000 0.0000 0.0000 4.0356 0.0000
# 6 0.0000 0.0000 0.0000 0.0000 0.0000 -7.1528
#
#
#
# Elastic Compliance Matrix: (Units=1/GPa)
#
#
# Indices 1 2 3 4 5 6 
#
# 1 0.009292 -0.003660 -0.001249 0.000000 0.000000 0.000000
# 2 -0.003660 0.023824 -0.004319 0.000000 0.000000 0.000000
# 3 -0.001249 -0.004319 0.009488 0.000000 0.000000 0.000000
# 4 0.000000 0.000000 0.000000 0.100647 0.000000 0.000000
# 5 0.000000 0.000000 0.000000 0.000000 0.247796 0.000000
# 6 0.000000 0.000000 0.000000 0.000000 0.000000 -0.139805
#
#
# Mechanical properties :
#
#
# Convention : Reuss Voigt Hill
#
# Bulk Modulus (GPa) = 41.40915 49.17433 45.29174
# Shear Modulus (GPa) = 18.00212 15.73863 16.87037
#
# Velocity S-wave (km/s) = 2.78294 2.60211 2.69404
# Velocity P-wave (km/s) = 5.30482 5.49394 5.40021
#
# Compressibility (1/GPa) = 0.02414925
#
# Stress axis : x y z
#
# Youngs Moduli (GPa) = 107.61430 41.97533 105.39901
#
# Poissons Ratio (x) = 0.15361 0.13160
# Poissons Ratio (y) = 0.39382 0.45522
# Poissons Ratio (z) = 0.13437 0.18129
#
# Static dielectric constant tensor:
#      x y z
#    x 1.940210 0.000000 0.000000 
#    y 0.000000 2.305000 0.000000 
#    z 0.000000 0.000000 1.983210 
# 
# From -- ./inp_files/14974.got.cif
#   From: 2010.05.17/outbox.cif.g08.bks.cpg/sg52_8_cif.got.tgz:14974.got - 2010.06.03 12:15:38.
