data_PCOD9408346
_publ_section_title
;
Structure prediction by ZEFSAII (Michael W. Deem and Ramdas Pophale) SiO2 
 PCOD9408346
Probable space group: P N N A
;
_chemical_formula_sum "Si O2"
_cell_formula_units_Z 48
_cell_length_a 16.396241
_cell_length_b 8.978275
_cell_length_c 18.518198
_cell_angle_alpha 90.000000
_cell_angle_beta 90.000000
_cell_angle_gamma 90.000000
_cell_volume 2726.063199
_symmetry_space_group_name_H-M "P N N A"
_symmetry_group_IT_number 52
_symmetry_cell_setting 'orthorhombic'
loop_
_space_group_symop_operation_xyz
x,y,z
1/2-x,-y,z
x,1/2-y,1/2-z
1/2-x,1/2+y,1/2-z
-x,-y,-z
1/2+x,y,-z
-x,1/2+y,1/2+z
1/2+x,1/2-y,1/2+z
loop_
_atom_site_type_symbol
_atom_site_label
_atom_site_fract_x
_atom_site_fract_y
_atom_site_fract_z
Si Si1 0.750000 0.500000 0.103612
Si Si2 0.910577 0.621202 0.582902
Si Si3 0.598078 0.357666 0.180214
Si Si4 0.975416 0.313560 0.170309
Si Si5 0.641592 0.751346 0.459319
Si Si6 0.996856 0.175160 0.934687
Si Si7 0.750000 0.500000 0.528180
O O1 0.688519 0.403848 0.153206
O O2 0.696533 0.605314 0.052832
O O3 0.957212 0.468304 0.604615
O O4 0.814719 0.590677 0.576844
O O5 0.941199 0.759853 0.630629
O O6 0.943179 0.635505 0.500801
O O7 0.601175 0.250000 0.250000
O O8 0.547959 0.513687 0.181594
O O9 0.550300 0.266565 0.119847
O O10 0.973261 0.250000 0.250000
O O11 0.908750 0.241146 0.115540
O O12 0.576637 0.761075 0.524566
O O13 0.697873 0.611621 0.478624
#
# Coordination Sequence:
#
# PCOD9408346 Si02
#       7
#     4   8   8   8   8   8   4
#     4  10  22  34  49  82 115 142 180 230 282 324
#     4   9  18  33  56  81 106 139 181 225 270 324
#     4  11  23  37  55  79 112 150 185 226 274 327
#     4  10  21  36  54  78 107 145 189 224 266 326
#     4   9  20  34  54  82 110 144 182 224 273 324
#     4   9  18  35  55  78 106 144 186 219 262 324
#     4  10  18  32  57  84 111 140 174 228 282 324
#
# _framework density 17.607809
#
# number of rings (size 3 to 8) (size 9 to 14) (size 15 to 20)
#    0.000    2.333    0.000    3.000    0.000   11.333 
#    0.000    1.667    0.000    8.000    0.000    2.333 
#    0.000    0.000    0.000    0.000    0.000    0.000 
#
# Total GULP energy -267349.481722 kJ/mol
# GULP energy per Si atom -5569.780869 kJ/mol
# Density = 1.756773 g / cm^3
# Si number density = 17.607809 Si / 1000 Ang^3
#
#
#
# Elastic Constant Matrix: (Units=GPa)
#
#
# Indices 1 2 3 4 5 6 
#
# 1 127.3176 60.0008 51.6663 0.0000 0.0000 0.0000
# 2 60.0008 80.6810 37.2934 0.0000 0.0000 0.0000
# 3 51.6663 37.2934 56.7732 0.0000 0.0000 0.0000
# 4 0.0000 0.0000 0.0000 42.6096 0.0000 0.0000
# 5 0.0000 0.0000 0.0000 0.0000 3.6018 0.0000
# 6 0.0000 0.0000 0.0000 0.0000 0.0000 36.9915
#
#
#
# Elastic Compliance Matrix: (Units=1/GPa)
#
#
# Indices 1 2 3 4 5 6 
#
# 1 0.014661 -0.006801 -0.008875 0.000000 0.000000 0.000000
# 2 -0.006801 0.020953 -0.007575 0.000000 0.000000 0.000000
# 3 -0.008875 -0.007575 0.030666 0.000000 0.000000 0.000000
# 4 0.000000 0.000000 0.000000 0.023469 0.000000 0.000000
# 5 0.000000 0.000000 0.000000 0.000000 0.277639 0.000000
# 6 0.000000 0.000000 0.000000 0.000000 0.000000 0.027033
#
#
# Mechanical properties :
#
#
# Convention : Reuss Voigt Hill
#
# Bulk Modulus (GPa) = 50.55712 62.52142 56.53927
# Shear Modulus (GPa) = 11.17279 24.36134 17.76707
#
# Velocity S-wave (km/s) = 2.52173 3.72365 3.17999
# Velocity P-wave (km/s) = 6.10361 7.35339 6.75745
#
# Compressibility (1/GPa) = 0.01977961
#
# Stress axis : x y z
#
# Youngs Moduli (GPa) = 68.20931 47.72482 32.60914
#
# Poissons Ratio (x) = 0.32456 0.28940
# Poissons Ratio (y) = 0.46387 0.24701
# Poissons Ratio (z) = 0.60534 0.36151
#
# Static dielectric constant tensor:
#      x y z
#    x 1.631380 0.000000 0.000000 
#    y 0.000000 1.716870 0.000000 
#    z 0.000000 0.000000 1.567100 
# 
# From -- ./inp_files/33100.got.cif
#   From: 2010.05.17/outbox.cif.g08.bks.cpg/sg52_17_cif.got.tgz:33100.got - 2010.06.03 12:15:38.
