data_PCOD9408216
_publ_section_title
;
Structure prediction by ZEFSAII (Michael W. Deem and Ramdas Pophale) SiO2 
 PCOD9408216
Probable space group: P N N A
;
_chemical_formula_sum "Si O2"
_cell_formula_units_Z 40
_cell_length_a 13.873697
_cell_length_b 5.031286
_cell_length_c 31.174948
_cell_angle_alpha 90.000000
_cell_angle_beta 90.000000
_cell_angle_gamma 90.000000
_cell_volume 2176.090476
_symmetry_space_group_name_H-M "P N N A"
_symmetry_group_IT_number 52
_symmetry_cell_setting 'orthorhombic'
loop_
_space_group_symop_operation_xyz
x,y,z
1/2-x,-y,z
x,1/2-y,1/2-z
1/2-x,1/2+y,1/2-z
-x,-y,-z
1/2+x,y,-z
-x,1/2+y,1/2+z
1/2+x,1/2-y,1/2+z
loop_
_atom_site_type_symbol
_atom_site_label
_atom_site_fract_x
_atom_site_fract_y
_atom_site_fract_z
Si Si1 0.357052 0.132938 0.842247
Si Si2 0.314818 0.760558 0.445925
Si Si3 0.250000 0.000000 0.603279
Si Si4 0.606570 0.387650 0.039422
Si Si5 0.819104 0.250000 0.250000
Si Si6 0.515164 0.584611 0.420575
O O1 0.333857 0.412019 0.864889
O O2 0.377954 0.167150 0.792241
O O3 0.437111 0.021311 0.874300
O O4 0.250000 0.000000 0.844607
O O5 0.250000 0.500000 0.453632
O O6 0.359641 0.863513 0.490955
O O7 0.406049 0.681128 0.417224
O O8 0.250000 0.000000 0.428387
O O9 0.197311 0.194543 0.569732
O O10 0.574304 0.680916 0.054622
O O11 0.523540 0.178174 0.050439
O O12 0.750000 0.500000 0.238702
#
# Coordination Sequence:
#
# PCOD9408216 Si02
#       6
#     8   8   4   8   4   8
#     4  10  19  33  52  77 109 135 168 207 260 317
#     4  12  24  38  53  74 105 142 182 231 262 292
#     4  10  18  30  50  74 106 140 170 200 258 302
#     4  11  21  35  53  75 106 137 180 218 258 305
#     4  10  20  32  50  78 108 136 162 200 258 324
#     4  11  23  36  55  78 102 141 184 214 264 315
#
# _framework density 18.381589000000002
#
# number of rings (size 3 to 8) (size 9 to 14) (size 15 to 20)
#    0.000    1.200    4.000    3.600    2.800    0.000 
#    0.000    0.000    0.000    0.000    0.000    1.400 
#    0.000    0.000    0.000    0.000    0.000    0.000 
#
# Total GULP energy -223044.206398 kJ/mol
# GULP energy per Si atom -5576.105160 kJ/mol
# Density = 1.833975 g / cm^3
# Si number density = 18.381589 Si / 1000 Ang^3
#
#
#
# Elastic Constant Matrix: (Units=GPa)
#
#
# Indices 1 2 3 4 5 6 
#
# 1 83.8933 12.2294 38.2401 0.0000 0.0000 0.0000
# 2 12.2294 71.4336 3.4483 0.0000 0.0000 0.0000
# 3 38.2401 3.4483 104.1393 0.0000 0.0000 0.0000
# 4 0.0000 0.0000 0.0000 14.4564 0.0000 0.0000
# 5 0.0000 0.0000 0.0000 0.0000 14.9156 0.0000
# 6 0.0000 0.0000 0.0000 0.0000 0.0000 33.2603
#
#
#
# Elastic Compliance Matrix: (Units=1/GPa)
#
#
# Indices 1 2 3 4 5 6 
#
# 1 0.014670 -0.002255 -0.005312 0.000000 0.000000 0.000000
# 2 -0.002255 0.014368 0.000352 0.000000 0.000000 0.000000
# 3 -0.005312 0.000352 0.011541 0.000000 0.000000 0.000000
# 4 0.000000 0.000000 0.000000 0.069173 0.000000 0.000000
# 5 0.000000 0.000000 0.000000 0.000000 0.067044 0.000000
# 6 0.000000 0.000000 0.000000 0.000000 0.000000 0.030066
#
#
# Mechanical properties :
#
#
# Convention : Reuss Voigt Hill
#
# Bulk Modulus (GPa) = 38.24137 40.81132 39.52635
# Shear Modulus (GPa) = 21.73827 26.22971 23.98399
#
# Velocity S-wave (km/s) = 3.44264 3.78160 3.61610
# Velocity P-wave (km/s) = 6.05407 6.42790 6.24378
#
# Compressibility (1/GPa) = 0.02614969
#
# Stress axis : x y z
#
# Youngs Moduli (GPa) = 68.16623 69.59879 86.64388
#
# Poissons Ratio (x) = 0.15695 0.46027
# Poissons Ratio (y) = 0.15372 -0.03053
# Poissons Ratio (z) = 0.36211 -0.02452
#
# Static dielectric constant tensor:
#      x y z
#    x 1.705480 0.000000 0.000000 
#    y 0.000000 1.766510 0.000000 
#    z 0.000000 0.000000 1.633040 
# 
# From -- ./inp_files/44903.got.cif
#   From: 2010.05.17/outbox.cif.g08.bks.cpg/sg52_23_cif.got.tgz:44903.got - 2010.06.03 12:15:38.
