data_PCOD9408209
_publ_section_title
;
Structure prediction by ZEFSAII (Michael W. Deem and Ramdas Pophale) SiO2 
 PCOD9408209
Probable space group: P N N A
;
_chemical_formula_sum "Si O2"
_cell_formula_units_Z 52
_cell_length_a 23.977747
_cell_length_b 20.482406
_cell_length_c 5.629783
_cell_angle_alpha 90.000000
_cell_angle_beta 90.000000
_cell_angle_gamma 90.000000
_cell_volume 2764.910000
_symmetry_space_group_name_H-M "P N N A"
_symmetry_group_IT_number 52
_symmetry_cell_setting 'orthorhombic'
loop_
_space_group_symop_operation_xyz
x,y,z
1/2-x,-y,z
x,1/2-y,1/2-z
1/2-x,1/2+y,1/2-z
-x,-y,-z
1/2+x,y,-z
-x,1/2+y,1/2+z
1/2+x,1/2-y,1/2+z
loop_
_atom_site_type_symbol
_atom_site_label
_atom_site_fract_x
_atom_site_fract_y
_atom_site_fract_z
Si Si1 0.637066 0.360563 0.024937
Si Si2 0.942158 0.959558 0.727461
Si Si3 0.756113 0.788692 0.500214
Si Si4 0.459303 0.096956 0.433020
Si Si5 0.947369 0.852731 0.103379
Si Si6 0.875879 0.288317 0.001657
Si Si7 0.070629 0.250000 0.250000
O O1 0.702745 0.351109 0.005011
O O2 0.613117 0.341802 0.282597
O O3 0.606125 0.426565 0.937341
O O4 0.609249 0.304410 0.865771
O O5 0.003584 0.938774 0.632849
O O6 0.940440 0.921794 0.973755
O O7 0.937428 0.037061 0.726922
O O8 0.767223 0.750000 0.250000
O O9 0.690330 0.803255 0.501522
O O10 0.766973 0.750000 0.750000
O O11 0.505573 0.139615 0.298612
O O12 0.411312 0.145406 0.510281
O O13 0.963542 0.792567 0.936497
O O14 0.887773 0.250000 0.750000
O O15 0.886981 0.250000 0.250000
#
# Coordination Sequence:
#
# PCOD9408209 Si02
#       7
#     8   8   8   8   8   8   4
#     4  10  19  33  54  86 114 146 191 242 300 348
#     4   9  21  37  57  83 113 156 199 235 299 354
#     4  10  20  37  61  85 120 154 192 243 303 352
#     4  10  21  40  57  78 118 160 192 245 288 355
#     4  10  20  32  52  85 116 151 194 235 299 350
#     4  10  24  42  61  90 115 157 202 242 295 353
#     4  10  18  30  48  82 118 144 182 244 294 346
#
# _framework density 18.807120000000001
#
# number of rings (size 3 to 8) (size 9 to 14) (size 15 to 20)
#    0.000    2.154    0.769    1.846    4.308    3.692 
#    5.538    0.769    0.000    0.000    0.000    0.000 
#    0.000    0.000    0.000    0.000    0.000    0.000 
#
# Total GULP energy -289743.422119 kJ/mol
# GULP energy per Si atom -5571.988887 kJ/mol
# Density = 1.876431 g / cm^3
# Si number density = 18.807120 Si / 1000 Ang^3
#
#
#
# Elastic Constant Matrix: (Units=GPa)
#
#
# Indices 1 2 3 4 5 6 
#
# 1 88.5462 44.2037 20.7909 0.0000 0.0000 0.0000
# 2 44.2037 78.4739 9.4396 0.0000 0.0000 0.0000
# 3 20.7909 9.4396 71.8524 0.0000 0.0000 0.0000
# 4 0.0000 0.0000 0.0000 2.1514 0.0000 0.0000
# 5 0.0000 0.0000 0.0000 0.0000 -1.3251 0.0000
# 6 0.0000 0.0000 0.0000 0.0000 0.0000 -1.5268
#
#
#
# Elastic Compliance Matrix: (Units=1/GPa)
#
#
# Indices 1 2 3 4 5 6 
#
# 1 0.016595 -0.008911 -0.003631 0.000000 0.000000 0.000000
# 2 -0.008911 0.017733 0.000249 0.000000 0.000000 0.000000
# 3 -0.003631 0.000249 0.014935 0.000000 0.000000 0.000000
# 4 0.000000 0.000000 0.000000 0.464807 0.000000 0.000000
# 5 0.000000 0.000000 0.000000 0.000000 -0.754646 0.000000
# 6 0.000000 0.000000 0.000000 0.000000 0.000000 -0.654947
#
#
# Mechanical properties :
#
#
# Convention : Reuss Voigt Hill
#
# Bulk Modulus (GPa) = 40.52465 43.08230 41.80348
# Shear Modulus (GPa) = -5.79568 10.82245 2.51338
#
# Velocity S-wave (km/s) = -1.75736 2.40144 1.15728
# Velocity P-wave (km/s) = 4.18049 5.53592 4.90525
#
# Compressibility (1/GPa) = 0.02467634
#
# Stress axis : x y z
#
# Youngs Moduli (GPa) = 60.26082 56.39353 66.95497
#
# Poissons Ratio (x) = 0.50251 0.24312
# Poissons Ratio (y) = 0.53697 -0.01666
# Poissons Ratio (z) = 0.21881 -0.01403
#
# Static dielectric constant tensor:
#      x y z
#    x 1.656520 0.000000 0.000000 
#    y 0.000000 1.676420 0.000000 
#    z 0.000000 0.000000 1.774570 
# 
# From -- ./inp_files/5916.got.cif
#   From: 2010.05.17/outbox.cif.g08.bks.cpg/sg52_3_cif.got.tgz:5916.got - 2010.06.03 12:15:38.
