data_PCOD9408469
_publ_section_title
;
Structure prediction by ZEFSAII (Michael W. Deem and Ramdas Pophale) SiO2 
 PCOD9408469
Probable space group: P N N A
;
_chemical_formula_sum "Si O2"
_cell_formula_units_Z 52
_cell_length_a 19.574420
_cell_length_b 13.941629
_cell_length_c 8.126504
_cell_angle_alpha 90.000000
_cell_angle_beta 90.000000
_cell_angle_gamma 90.000000
_cell_volume 2217.717265
_symmetry_space_group_name_H-M "P N N A"
_symmetry_group_IT_number 52
_symmetry_cell_setting 'orthorhombic'
loop_
_space_group_symop_operation_xyz
x,y,z
1/2-x,-y,z
x,1/2-y,1/2-z
1/2-x,1/2+y,1/2-z
-x,-y,-z
1/2+x,y,-z
-x,1/2+y,1/2+z
1/2+x,1/2-y,1/2+z
loop_
_atom_site_type_symbol
_atom_site_label
_atom_site_fract_x
_atom_site_fract_y
_atom_site_fract_z
Si Si1 0.610183 0.958634 0.439601
Si Si2 0.311071 0.882894 0.973491
Si Si3 0.914276 0.241444 0.428188
Si Si4 0.674769 0.250000 0.750000
Si Si5 0.442641 0.643224 0.049979
Si Si6 0.574395 0.959256 0.051121
Si Si7 0.403571 0.750000 0.750000
Si Si8 0.250000 0.500000 0.791303
O O1 0.618306 0.851932 0.512324
O O2 0.580706 0.957461 0.251419
O O3 0.566675 0.029326 0.553208
O O4 0.684306 0.002444 0.404823
O O5 0.358840 0.809908 0.875331
O O6 0.254498 0.913439 0.840427
O O7 0.362901 0.972402 0.009520
O O8 0.286154 0.824412 0.132020
O O9 0.878709 0.250000 0.250000
O O10 0.918972 0.347385 0.502163
O O11 0.989710 0.196930 0.392830
O O12 0.622616 0.314677 0.856686
O O13 0.443192 0.673587 0.858311
O O14 0.500000 0.000000 0.000000
#
# Coordination Sequence:
#
# PCOD9408469 Si02
#       8
#     8   8   8   4   8   8   4   4
#     4  10  22  38  61  94 124 170 215 265 314 382
#     4  10  21  39  63  92 120 167 214 262 317 375
#     4  10  21  35  55  92 130 163 199 259 338 377
#     4  10  22  36  64  93 125 166 212 256 328 382
#     4  11  19  37  59  93 128 165 212 259 310 392
#     4  10  19  36  59  85 128 159 202 259 323 382
#     4  10  18  34  60  95 115 158 230 244 302 374
#     4  10  20  44  64  90 128 162 222 276 304 372
#
# _framework density 23.447534000000001
#
# number of rings (size 3 to 8) (size 9 to 14) (size 15 to 20)
#    0.000    1.846    3.846    2.308    2.154    0.000 
#    6.923    0.769    0.000    0.000    0.000    1.077 
#    0.000    0.000    0.000    0.000    0.000    0.000 
#
# Total GULP energy -289872.996075 kJ/mol
# GULP energy per Si atom -5574.480694 kJ/mol
# Density = 2.339417 g / cm^3
# Si number density = 23.447534 Si / 1000 Ang^3
#
#
#
# Elastic Constant Matrix: (Units=GPa)
#
#
# Indices 1 2 3 4 5 6 
#
# 1 43.4957 7.0914 2.7545 0.0000 0.0000 0.0000
# 2 7.0914 184.7486 25.4072 0.0000 0.0000 0.0000
# 3 2.7545 25.4072 33.3286 0.0000 0.0000 0.0000
# 4 0.0000 0.0000 0.0000 35.3900 0.0000 0.0000
# 5 0.0000 0.0000 0.0000 0.0000 14.3028 0.0000
# 6 0.0000 0.0000 0.0000 0.0000 0.0000 -147.4712
#
#
#
# Elastic Compliance Matrix: (Units=1/GPa)
#
#
# Indices 1 2 3 4 5 6 
#
# 1 0.023192 -0.000700 -0.001383 0.000000 0.000000 0.000000
# 2 -0.000700 0.006068 -0.004568 0.000000 0.000000 0.000000
# 3 -0.001383 -0.004568 0.033601 0.000000 0.000000 0.000000
# 4 0.000000 0.000000 0.000000 0.028257 0.000000 0.000000
# 5 0.000000 0.000000 0.000000 0.000000 0.069916 0.000000
# 6 0.000000 0.000000 0.000000 0.000000 0.000000 -0.006781
#
#
# Mechanical properties :
#
#
# Convention : Reuss Voigt Hill
#
# Bulk Modulus (GPa) = 20.17794 36.89769 28.53781
# Shear Modulus (GPa) = 27.16295 -4.46767 11.34764
#
# Velocity S-wave (km/s) = 3.40730 -1.38186 2.20229
# Velocity P-wave (km/s) = 4.90957 3.63654 4.32020
#
# Compressibility (1/GPa) = 0.04955908
#
# Stress axis : x y z
#
# Youngs Moduli (GPa) = 43.11741 164.80431 29.76132
#
# Poissons Ratio (x) = 0.11536 0.04116
# Poissons Ratio (y) = 0.03018 0.13594
# Poissons Ratio (z) = 0.05964 0.75279
#
# Static dielectric constant tensor:
#      x y z
#    x 1.915710 0.000000 0.000000 
#    y 0.000000 2.161870 0.000000 
#    z 0.000000 0.000000 1.899970 
# 
# From -- ./inp_files/13416.got.cif
#   From: 2010.05.17/outbox.cif.g08.bks.cpg/sg52_7_cif.got.tgz:13416.got - 2010.06.03 12:15:38.
