data_PCOD9408034
_publ_section_title
;
Structure prediction by ZEFSAII (Michael W. Deem and Ramdas Pophale) SiO2 
 PCOD9408034
Probable space group: P N N A
;
_chemical_formula_sum "Si O2"
_cell_formula_units_Z 48
_cell_length_a 5.430919
_cell_length_b 21.127540
_cell_length_c 16.482345
_cell_angle_alpha 90.000000
_cell_angle_beta 90.000000
_cell_angle_gamma 90.000000
_cell_volume 1891.216544
_symmetry_space_group_name_H-M "P N N A"
_symmetry_group_IT_number 52
_symmetry_cell_setting 'orthorhombic'
loop_
_space_group_symop_operation_xyz
x,y,z
1/2-x,-y,z
x,1/2-y,1/2-z
1/2-x,1/2+y,1/2-z
-x,-y,-z
1/2+x,y,-z
-x,1/2+y,1/2+z
1/2+x,1/2-y,1/2+z
loop_
_atom_site_type_symbol
_atom_site_label
_atom_site_fract_x
_atom_site_fract_y
_atom_site_fract_z
Si Si1 0.206211 0.620096 0.528551
Si Si2 0.206770 0.360935 0.053954
Si Si3 0.833805 0.561462 0.302884
Si Si4 0.750000 0.500000 0.945720
Si Si5 0.442804 0.693000 0.688393
Si Si6 0.750000 0.500000 0.587091
Si Si7 0.563657 0.237923 0.845508
O O1 0.467371 0.653799 0.508129
O O2 0.182302 0.590168 0.619552
O O3 0.276905 0.557796 0.474939
O O4 0.224801 0.430879 0.096097
O O5 0.157788 0.301808 0.112724
O O6 0.466725 0.357131 0.005567
O O7 0.750000 0.500000 0.252458
O O8 0.892846 0.628051 0.262312
O O9 0.053761 0.529196 0.351469
O O10 0.500000 0.500000 0.000000
O O11 0.471553 0.750000 0.750000
O O12 0.713150 0.688049 0.649207
O O13 0.209509 0.712860 0.631463
O O14 0.526427 0.250000 0.750000
#
# Coordination Sequence:
#
# PCOD9408034 Si02
#       7
#     8   8   8   4   8   4   8
#     4  10  17  30  47  75 116 145 174 229 289 356
#     4  10  19  36  66 100 140 165 220 281 334 405
#     4  11  20  34  60  83 112 155 199 251 307 359
#     4   8  16  30  56  97 126 167 200 274 362 396
#     4  10  24  42  63  82 118 169 219 263 318 376
#     4  10  18  32  50  85 120 147 186 244 304 368
#     4  10  22  44  66  84 128 188 217 257 329 397
#
# _framework density 25.380486999999999
#
# number of rings (size 3 to 8) (size 9 to 14) (size 15 to 20)
#    0.000    2.000    2.500    2.000    2.333    0.000 
#    0.000   10.000   14.667    0.000    0.000    0.000 
#    0.000    0.000    0.000    0.000    0.000    0.000 
#
# Total GULP energy -267219.228997 kJ/mol
# GULP energy per Si atom -5567.067271 kJ/mol
# Density = 2.532272 g / cm^3
# Si number density = 25.380487 Si / 1000 Ang^3
#
#
#
# Elastic Constant Matrix: (Units=GPa)
#
#
# Indices 1 2 3 4 5 6 
#
# 1 179.0532 24.6429 15.0910 0.0000 0.0000 0.0000
# 2 24.6429 153.5051 18.2506 0.0000 0.0000 0.0000
# 3 15.0910 18.2506 24.5497 0.0000 0.0000 0.0000
# 4 0.0000 0.0000 0.0000 41.2877 0.0000 0.0000
# 5 0.0000 0.0000 0.0000 0.0000 24.9965 0.0000
# 6 0.0000 0.0000 0.0000 0.0000 0.0000 40.5383
#
#
#
# Elastic Compliance Matrix: (Units=1/GPa)
#
#
# Indices 1 2 3 4 5 6 
#
# 1 0.005935 -0.000569 -0.003225 0.000000 0.000000 0.000000
# 2 -0.000569 0.007201 -0.005003 0.000000 0.000000 0.000000
# 3 -0.003225 -0.005003 0.046436 0.000000 0.000000 0.000000
# 4 0.000000 0.000000 0.000000 0.024220 0.000000 0.000000
# 5 0.000000 0.000000 0.000000 0.000000 0.040006 0.000000
# 6 0.000000 0.000000 0.000000 0.000000 0.000000 0.024668
#
#
# Mechanical properties :
#
#
# Convention : Reuss Voigt Hill
#
# Bulk Modulus (GPa) = 23.82298 52.56411 38.19354
# Shear Modulus (GPa) = 27.76966 41.30606 34.53786
#
# Velocity S-wave (km/s) = 3.31136 4.03857 3.69291
# Velocity P-wave (km/s) = 4.90172 6.51937 5.76754
#
# Compressibility (1/GPa) = 0.04197628
#
# Stress axis : x y z
#
# Youngs Moduli (GPa) = 168.48876 138.87602 21.53519
#
# Poissons Ratio (x) = 0.07907 0.06945
# Poissons Ratio (y) = 0.09593 0.10774
# Poissons Ratio (z) = 0.54340 0.69481
#
# Static dielectric constant tensor:
#      x y z
#    x 2.255100 0.000000 0.000000 
#    y 0.000000 2.163370 0.000000 
#    z 0.000000 0.000000 2.286300 
# 
# From -- ./inp_files/35161.got.cif
#   From: 2010.05.17/outbox.cif.g08.bks.cpg/sg52_18_cif.got.tgz:35161.got - 2010.06.03 12:15:38.
