data_PCOD9408893
_publ_section_title
;
Structure prediction by ZEFSAII (Michael W. Deem and Ramdas Pophale) SiO2 
 PCOD9408893
Probable space group: P N N A
;
_chemical_formula_sum "Si O2"
_cell_formula_units_Z 60
_cell_length_a 11.968039
_cell_length_b 7.456974
_cell_length_c 31.568755
_cell_angle_alpha 90.000000
_cell_angle_beta 90.000000
_cell_angle_gamma 90.000000
_cell_volume 2817.364768
_symmetry_space_group_name_H-M "P N N A"
_symmetry_group_IT_number 52
_symmetry_cell_setting 'orthorhombic'
loop_
_space_group_symop_operation_xyz
x,y,z
1/2-x,-y,z
x,1/2-y,1/2-z
1/2-x,1/2+y,1/2-z
-x,-y,-z
1/2+x,y,-z
-x,1/2+y,1/2+z
1/2+x,1/2-y,1/2+z
loop_
_atom_site_type_symbol
_atom_site_label
_atom_site_fract_x
_atom_site_fract_y
_atom_site_fract_z
Si Si1 0.440852 0.644826 0.876949
Si Si2 0.454765 0.257138 0.909862
Si Si3 0.813819 0.273519 0.622430
Si Si4 0.604678 0.361417 0.661525
Si Si5 0.012395 0.250000 0.250000
Si Si6 0.869985 0.589345 0.216210
Si Si7 0.227945 0.282718 0.947153
Si Si8 0.190163 0.197523 0.457281
O O1 0.415346 0.439596 0.887681
O O2 0.573663 0.663222 0.882297
O O3 0.411130 0.672597 0.828131
O O4 0.366087 0.750287 0.911308
O O5 0.498782 0.147392 0.869761
O O6 0.346153 0.192989 0.935067
O O7 0.562648 0.295103 0.939779
O O8 0.698412 0.217654 0.645611
O O9 0.851980 0.441542 0.650543
O O10 0.767599 0.307831 0.575276
O O11 0.580024 0.323380 0.709818
O O12 0.944286 0.422025 0.232498
O O13 0.750000 0.500000 0.209283
O O14 0.865973 0.750000 0.250000
O O15 0.250000 0.500000 0.949357
O O16 0.191389 0.236074 0.994625
O O17 0.250000 0.000000 0.455582
#
# Coordination Sequence:
#
# PCOD9408893 Si02
#       8
#     8   8   8   8   4   8   8   8
#     4  11  21  39  64  93 126 162 217 271 320 397
#     4  10  19  37  60  85 127 163 207 261 329 382
#     4  10  22  42  63  90 129 166 216 267 333 398
#     4  10  23  43  63  90 125 174 203 274 341 394
#     4  12  24  46  70  96 134 174 226 278 340 406
#     4  12  25  43  69 101 132 176 225 274 336 408
#     4   9  21  32  59  95 124 164 212 270 323 389
#     4  10  19  33  62  92 122 168 218 267 320 397
#
# _framework density 21.296496999999999
#
# number of rings (size 3 to 8) (size 9 to 14) (size 15 to 20)
#    0.000    1.600    3.333    2.000    1.867    1.600 
#    6.000    1.333    5.867    0.000    0.000    0.000 
#    0.000    0.000    0.000    0.000    0.000    0.000 
#
# Total GULP energy -334500.403270 kJ/mol
# GULP energy per Si atom -5575.006721 kJ/mol
# Density = 2.124803 g / cm^3
# Si number density = 21.296497 Si / 1000 Ang^3
#
#
#
# Elastic Constant Matrix: (Units=GPa)
#
#
# Indices 1 2 3 4 5 6 
#
# 1 96.2100 7.1285 82.4436 0.0000 0.0000 0.0000
# 2 7.1285 35.3179 5.6891 0.0000 0.0000 0.0000
# 3 82.4436 5.6891 180.9804 0.0000 0.0000 0.0000
# 4 0.0000 0.0000 0.0000 26.0936 0.0000 0.0000
# 5 0.0000 0.0000 0.0000 0.0000 28.4514 0.0000
# 6 0.0000 0.0000 0.0000 0.0000 0.0000 18.9417
#
#
#
# Elastic Compliance Matrix: (Units=1/GPa)
#
#
# Indices 1 2 3 4 5 6 
#
# 1 0.017221 -0.002223 -0.007775 0.000000 0.000000 0.000000
# 2 -0.002223 0.028745 0.000109 0.000000 0.000000 0.000000
# 3 -0.007775 0.000109 0.009064 0.000000 0.000000 0.000000
# 4 0.000000 0.000000 0.000000 0.038324 0.000000 0.000000
# 5 0.000000 0.000000 0.000000 0.000000 0.035148 0.000000
# 6 0.000000 0.000000 0.000000 0.000000 0.000000 0.052794
#
#
# Mechanical properties :
#
#
# Convention : Reuss Voigt Hill
#
# Bulk Modulus (GPa) = 28.36718 55.89232 42.12975
# Shear Modulus (GPa) = 23.49354 29.18048 26.33701
#
# Velocity S-wave (km/s) = 3.32500 3.70564 3.52046
# Velocity P-wave (km/s) = 5.29998 6.67913 6.02912
#
# Compressibility (1/GPa) = 0.03525201
#
# Stress axis : x y z
#
# Youngs Moduli (GPa) = 58.06799 34.78811 110.32836
#
# Poissons Ratio (x) = 0.07735 0.85781
# Poissons Ratio (y) = 0.12911 -0.01206
# Poissons Ratio (z) = 0.45148 -0.00380
#
# Static dielectric constant tensor:
#      x y z
#    x 1.865370 0.000000 0.000000 
#    y 0.000000 3.319600 0.000000 
#    z 0.000000 0.000000 1.749700 
# 
# From -- ./inp_files/42761.got.cif
#   From: 2010.05.17/outbox.cif.g08.bks.cpg/sg52_22_cif.got.tgz:42761.got - 2010.06.03 12:15:38.
