data_PCOD9408001
_publ_section_title
;
Structure prediction by ZEFSAII (Michael W. Deem and Ramdas Pophale) SiO2 
 PCOD9408001
Probable space group: P N N A
;
_chemical_formula_sum "Si O2"
_cell_formula_units_Z 40
_cell_length_a 10.278118
_cell_length_b 12.666475
_cell_length_c 11.615447
_cell_angle_alpha 90.000000
_cell_angle_beta 90.000000
_cell_angle_gamma 90.000000
_cell_volume 1512.186293
_symmetry_space_group_name_H-M "P N N A"
_symmetry_group_IT_number 52
_symmetry_cell_setting 'orthorhombic'
loop_
_space_group_symop_operation_xyz
x,y,z
1/2-x,-y,z
x,1/2-y,1/2-z
1/2-x,1/2+y,1/2-z
-x,-y,-z
1/2+x,y,-z
-x,1/2+y,1/2+z
1/2+x,1/2-y,1/2+z
loop_
_atom_site_type_symbol
_atom_site_label
_atom_site_fract_x
_atom_site_fract_y
_atom_site_fract_z
Si Si1 0.524378 0.121456 0.252182
Si Si2 0.104105 0.126560 0.230103
Si Si3 0.309528 0.400688 0.069400
Si Si4 0.685001 0.850948 0.948433
Si Si5 0.179082 0.625672 0.712245
O O1 0.527669 0.250000 0.250000
O O2 0.450572 0.090546 0.370938
O O3 0.425815 0.109014 0.141536
O O4 0.675524 0.091497 0.243672
O O5 0.088997 0.250000 0.250000
O O6 0.205735 0.097189 0.327109
O O7 0.177636 0.115635 0.108741
O O8 0.961705 0.081253 0.251540
O O9 0.250000 0.500000 0.996477
O O10 0.309231 0.277644 0.031586
O O11 0.666565 0.890737 0.075653
O O12 0.177311 0.750000 0.750000
#
# Coordination Sequence:
#
# PCOD9408001 Si02
#       5
#     8   8   8   8   8
#     4   8  16  29  48  71  93 124 165 204 238 281
#     4   8  16  29  48  71  93 124 165 204 238 281
#     4   9  17  32  52  74 101 129 158 195 245 302
#     4   9  16  29  50  74  94 125 170 202 236 286
#     4  10  17  27  48  72  96 122 162 213 243 268
#
# _framework density 26.451768000000001
#
# number of rings (size 3 to 8) (size 9 to 14) (size 15 to 20)
#    0.000    3.200    0.000    3.600    0.000    0.000 
#    0.000    1.000    0.000   62.400    0.000    0.000 
#    0.000    0.000    0.000    0.000    0.000    0.000 
#
# Total GULP energy -223256.406245 kJ/mol
# GULP energy per Si atom -5581.410156 kJ/mol
# Density = 2.639156 g / cm^3
# Si number density = 26.451768 Si / 1000 Ang^3
#
#
#
# Elastic Constant Matrix: (Units=GPa)
#
#
# Indices 1 2 3 4 5 6 
#
# 1 223.9589 42.9711 20.0960 0.0000 0.0000 0.0000
# 2 42.9711 85.6894 -3.8888 0.0000 0.0000 0.0000
# 3 20.0960 -3.8888 62.2248 0.0000 0.0000 0.0000
# 4 0.0000 0.0000 0.0000 15.3902 0.0000 0.0000
# 5 0.0000 0.0000 0.0000 0.0000 328.5661 0.0000
# 6 0.0000 0.0000 0.0000 0.0000 0.0000 45.6748
#
#
#
# Elastic Compliance Matrix: (Units=1/GPa)
#
#
# Indices 1 2 3 4 5 6 
#
# 1 0.005139 -0.002660 -0.001826 0.000000 0.000000 0.000000
# 2 -0.002660 0.013080 0.001677 0.000000 0.000000 0.000000
# 3 -0.001826 0.001677 0.016765 0.000000 0.000000 0.000000
# 4 0.000000 0.000000 0.000000 0.064977 0.000000 0.000000
# 5 0.000000 0.000000 0.000000 0.000000 0.003044 0.000000
# 6 0.000000 0.000000 0.000000 0.000000 0.000000 0.021894
#
#
# Mechanical properties :
#
#
# Convention : Reuss Voigt Hill
#
# Bulk Modulus (GPa) = 34.05355 54.46999 44.26177
# Shear Modulus (GPa) = 35.63627 98.77253 67.20440
#
# Velocity S-wave (km/s) = 3.67443 6.11733 5.04594
# Velocity P-wave (km/s) = 5.55911 8.39836 7.12166
#
# Compressibility (1/GPa) = 0.02936552
#
# Stress axis : x y z
#
# Youngs Moduli (GPa) = 194.57688 76.45187 59.64713
#
# Poissons Ratio (x) = 0.20337 0.10892
# Poissons Ratio (y) = 0.51760 -0.10000
# Poissons Ratio (z) = 0.35531 -0.12818
#
# Static dielectric constant tensor:
#      x y z
#    x 2.036830 0.000000 0.000000 
#    y 0.000000 1.869460 0.000000 
#    z 0.000000 0.000000 2.035780 
# 
# From -- ./inp_files/25951.got.cif
#   From: 2010.05.17/outbox.cif.g08.bks.cpg/sg52_13_cif.got.tgz:25951.got - 2010.06.03 12:15:38.
