data_PCOD9408589
_publ_section_title
;
Structure prediction by ZEFSAII (Michael W. Deem and Ramdas Pophale) SiO2 
 PCOD9408589
Probable space group: P N N A
;
_chemical_formula_sum "Si O2"
_cell_formula_units_Z 56
_cell_length_a 14.584384
_cell_length_b 11.726123
_cell_length_c 15.360736
_cell_angle_alpha 90.000000
_cell_angle_beta 90.000000
_cell_angle_gamma 90.000000
_cell_volume 2626.966660
_symmetry_space_group_name_H-M "P N N A"
_symmetry_group_IT_number 52
_symmetry_cell_setting 'orthorhombic'
loop_
_space_group_symop_operation_xyz
x,y,z
1/2-x,-y,z
x,1/2-y,1/2-z
1/2-x,1/2+y,1/2-z
-x,-y,-z
1/2+x,y,-z
-x,1/2+y,1/2+z
1/2+x,1/2-y,1/2+z
loop_
_atom_site_type_symbol
_atom_site_label
_atom_site_fract_x
_atom_site_fract_y
_atom_site_fract_z
Si Si1 0.322336 0.807480 0.516154
Si Si2 0.859396 0.181901 0.042758
Si Si3 0.445311 0.750000 0.750000
Si Si4 0.475569 0.850800 0.916351
Si Si5 0.146294 0.036011 0.670679
Si Si6 0.542785 0.588101 0.310429
Si Si7 0.150607 0.204326 0.161661
Si Si8 0.250000 0.500000 0.436233
O O1 0.213776 0.782899 0.528128
O O2 0.375763 0.697855 0.557695
O O3 0.355782 0.917023 0.571172
O O4 0.346616 0.799300 0.414454
O O5 0.877318 0.160098 0.143656
O O6 0.817300 0.070162 0.997570
O O7 0.957594 0.184704 0.994412
O O8 0.506007 0.777336 0.833052
O O9 0.379906 0.854210 0.727785
O O10 0.472502 0.978670 0.876897
O O11 0.250000 0.000000 0.687477
O O12 0.074528 0.947325 0.713420
O O13 0.450019 0.659013 0.314318
O O14 0.194667 0.250000 0.250000
O O15 0.201778 0.094823 0.122439
#
# Coordination Sequence:
#
# PCOD9408589 Si02
#       8
#     8   8   4   8   8   8   8   4
#     4  10  23  42  59  91 130 166 215 268 324 381
#     4  11  20  34  67  89 120 164 210 268 319 374
#     4   8  20  36  60  90 128 166 212 274 312 386
#     4  10  18  37  60  88 124 158 211 273 314 379
#     4  10  23  39  62  92 136 169 203 262 335 402
#     4  11  21  35  62  96 120 165 214 263 326 384
#     4  11  23  43  64  90 128 163 220 279 310 385
#     4  10  22  40  62  94 120 166 220 260 328 366
#
# _framework density 21.317361999999999
#
# number of rings (size 3 to 8) (size 9 to 14) (size 15 to 20)
#    0.000    1.714    2.857    2.143    7.000    1.143 
#    6.429    0.714    0.000    0.000    0.000    0.000 
#    0.000    0.000    0.000    0.000    0.000    0.000 
#
# Total GULP energy -312267.457886 kJ/mol
# GULP energy per Si atom -5576.204605 kJ/mol
# Density = 2.126884 g / cm^3
# Si number density = 21.317362 Si / 1000 Ang^3
#
#
#
# Elastic Constant Matrix: (Units=GPa)
#
#
# Indices 1 2 3 4 5 6 
#
# 1 70.7461 21.7199 19.3486 0.0000 0.0000 0.0000
# 2 21.7199 39.9067 39.6371 0.0000 0.0000 0.0000
# 3 19.3486 39.6371 130.8887 0.0000 0.0000 0.0000
# 4 0.0000 0.0000 0.0000 13.7618 0.0000 0.0000
# 5 0.0000 0.0000 0.0000 0.0000 -5.0679 0.0000
# 6 0.0000 0.0000 0.0000 0.0000 0.0000 13.5587
#
#
#
# Elastic Compliance Matrix: (Units=1/GPa)
#
#
# Indices 1 2 3 4 5 6 
#
# 1 0.016986 -0.009655 0.000413 0.000000 0.000000 0.000000
# 2 -0.009655 0.041326 -0.011088 0.000000 0.000000 0.000000
# 3 0.000413 -0.011088 0.010937 0.000000 0.000000 0.000000
# 4 0.000000 0.000000 0.000000 0.072665 0.000000 0.000000
# 5 0.000000 0.000000 0.000000 0.000000 -0.197320 0.000000
# 6 0.000000 0.000000 0.000000 0.000000 0.000000 0.073754
#
#
# Mechanical properties :
#
#
# Convention : Reuss Voigt Hill
#
# Bulk Modulus (GPa) = 34.97794 44.77252 39.87523
# Shear Modulus (GPa) = 72.95324 15.17290 44.06307
#
# Velocity S-wave (km/s) = 5.85634 2.67078 4.55136
# Velocity P-wave (km/s) = 7.88497 5.52804 6.80926
#
# Compressibility (1/GPa) = 0.02858945
#
# Stress axis : x y z
#
# Youngs Moduli (GPa) = 58.87064 24.19780 91.43535
#
# Poissons Ratio (x) = 0.23363 -0.03775
# Poissons Ratio (y) = 0.56841 1.01379
# Poissons Ratio (z) = -0.02431 0.26829
#
# Static dielectric constant tensor:
#      x y z
#    x 2.004700 0.000000 0.000000 
#    y 0.000000 1.804270 0.000000 
#    z 0.000000 0.000000 1.826320 
# 
# From -- ./inp_files/27327.got.cif
#   From: 2010.05.17/outbox.cif.g08.bks.cpg/sg52_14_cif.got.tgz:27327.got - 2010.06.03 12:15:38.
