data_PCOD9408006
_publ_section_title
;
Structure prediction by ZEFSAII (Michael W. Deem and Ramdas Pophale) SiO2 
 PCOD9408006
Probable space group: P N N A
;
_chemical_formula_sum "Si O2"
_cell_formula_units_Z 48
_cell_length_a 13.060813
_cell_length_b 5.477153
_cell_length_c 26.210389
_cell_angle_alpha 90.000000
_cell_angle_beta 90.000000
_cell_angle_gamma 90.000000
_cell_volume 1874.988251
_symmetry_space_group_name_H-M "P N N A"
_symmetry_group_IT_number 52
_symmetry_cell_setting 'orthorhombic'
loop_
_space_group_symop_operation_xyz
x,y,z
1/2-x,-y,z
x,1/2-y,1/2-z
1/2-x,1/2+y,1/2-z
-x,-y,-z
1/2+x,y,-z
-x,1/2+y,1/2+z
1/2+x,1/2-y,1/2+z
loop_
_atom_site_type_symbol
_atom_site_label
_atom_site_fract_x
_atom_site_fract_y
_atom_site_fract_z
Si Si1 0.612051 0.624634 0.945328
Si Si2 0.121741 0.365843 0.906697
Si Si3 0.384960 0.612752 0.398591
Si Si4 0.422543 0.513150 0.280723
Si Si5 0.381583 0.146052 0.941886
Si Si6 0.852170 0.875292 0.197821
O O1 0.492787 0.605452 0.929583
O O2 0.651712 0.361110 0.926760
O O3 0.658454 0.855097 0.916588
O O4 0.617187 0.720128 0.003401
O O5 0.166828 0.638804 0.908192
O O6 0.112398 0.298589 0.847613
O O7 0.160083 0.130595 0.939378
O O8 0.381767 0.574593 0.337642
O O9 0.504467 0.606752 0.418097
O O10 0.403064 0.250000 0.250000
O O11 0.546172 0.523345 0.287765
O O12 0.387064 0.750000 0.250000
O O13 0.818904 0.750000 0.250000
O O14 0.750000 0.000000 0.177562
#
# Coordination Sequence:
#
# PCOD9408006 Si02
#       6
#     8   8   8   8   8   8
#     4  10  17  29  47  70  87 106 125 172 241 310
#     4  10  19  32  47  65  86 109 139 190 239 290
#     4  10  17  28  44  63  87 106 135 170 228 280
#     4  11  22  33  47  60  82 114 155 196 236 268
#     4  10  18  29  48  69  88 103 129 170 247 304
#     4  11  24  37  50  63  85 121 172 213 250 274
#
# _framework density 25.600159999999999
#
# number of rings (size 3 to 8) (size 9 to 14) (size 15 to 20)
#    0.000    1.667    3.333    6.500    7.000    1.333 
#    0.000    0.000    0.000    0.000    0.000    0.000 
#    0.000    0.000    0.000    0.000    0.000    0.000 
#
# Total GULP energy -267824.570130 kJ/mol
# GULP energy per Si atom -5579.678544 kJ/mol
# Density = 2.554189 g / cm^3
# Si number density = 25.600160 Si / 1000 Ang^3
#
#
#
# Elastic Constant Matrix: (Units=GPa)
#
#
# Indices 1 2 3 4 5 6 
#
# 1 46.7518 46.8549 -1.1483 0.0000 0.0000 0.0000
# 2 46.8549 255.1743 83.1797 0.0000 0.0000 0.0000
# 3 -1.1483 83.1797 204.5407 0.0000 0.0000 0.0000
# 4 0.0000 0.0000 0.0000 48.2182 0.0000 0.0000
# 5 0.0000 0.0000 0.0000 0.0000 8.8342 0.0000
# 6 0.0000 0.0000 0.0000 0.0000 0.0000 47.5338
#
#
#
# Elastic Compliance Matrix: (Units=1/GPa)
#
#
# Indices 1 2 3 4 5 6 
#
# 1 0.027301 -0.005837 0.002527 0.000000 0.000000 0.000000
# 2 -0.005837 0.005766 -0.002377 0.000000 0.000000 0.000000
# 3 0.002527 -0.002377 0.005870 0.000000 0.000000 0.000000
# 4 0.000000 0.000000 0.000000 0.020739 0.000000 0.000000
# 5 0.000000 0.000000 0.000000 0.000000 0.113196 0.000000
# 6 0.000000 0.000000 0.000000 0.000000 0.000000 0.021038
#
#
# Mechanical properties :
#
#
# Convention : Reuss Voigt Hill
#
# Bulk Modulus (GPa) = 36.28155 84.91549 60.59852
# Shear Modulus (GPa) = 23.31310 46.08926 34.70118
#
# Velocity S-wave (km/s) = 3.02099 4.24766 3.68571
# Velocity P-wave (km/s) = 5.13534 7.56959 6.46801
#
# Compressibility (1/GPa) = 0.02756221
#
# Stress axis : x y z
#
# Youngs Moduli (GPa) = 36.62845 173.44248 170.35740
#
# Poissons Ratio (x) = 1.01233 -0.43047
# Poissons Ratio (y) = 0.21379 0.40501
# Poissons Ratio (z) = -0.09255 0.41235
#
# Static dielectric constant tensor:
#      x y z
#    x 1.773510 0.000000 0.000000 
#    y 0.000000 2.084380 0.000000 
#    z 0.000000 0.000000 2.029730 
# 
# From -- ./inp_files/40946.got.cif
#   From: 2010.05.17/outbox.cif.g08.bks.cpg/sg52_21_cif.got.tgz:40946.got - 2010.06.03 12:15:38.
