data_PCOD9408093
_publ_section_title
;
Structure prediction by ZEFSAII (Michael W. Deem and Ramdas Pophale) SiO2 
 PCOD9408093
Probable space group: P N N A
;
_chemical_formula_sum "Si O2"
_cell_formula_units_Z 32
_cell_length_a 10.229176
_cell_length_b 6.979252
_cell_length_c 20.452790
_cell_angle_alpha 90.000000
_cell_angle_beta 90.000000
_cell_angle_gamma 90.000000
_cell_volume 1460.165523
_symmetry_space_group_name_H-M "P N N A"
_symmetry_group_IT_number 52
_symmetry_cell_setting 'orthorhombic'
loop_
_space_group_symop_operation_xyz
x,y,z
1/2-x,-y,z
x,1/2-y,1/2-z
1/2-x,1/2+y,1/2-z
-x,-y,-z
1/2+x,y,-z
-x,1/2+y,1/2+z
1/2+x,1/2-y,1/2+z
loop_
_atom_site_type_symbol
_atom_site_label
_atom_site_fract_x
_atom_site_fract_y
_atom_site_fract_z
Si Si1 0.765319 0.732928 0.949887
Si Si2 0.525445 0.307631 0.045640
Si Si3 0.604432 0.413586 0.193858
Si Si4 0.646530 0.336611 0.816018
O O1 0.750000 0.500000 0.957582
O O2 0.614820 0.794749 0.950005
O O3 0.842434 0.781557 0.882787
O O4 0.856251 0.796161 0.009176
O O5 0.573334 0.346676 0.119532
O O6 0.500000 0.500000 0.000000
O O7 0.750000 0.500000 0.198063
O O8 0.588611 0.250000 0.250000
O O9 0.494305 0.577520 0.200988
O O10 0.750000 0.500000 0.831282
O O11 0.699841 0.250000 0.750000
#
# Coordination Sequence:
#
# PCOD9408093 Si02
#       4
#     8   8   8   8
#     4   9  17  30  53  85 109 144 194 241 288 329
#     4  10  17  33  57  86 113 147 204 252 277 353
#     4  12  24  39  59  89 122 158 199 254 310 365
#     4  11  21  37  59  87 118 154 198 245 297 360
#
# _framework density 21.915323000000001
#
# number of rings (size 3 to 8) (size 9 to 14) (size 15 to 20)
#    0.000    1.500    7.500    3.750    0.000    0.000 
#    0.000    0.000    0.000    3.000    0.000    0.000 
#    0.000    0.000    0.000    0.000    0.000    0.000 
#
# Total GULP energy -178246.392487 kJ/mol
# GULP energy per Si atom -5570.199765 kJ/mol
# Density = 2.186544 g / cm^3
# Si number density = 21.915323 Si / 1000 Ang^3
#
#
#
# Elastic Constant Matrix: (Units=GPa)
#
#
# Indices 1 2 3 4 5 6 
#
# 1 170.6538 20.5693 39.5402 0.0000 0.0000 0.0000
# 2 20.5693 49.2678 35.8582 0.0000 0.0000 0.0000
# 3 39.5402 35.8582 185.5787 0.0000 0.0000 0.0000
# 4 0.0000 0.0000 0.0000 9.2863 0.0000 0.0000
# 5 0.0000 0.0000 0.0000 0.0000 46.2747 0.0000
# 6 0.0000 0.0000 0.0000 0.0000 0.0000 -7.0059
#
#
#
# Elastic Compliance Matrix: (Units=1/GPa)
#
#
# Indices 1 2 3 4 5 6 
#
# 1 0.006318 -0.001929 -0.000973 0.000000 0.000000 0.000000
# 2 -0.001929 0.024208 -0.004266 0.000000 0.000000 0.000000
# 3 -0.000973 -0.004266 0.006420 0.000000 0.000000 0.000000
# 4 0.000000 0.000000 0.000000 0.107686 0.000000 0.000000
# 5 0.000000 0.000000 0.000000 0.000000 0.021610 0.000000
# 6 0.000000 0.000000 0.000000 0.000000 0.000000 -0.142737
#
#
# Mechanical properties :
#
#
# Convention : Reuss Voigt Hill
#
# Bulk Modulus (GPa) = 44.23230 66.38176 55.30703
# Shear Modulus (GPa) = 110.18116 30.34651 70.26383
#
# Velocity S-wave (km/s) = 7.09824 3.72521 5.66843
# Velocity P-wave (km/s) = 9.34918 6.98991 8.25427
#
# Compressibility (1/GPa) = 0.02260792
#
# Stress axis : x y z
#
# Youngs Moduli (GPa) = 158.28094 41.30874 155.75557
#
# Poissons Ratio (x) = 0.07970 0.15160
# Poissons Ratio (y) = 0.30537 0.66453
# Poissons Ratio (z) = 0.15406 0.17624
#
# Static dielectric constant tensor:
#      x y z
#    x 1.890670 0.000000 0.000000 
#    y 0.000000 1.897650 0.000000 
#    z 0.000000 0.000000 2.503680 
# 
# From -- ./inp_files/35438.got.cif
#   From: 2010.05.17/outbox.cif.g08.bks.cpg/sg52_18_cif.got.tgz:35438.got - 2010.06.03 12:15:38.
