data_PCOD9408492
_publ_section_title
;
Structure prediction by ZEFSAII (Michael W. Deem and Ramdas Pophale) SiO2 
 PCOD9408492
Probable space group: P N N A
;
_chemical_formula_sum "Si O2"
_cell_formula_units_Z 48
_cell_length_a 9.711923
_cell_length_b 9.083866
_cell_length_c 22.974328
_cell_angle_alpha 90.000000
_cell_angle_beta 90.000000
_cell_angle_gamma 90.000000
_cell_volume 2026.836734
_symmetry_space_group_name_H-M "P N N A"
_symmetry_group_IT_number 52
_symmetry_cell_setting 'orthorhombic'
loop_
_space_group_symop_operation_xyz
x,y,z
1/2-x,-y,z
x,1/2-y,1/2-z
1/2-x,1/2+y,1/2-z
-x,-y,-z
1/2+x,y,-z
-x,1/2+y,1/2+z
1/2+x,1/2-y,1/2+z
loop_
_atom_site_type_symbol
_atom_site_label
_atom_site_fract_x
_atom_site_fract_y
_atom_site_fract_z
Si Si1 0.250000 0.000000 0.607367
Si Si2 0.056660 0.224250 0.181510
Si Si3 0.044272 0.095501 0.432522
Si Si4 0.224164 0.269212 0.684928
Si Si5 0.098608 0.729439 0.033557
Si Si6 0.750000 0.500000 0.476808
Si Si7 0.017795 0.050135 0.881729
O O1 0.120257 0.938010 0.573642
O O2 0.310825 0.871871 0.646782
O O3 0.100275 0.250000 0.250000
O O4 0.093273 0.340738 0.129950
O O5 0.889157 0.224257 0.182689
O O6 0.080574 0.066848 0.149912
O O7 0.026139 0.211384 0.485948
O O8 0.117256 0.942582 0.449497
O O9 0.181083 0.250000 0.750000
O O10 0.135074 0.402114 0.662553
O O11 0.058244 0.808257 0.093600
O O12 0.213352 0.846817 0.010388
O O13 0.887625 0.503543 0.436819
#
# Coordination Sequence:
#
# PCOD9408492 Si02
#       7
#     4   8   8   8   8   4   8
#     4  10  18  35  54  78 128 159 198 242 306 370
#     4  10  21  35  58  86 126 158 195 241 307 381
#     4  10  21  39  53  89 121 165 199 249 300 377
#     4  10  20  29  53  83 123 163 193 232 301 379
#     4  11  24  37  61  81 125 159 209 249 306 364
#     4  12  22  39  56  86 116 165 198 260 294 366
#     4  12  21  38  57  86 120 160 196 248 300 369
#
# _framework density 23.682223
#
# number of rings (size 3 to 8) (size 9 to 14) (size 15 to 20)
#    0.000    1.333    5.000    1.500    7.000    0.000 
#    0.000    0.000    0.000    0.000    0.000    3.500 
#    0.000    1.333    0.000    0.000    0.000    0.000 
#
# Total GULP energy -267374.100335 kJ/mol
# GULP energy per Si atom -5570.293757 kJ/mol
# Density = 2.362832 g / cm^3
# Si number density = 23.682223 Si / 1000 Ang^3
#
#
#
# Elastic Constant Matrix: (Units=GPa)
#
#
# Indices 1 2 3 4 5 6 
#
# 1 44.8100 38.3658 22.9043 0.0000 0.0000 0.0000
# 2 38.3658 159.0769 83.7171 0.0000 0.0000 0.0000
# 3 22.9043 83.7171 158.3251 0.0000 0.0000 0.0000
# 4 0.0000 0.0000 0.0000 287.7282 0.0000 0.0000
# 5 0.0000 0.0000 0.0000 0.0000 1.3604 0.0000
# 6 0.0000 0.0000 0.0000 0.0000 0.0000 26.5634
#
#
#
# Elastic Compliance Matrix: (Units=1/GPa)
#
#
# Indices 1 2 3 4 5 6 
#
# 1 0.028175 -0.006443 -0.000669 0.000000 0.000000 0.000000
# 2 -0.006443 0.010183 -0.004453 0.000000 0.000000 0.000000
# 3 -0.000669 -0.004453 0.008767 0.000000 0.000000 0.000000
# 4 0.000000 0.000000 0.000000 0.003476 0.000000 0.000000
# 5 0.000000 0.000000 0.000000 0.000000 0.735051 0.000000
# 6 0.000000 0.000000 0.000000 0.000000 0.000000 0.037646
#
#
# Mechanical properties :
#
#
# Convention : Reuss Voigt Hill
#
# Bulk Modulus (GPa) = 41.67320 72.46514 57.06917
# Shear Modulus (GPa) = 5.85188 77.61206 41.73197
#
# Velocity S-wave (km/s) = 1.57365 5.73092 4.20237
# Velocity P-wave (km/s) = 4.57568 8.62883 6.90628
#
# Compressibility (1/GPa) = 0.02399624
#
# Stress axis : x y z
#
# Youngs Moduli (GPa) = 35.49255 98.19874 114.06044
#
# Poissons Ratio (x) = 0.63270 0.07632
# Poissons Ratio (y) = 0.22868 0.50786
# Poissons Ratio (z) = 0.02375 0.43724
#
# Static dielectric constant tensor:
#      x y z
#    x 1.950750 0.000000 0.000000 
#    y 0.000000 1.822150 0.000000 
#    z 0.000000 0.000000 1.901180 
# 
# From -- ./inp_files/40214.got.cif
#   From: 2010.05.17/outbox.cif.g08.bks.cpg/sg52_21_cif.got.tgz:40214.got - 2010.06.03 12:15:38.
