data_PCOD9408335
_publ_section_title
;
Structure prediction by ZEFSAII (Michael W. Deem and Ramdas Pophale) SiO2 
 PCOD9408335
Probable space group: P N N A
;
_chemical_formula_sum "Si O2"
_cell_formula_units_Z 32
_cell_length_a 5.489787
_cell_length_b 29.919359
_cell_length_c 8.590476
_cell_angle_alpha 90.000000
_cell_angle_beta 90.000000
_cell_angle_gamma 90.000000
_cell_volume 1410.993484
_symmetry_space_group_name_H-M "P N N A"
_symmetry_group_IT_number 52
_symmetry_cell_setting 'orthorhombic'
loop_
_space_group_symop_operation_xyz
x,y,z
1/2-x,-y,z
x,1/2-y,1/2-z
1/2-x,1/2+y,1/2-z
-x,-y,-z
1/2+x,y,-z
-x,1/2+y,1/2+z
1/2+x,1/2-y,1/2+z
loop_
_atom_site_type_symbol
_atom_site_label
_atom_site_fract_x
_atom_site_fract_y
_atom_site_fract_z
Si Si1 0.983568 0.449313 0.560647
Si Si2 0.613320 0.560548 0.919067
Si Si3 0.868780 0.334997 0.848185
Si Si4 0.368695 0.199492 0.693042
O O1 0.743205 0.427891 0.483342
O O2 0.942328 0.452736 0.743480
O O3 0.000000 0.500000 0.500000
O O4 0.619637 0.614656 0.911086
O O5 0.381740 0.546593 0.023669
O O6 0.617034 0.325730 0.760080
O O7 0.115239 0.323450 0.757214
O O8 0.864580 0.304501 0.004113
O O9 0.376464 0.250000 0.750000
#
# Coordination Sequence:
#
# PCOD9408335 Si02
#       4
#     8   8   8   8
#     4  10  23  45  67  95 141 175 202 270 349 405
#     4  12  21  40  72 100 125 173 230 283 314 392
#     4  10  19  35  55  85 116 157 213 271 309 371
#     4  10  18  32  56  78 119 155 199 263 334 362
#
# _framework density 22.679057
#
# number of rings (size 3 to 8) (size 9 to 14) (size 15 to 20)
#    0.000    1.500    5.000    2.250    0.000    0.000 
#    0.000   15.000   33.000    0.000    0.000    0.000 
#    0.000    0.000    0.000    0.000    0.000    0.000 
#
# Total GULP energy -178757.974877 kJ/mol
# GULP energy per Si atom -5586.186715 kJ/mol
# Density = 2.262744 g / cm^3
# Si number density = 22.679057 Si / 1000 Ang^3
#
#
#
# Elastic Constant Matrix: (Units=GPa)
#
#
# Indices 1 2 3 4 5 6 
#
# 1 272.0023 16.8104 24.6090 0.0000 0.0000 0.0000
# 2 16.8104 56.8659 15.2988 0.0000 0.0000 0.0000
# 3 24.6090 15.2988 96.1382 0.0000 0.0000 0.0000
# 4 0.0000 0.0000 0.0000 46.6585 0.0000 0.0000
# 5 0.0000 0.0000 0.0000 0.0000 30.7729 0.0000
# 6 0.0000 0.0000 0.0000 0.0000 0.0000 28.7213
#
#
#
# Elastic Compliance Matrix: (Units=1/GPa)
#
#
# Indices 1 2 3 4 5 6 
#
# 1 0.003807 -0.000902 -0.000831 0.000000 0.000000 0.000000
# 2 -0.000902 0.018585 -0.002727 0.000000 0.000000 0.000000
# 3 -0.000831 -0.002727 0.011048 0.000000 0.000000 0.000000
# 4 0.000000 0.000000 0.000000 0.021432 0.000000 0.000000
# 5 0.000000 0.000000 0.000000 0.000000 0.032496 0.000000
# 6 0.000000 0.000000 0.000000 0.000000 0.000000 0.034817
#
#
# Mechanical properties :
#
#
# Convention : Reuss Voigt Hill
#
# Bulk Modulus (GPa) = 40.78010 59.82698 50.30354
# Shear Modulus (GPa) = 35.89888 45.78311 40.84099
#
# Velocity S-wave (km/s) = 3.98289 4.49791 4.24822
# Velocity P-wave (km/s) = 6.25873 7.30836 6.80381
#
# Compressibility (1/GPa) = 0.02452177
#
# Stress axis : x y z
#
# Youngs Moduli (GPa) = 262.64844 53.80559 90.51146
#
# Poissons Ratio (x) = 0.04853 0.07522
# Poissons Ratio (y) = 0.23689 0.24680
# Poissons Ratio (z) = 0.21828 0.14671
#
# Static dielectric constant tensor:
#      x y z
#    x 1.991920 0.000000 0.000000 
#    y 0.000000 1.824410 0.000000 
#    z 0.000000 0.000000 1.783090 
# 
# From -- ./inp_files/6710.got.cif
#   From: 2010.05.17/outbox.cif.g08.bks.cpg/sg52_4_cif.got.tgz:6710.got - 2010.06.03 12:15:38.
