data_PCOD9408746
_publ_section_title
;
Structure prediction by ZEFSAII (Michael W. Deem and Ramdas Pophale) SiO2 
 PCOD9408746
Probable space group: P N N A
;
_chemical_formula_sum "Si O2"
_cell_formula_units_Z 40
_cell_length_a 20.075395
_cell_length_b 8.153366
_cell_length_c 10.081102
_cell_angle_alpha 90.000000
_cell_angle_beta 90.000000
_cell_angle_gamma 90.000000
_cell_volume 1650.095371
_symmetry_space_group_name_H-M "P N N A"
_symmetry_group_IT_number 52
_symmetry_cell_setting 'orthorhombic'
loop_
_space_group_symop_operation_xyz
x,y,z
1/2-x,-y,z
x,1/2-y,1/2-z
1/2-x,1/2+y,1/2-z
-x,-y,-z
1/2+x,y,-z
-x,1/2+y,1/2+z
1/2+x,1/2-y,1/2+z
loop_
_atom_site_type_symbol
_atom_site_label
_atom_site_fract_x
_atom_site_fract_y
_atom_site_fract_z
Si Si1 0.987917 0.907785 0.304894
Si Si2 0.791116 0.658003 0.553967
Si Si3 0.148151 0.983511 0.820086
Si Si4 0.672984 0.650659 0.036584
Si Si5 0.414990 0.868940 0.417535
O O1 0.025782 0.750000 0.250000
O O2 0.959295 0.853613 0.448687
O O3 0.923641 0.946176 0.216154
O O4 0.032282 0.070029 0.310008
O O5 0.750000 0.500000 0.609882
O O6 0.808622 0.612102 0.401767
O O7 0.739292 0.805496 0.543074
O O8 0.862099 0.723318 0.606410
O O9 0.142387 0.826258 0.917557
O O10 0.180152 0.934994 0.679936
O O11 0.627528 0.532837 0.950258
#
# Coordination Sequence:
#
# PCOD9408746 Si02
#       5
#     8   8   8   8   8
#     4  10  19  34  55  75 118 162 207 247 298 392
#     4  10  19  31  53  82 116 153 198 259 309 373
#     4   9  18  31  50  79 114 151 190 240 323 369
#     4   9  19  30  50  83 116 146 189 257 310 376
#     4  10  20  33  53  81 114 160 203 247 318 362
#
# _framework density 24.241022999999998
#
# number of rings (size 3 to 8) (size 9 to 14) (size 15 to 20)
#    0.000    2.400    2.000    0.600    0.000   17.600 
#    0.000    1.000   22.000    0.000    0.000    8.400 
#   30.000    0.000    0.000    0.000    0.000    0.000 
#
# Total GULP energy -223435.785791 kJ/mol
# GULP energy per Si atom -5585.894645 kJ/mol
# Density = 2.418585 g / cm^3
# Si number density = 24.241023 Si / 1000 Ang^3
#
#
#
# Elastic Constant Matrix: (Units=GPa)
#
#
# Indices 1 2 3 4 5 6 
#
# 1 85.6497 45.8864 22.9405 0.0000 0.0000 0.0000
# 2 45.8864 96.8749 12.3754 0.0000 0.0000 0.0000
# 3 22.9405 12.3754 22.5978 0.0000 0.0000 0.0000
# 4 0.0000 0.0000 0.0000 11.3875 0.0000 0.0000
# 5 0.0000 0.0000 0.0000 0.0000 2.7627 0.0000
# 6 0.0000 0.0000 0.0000 0.0000 0.0000 53.1521
#
#
#
# Elastic Compliance Matrix: (Units=1/GPa)
#
#
# Indices 1 2 3 4 5 6 
#
# 1 0.019985 -0.007392 -0.016241 0.000000 0.000000 0.000000
# 2 -0.007392 0.013833 -0.000072 0.000000 0.000000 0.000000
# 3 -0.016241 -0.000072 0.060778 0.000000 0.000000 0.000000
# 4 0.000000 0.000000 0.000000 0.087816 0.000000 0.000000
# 5 0.000000 0.000000 0.000000 0.000000 0.361971 0.000000
# 6 0.000000 0.000000 0.000000 0.000000 0.000000 0.018814
#
#
# Mechanical properties :
#
#
# Convention : Reuss Voigt Hill
#
# Bulk Modulus (GPa) = 21.19148 40.83633 31.01391
# Shear Modulus (GPa) = 7.98295 21.72179 14.85237
#
# Velocity S-wave (km/s) = 1.81667 2.99670 2.47795
# Velocity P-wave (km/s) = 3.62786 5.37179 4.58353
#
# Compressibility (1/GPa) = 0.04718877
#
# Stress axis : x y z
#
# Youngs Moduli (GPa) = 50.03639 72.29108 16.45330
#
# Poissons Ratio (x) = 0.53436 0.26721
# Poissons Ratio (y) = 0.36986 0.00118
# Poissons Ratio (z) = 0.81262 0.00517
#
# Static dielectric constant tensor:
#      x y z
#    x 1.934590 0.000000 0.000000 
#    y 0.000000 1.953080 0.000000 
#    z 0.000000 0.000000 1.953750 
# 
# From -- ./inp_files/21434.got.cif
#   From: 2010.05.17/outbox.cif.g08.bks.cpg/sg52_11_cif.got.tgz:21434.got - 2010.06.03 12:15:38.
