data_PCOD9408394
_publ_section_title
;
Structure prediction by ZEFSAII (Michael W. Deem and Ramdas Pophale) SiO2 
 PCOD9408394
Probable space group: P N N A
;
_chemical_formula_sum "Si O2"
_cell_formula_units_Z 44
_cell_length_a 9.005303
_cell_length_b 11.826569
_cell_length_c 22.937065
_cell_angle_alpha 90.000000
_cell_angle_beta 90.000000
_cell_angle_gamma 90.000000
_cell_volume 2442.839565
_symmetry_space_group_name_H-M "P N N A"
_symmetry_group_IT_number 52
_symmetry_cell_setting 'orthorhombic'
loop_
_space_group_symop_operation_xyz
x,y,z
1/2-x,-y,z
x,1/2-y,1/2-z
1/2-x,1/2+y,1/2-z
-x,-y,-z
1/2+x,y,-z
-x,1/2+y,1/2+z
1/2+x,1/2-y,1/2+z
loop_
_atom_site_type_symbol
_atom_site_label
_atom_site_fract_x
_atom_site_fract_y
_atom_site_fract_z
Si Si1 0.983220 0.769416 0.501974
Si Si2 0.041573 0.577203 0.420625
Si Si3 0.250000 0.000000 0.863197
Si Si4 0.899542 0.281916 0.316958
Si Si5 0.241605 0.633237 0.919846
Si Si6 0.670778 0.170139 0.892557
O O1 0.897309 0.823702 0.447341
O O2 0.863422 0.751448 0.553304
O O3 0.044062 0.646294 0.481056
O O4 0.115514 0.839296 0.531465
O O5 0.155654 0.650849 0.381339
O O6 0.106521 0.451043 0.414940
O O7 0.871896 0.565159 0.401616
O O8 0.165448 0.907027 0.825941
O O9 0.888100 0.250000 0.250000
O O10 0.810585 0.200764 0.362001
O O11 0.069453 0.288468 0.339636
O O12 0.250000 0.500000 0.908865
#
# Coordination Sequence:
#
# PCOD9408394 Si02
#       6
#     8   8   4   8   8   8
#     4  11  19  35  54  84 116 150 190 232 290 353
#     4  10  18  33  55  85 119 140 183 236 295 341
#     4  10  20  36  62  88 110 144 194 248 290 334
#     4  10  22  39  59  81 114 154 196 244 292 345
#     4  11  23  37  57  83 118 158 194 238 292 351
#     4   9  20  33  55  84 114 151 183 235 293 350
#
# _framework density 18.011825000000002
#
# number of rings (size 3 to 8) (size 9 to 14) (size 15 to 20)
#    0.000    1.818    3.636    1.091    1.273    1.455 
#    0.000    0.909    0.000    2.182    0.000    0.000 
#    0.000    0.000    0.000    0.000    0.000    0.000 
#
# Total GULP energy -245146.633994 kJ/mol
# GULP energy per Si atom -5571.514409 kJ/mol
# Density = 1.797083 g / cm^3
# Si number density = 18.011825 Si / 1000 Ang^3
#
#
#
# Elastic Constant Matrix: (Units=GPa)
#
#
# Indices 1 2 3 4 5 6 
#
# 1 90.8658 13.2516 38.8875 0.0000 0.0000 0.0000
# 2 13.2516 79.3174 41.0971 0.0000 0.0000 0.0000
# 3 38.8875 41.0971 104.0415 0.0000 0.0000 0.0000
# 4 0.0000 0.0000 0.0000 22.6335 0.0000 0.0000
# 5 0.0000 0.0000 0.0000 0.0000 13.4458 0.0000
# 6 0.0000 0.0000 0.0000 0.0000 0.0000 15.7677
#
#
#
# Elastic Compliance Matrix: (Units=1/GPa)
#
#
# Indices 1 2 3 4 5 6 
#
# 1 0.013113 0.000438 -0.005074 0.000000 0.000000 0.000000
# 2 0.000438 0.015867 -0.006431 0.000000 0.000000 0.000000
# 3 -0.005074 -0.006431 0.014049 0.000000 0.000000 0.000000
# 4 0.000000 0.000000 0.000000 0.044182 0.000000 0.000000
# 5 0.000000 0.000000 0.000000 0.000000 0.074373 0.000000
# 6 0.000000 0.000000 0.000000 0.000000 0.000000 0.063421
#
#
# Mechanical properties :
#
#
# Convention : Reuss Voigt Hill
#
# Bulk Modulus (GPa) = 47.86142 51.18858 49.52500
# Shear Modulus (GPa) = 19.67706 22.43529 21.05618
#
# Velocity S-wave (km/s) = 3.30881 3.53312 3.42280
# Velocity P-wave (km/s) = 6.42087 6.71751 6.57087
#
# Compressibility (1/GPa) = 0.02089365
#
# Stress axis : x y z
#
# Youngs Moduli (GPa) = 76.26034 63.02543 71.18140
#
# Poissons Ratio (x) = -0.02763 0.36120
# Poissons Ratio (y) = -0.03343 0.45779
# Poissons Ratio (z) = 0.38698 0.40534
#
# Static dielectric constant tensor:
#      x y z
#    x 1.680110 0.000000 0.000000 
#    y 0.000000 1.633960 0.000000 
#    z 0.000000 0.000000 1.593290 
# 
# From -- ./inp_files/39368.got.cif
#   From: 2010.05.17/outbox.cif.g08.bks.cpg/sg52_20_cif.got.tgz:39368.got - 2010.06.03 12:15:38.
