data_PCOD9408066
_publ_section_title
;
Structure prediction by ZEFSAII (Michael W. Deem and Ramdas Pophale) SiO2 
 PCOD9408066
Probable space group: P N N A
;
_chemical_formula_sum "Si O2"
_cell_formula_units_Z 32
_cell_length_a 7.048572
_cell_length_b 15.868226
_cell_length_c 12.407966
_cell_angle_alpha 90.000000
_cell_angle_beta 90.000000
_cell_angle_gamma 90.000000
_cell_volume 1387.810319
_symmetry_space_group_name_H-M "P N N A"
_symmetry_group_IT_number 52
_symmetry_cell_setting 'orthorhombic'
loop_
_space_group_symop_operation_xyz
x,y,z
1/2-x,-y,z
x,1/2-y,1/2-z
1/2-x,1/2+y,1/2-z
-x,-y,-z
1/2+x,y,-z
-x,1/2+y,1/2+z
1/2+x,1/2-y,1/2+z
loop_
_atom_site_type_symbol
_atom_site_label
_atom_site_fract_x
_atom_site_fract_y
_atom_site_fract_z
Si Si1 0.502180 0.454481 0.116381
Si Si2 0.372885 0.770399 0.632690
Si Si3 0.307186 0.777210 0.099005
Si Si4 0.900791 0.613507 0.792296
O O1 0.629629 0.370922 0.111922
O O2 0.300419 0.418074 0.157850
O O3 0.537656 0.533780 0.194922
O O4 0.500000 0.500000 0.000000
O O5 0.292074 0.750000 0.750000
O O6 0.297648 0.720296 0.529358
O O7 0.593343 0.741812 0.635947
O O8 0.435612 0.696679 0.134931
O O9 0.376728 0.855372 0.170119
#
# Coordination Sequence:
#
# PCOD9408066 Si02
#       4
#     8   8   8   8
#     4  10  17  31  59  85 106 148 207 245 277 352
#     4  11  21  38  57  86 119 155 199 249 300 361
#     4  10  19  37  58  82 120 156 191 246 305 359
#     4   9  18  33  55  83 111 152 188 243 308 337
#
# _framework density 23.057905000000002
#
# number of rings (size 3 to 8) (size 9 to 14) (size 15 to 20)
#    0.000    2.000    7.500    0.000    0.000    0.000 
#    4.500    1.250    0.000    0.000    0.000    0.000 
#    0.000    0.000    0.000    0.000    0.000    0.000 
#
# Total GULP energy -178676.381934 kJ/mol
# GULP energy per Si atom -5583.636935 kJ/mol
# Density = 2.300542 g / cm^3
# Si number density = 23.057905 Si / 1000 Ang^3
#
#
#
# Elastic Constant Matrix: (Units=GPa)
#
#
# Indices 1 2 3 4 5 6 
#
# 1 57.9706 15.7037 25.3782 0.0000 0.0000 0.0000
# 2 15.7037 128.6007 82.2119 0.0000 0.0000 0.0000
# 3 25.3782 82.2119 237.9753 0.0000 0.0000 0.0000
# 4 0.0000 0.0000 0.0000 53.7689 0.0000 0.0000
# 5 0.0000 0.0000 0.0000 0.0000 34.1459 0.0000
# 6 0.0000 0.0000 0.0000 0.0000 0.0000 30.9545
#
#
#
# Elastic Compliance Matrix: (Units=1/GPa)
#
#
# Indices 1 2 3 4 5 6 
#
# 1 0.018253 -0.001264 -0.001510 0.000000 0.000000 0.000000
# 2 -0.001264 0.010068 -0.003343 0.000000 0.000000 0.000000
# 3 -0.001510 -0.003343 0.005518 0.000000 0.000000 0.000000
# 4 0.000000 0.000000 0.000000 0.018598 0.000000 0.000000
# 5 0.000000 0.000000 0.000000 0.000000 0.029286 0.000000
# 6 0.000000 0.000000 0.000000 0.000000 0.000000 0.032305
#
#
# Mechanical properties :
#
#
# Convention : Reuss Voigt Hill
#
# Bulk Modulus (GPa) = 46.28481 74.57047 60.42764
# Shear Modulus (GPa) = 37.46317 43.85739 40.66028
#
# Velocity S-wave (km/s) = 4.03518 4.36599 4.20384
# Velocity P-wave (km/s) = 6.46739 7.60437 7.05881
#
# Compressibility (1/GPa) = 0.02160536
#
# Stress axis : x y z
#
# Youngs Moduli (GPa) = 54.78404 99.32880 181.22128
#
# Poissons Ratio (x) = 0.12551 0.27365
# Poissons Ratio (y) = 0.06923 0.60586
# Poissons Ratio (z) = 0.08273 0.33208
#
# Static dielectric constant tensor:
#      x y z
#    x 2.092020 0.000000 0.000000 
#    y 0.000000 1.878340 0.000000 
#    z 0.000000 0.000000 1.888290 
# 
# From -- ./inp_files/8452.got.cif
#   From: 2010.05.17/outbox.cif.g08.bks.cpg/sg52_5_cif.got.tgz:8452.got - 2010.06.03 12:15:38.
