data_PCOD9408512
_publ_section_title
;
Structure prediction by ZEFSAII (Michael W. Deem and Ramdas Pophale) SiO2 
 PCOD9408512
Probable space group: P N N A
;
_chemical_formula_sum "Si O2"
_cell_formula_units_Z 44
_cell_length_a 14.244072
_cell_length_b 19.472804
_cell_length_c 8.915989
_cell_angle_alpha 90.000000
_cell_angle_beta 90.000000
_cell_angle_gamma 90.000000
_cell_volume 2473.045899
_symmetry_space_group_name_H-M "P N N A"
_symmetry_group_IT_number 52
_symmetry_cell_setting 'orthorhombic'
loop_
_space_group_symop_operation_xyz
x,y,z
1/2-x,-y,z
x,1/2-y,1/2-z
1/2-x,1/2+y,1/2-z
-x,-y,-z
1/2+x,y,-z
-x,1/2+y,1/2+z
1/2+x,1/2-y,1/2+z
loop_
_atom_site_type_symbol
_atom_site_label
_atom_site_fract_x
_atom_site_fract_y
_atom_site_fract_z
Si Si1 0.742384 0.375538 0.420501
Si Si2 0.928197 0.096559 0.968318
Si Si3 0.932195 0.671029 0.241202
Si Si4 0.602923 0.446361 0.652722
Si Si5 0.750000 0.500000 0.203292
Si Si6 0.916456 0.943859 0.499391
O O1 0.842460 0.353420 0.487613
O O2 0.672107 0.332016 0.316299
O O3 0.677080 0.403656 0.554689
O O4 0.773604 0.437715 0.312788
O O5 0.997588 0.128765 0.846809
O O6 0.888332 0.025901 0.897116
O O7 0.997412 0.076003 0.104655
O O8 0.961175 0.750000 0.250000
O O9 0.935324 0.629301 0.083717
O O10 0.614799 0.435605 0.828909
O O11 0.835675 0.522444 0.101048
O O12 0.000000 0.000000 0.500000
#
# Coordination Sequence:
#
# PCOD9408512 Si02
#       6
#     8   8   8   8   4   8
#     4  10  19  36  57  81 115 150 194 234 297 357
#     4  10  18  35  59  81 111 156 193 232 302 353
#     4  10  23  41  56  80 124 162 189 238 302 360
#     4  10  19  31  58  89 112 140 192 258 289 343
#     4  10  20  30  54  86 116 142 178 246 306 340
#     4  11  21  34  55  88 113 139 193 253 291 332
#
# _framework density 17.791824999999999
#
# number of rings (size 3 to 8) (size 9 to 14) (size 15 to 20)
#    0.000    1.818    3.636    1.091    2.545    0.000 
#    0.000   10.909    0.000    0.000    0.000    0.000 
#    0.000    0.000    0.000    0.000    0.000    0.000 
#
# Total GULP energy -245178.549014 kJ/mol
# GULP energy per Si atom -5572.239750 kJ/mol
# Density = 1.775133 g / cm^3
# Si number density = 17.791825 Si / 1000 Ang^3
#
#
#
# Elastic Constant Matrix: (Units=GPa)
#
#
# Indices 1 2 3 4 5 6 
#
# 1 69.8512 -4.8088 17.4428 0.0000 0.0000 0.0000
# 2 -4.8088 41.7879 15.3031 0.0000 0.0000 0.0000
# 3 17.4428 15.3031 129.3193 0.0000 0.0000 0.0000
# 4 0.0000 0.0000 0.0000 6.8688 0.0000 0.0000
# 5 0.0000 0.0000 0.0000 0.0000 18.0424 0.0000
# 6 0.0000 0.0000 0.0000 0.0000 0.0000 5.8313
#
#
#
# Elastic Compliance Matrix: (Units=1/GPa)
#
#
# Indices 1 2 3 4 5 6 
#
# 1 0.015079 0.002592 -0.002341 0.000000 0.000000 0.000000
# 2 0.002592 0.025460 -0.003363 0.000000 0.000000 0.000000
# 3 -0.002341 -0.003363 0.008446 0.000000 0.000000 0.000000
# 4 0.000000 0.000000 0.000000 0.145587 0.000000 0.000000
# 5 0.000000 0.000000 0.000000 0.000000 0.055425 0.000000
# 6 0.000000 0.000000 0.000000 0.000000 0.000000 0.171489
#
#
# Mechanical properties :
#
#
# Convention : Reuss Voigt Hill
#
# Bulk Modulus (GPa) = 23.38411 32.98140 28.18276
# Shear Modulus (GPa) = 11.31317 20.34991 15.83154
#
# Velocity S-wave (km/s) = 2.52437 3.38565 2.98622
# Velocity P-wave (km/s) = 4.65492 5.81903 5.26922
#
# Compressibility (1/GPa) = 0.04276408
#
# Stress axis : x y z
#
# Youngs Moduli (GPa) = 66.31687 39.27720 118.39339
#
# Poissons Ratio (x) = -0.10182 0.27712
# Poissons Ratio (y) = -0.17192 0.39810
# Poissons Ratio (z) = 0.15523 0.13207
#
# Static dielectric constant tensor:
#      x y z
#    x 1.632470 0.000000 0.000000 
#    y 0.000000 1.624110 0.000000 
#    z 0.000000 0.000000 1.625290 
# 
# From -- ./inp_files/10363.got.cif
#   From: 2010.05.17/outbox.cif.g08.bks.cpg/sg52_6_cif.got.tgz:10363.got - 2010.06.03 12:15:38.
