data_PCOD9408478
_publ_section_title
;
Structure prediction by ZEFSAII (Michael W. Deem and Ramdas Pophale) SiO2 
 PCOD9408478
Probable space group: P N N A
;
_chemical_formula_sum "Si O2"
_cell_formula_units_Z 56
_cell_length_a 8.780361
_cell_length_b 16.728114
_cell_length_c 20.158332
_cell_angle_alpha 90.000000
_cell_angle_beta 90.000000
_cell_angle_gamma 90.000000
_cell_volume 2960.833222
_symmetry_space_group_name_H-M "P N N A"
_symmetry_group_IT_number 52
_symmetry_cell_setting 'orthorhombic'
loop_
_space_group_symop_operation_xyz
x,y,z
1/2-x,-y,z
x,1/2-y,1/2-z
1/2-x,1/2+y,1/2-z
-x,-y,-z
1/2+x,y,-z
-x,1/2+y,1/2+z
1/2+x,1/2-y,1/2+z
loop_
_atom_site_type_symbol
_atom_site_label
_atom_site_fract_x
_atom_site_fract_y
_atom_site_fract_z
Si Si1 0.773267 0.750000 0.750000
Si Si2 0.955583 0.901338 0.795900
Si Si3 0.815418 0.171529 0.993851
Si Si4 0.038831 0.865679 0.323885
Si Si5 0.792745 0.660577 0.280907
Si Si6 0.750000 0.500000 0.806406
Si Si7 0.416398 0.737749 0.588576
Si Si8 0.051826 0.063927 0.055972
O O1 0.874816 0.813061 0.792361
O O2 0.659706 0.800171 0.703107
O O3 0.863155 0.949482 0.740464
O O4 0.941606 0.949718 0.865398
O O5 0.133611 0.885867 0.781560
O O6 0.712803 0.099906 0.965961
O O7 0.921890 0.207477 0.937785
O O8 0.702696 0.233200 0.028792
O O9 0.928780 0.134823 0.048124
O O10 0.923171 0.881724 0.262949
O O11 0.939397 0.824182 0.380216
O O12 0.139585 0.940384 0.345132
O O13 0.770731 0.750000 0.250000
O O14 0.856486 0.677838 0.354383
O O15 0.000000 0.000000 0.000000
#
# Coordination Sequence:
#
# PCOD9408478 Si02
#       8
#     4   8   8   8   8   4   8   8
#     4  10  18  34  62  86 108 156 208 260 292 350
#     4  11  22  37  57  86 123 158 209 247 303 367
#     4  10  22  35  55  81 106 159 212 231 289 338
#     4  10  20  39  59  86 119 152 196 253 323 358
#     4  10  19  36  63  87 113 155 201 264 306 340
#     4  10  26  36  56  90 118 162 188 246 330 380
#     4  10  19  38  60  84 114 146 203 262 286 350
#     4  11  23  35  49  75 120 165 196 237 283 360
#
# _framework density 18.913594
#
# number of rings (size 3 to 8) (size 9 to 14) (size 15 to 20)
#    0.000    1.714    4.286    1.286    4.000    1.714 
#    2.571    0.000    0.000    0.857    0.000    0.000 
#    0.000    0.000    0.000    0.000    0.000    0.000 
#
# Total GULP energy -312349.157960 kJ/mol
# GULP energy per Si atom -5577.663535 kJ/mol
# Density = 1.887055 g / cm^3
# Si number density = 18.913594 Si / 1000 Ang^3
#
#
#
# Elastic Constant Matrix: (Units=GPa)
#
#
# Indices 1 2 3 4 5 6 
#
# 1 130.2214 26.6141 31.2703 0.0000 0.0000 0.0000
# 2 26.6141 48.5409 9.6835 0.0000 0.0000 0.0000
# 3 31.2703 9.6835 58.2577 0.0000 0.0000 0.0000
# 4 0.0000 0.0000 0.0000 13.5969 0.0000 0.0000
# 5 0.0000 0.0000 0.0000 0.0000 20.4774 0.0000
# 6 0.0000 0.0000 0.0000 0.0000 0.0000 33.0918
#
#
#
# Elastic Compliance Matrix: (Units=1/GPa)
#
#
# Indices 1 2 3 4 5 6 
#
# 1 0.009647 -0.004402 -0.004446 0.000000 0.000000 0.000000
# 2 -0.004402 0.023317 -0.001513 0.000000 0.000000 0.000000
# 3 -0.004446 -0.001513 0.019803 0.000000 0.000000 0.000000
# 4 0.000000 0.000000 0.000000 0.073546 0.000000 0.000000
# 5 0.000000 0.000000 0.000000 0.000000 0.048834 0.000000
# 6 0.000000 0.000000 0.000000 0.000000 0.000000 0.030219
#
#
# Mechanical properties :
#
#
# Convention : Reuss Voigt Hill
#
# Bulk Modulus (GPa) = 31.20697 41.35064 36.27880
# Shear Modulus (GPa) = 21.11762 24.73003 22.92383
#
# Velocity S-wave (km/s) = 3.34508 3.61990 3.48520
# Velocity P-wave (km/s) = 5.60847 6.27550 5.95134
#
# Compressibility (1/GPa) = 0.03204413
#
# Stress axis : x y z
#
# Youngs Moduli (GPa) = 103.66382 42.88800 50.49722
#
# Poissons Ratio (x) = 0.18880 0.22452
# Poissons Ratio (y) = 0.45633 0.07639
# Poissons Ratio (z) = 0.46091 0.06488
#
# Static dielectric constant tensor:
#      x y z
#    x 1.665090 0.000000 0.000000 
#    y 0.000000 1.694010 0.000000 
#    z 0.000000 0.000000 1.683390 
# 
# From -- ./inp_files/36157.got.cif
#   From: 2010.05.17/outbox.cif.g08.bks.cpg/sg52_19_cif.got.tgz:36157.got - 2010.06.03 12:15:38.
