data_PCOD9408958
_publ_section_title
;
Structure prediction by ZEFSAII (Michael W. Deem and Ramdas Pophale) SiO2 
 PCOD9408958
Probable space group: P N N A
;
_chemical_formula_sum "Si O2"
_cell_formula_units_Z 40
_cell_length_a 15.064633
_cell_length_b 8.322479
_cell_length_c 13.704995
_cell_angle_alpha 90.000000
_cell_angle_beta 90.000000
_cell_angle_gamma 90.000000
_cell_volume 1718.265006
_symmetry_space_group_name_H-M "P N N A"
_symmetry_group_IT_number 52
_symmetry_cell_setting 'orthorhombic'
loop_
_space_group_symop_operation_xyz
x,y,z
1/2-x,-y,z
x,1/2-y,1/2-z
1/2-x,1/2+y,1/2-z
-x,-y,-z
1/2+x,y,-z
-x,1/2+y,1/2+z
1/2+x,1/2-y,1/2+z
loop_
_atom_site_type_symbol
_atom_site_label
_atom_site_fract_x
_atom_site_fract_y
_atom_site_fract_z
Si Si1 0.204127 0.741808 0.108201
Si Si2 0.470225 0.250000 0.750000
Si Si3 0.117126 0.404016 0.384612
Si Si4 0.545508 0.259089 0.063199
Si Si5 0.567639 0.750000 0.750000
Si Si6 0.115637 0.597526 0.934097
O O1 0.305993 0.771235 0.133801
O O2 0.140861 0.647401 0.185497
O O3 0.160043 0.919647 0.115400
O O4 0.193906 0.667402 0.001043
O O5 0.537360 0.366604 0.689976
O O6 0.406683 0.335023 0.827938
O O7 0.085258 0.378204 0.495792
O O8 0.501863 0.205896 0.164223
O O9 0.613110 0.406149 0.075571
O O10 0.467559 0.338045 0.998218
#
# Coordination Sequence:
#
# PCOD9408958 Si02
#       6
#     8   4   8   8   4   8
#     4  10  21  36  55  81 111 141 175 219 269 317
#     4  10  19  34  59  82 104 138 182 224 261 312
#     4  10  21  36  55  81 111 141 175 219 269 317
#     4   9  19  34  53  79 109 141 177 218 265 316
#     4  10  19  34  59  82 104 138 182 224 261 312
#     4   9  19  34  53  79 109 141 177 218 265 316
#
# _framework density 23.279295000000001
#
# number of rings (size 3 to 8) (size 9 to 14) (size 15 to 20)
#    0.000    2.400    0.000    1.800    0.000   11.200 
#    0.000    1.000    0.000    0.000    0.000    0.000 
#    0.000    0.000    0.000    0.000    0.000    0.000 
#
# Total GULP energy -223008.591836 kJ/mol
# GULP energy per Si atom -5575.214796 kJ/mol
# Density = 2.322631 g / cm^3
# Si number density = 23.279295 Si / 1000 Ang^3
#
#
#
# Elastic Constant Matrix: (Units=GPa)
#
#
# Indices 1 2 3 4 5 6 
#
# 1 72.0609 26.9062 55.0755 0.0000 0.0000 0.0000
# 2 26.9062 84.5948 38.4476 0.0000 0.0000 0.0000
# 3 55.0755 38.4476 194.5587 0.0000 0.0000 0.0000
# 4 0.0000 0.0000 0.0000 19.8115 0.0000 0.0000
# 5 0.0000 0.0000 0.0000 0.0000 20.9793 0.0000
# 6 0.0000 0.0000 0.0000 0.0000 0.0000 25.6202
#
#
#
# Elastic Compliance Matrix: (Units=1/GPa)
#
#
# Indices 1 2 3 4 5 6 
#
# 1 0.018820 -0.003916 -0.004554 0.000000 0.000000 0.000000
# 2 -0.003916 0.013802 -0.001619 0.000000 0.000000 0.000000
# 3 -0.004554 -0.001619 0.006749 0.000000 0.000000 0.000000
# 4 0.000000 0.000000 0.000000 0.050476 0.000000 0.000000
# 5 0.000000 0.000000 0.000000 0.000000 0.047666 0.000000
# 6 0.000000 0.000000 0.000000 0.000000 0.000000 0.039032
#
#
# Mechanical properties :
#
#
# Convention : Reuss Voigt Hill
#
# Bulk Modulus (GPa) = 52.10121 65.78588 58.94355
# Shear Modulus (GPa) = 24.61605 28.66788 26.64197
#
# Velocity S-wave (km/s) = 3.25533 3.51305 3.38664
# Velocity P-wave (km/s) = 6.04641 6.69149 6.37711
#
# Compressibility (1/GPa) = 0.01919341
#
# Stress axis : x y z
#
# Youngs Moduli (GPa) = 53.13599 72.45090 148.17491
#
# Poissons Ratio (x) = 0.28373 0.67472
# Poissons Ratio (y) = 0.20809 0.23989
# Poissons Ratio (z) = 0.24196 0.11730
#
# Static dielectric constant tensor:
#      x y z
#    x 1.944150 0.000000 0.000000 
#    y 0.000000 2.059740 0.000000 
#    z 0.000000 0.000000 1.954960 
# 
# From -- ./inp_files/20385.got.cif
#   From: 2010.05.17/outbox.cif.g08.bks.cpg/sg52_11_cif.got.tgz:20385.got - 2010.06.03 12:15:38.
