data_PCOD9408046
_publ_section_title
;
Structure prediction by ZEFSAII (Michael W. Deem and Ramdas Pophale) SiO2 
 PCOD9408046
Probable space group: P N N A
;
_chemical_formula_sum "Si O2"
_cell_formula_units_Z 64
_cell_length_a 13.192713
_cell_length_b 15.613181
_cell_length_c 17.043113
_cell_angle_alpha 90.000000
_cell_angle_beta 90.000000
_cell_angle_gamma 90.000000
_cell_volume 3510.544096
_symmetry_space_group_name_H-M "P N N A"
_symmetry_group_IT_number 52
_symmetry_cell_setting 'orthorhombic'
loop_
_space_group_symop_operation_xyz
x,y,z
1/2-x,-y,z
x,1/2-y,1/2-z
1/2-x,1/2+y,1/2-z
-x,-y,-z
1/2+x,y,-z
-x,1/2+y,1/2+z
1/2+x,1/2-y,1/2+z
loop_
_atom_site_type_symbol
_atom_site_label
_atom_site_fract_x
_atom_site_fract_y
_atom_site_fract_z
Si Si1 0.084006 0.028543 0.436422
Si Si2 0.211356 0.622965 0.036706
Si Si3 0.598582 0.617439 0.131664
Si Si4 0.004883 0.927626 0.113394
Si Si5 0.860288 0.472365 0.286418
Si Si6 0.929174 0.310595 0.386513
Si Si7 0.324620 0.318240 0.443208
Si Si8 0.110442 0.401493 0.452824
O O1 0.173994 0.088865 0.468056
O O2 0.015710 0.081502 0.376603
O O3 0.143718 0.942710 0.411542
O O4 0.000000 0.000000 0.500000
O O5 0.205168 0.719266 0.067665
O O6 0.160403 0.615601 0.950317
O O7 0.647108 0.556568 0.196490
O O8 0.591524 0.718145 0.149985
O O9 0.086005 0.851064 0.113712
O O10 0.942103 0.955036 0.190069
O O11 0.923733 0.907749 0.043967
O O12 0.070300 0.010123 0.084930
O O13 0.750000 0.500000 0.314991
O O14 0.895826 0.387315 0.331185
O O15 0.869279 0.321386 0.468458
O O16 0.045272 0.326308 0.411668
O O17 0.227292 0.379712 0.441257
#
# Coordination Sequence:
#
# PCOD9408046 Si02
#       8
#     8   8   8   8   8   8   8   8
#     4   9  18  33  55  78 106 127 174 230 275 317
#     4   9  19  33  55  84 103 133 174 234 282 317
#     4  10  20  34  57  78 107 140 180 221 275 329
#     4   9  19  31  47  79 109 144 180 221 266 325
#     4  11  22  34  53  73 113 149 179 213 273 339
#     4   9  19  33  50  82 108 139 182 228 259 319
#     4  10  17  30  55  79 109 137 183 228 273 319
#     4   9  16  29  53  77 107 140 180 225 275 305
#
# _framework density 18.230792000000001
#
# number of rings (size 3 to 8) (size 9 to 14) (size 15 to 20)
#    0.000    2.500    0.000    3.000    3.500    1.000 
#    0.000    0.000   13.750    0.000    0.000    0.000 
#    0.000    0.000    0.000    0.000    0.000    0.000 
#
# Total GULP energy -356455.995454 kJ/mol
# GULP energy per Si atom -5569.624929 kJ/mol
# Density = 1.818930 g / cm^3
# Si number density = 18.230792 Si / 1000 Ang^3
#
#
#
# Elastic Constant Matrix: (Units=GPa)
#
#
# Indices 1 2 3 4 5 6 
#
# 1 109.4089 41.5718 10.6265 0.0000 0.0000 0.0000
# 2 41.5718 88.9730 20.0239 0.0000 0.0000 0.0000
# 3 10.6265 20.0239 22.2302 0.0000 0.0000 0.0000
# 4 0.0000 0.0000 0.0000 20.6241 0.0000 0.0000
# 5 0.0000 0.0000 0.0000 0.0000 14.7462 0.0000
# 6 0.0000 0.0000 0.0000 0.0000 0.0000 27.5703
#
#
#
# Elastic Compliance Matrix: (Units=1/GPa)
#
#
# Indices 1 2 3 4 5 6 
#
# 1 0.011124 -0.005018 -0.000797 0.000000 0.000000 0.000000
# 2 -0.005018 0.016361 -0.012338 0.000000 0.000000 0.000000
# 3 -0.000797 -0.012338 0.056479 0.000000 0.000000 0.000000
# 4 0.000000 0.000000 0.000000 0.048487 0.000000 0.000000
# 5 0.000000 0.000000 0.000000 0.000000 0.067814 0.000000
# 6 0.000000 0.000000 0.000000 0.000000 0.000000 0.036271
#
#
# Mechanical properties :
#
#
# Convention : Reuss Voigt Hill
#
# Bulk Modulus (GPa) = 20.98371 40.56183 30.77277
# Shear Modulus (GPa) = 17.31728 22.48080 19.89904
#
# Velocity S-wave (km/s) = 3.08537 3.51539 3.30738
# Velocity P-wave (km/s) = 4.92217 6.22693 5.61259
#
# Compressibility (1/GPa) = 0.04765602
#
# Stress axis : x y z
#
# Youngs Moduli (GPa) = 89.89386 61.12142 17.70575
#
# Poissons Ratio (x) = 0.30672 0.01412
# Poissons Ratio (y) = 0.45111 0.21846
# Poissons Ratio (z) = 0.07169 0.75413
#
# Static dielectric constant tensor:
#      x y z
#    x 1.629060 0.000000 0.000000 
#    y 0.000000 1.653940 0.000000 
#    z 0.000000 0.000000 1.639130 
# 
# From -- ./inp_files/32427.got.cif
#   From: 2010.05.17/outbox.cif.g08.bks.cpg/sg52_17_cif.got.tgz:32427.got - 2010.06.03 12:15:38.
