data_PCOD9408057
_publ_section_title
;
Structure prediction by ZEFSAII (Michael W. Deem and Ramdas Pophale) SiO2 
 PCOD9408057
Probable space group: P N N A
;
_chemical_formula_sum "Si O2"
_cell_formula_units_Z 52
_cell_length_a 8.766163
_cell_length_b 27.548767
_cell_length_c 12.092638
_cell_angle_alpha 90.000000
_cell_angle_beta 90.000000
_cell_angle_gamma 90.000000
_cell_volume 2920.335581
_symmetry_space_group_name_H-M "P N N A"
_symmetry_group_IT_number 52
_symmetry_cell_setting 'orthorhombic'
loop_
_space_group_symop_operation_xyz
x,y,z
1/2-x,-y,z
x,1/2-y,1/2-z
1/2-x,1/2+y,1/2-z
-x,-y,-z
1/2+x,y,-z
-x,1/2+y,1/2+z
1/2+x,1/2-y,1/2+z
loop_
_atom_site_type_symbol
_atom_site_label
_atom_site_fract_x
_atom_site_fract_y
_atom_site_fract_z
Si Si1 0.474994 0.250000 0.250000
Si Si2 0.229919 0.239999 0.935222
Si Si3 0.942647 0.583140 0.018095
Si Si4 0.961253 0.711220 0.650361
Si Si5 0.264022 0.345033 0.220170
Si Si6 0.791376 0.347950 0.041709
Si Si7 0.697956 0.950285 0.662843
O O1 0.586136 0.242743 0.145974
O O2 0.375485 0.299297 0.243409
O O3 0.369248 0.205272 0.899864
O O4 0.307957 0.293124 0.922322
O O5 0.156631 0.228866 0.054657
O O6 0.847877 0.621816 0.092420
O O7 0.038956 0.547717 0.095648
O O8 0.826511 0.558566 0.933098
O O9 0.063668 0.617299 0.954317
O O10 0.967335 0.750000 0.750000
O O11 0.886653 0.664726 0.708751
O O12 0.312742 0.401157 0.234984
O O13 0.246447 0.342557 0.087669
O O14 0.750000 0.000000 0.719147
#
# Coordination Sequence:
#
# PCOD9408057 Si02
#       7
#     4   8   8   8   8   8   8
#     4  12  22  34  52  86 110 152 186 228 282 334
#     4  12  23  33  57  80 118 150 189 225 281 336
#     4   8  17  27  47  70 100 135 180 214 262 328
#     4  12  22  38  53  82 112 151 190 229 270 334
#     4  10  20  35  51  73 113 143 183 228 268 329
#     4  10  17  31  49  74 104 150 174 218 270 321
#     4  10  19  32  49  72 102 144 183 227 278 327
#
# _framework density 17.806172
#
# number of rings (size 3 to 8) (size 9 to 14) (size 15 to 20)
#    0.000    1.846    3.077    5.077    2.154    0.000 
#    0.000    0.000    0.000    0.000    0.000    4.308 
#    0.000    0.000    0.000    0.000    0.000    0.000 
#
# Total GULP energy -289576.777478 kJ/mol
# GULP energy per Si atom -5568.784182 kJ/mol
# Density = 1.776564 g / cm^3
# Si number density = 17.806172 Si / 1000 Ang^3
#
#
#
# Elastic Constant Matrix: (Units=GPa)
#
#
# Indices 1 2 3 4 5 6 
#
# 1 81.1746 -2.2366 18.4355 0.0000 0.0000 0.0000
# 2 -2.2366 47.5433 3.5868 0.0000 0.0000 0.0000
# 3 18.4355 3.5868 64.6429 0.0000 0.0000 0.0000
# 4 0.0000 0.0000 0.0000 20.0739 0.0000 0.0000
# 5 0.0000 0.0000 0.0000 0.0000 24.7917 0.0000
# 6 0.0000 0.0000 0.0000 0.0000 0.0000 5.1756
#
#
#
# Elastic Compliance Matrix: (Units=1/GPa)
#
#
# Indices 1 2 3 4 5 6 
#
# 1 0.013211 0.000910 -0.003818 0.000000 0.000000 0.000000
# 2 0.000910 0.021185 -0.001435 0.000000 0.000000 0.000000
# 3 -0.003818 -0.001435 0.016638 0.000000 0.000000 0.000000
# 4 0.000000 0.000000 0.000000 0.049816 0.000000 0.000000
# 5 0.000000 0.000000 0.000000 0.000000 0.040336 0.000000
# 6 0.000000 0.000000 0.000000 0.000000 0.000000 0.193215
#
#
# Mechanical properties :
#
#
# Convention : Reuss Voigt Hill
#
# Bulk Modulus (GPa) = 23.61445 25.88137 24.74791
# Shear Modulus (GPa) = 13.99761 21.57991 17.78876
#
# Velocity S-wave (km/s) = 2.80681 3.48506 3.16416
# Velocity P-wave (km/s) = 4.87801 5.54624 5.22282
#
# Compressibility (1/GPa) = 0.04234696
#
# Stress axis : x y z
#
# Youngs Moduli (GPa) = 75.69254 47.20432 60.10290
#
# Poissons Ratio (x) = -0.04293 0.22949
# Poissons Ratio (y) = -0.06885 0.08624
# Poissons Ratio (z) = 0.28901 0.06773
#
# Static dielectric constant tensor:
#      x y z
#    x 1.703570 0.000000 0.000000 
#    y 0.000000 1.686110 0.000000 
#    z 0.000000 0.000000 1.623550 
# 
# From -- ./inp_files/17092.got.cif
#   From: 2010.05.17/outbox.cif.g08.bks.cpg/sg52_9_cif.got.tgz:17092.got - 2010.06.03 12:15:38.
