data_PCOD9408639
_publ_section_title
;
Structure prediction by ZEFSAII (Michael W. Deem and Ramdas Pophale) SiO2 
 PCOD9408639
Probable space group: P N N A
;
_chemical_formula_sum "Si O2"
_cell_formula_units_Z 40
_cell_length_a 18.947118
_cell_length_b 11.812686
_cell_length_c 7.490855
_cell_angle_alpha 90.000000
_cell_angle_beta 90.000000
_cell_angle_gamma 90.000000
_cell_volume 1676.575866
_symmetry_space_group_name_H-M "P N N A"
_symmetry_group_IT_number 52
_symmetry_cell_setting 'orthorhombic'
loop_
_space_group_symop_operation_xyz
x,y,z
1/2-x,-y,z
x,1/2-y,1/2-z
1/2-x,1/2+y,1/2-z
-x,-y,-z
1/2+x,y,-z
-x,1/2+y,1/2+z
1/2+x,1/2-y,1/2+z
loop_
_atom_site_type_symbol
_atom_site_label
_atom_site_fract_x
_atom_site_fract_y
_atom_site_fract_z
Si Si1 0.177742 0.942279 0.953199
Si Si2 0.949610 0.569669 0.364345
Si Si3 0.104841 0.781370 0.461828
Si Si4 0.951614 0.816378 0.498648
Si Si5 0.333763 0.513321 0.135205
O O1 0.162823 0.808757 0.968453
O O2 0.250000 0.000000 0.894983
O O3 0.163401 0.991770 0.151971
O O4 0.116696 0.991616 0.833811
O O5 0.925581 0.691226 0.442492
O O6 0.975256 0.603735 0.168174
O O7 0.000000 0.500000 0.500000
O O8 0.093166 0.750000 0.250000
O O9 0.030237 0.782390 0.564711
O O10 0.134083 0.905704 0.460717
O O11 0.886530 0.880819 0.593917
O O12 0.250000 0.500000 0.092514
#
# Coordination Sequence:
#
# PCOD9408639 Si02
#       5
#     8   8   8   8   8
#     4  10  22  39  65  91 126 169 212 258 324 400
#     4  11  21  40  65  93 124 168 211 258 326 390
#     4  10  18  39  60  85 124 164 200 258 322 373
#     4  11  22  39  66  90 127 168 207 272 317 377
#     4  10  23  39  61  94 126 160 212 271 320 380
#
# _framework density 23.858153000000001
#
# number of rings (size 3 to 8) (size 9 to 14) (size 15 to 20)
#    0.000    1.600    4.000    1.800    2.800    1.600 
#    0.000    1.000    0.000    0.000    0.000    0.000 
#    0.000    0.000    0.000    0.000    0.000    0.000 
#
# Total GULP energy -223044.027417 kJ/mol
# GULP energy per Si atom -5576.100685 kJ/mol
# Density = 2.380385 g / cm^3
# Si number density = 23.858153 Si / 1000 Ang^3
#
#
#
# Elastic Constant Matrix: (Units=GPa)
#
#
# Indices 1 2 3 4 5 6 
#
# 1 99.0554 29.5484 28.0124 0.0000 0.0000 0.0000
# 2 29.5484 111.2560 36.8205 0.0000 0.0000 0.0000
# 3 28.0124 36.8205 91.2705 0.0000 0.0000 0.0000
# 4 0.0000 0.0000 0.0000 19.6287 0.0000 0.0000
# 5 0.0000 0.0000 0.0000 0.0000 -10.6355 0.0000
# 6 0.0000 0.0000 0.0000 0.0000 0.0000 44.8417
#
#
#
# Elastic Compliance Matrix: (Units=1/GPa)
#
#
# Indices 1 2 3 4 5 6 
#
# 1 0.011494 -0.002176 -0.002650 0.000000 0.000000 0.000000
# 2 -0.002176 0.010785 -0.003683 0.000000 0.000000 0.000000
# 3 -0.002650 -0.003683 0.013256 0.000000 0.000000 0.000000
# 4 0.000000 0.000000 0.000000 0.050946 0.000000 0.000000
# 5 0.000000 0.000000 0.000000 0.000000 -0.094025 0.000000
# 6 0.000000 0.000000 0.000000 0.000000 0.000000 0.022301
#
#
# Mechanical properties :
#
#
# Convention : Reuss Voigt Hill
#
# Bulk Modulus (GPa) = 54.00452 54.48270 54.24361
# Shear Modulus (GPa) = 131.76737 24.58036 78.17386
#
# Velocity S-wave (km/s) = 7.43972 3.21327 5.73038
# Velocity P-wave (km/s) = 9.82263 6.05413 8.15893
#
# Compressibility (1/GPa) = 0.01851697
#
# Stress axis : x y z
#
# Youngs Moduli (GPa) = 87.00389 92.72084 75.43960
#
# Poissons Ratio (x) = 0.20172 0.19991
# Poissons Ratio (y) = 0.18929 0.27786
# Poissons Ratio (z) = 0.23055 0.34151
#
# Static dielectric constant tensor:
#      x y z
#    x 2.645740 0.000000 0.000000 
#    y 0.000000 1.808480 0.000000 
#    z 0.000000 0.000000 2.088010 
# 
# From -- ./inp_files/11588.got.cif
#   From: 2010.05.17/outbox.cif.g08.bks.cpg/sg52_6_cif.got.tgz:11588.got - 2010.06.03 12:15:38.
