data_PCOD9408129
_publ_section_title
;
Structure prediction by ZEFSAII (Michael W. Deem and Ramdas Pophale) SiO2 
 PCOD9408129
Probable space group: P N N A
;
_chemical_formula_sum "Si O2"
_cell_formula_units_Z 56
_cell_length_a 19.557166
_cell_length_b 15.963538
_cell_length_c 8.098454
_cell_angle_alpha 90.000000
_cell_angle_beta 90.000000
_cell_angle_gamma 90.000000
_cell_volume 2528.349994
_symmetry_space_group_name_H-M "P N N A"
_symmetry_group_IT_number 52
_symmetry_cell_setting 'orthorhombic'
loop_
_space_group_symop_operation_xyz
x,y,z
1/2-x,-y,z
x,1/2-y,1/2-z
1/2-x,1/2+y,1/2-z
-x,-y,-z
1/2+x,y,-z
-x,1/2+y,1/2+z
1/2+x,1/2-y,1/2+z
loop_
_atom_site_type_symbol
_atom_site_label
_atom_site_fract_x
_atom_site_fract_y
_atom_site_fract_z
Si Si1 0.187958 0.952218 0.649675
Si Si2 0.724856 0.879099 0.989565
Si Si3 0.441971 0.523039 0.690206
Si Si4 0.963295 0.566851 0.876345
Si Si5 0.130781 0.776239 0.556630
Si Si6 0.003872 0.318713 0.859129
Si Si7 0.645393 0.034556 0.869812
O O1 0.218229 0.915874 0.823732
O O2 0.158878 0.870907 0.560439
O O3 0.250000 0.000000 0.563774
O O4 0.109330 0.044313 0.304487
O O5 0.688054 0.789578 0.994714
O O6 0.801530 0.892820 0.923369
O O7 0.681960 0.945181 0.881810
O O8 0.373584 0.515235 0.802611
O O9 0.492409 0.598879 0.741345
O O10 0.481474 0.436473 0.728589
O O11 0.413445 0.531745 0.508661
O O12 0.959554 0.652029 0.974848
O O13 0.000000 0.500000 0.000000
O O14 0.114533 0.750000 0.750000
O O15 0.066928 0.781051 0.430155
O O16 0.040523 0.250000 0.750000
#
# Coordination Sequence:
#
# PCOD9408129 Si02
#       7
#     8   8   8   8   8   8   8
#     4  10  17  38  66  99 134 180 235 277 348 437
#     4   9  19  36  67 106 134 175 232 284 359 434
#     4  10  20  39  67 100 129 180 231 287 352 427
#     4  10  22  38  66 100 135 177 235 284 348 423
#     4  10  22  38  68  96 134 183 235 292 352 425
#     4  11  25  42  61  92 137 178 230 296 344 412
#     4  10  19  39  71 101 138 180 228 291 358 439
#
# _framework density 22.148834000000001
#
# number of rings (size 3 to 8) (size 9 to 14) (size 15 to 20)
#    0.000    2.000    4.286    0.429    4.000    1.143 
#    2.571    0.000   18.857    0.000    0.000    0.000 
#    0.000    0.000    0.000    0.000    0.000    0.000 
#
# Total GULP energy -312230.435245 kJ/mol
# GULP energy per Si atom -5575.543487 kJ/mol
# Density = 2.209842 g / cm^3
# Si number density = 22.148834 Si / 1000 Ang^3
#
#
#
# Elastic Constant Matrix: (Units=GPa)
#
#
# Indices 1 2 3 4 5 6 
#
# 1 76.7938 18.0948 50.5193 0.0000 0.0000 0.0000
# 2 18.0948 90.2400 34.0513 0.0000 0.0000 0.0000
# 3 50.5193 34.0513 87.6994 0.0000 0.0000 0.0000
# 4 0.0000 0.0000 0.0000 24.5356 0.0000 0.0000
# 5 0.0000 0.0000 0.0000 0.0000 30.1379 0.0000
# 6 0.0000 0.0000 0.0000 0.0000 0.0000 41.4673
#
#
#
# Elastic Compliance Matrix: (Units=1/GPa)
#
#
# Indices 1 2 3 4 5 6 
#
# 1 0.020981 0.000414 -0.012247 0.000000 0.000000 0.000000
# 2 0.000414 0.012992 -0.005283 0.000000 0.000000 0.000000
# 3 -0.012247 -0.005283 0.020509 0.000000 0.000000 0.000000
# 4 0.000000 0.000000 0.000000 0.040757 0.000000 0.000000
# 5 0.000000 0.000000 0.000000 0.000000 0.033181 0.000000
# 6 0.000000 0.000000 0.000000 0.000000 0.000000 0.024115
#
#
# Mechanical properties :
#
#
# Convention : Reuss Voigt Hill
#
# Bulk Modulus (GPa) = 49.38234 51.11822 50.25028
# Shear Modulus (GPa) = 25.83757 29.36603 27.60180
#
# Velocity S-wave (km/s) = 3.41917 3.64517 3.53398
# Velocity P-wave (km/s) = 6.15888 6.39108 6.27605
#
# Compressibility (1/GPa) = 0.02025015
#
# Stress axis : x y z
#
# Youngs Moduli (GPa) = 47.66211 76.97034 48.75973
#
# Poissons Ratio (x) = -0.03188 0.59716
# Poissons Ratio (y) = -0.01974 0.25760
# Poissons Ratio (z) = 0.58372 0.40664
#
# Static dielectric constant tensor:
#      x y z
#    x 1.852780 0.000000 0.000000 
#    y 0.000000 1.874700 0.000000 
#    z 0.000000 0.000000 1.912860 
# 
# From -- ./inp_files/20927.got.cif
#   From: 2010.05.17/outbox.cif.g08.bks.cpg/sg52_11_cif.got.tgz:20927.got - 2010.06.03 12:15:38.
