data_PCOD9408360
_publ_section_title
;
Structure prediction by ZEFSAII (Michael W. Deem and Ramdas Pophale) SiO2 
 PCOD9408360
Probable space group: P N N A
;
_chemical_formula_sum "Si O2"
_cell_formula_units_Z 48
_cell_length_a 13.242607
_cell_length_b 17.063996
_cell_length_c 8.747249
_cell_angle_alpha 90.000000
_cell_angle_beta 90.000000
_cell_angle_gamma 90.000000
_cell_volume 1976.631539
_symmetry_space_group_name_H-M "P N N A"
_symmetry_group_IT_number 52
_symmetry_cell_setting 'orthorhombic'
loop_
_space_group_symop_operation_xyz
x,y,z
1/2-x,-y,z
x,1/2-y,1/2-z
1/2-x,1/2+y,1/2-z
-x,-y,-z
1/2+x,y,-z
-x,1/2+y,1/2+z
1/2+x,1/2-y,1/2+z
loop_
_atom_site_type_symbol
_atom_site_label
_atom_site_fract_x
_atom_site_fract_y
_atom_site_fract_z
Si Si1 0.092206 0.091514 0.631846
Si Si2 0.977656 0.750000 0.250000
Si Si3 0.147331 0.750000 0.750000
Si Si4 0.689634 0.250000 0.750000
Si Si5 0.529363 0.365409 0.823653
Si Si6 0.250000 0.000000 0.452579
Si Si7 0.582936 0.982569 0.804232
Si Si8 0.848625 0.331009 0.553843
O O1 0.089830 0.179093 0.693162
O O2 0.022027 0.088400 0.480671
O O3 0.198123 0.061778 0.567177
O O4 0.030317 0.043282 0.757817
O O5 0.052718 0.716026 0.382265
O O6 0.192699 0.712319 0.597497
O O7 0.073665 0.677765 0.792672
O O8 0.613336 0.299165 0.853502
O O9 0.761616 0.313359 0.674664
O O10 0.570090 0.423194 0.690524
O O11 0.337092 0.029568 0.335925
O O12 0.622627 0.923449 0.935937
#
# Coordination Sequence:
#
# PCOD9408360 Si02
#       8
#     8   4   4   4   8   4   8   8
#     4  10  19  36  61  91 128 164 221 269 323 390
#     4   9  18  35  61  89 124 160 214 263 321 390
#     4  11  22  37  63  89 130 160 214 269 327 397
#     4  10  22  38  64  88 130 170 222 266 324 399
#     4  10  20  38  61  92 123 172 214 264 330 399
#     4  10  18  32  60 100 126 176 222 276 330 396
#     4  10  21  37  65  94 125 169 223 272 326 399
#     4  10  20  38  62  94 121 171 216 267 329 390
#
# _framework density 24.283736000000001
#
# number of rings (size 3 to 8) (size 9 to 14) (size 15 to 20)
#    0.000    2.000    1.667    4.000    0.000    0.667 
#    6.000    0.833    0.000    0.000    8.667    0.000 
#    0.000    0.000    0.000    0.000    0.000    0.000 
#
# Total GULP energy -267724.484145 kJ/mol
# GULP energy per Si atom -5577.593420 kJ/mol
# Density = 2.422846 g / cm^3
# Si number density = 24.283736 Si / 1000 Ang^3
#
#
#
# Elastic Constant Matrix: (Units=GPa)
#
#
# Indices 1 2 3 4 5 6 
#
# 1 52.3153 5.0657 8.9101 0.0000 0.0000 0.0000
# 2 5.0657 111.8296 10.3892 0.0000 0.0000 0.0000
# 3 8.9101 10.3892 47.8828 0.0000 0.0000 0.0000
# 4 0.0000 0.0000 0.0000 46.7418 0.0000 0.0000
# 5 0.0000 0.0000 0.0000 0.0000 194.1405 0.0000
# 6 0.0000 0.0000 0.0000 0.0000 0.0000 14.6016
#
#
#
# Elastic Compliance Matrix: (Units=1/GPa)
#
#
# Indices 1 2 3 4 5 6 
#
# 1 0.019775 -0.000565 -0.003557 0.000000 0.000000 0.000000
# 2 -0.000565 0.009142 -0.001878 0.000000 0.000000 0.000000
# 3 -0.003557 -0.001878 0.021954 0.000000 0.000000 0.000000
# 4 0.000000 0.000000 0.000000 0.021394 0.000000 0.000000
# 5 0.000000 0.000000 0.000000 0.000000 0.005151 0.000000
# 6 0.000000 0.000000 0.000000 0.000000 0.000000 0.068486
#
#
# Mechanical properties :
#
#
# Convention : Reuss Voigt Hill
#
# Bulk Modulus (GPa) = 25.72698 28.97307 27.35003
# Shear Modulus (GPa) = 29.26356 63.60760 46.43558
#
# Velocity S-wave (km/s) = 3.47518 5.12351 4.37763
# Velocity P-wave (km/s) = 5.16912 6.85255 6.06948
#
# Compressibility (1/GPa) = 0.03886970
#
# Stress axis : x y z
#
# Youngs Moduli (GPa) = 50.56773 109.38171 45.55012
#
# Poissons Ratio (x) = 0.06184 0.16203
# Poissons Ratio (y) = 0.02859 0.08556
# Poissons Ratio (z) = 0.17988 0.20546
#
# Static dielectric constant tensor:
#      x y z
#    x 1.895560 0.000000 0.000000 
#    y 0.000000 2.069610 0.000000 
#    z 0.000000 0.000000 2.048470 
# 
# From -- ./inp_files/10565.got.cif
#   From: 2010.05.17/outbox.cif.g08.bks.cpg/sg52_6_cif.got.tgz:10565.got - 2010.06.03 12:15:38.
