data_PCOD9408374
_publ_section_title
;
Structure prediction by ZEFSAII (Michael W. Deem and Ramdas Pophale) SiO2 
 PCOD9408374
Probable space group: P N N A
;
_chemical_formula_sum "Si O2"
_cell_formula_units_Z 56
_cell_length_a 17.376598
_cell_length_b 14.970134
_cell_length_c 13.250706
_cell_angle_alpha 90.000000
_cell_angle_beta 90.000000
_cell_angle_gamma 90.000000
_cell_volume 3446.906159
_symmetry_space_group_name_H-M "P N N A"
_symmetry_group_IT_number 52
_symmetry_cell_setting 'orthorhombic'
loop_
_space_group_symop_operation_xyz
x,y,z
1/2-x,-y,z
x,1/2-y,1/2-z
1/2-x,1/2+y,1/2-z
-x,-y,-z
1/2+x,y,-z
-x,1/2+y,1/2+z
1/2+x,1/2-y,1/2+z
loop_
_atom_site_type_symbol
_atom_site_label
_atom_site_fract_x
_atom_site_fract_y
_atom_site_fract_z
Si Si1 0.937318 0.108768 0.064584
Si Si2 0.470822 0.588204 0.865797
Si Si3 0.862005 0.750000 0.427359
Si Si4 0.315837 0.250000 0.870703
Si Si5 0.970823 0.911795 0.134203
Si Si6 0.938344 0.750000 0.863586
Si Si7 0.937318 0.108769 0.435416
O O1 0.860262 0.163850 0.085248
O O2 0.005786 0.165058 0.118021
O O3 0.936935 0.009185 0.107877
O O4 0.961525 0.105311 0.946998
O O5 0.406655 0.663737 0.884448
O O6 0.496291 0.591077 0.750000
O O7 0.436934 0.490815 0.892122
O O8 0.538474 0.605310 0.946998
O O9 0.773459 0.750000 0.397821
O O10 0.906655 0.663737 0.384447
O O11 0.875710 0.750000 0.548031
O O12 0.325775 0.250000 0.750000
O O13 0.360262 0.336150 0.914752
O O14 0.908660 0.750000 0.750000
O O15 0.994214 0.834942 0.618021
#
# Coordination Sequence:
#
# PCOD9408374 Si02
#       7
#     8   8   8   8   8   8   8
#     4   9  19  31  52  75  92 121 167 197 231 283
#     4  10  18  33  51  72  97 125 156 200 240 274
#     4  10  22  31  45  73 102 127 158 188 237 294
#     4  11  20  34  49  70 100 128 155 195 235 281
#     4  10  18  33  51  72  97 125 156 200 240 274
#     4   9  16  33  52  69  92 125 163 203 232 271
#     4   9  19  31  52  75  92 121 167 197 231 283
#
# _framework density 16.246454
#
# number of rings (size 3 to 8) (size 9 to 14) (size 15 to 20)
#    0.000    2.286    0.000    5.571    0.000    1.143 
#    0.000    4.286    0.000    0.000    0.000   12.000 
#    0.000    0.000    0.000    0.000    0.000    0.000 
#
# Total GULP energy -312381.419404 kJ/mol
# GULP energy per Si atom -5578.239632 kJ/mol
# Density = 1.620948 g / cm^3
# Si number density = 16.246454 Si / 1000 Ang^3
#
#
#
# Elastic Constant Matrix: (Units=GPa)
#
#
# Indices 1 2 3 4 5 6 
#
# 1 79.2358 55.3403 42.6556 0.0000 0.0000 0.0000
# 2 55.3403 144.4508 50.4286 0.0000 0.0000 0.0000
# 3 42.6556 50.4286 159.8955 0.0000 0.0000 0.0000
# 4 0.0000 0.0000 0.0000 1.5830 0.0000 0.0000
# 5 0.0000 0.0000 0.0000 0.0000 10.5710 0.0000
# 6 0.0000 0.0000 0.0000 0.0000 0.0000 2.3496
#
#
#
# Elastic Compliance Matrix: (Units=1/GPa)
#
#
# Indices 1 2 3 4 5 6 
#
# 1 0.018448 -0.006011 -0.003025 0.000000 0.000000 0.000000
# 2 -0.006011 0.009738 -0.001468 0.000000 0.000000 0.000000
# 3 -0.003025 -0.001468 0.007524 0.000000 0.000000 0.000000
# 4 0.000000 0.000000 0.000000 0.631722 0.000000 0.000000
# 5 0.000000 0.000000 0.000000 0.000000 0.094598 0.000000
# 6 0.000000 0.000000 0.000000 0.000000 0.000000 0.425607
#
#
# Mechanical properties :
#
#
# Convention : Reuss Voigt Hill
#
# Bulk Modulus (GPa) = 68.02181 75.60346 71.81263
# Shear Modulus (GPa) = 4.12016 18.57789 11.34903
#
# Velocity S-wave (km/s) = 1.59422 3.38524 2.64588
# Velocity P-wave (km/s) = 6.73412 7.86869 7.32341
#
# Compressibility (1/GPa) = 0.01470117
#
# Stress axis : x y z
#
# Youngs Moduli (GPa) = 54.20734 102.68959 132.90707
#
# Poissons Ratio (x) = 0.61729 0.40211
# Poissons Ratio (y) = 0.32585 0.19506
# Poissons Ratio (z) = 0.16400 0.15071
#
# Static dielectric constant tensor:
#      x y z
#    x 1.497990 0.000000 0.000000 
#    y 0.000000 1.551060 0.000000 
#    z 0.000000 0.000000 1.559290 
# 
# From -- ./inp_files/19650.got.cif
#   From: 2010.05.17/outbox.cif.g08.bks.cpg/sg52_10_cif.got.tgz:19650.got - 2010.06.03 12:15:38.
