data_PCOD9408477
_publ_section_title
;
Structure prediction by ZEFSAII (Michael W. Deem and Ramdas Pophale) SiO2 
 PCOD9408477
Probable space group: P N N A
;
_chemical_formula_sum "Si O2"
_cell_formula_units_Z 32
_cell_length_a 16.289034
_cell_length_b 5.136651
_cell_length_c 21.645465
_cell_angle_alpha 90.000000
_cell_angle_beta 90.000000
_cell_angle_gamma 90.000000
_cell_volume 1811.099494
_symmetry_space_group_name_H-M "P N N A"
_symmetry_group_IT_number 52
_symmetry_cell_setting 'orthorhombic'
loop_
_space_group_symop_operation_xyz
x,y,z
1/2-x,-y,z
x,1/2-y,1/2-z
1/2-x,1/2+y,1/2-z
-x,-y,-z
1/2+x,y,-z
-x,1/2+y,1/2+z
1/2+x,1/2-y,1/2+z
loop_
_atom_site_type_symbol
_atom_site_label
_atom_site_fract_x
_atom_site_fract_y
_atom_site_fract_z
Si Si1 0.197264 0.265017 0.594842
Si Si2 0.442287 0.751304 0.497607
Si Si3 0.809983 0.749885 0.612439
Si Si4 0.308306 0.750000 0.250000
Si Si5 0.250000 0.000000 0.787872
O O1 0.250000 0.500000 0.564441
O O2 0.115437 0.233788 0.557407
O O3 0.185036 0.372882 0.664392
O O4 0.250000 0.000000 0.596388
O O5 0.500000 0.500000 0.500000
O O6 0.380780 0.748724 0.438943
O O7 0.500000 0.000000 0.500000
O O8 0.750000 0.500000 0.606762
O O9 0.848831 0.751787 0.682029
O O10 0.750000 0.000000 0.605331
O O11 0.250000 0.500000 0.250176
O O12 0.219366 0.750000 0.750000
#
# Coordination Sequence:
#
# PCOD9408477 Si02
#       5
#     8   8   8   4   4
#     4  10  20  36  60  81 113 143 200 237 278 335
#     4  12  24  36  55  83 120 153 184 230 285 334
#     4  10  19  36  60  82 106 145 187 227 276 327
#     4   8  16  30  56  84 100 128 180 232 262 316
#     4  10  18  34  62  86 104 142 194 252 284 324
#
# _framework density 17.668824000000001
#
# number of rings (size 3 to 8) (size 9 to 14) (size 15 to 20)
#    0.750    1.000    1.250    4.500    0.000    0.000 
#    0.000    0.000    8.250    0.000    0.000    0.000 
#    0.000    0.000    0.000    0.000    0.000    0.000 
#
# Total GULP energy -178152.591943 kJ/mol
# GULP energy per Si atom -5567.268498 kJ/mol
# Density = 1.762861 g / cm^3
# Si number density = 17.668824 Si / 1000 Ang^3
#
#
#
# Elastic Constant Matrix: (Units=GPa)
#
#
# Indices 1 2 3 4 5 6 
#
# 1 95.6421 67.5989 73.2464 0.0000 0.0000 0.0000
# 2 67.5989 187.0604 56.3366 0.0000 0.0000 0.0000
# 3 73.2464 56.3366 161.4133 0.0000 0.0000 0.0000
# 4 0.0000 0.0000 0.0000 14.1964 0.0000 0.0000
# 5 0.0000 0.0000 0.0000 0.0000 -3.2771 0.0000
# 6 0.0000 0.0000 0.0000 0.0000 0.0000 33.5749
#
#
#
# Elastic Compliance Matrix: (Units=1/GPa)
#
#
# Indices 1 2 3 4 5 6 
#
# 1 0.019287 -0.004843 -0.007062 0.000000 0.000000 0.000000
# 2 -0.004843 0.007190 -0.000312 0.000000 0.000000 0.000000
# 3 -0.007062 -0.000312 0.009509 0.000000 0.000000 0.000000
# 4 0.000000 0.000000 0.000000 0.070440 0.000000 0.000000
# 5 0.000000 0.000000 0.000000 0.000000 -0.305149 0.000000
# 6 0.000000 0.000000 0.000000 0.000000 0.000000 0.029784
#
#
# Mechanical properties :
#
#
# Convention : Reuss Voigt Hill
#
# Bulk Modulus (GPa) = 86.56259 93.16441 89.86350
# Shear Modulus (GPa) = -35.54771 25.36111 -5.09330
#
# Velocity S-wave (km/s) = -4.49027 3.79272 -1.69968
# Velocity P-wave (km/s) = 4.71324 8.48659 6.86429
#
# Compressibility (1/GPa) = 0.01155233
#
# Stress axis : x y z
#
# Youngs Moduli (GPa) = 51.84915 139.08412 105.16862
#
# Poissons Ratio (x) = 0.67358 0.74266
# Poissons Ratio (y) = 0.25110 0.03279
# Poissons Ratio (z) = 0.36614 0.04336
#
# Static dielectric constant tensor:
#      x y z
#    x 1.521310 0.000000 0.000000 
#    y 0.000000 1.615580 0.000000 
#    z 0.000000 0.000000 1.683850 
# 
# From -- ./inp_files/39844.got.cif
#   From: 2010.05.17/outbox.cif.g08.bks.cpg/sg52_20_cif.got.tgz:39844.got - 2010.06.03 12:15:38.
