data_PCOD9408449
_publ_section_title
;
Structure prediction by ZEFSAII (Michael W. Deem and Ramdas Pophale) SiO2 
 PCOD9408449
Probable space group: P N N A
;
_chemical_formula_sum "Si O2"
_cell_formula_units_Z 52
_cell_length_a 19.949056
_cell_length_b 15.815863
_cell_length_c 7.388935
_cell_angle_alpha 90.000000
_cell_angle_beta 90.000000
_cell_angle_gamma 90.000000
_cell_volume 2331.294236
_symmetry_space_group_name_H-M "P N N A"
_symmetry_group_IT_number 52
_symmetry_cell_setting 'orthorhombic'
loop_
_space_group_symop_operation_xyz
x,y,z
1/2-x,-y,z
x,1/2-y,1/2-z
1/2-x,1/2+y,1/2-z
-x,-y,-z
1/2+x,y,-z
-x,1/2+y,1/2+z
1/2+x,1/2-y,1/2+z
loop_
_atom_site_type_symbol
_atom_site_label
_atom_site_fract_x
_atom_site_fract_y
_atom_site_fract_z
Si Si1 0.522148 0.376174 0.127558
Si Si2 0.605790 0.394610 0.498395
Si Si3 0.741058 0.155692 0.169713
Si Si4 0.250000 0.000000 0.549613
Si Si5 0.896104 0.470165 0.001326
Si Si6 0.879988 0.415887 0.426130
Si Si7 0.994847 0.207112 0.074606
O O1 0.558366 0.383626 0.320725
O O2 0.567987 0.439129 0.008611
O O3 0.446489 0.411229 0.109152
O O4 0.519209 0.281519 0.054711
O O5 0.675971 0.351192 0.456049
O O6 0.617050 0.493716 0.523782
O O7 0.559079 0.346880 0.639806
O O8 0.746621 0.250000 0.250000
O O9 0.733198 0.081442 0.322465
O O10 0.808285 0.128642 0.066143
O O11 0.181572 0.978001 0.445350
O O12 0.893105 0.436465 0.211218
O O13 0.937485 0.354563 0.495523
O O14 0.962880 0.250000 0.250000
#
# Coordination Sequence:
#
# PCOD9408449 Si02
#       7
#     8   8   8   4   8   8   8
#     4  10  19  35  56  84 118 147 192 243 295 352
#     4  11  22  39  59  88 119 157 192 251 305 359
#     4  11  19  33  59  87 117 150 203 252 291 344
#     4  10  18  34  56  88 120 146 206 242 296 350
#     4   9  18  33  57  82 116 150 188 243 295 354
#     4  10  20  38  57  86 115 156 199 249 297 355
#     4  12  23  35  56  88 116 152 201 246 296 348
#
# _framework density 22.305206999999999
#
# number of rings (size 3 to 8) (size 9 to 14) (size 15 to 20)
#    0.000    1.538    6.154    2.308    2.154    0.000 
#    0.000    0.000    0.000    3.692    0.000    0.000 
#    0.000    0.000    0.000    0.000    0.000    0.000 
#
# Total GULP energy -290587.057617 kJ/mol
# GULP energy per Si atom -5588.212646 kJ/mol
# Density = 2.225444 g / cm^3
# Si number density = 22.305207 Si / 1000 Ang^3
#
#
#
# Elastic Constant Matrix: (Units=GPa)
#
#
# Indices 1 2 3 4 5 6 
#
# 1 194.5678 44.2625 -0.7953 0.0000 0.0000 0.0000
# 2 44.2625 121.1274 -3.4039 0.0000 0.0000 0.0000
# 3 -0.7953 -3.4039 34.7585 0.0000 0.0000 0.0000
# 4 0.0000 0.0000 0.0000 8.3552 0.0000 0.0000
# 5 0.0000 0.0000 0.0000 0.0000 22.2975 0.0000
# 6 0.0000 0.0000 0.0000 0.0000 0.0000 23.6669
#
#
#
# Elastic Compliance Matrix: (Units=1/GPa)
#
#
# Indices 1 2 3 4 5 6 
#
# 1 0.005606 -0.002051 -0.000073 0.000000 0.000000 0.000000
# 2 -0.002051 0.009029 0.000837 0.000000 0.000000 0.000000
# 3 -0.000073 0.000837 0.028850 0.000000 0.000000 0.000000
# 4 0.000000 0.000000 0.000000 0.119686 0.000000 0.000000
# 5 0.000000 0.000000 0.000000 0.000000 0.044848 0.000000
# 6 0.000000 0.000000 0.000000 0.000000 0.000000 0.042253
#
#
# Mechanical properties :
#
#
# Convention : Reuss Voigt Hill
#
# Bulk Modulus (GPa) = 24.44209 47.84226 36.14217
# Shear Modulus (GPa) = 18.76306 31.55661 25.15983
#
# Velocity S-wave (km/s) = 2.90348 3.76542 3.36219
# Velocity P-wave (km/s) = 4.71403 6.35610 5.59563
#
# Compressibility (1/GPa) = 0.04091303
#
# Stress axis : x y z
#
# Youngs Moduli (GPa) = 178.38752 110.75919 34.66174
#
# Poissons Ratio (x) = 0.22711 0.00251
# Poissons Ratio (y) = 0.36578 -0.02902
# Poissons Ratio (z) = 0.01294 -0.09273
#
# Static dielectric constant tensor:
#      x y z
#    x 1.805880 0.000000 0.000000 
#    y 0.000000 1.866990 0.000000 
#    z 0.000000 0.000000 1.918310 
# 
# From -- ./inp_files/13359.got.cif
#   From: 2010.05.17/outbox.cif.g08.bks.cpg/sg52_7_cif.got.tgz:13359.got - 2010.06.03 12:15:38.
