data_PCOD9408980
_publ_section_title
;
Structure prediction by ZEFSAII (Michael W. Deem and Ramdas Pophale) SiO2 
 PCOD9408980
Probable space group: P N N A
;
_chemical_formula_sum "Si O2"
_cell_formula_units_Z 56
_cell_length_a 13.764036
_cell_length_b 21.190000
_cell_length_c 9.010817
_cell_angle_alpha 90.000000
_cell_angle_beta 90.000000
_cell_angle_gamma 90.000000
_cell_volume 2628.094191
_symmetry_space_group_name_H-M "P N N A"
_symmetry_group_IT_number 52
_symmetry_cell_setting 'orthorhombic'
loop_
_space_group_symop_operation_xyz
x,y,z
1/2-x,-y,z
x,1/2-y,1/2-z
1/2-x,1/2+y,1/2-z
-x,-y,-z
1/2+x,y,-z
-x,1/2+y,1/2+z
1/2+x,1/2-y,1/2+z
loop_
_atom_site_type_symbol
_atom_site_label
_atom_site_fract_x
_atom_site_fract_y
_atom_site_fract_z
Si Si1 0.848668 0.019323 0.773540
Si Si2 0.965085 0.900915 0.844039
Si Si3 0.300873 0.116669 0.480053
Si Si4 0.041135 0.086691 0.819383
Si Si5 0.877412 0.699939 0.864345
Si Si6 0.343788 0.034612 0.766278
Si Si7 0.982730 0.199980 0.623981
O O1 0.813599 0.058277 0.632223
O O2 0.929273 0.065147 0.841354
O O3 0.750000 0.000000 0.854872
O O4 0.907013 0.954802 0.753901
O O5 0.077221 0.922047 0.848661
O O6 0.946602 0.839553 0.747037
O O7 0.923846 0.901126 0.012231
O O8 0.204617 0.155871 0.438811
O O9 0.306190 0.080954 0.636960
O O10 0.391996 0.163938 0.452111
O O11 0.042062 0.147188 0.715970
O O12 0.092155 0.028509 0.734768
O O13 0.830829 0.750000 0.750000
O O14 0.945969 0.726285 0.996104
O O15 0.250000 0.000000 0.833241
O O16 0.951851 0.250000 0.750000
#
# Coordination Sequence:
#
# PCOD9408980 Si02
#       7
#     8   8   8   8   8   8   8
#     4  10  19  34  62  95 133 170 210 275 336 410
#     4  11  23  41  62 102 135 181 224 272 357 413
#     4  11  23  40  68 103 128 175 228 280 350 416
#     4  10  24  38  64  98 136 175 222 275 347 418
#     4  12  25  45  72  94 133 184 241 289 339 416
#     4  11  22  39  66 101 142 171 216 283 346 416
#     4  11  24  46  68  91 130 178 230 288 340 400
#
# _framework density 21.308215000000001
#
# number of rings (size 3 to 8) (size 9 to 14) (size 15 to 20)
#    0.000    1.143    2.857    4.286    2.000    4.000 
#    0.000    0.714    0.000    0.000    0.000    0.000 
#    0.000    0.000    0.000    0.000    0.000    0.000 
#
# Total GULP energy -311922.561258 kJ/mol
# GULP energy per Si atom -5570.045737 kJ/mol
# Density = 2.125972 g / cm^3
# Si number density = 21.308215 Si / 1000 Ang^3
#
#
#
# Elastic Constant Matrix: (Units=GPa)
#
#
# Indices 1 2 3 4 5 6 
#
# 1 93.5846 6.4593 26.9796 0.0000 0.0000 0.0000
# 2 6.4593 55.0645 32.6639 0.0000 0.0000 0.0000
# 3 26.9796 32.6639 88.6350 0.0000 0.0000 0.0000
# 4 0.0000 0.0000 0.0000 107.0242 0.0000 0.0000
# 5 0.0000 0.0000 0.0000 0.0000 -23.8788 0.0000
# 6 0.0000 0.0000 0.0000 0.0000 0.0000 18.2215
#
#
#
# Elastic Compliance Matrix: (Units=1/GPa)
#
#
# Indices 1 2 3 4 5 6 
#
# 1 0.011752 0.000951 -0.003928 0.000000 0.000000 0.000000
# 2 0.000951 0.023318 -0.008883 0.000000 0.000000 0.000000
# 3 -0.003928 -0.008883 0.015751 0.000000 0.000000 0.000000
# 4 0.000000 0.000000 0.000000 0.009344 0.000000 0.000000
# 5 0.000000 0.000000 0.000000 0.000000 -0.041878 0.000000
# 6 0.000000 0.000000 0.000000 0.000000 0.000000 0.054880
#
#
# Mechanical properties :
#
#
# Convention : Reuss Voigt Hill
#
# Bulk Modulus (GPa) = 36.89616 41.05443 38.97529
# Shear Modulus (GPa) = 47.20524 31.68546 39.44535
#
# Velocity S-wave (km/s) = 4.71186 3.86036 4.30720
# Velocity P-wave (km/s) = 6.85239 6.25928 6.56254
#
# Compressibility (1/GPa) = 0.02710310
#
# Stress axis : x y z
#
# Youngs Moduli (GPa) = 85.09031 42.88498 63.48654
#
# Poissons Ratio (x) = -0.04080 0.24937
# Poissons Ratio (y) = -0.08095 0.56394
# Poissons Ratio (z) = 0.33422 0.38094
#
# Static dielectric constant tensor:
#      x y z
#    x 1.817400 0.000000 0.000000 
#    y 0.000000 1.775470 0.000000 
#    z 0.000000 0.000000 1.790310 
# 
# From -- ./inp_files/10821.got.cif
#   From: 2010.05.17/outbox.cif.g08.bks.cpg/sg52_6_cif.got.tgz:10821.got - 2010.06.03 12:15:38.
