data_PCOD9408457
_publ_section_title
;
Structure prediction by ZEFSAII (Michael W. Deem and Ramdas Pophale) SiO2 
 PCOD9408457
Probable space group: P N N A
;
_chemical_formula_sum "Si O2"
_cell_formula_units_Z 40
_cell_length_a 10.493438
_cell_length_b 9.219883
_cell_length_c 17.912988
_cell_angle_alpha 90.000000
_cell_angle_beta 90.000000
_cell_angle_gamma 90.000000
_cell_volume 1733.050611
_symmetry_space_group_name_H-M "P N N A"
_symmetry_group_IT_number 52
_symmetry_cell_setting 'orthorhombic'
loop_
_space_group_symop_operation_xyz
x,y,z
1/2-x,-y,z
x,1/2-y,1/2-z
1/2-x,1/2+y,1/2-z
-x,-y,-z
1/2+x,y,-z
-x,1/2+y,1/2+z
1/2+x,1/2-y,1/2+z
loop_
_atom_site_type_symbol
_atom_site_label
_atom_site_fract_x
_atom_site_fract_y
_atom_site_fract_z
Si Si1 0.986599 0.325853 0.994465
Si Si2 0.736117 0.325508 0.087408
Si Si3 0.994515 0.998302 0.253979
Si Si4 0.210088 0.250000 0.750000
Si Si5 0.428186 0.730727 0.352795
Si Si6 0.304471 0.250000 0.250000
O O1 0.084069 0.290718 0.925741
O O2 0.062698 0.250055 0.060828
O O3 0.000000 0.500000 0.000000
O O4 0.838677 0.290811 0.019730
O O5 0.750000 0.500000 0.094557
O O6 0.771726 0.252346 0.167093
O O7 0.110899 0.889257 0.263980
O O8 0.872897 0.896612 0.254273
O O9 0.011139 0.124561 0.315071
O O10 0.008762 0.084758 0.177215
O O11 0.286159 0.726485 0.320454
#
# Coordination Sequence:
#
# PCOD9408457 Si02
#       6
#     8   8   8   4   8   4
#     4  10  22  39  61  91 122 162 213 269 327 387
#     4  10  23  41  64  92 127 168 215 268 328 392
#     4   9  19  33  56  93 131 170 215 263 325 396
#     4  11  22  39  64  94 128 168 214 272 330 404
#     4  10  18  34  58  88 127 171 216 269 323 388
#     4   9  18  31  54  94 132 170 214 264 322 394
#
# _framework density 23.080687000000001
#
# number of rings (size 3 to 8) (size 9 to 14) (size 15 to 20)
#    0.000    2.400    0.000    4.800    0.000   12.000 
#    0.000    1.000    0.000    3.600    0.000    0.000 
#    0.000    0.000    0.000    0.000    0.000    0.000 
#
# Total GULP energy -222940.307371 kJ/mol
# GULP energy per Si atom -5573.507684 kJ/mol
# Density = 2.302815 g / cm^3
# Si number density = 23.080687 Si / 1000 Ang^3
#
#
#
# Elastic Constant Matrix: (Units=GPa)
#
#
# Indices 1 2 3 4 5 6 
#
# 1 145.0773 36.9059 16.5209 0.0000 0.0000 0.0000
# 2 36.9059 57.2733 3.1695 0.0000 0.0000 0.0000
# 3 16.5209 3.1695 70.4378 0.0000 0.0000 0.0000
# 4 0.0000 0.0000 0.0000 13.6353 0.0000 0.0000
# 5 0.0000 0.0000 0.0000 0.0000 2.0131 0.0000
# 6 0.0000 0.0000 0.0000 0.0000 0.0000 -27.9668
#
#
#
# Elastic Compliance Matrix: (Units=1/GPa)
#
#
# Indices 1 2 3 4 5 6 
#
# 1 0.008452 -0.005350 -0.001742 0.000000 0.000000 0.000000
# 2 -0.005350 0.020890 0.000315 0.000000 0.000000 0.000000
# 3 -0.001742 0.000315 0.014591 0.000000 0.000000 0.000000
# 4 0.000000 0.000000 0.000000 0.073339 0.000000 0.000000
# 5 0.000000 0.000000 0.000000 0.000000 0.496745 0.000000
# 6 0.000000 0.000000 0.000000 0.000000 0.000000 -0.035757
#
#
# Mechanical properties :
#
#
# Convention : Reuss Voigt Hill
#
# Bulk Modulus (GPa) = 32.91660 42.88678 37.90169
# Shear Modulus (GPa) = 8.30646 11.94915 10.12780
#
# Velocity S-wave (km/s) = 1.89913 2.27780 2.09703
# Velocity P-wave (km/s) = 4.37052 5.05365 4.72445
#
# Compressibility (1/GPa) = 0.03037981
#
# Stress axis : x y z
#
# Youngs Moduli (GPa) = 118.31239 47.86936 68.53418
#
# Poissons Ratio (x) = 0.25610 0.11937
# Poissons Ratio (y) = 0.63298 -0.02158
# Poissons Ratio (z) = 0.20606 -0.01507
#
# Static dielectric constant tensor:
#      x y z
#    x 1.987910 0.000000 0.000000 
#    y 0.000000 1.869930 0.000000 
#    z 0.000000 0.000000 1.948430 
# 
# From -- ./inp_files/32004.got.cif
#   From: 2010.05.17/outbox.cif.g08.bks.cpg/sg52_17_cif.got.tgz:32004.got - 2010.06.03 12:15:38.
