data_PCOD9408630
_publ_section_title
;
Structure prediction by ZEFSAII (Michael W. Deem and Ramdas Pophale) SiO2 
 PCOD9408630
Probable space group: P N N A
;
_chemical_formula_sum "Si O2"
_cell_formula_units_Z 48
_cell_length_a 13.698945
_cell_length_b 6.159293
_cell_length_c 26.498298
_cell_angle_alpha 90.000000
_cell_angle_beta 90.000000
_cell_angle_gamma 90.000000
_cell_volume 2235.815518
_symmetry_space_group_name_H-M "P N N A"
_symmetry_group_IT_number 52
_symmetry_cell_setting 'orthorhombic'
loop_
_space_group_symop_operation_xyz
x,y,z
1/2-x,-y,z
x,1/2-y,1/2-z
1/2-x,1/2+y,1/2-z
-x,-y,-z
1/2+x,y,-z
-x,1/2+y,1/2+z
1/2+x,1/2-y,1/2+z
loop_
_atom_site_type_symbol
_atom_site_label
_atom_site_fract_x
_atom_site_fract_y
_atom_site_fract_z
Si Si1 0.039446 0.441958 0.823414
Si Si2 0.353982 0.407530 0.409956
Si Si3 0.138499 0.570903 0.002626
Si Si4 0.377914 0.140880 0.197863
Si Si5 0.250000 0.000000 0.722108
Si Si6 0.419831 0.750000 0.250000
Si Si7 0.009337 0.193247 0.425351
O O1 0.153202 0.465686 0.811679
O O2 0.992049 0.206146 0.812020
O O3 0.985383 0.587866 0.781770
O O4 0.004237 0.531405 0.877701
O O5 0.250000 0.500000 0.425737
O O6 0.379549 0.240966 0.452914
O O7 0.333703 0.297553 0.355592
O O8 0.439540 0.586970 0.405648
O O9 0.250000 0.500000 0.997395
O O10 0.077845 0.370633 0.026557
O O11 0.096012 0.678977 0.952132
O O12 0.345874 0.250000 0.250000
O O13 0.361940 0.889143 0.209241
O O14 0.259586 0.250000 0.750000
#
# Coordination Sequence:
#
# PCOD9408630 Si02
#       7
#     8   8   8   8   4   4   8
#     4  11  22  40  66  94 132 180 224 283 351 410
#     4  12  23  43  69  96 131 182 227 283 360 424
#     4  11  24  45  68  96 131 172 224 287 357 423
#     4  10  22  39  63  95 131 174 222 277 339 413
#     4  12  26  42  68 104 146 192 242 290 356 446
#     4  10  18  38  64  86 126 172 214 264 340 398
#     4  11  24  42  70  97 131 173 230 287 345 425
#
# _framework density 21.468675000000001
#
# number of rings (size 3 to 8) (size 9 to 14) (size 15 to 20)
#    0.000    1.000    5.833    2.000    1.167    0.000 
#    1.500    0.000    1.833    0.000    0.000    0.000 
#    0.000    0.000    0.000    0.000    0.000    0.000 
#
# Total GULP energy -267215.063125 kJ/mol
# GULP energy per Si atom -5566.980482 kJ/mol
# Density = 2.141981 g / cm^3
# Si number density = 21.468675 Si / 1000 Ang^3
#
#
#
# Elastic Constant Matrix: (Units=GPa)
#
#
# Indices 1 2 3 4 5 6 
#
# 1 102.7333 27.5582 21.2285 0.0000 0.0000 0.0000
# 2 27.5582 74.0366 33.3545 0.0000 0.0000 0.0000
# 3 21.2285 33.3545 127.3112 0.0000 0.0000 0.0000
# 4 0.0000 0.0000 0.0000 16.2056 0.0000 0.0000
# 5 0.0000 0.0000 0.0000 0.0000 31.4392 0.0000
# 6 0.0000 0.0000 0.0000 0.0000 0.0000 22.0652
#
#
#
# Elastic Compliance Matrix: (Units=1/GPa)
#
#
# Indices 1 2 3 4 5 6 
#
# 1 0.010895 -0.003670 -0.000855 0.000000 0.000000 0.000000
# 2 -0.003670 0.016551 -0.003724 0.000000 0.000000 0.000000
# 3 -0.000855 -0.003724 0.008973 0.000000 0.000000 0.000000
# 4 0.000000 0.000000 0.000000 0.061707 0.000000 0.000000
# 5 0.000000 0.000000 0.000000 0.000000 0.031807 0.000000
# 6 0.000000 0.000000 0.000000 0.000000 0.000000 0.045320
#
#
# Mechanical properties :
#
#
# Convention : Reuss Voigt Hill
#
# Bulk Modulus (GPa) = 50.20090 52.04037 51.12063
# Shear Modulus (GPa) = 25.20254 28.73799 26.97027
#
# Velocity S-wave (km/s) = 3.42997 3.66266 3.54822
# Velocity P-wave (km/s) = 6.25463 6.49458 6.37573
#
# Compressibility (1/GPa) = 0.01991996
#
# Stress axis : x y z
#
# Youngs Moduli (GPa) = 91.78378 60.42016 111.44454
#
# Poissons Ratio (x) = 0.22175 0.09530
# Poissons Ratio (y) = 0.33686 0.41504
# Poissons Ratio (z) = 0.07849 0.22502
#
# Static dielectric constant tensor:
#      x y z
#    x 1.838620 0.000000 0.000000 
#    y 0.000000 1.935190 0.000000 
#    z 0.000000 0.000000 1.766810 
# 
# From -- ./inp_files/43007.got.cif
#   From: 2010.05.17/outbox.cif.g08.bks.cpg/sg52_22_cif.got.tgz:43007.got - 2010.06.03 12:15:38.
