data_PCOD9408755
_publ_section_title
;
Structure prediction by ZEFSAII (Michael W. Deem and Ramdas Pophale) SiO2 
 PCOD9408755
Probable space group: P N N A
;
_chemical_formula_sum "Si O2"
_cell_formula_units_Z 64
_cell_length_a 14.481686
_cell_length_b 11.286758
_cell_length_c 23.564379
_cell_angle_alpha 90.000000
_cell_angle_beta 90.000000
_cell_angle_gamma 90.000000
_cell_volume 3851.628035
_symmetry_space_group_name_H-M "P N N A"
_symmetry_group_IT_number 52
_symmetry_cell_setting 'orthorhombic'
loop_
_space_group_symop_operation_xyz
x,y,z
1/2-x,-y,z
x,1/2-y,1/2-z
1/2-x,1/2+y,1/2-z
-x,-y,-z
1/2+x,y,-z
-x,1/2+y,1/2+z
1/2+x,1/2-y,1/2+z
loop_
_atom_site_type_symbol
_atom_site_label
_atom_site_fract_x
_atom_site_fract_y
_atom_site_fract_z
Si Si1 0.487980 0.431036 0.577696
Si Si2 0.230597 0.296904 0.966161
Si Si3 0.064661 0.057340 0.569602
Si Si4 0.351149 0.939005 0.691177
Si Si5 0.774855 0.694345 0.339084
Si Si6 0.849045 0.938661 0.995628
Si Si7 0.442481 0.186665 0.512138
Si Si8 0.110281 0.963491 0.811061
O O1 0.590409 0.468986 0.559453
O O2 0.413823 0.517319 0.547145
O O3 0.470230 0.305266 0.545890
O O4 0.470145 0.431996 0.644744
O O5 0.164057 0.409054 0.958045
O O6 0.243366 0.241459 0.902787
O O7 0.172782 0.199702 0.000429
O O8 0.331359 0.312872 0.992445
O O9 0.085350 0.050078 0.635995
O O10 0.994889 0.159095 0.547064
O O11 0.032380 0.929190 0.548986
O O12 0.324534 0.800778 0.693409
O O13 0.250000 0.000000 0.683966
O O14 0.399856 0.995007 0.746190
O O15 0.837822 0.577598 0.338184
O O16 0.679684 0.648260 0.312458
O O17 0.750000 0.000000 0.998641
#
# Coordination Sequence:
#
# PCOD9408755 Si02
#       8
#     8   8   8   8   8   8   8   8
#     4  11  22  33  53  83 104 148 178 223 279 328
#     4  11  18  33  55  74 106 145 177 222 270 331
#     4  10  23  36  49  79 107 145 181 221 268 332
#     4  11  22  33  51  75 109 148 180 214 271 333
#     4  10  19  32  48  73 107 143 175 214 262 324
#     4  11  20  33  52  77 111 135 179 223 277 333
#     4  11  20  35  54  73 110 139 180 226 270 323
#     4  11  20  33  51  75 108 144 180 218 259 331
#
# _framework density 16.616350000000001
#
# number of rings (size 3 to 8) (size 9 to 14) (size 15 to 20)
#    0.000    1.250    6.250    2.250    0.000    0.000 
#    0.000    0.000    0.000    0.000    0.000    3.500 
#    0.000    0.000    0.000    0.000    0.000    0.000 
#
# Total GULP energy -356757.942376 kJ/mol
# GULP energy per Si atom -5574.342850 kJ/mol
# Density = 1.657853 g / cm^3
# Si number density = 16.616350 Si / 1000 Ang^3
#
#
#
# Elastic Constant Matrix: (Units=GPa)
#
#
# Indices 1 2 3 4 5 6 
#
# 1 69.7226 -4.0635 37.6318 0.0000 0.0000 0.0000
# 2 -4.0635 38.6109 6.1299 0.0000 0.0000 0.0000
# 3 37.6318 6.1299 114.7920 0.0000 0.0000 0.0000
# 4 0.0000 0.0000 0.0000 18.5599 0.0000 0.0000
# 5 0.0000 0.0000 0.0000 0.0000 17.6307 0.0000
# 6 0.0000 0.0000 0.0000 0.0000 0.0000 17.9192
#
#
#
# Elastic Compliance Matrix: (Units=1/GPa)
#
#
# Indices 1 2 3 4 5 6 
#
# 1 0.017723 0.002812 -0.005960 0.000000 0.000000 0.000000
# 2 0.002812 0.026567 -0.002340 0.000000 0.000000 0.000000
# 3 -0.005960 -0.002340 0.010790 0.000000 0.000000 0.000000
# 4 0.000000 0.000000 0.000000 0.053880 0.000000 0.000000
# 5 0.000000 0.000000 0.000000 0.000000 0.056719 0.000000
# 6 0.000000 0.000000 0.000000 0.000000 0.000000 0.055806
#
#
# Mechanical properties :
#
#
# Convention : Reuss Voigt Hill
#
# Bulk Modulus (GPa) = 22.67455 33.61353 28.14404
# Shear Modulus (GPa) = 20.22942 23.05043 21.63993
#
# Velocity S-wave (km/s) = 3.49297 3.72857 3.61269
# Velocity P-wave (km/s) = 5.47205 6.22972 5.86314
#
# Compressibility (1/GPa) = 0.04410231
#
# Stress axis : x y z
#
# Youngs Moduli (GPa) = 56.42250 37.64082 92.67548
#
# Poissons Ratio (x) = -0.10583 0.55238
# Poissons Ratio (y) = -0.15863 0.21690
# Poissons Ratio (z) = 0.33630 0.08809
#
# Static dielectric constant tensor:
#      x y z
#    x 1.578470 0.000000 0.000000 
#    y 0.000000 1.622440 0.000000 
#    z 0.000000 0.000000 1.603480 
# 
# From -- ./inp_files/42842.got.cif
#   From: 2010.05.17/outbox.cif.g08.bks.cpg/sg52_22_cif.got.tgz:42842.got - 2010.06.03 12:15:38.
