data_PCOD9408959
_publ_section_title
;
Structure prediction by ZEFSAII (Michael W. Deem and Ramdas Pophale) SiO2 
 PCOD9408959
Probable space group: P N N A
;
_chemical_formula_sum "Si O2"
_cell_formula_units_Z 48
_cell_length_a 23.179680
_cell_length_b 7.270831
_cell_length_c 13.384058
_cell_angle_alpha 90.000000
_cell_angle_beta 90.000000
_cell_angle_gamma 90.000000
_cell_volume 2255.689388
_symmetry_space_group_name_H-M "P N N A"
_symmetry_group_IT_number 52
_symmetry_cell_setting 'orthorhombic'
loop_
_space_group_symop_operation_xyz
x,y,z
1/2-x,-y,z
x,1/2-y,1/2-z
1/2-x,1/2+y,1/2-z
-x,-y,-z
1/2+x,y,-z
-x,1/2+y,1/2+z
1/2+x,1/2-y,1/2+z
loop_
_atom_site_type_symbol
_atom_site_label
_atom_site_fract_x
_atom_site_fract_y
_atom_site_fract_z
Si Si1 0.517244 0.737943 0.132874
Si Si2 0.633171 0.918186 0.445343
Si Si3 0.084595 0.519883 0.366289
Si Si4 0.184160 0.956356 0.975943
Si Si5 0.419484 0.039540 0.360508
Si Si6 0.317679 0.031476 0.751066
O O1 0.531502 0.750000 0.250000
O O2 0.576429 0.707795 0.075572
O O3 0.480566 0.553300 0.119265
O O4 0.473505 0.905292 0.108090
O O5 0.681774 0.766084 0.465644
O O6 0.621467 0.021076 0.548592
O O7 0.646962 0.033341 0.345904
O O8 0.136883 0.485072 0.442552
O O9 0.075305 0.740065 0.363450
O O10 0.098983 0.475808 0.250071
O O11 0.250000 0.000000 0.001538
O O12 0.169964 0.031499 0.864075
O O13 0.328336 0.250000 0.750000
O O14 0.250000 0.000000 0.733768
#
# Coordination Sequence:
#
# PCOD9408959 Si02
#       6
#     8   8   8   8   8   8
#     4  10  19  34  59  84 114 151 185 227 281 337
#     4  10  19  35  57  81 114 147 180 231 287 329
#     4   9  19  36  59  79 112 150 184 227 283 325
#     4   9  18  34  56  77 107 145 187 230 273 329
#     4   9  19  35  55  82 118 140 180 235 273 330
#     4   9  18  35  56  75 108 143 180 229 278 328
#
# _framework density 21.279526000000001
#
# number of rings (size 3 to 8) (size 9 to 14) (size 15 to 20)
#    0.000    2.667    0.000    2.000    0.000    2.667 
#    9.000    2.500   29.333    0.000    0.000    0.000 
#    0.000    0.000    0.000    0.000    0.000    0.000 
#
# Total GULP energy -267664.021494 kJ/mol
# GULP energy per Si atom -5576.333781 kJ/mol
# Density = 2.123109 g / cm^3
# Si number density = 21.279526 Si / 1000 Ang^3
#
#
#
# Elastic Constant Matrix: (Units=GPa)
#
#
# Indices 1 2 3 4 5 6 
#
# 1 100.9680 31.8182 69.9934 0.0000 0.0000 0.0000
# 2 31.8182 69.9276 18.0396 0.0000 0.0000 0.0000
# 3 69.9934 18.0396 162.5128 0.0000 0.0000 0.0000
# 4 0.0000 0.0000 0.0000 -7.4629 0.0000 0.0000
# 5 0.0000 0.0000 0.0000 0.0000 48.0395 0.0000
# 6 0.0000 0.0000 0.0000 0.0000 0.0000 26.3616
#
#
#
# Elastic Compliance Matrix: (Units=1/GPa)
#
#
# Indices 1 2 3 4 5 6 
#
# 1 0.016049 -0.005682 -0.006282 0.000000 0.000000 0.000000
# 2 -0.005682 0.016734 0.000590 0.000000 0.000000 0.000000
# 3 -0.006282 0.000590 0.008793 0.000000 0.000000 0.000000
# 4 0.000000 0.000000 0.000000 -0.133997 0.000000 0.000000
# 5 0.000000 0.000000 0.000000 0.000000 0.020816 0.000000
# 6 0.000000 0.000000 0.000000 0.000000 0.000000 0.037934
#
#
# Mechanical properties :
#
#
# Convention : Reuss Voigt Hill
#
# Bulk Modulus (GPa) = 53.11115 63.67898 58.39507
# Shear Modulus (GPa) = -1076.27392 27.62478 -524.32457
#
# Velocity S-wave (km/s) = -22.51393 3.60694 -15.71412
# Velocity P-wave (km/s) = 25.51124 6.88017 17.37076
#
# Compressibility (1/GPa) = 0.01882844
#
# Stress axis : x y z
#
# Youngs Moduli (GPa) = 62.30790 59.75910 113.72226
#
# Poissons Ratio (x) = 0.33956 0.71436
# Poissons Ratio (y) = 0.35405 -0.06707
# Poissons Ratio (z) = 0.39139 -0.03524
#
# Static dielectric constant tensor:
#      x y z
#    x 1.735430 0.000000 0.000000 
#    y 0.000000 1.762140 0.000000 
#    z 0.000000 0.000000 1.881100 
# 
# From -- ./inp_files/29128.got.cif
#   From: 2010.05.17/outbox.cif.g08.bks.cpg/sg52_15_cif.got.tgz:29128.got - 2010.06.03 12:15:38.
