data_PCOD9408593
_publ_section_title
;
Structure prediction by ZEFSAII (Michael W. Deem and Ramdas Pophale) SiO2 
 PCOD9408593
Probable space group: P N N A
;
_chemical_formula_sum "Si O2"
_cell_formula_units_Z 56
_cell_length_a 10.265301
_cell_length_b 13.777404
_cell_length_c 21.262035
_cell_angle_alpha 90.000000
_cell_angle_beta 90.000000
_cell_angle_gamma 90.000000
_cell_volume 3007.072580
_symmetry_space_group_name_H-M "P N N A"
_symmetry_group_IT_number 52
_symmetry_cell_setting 'orthorhombic'
loop_
_space_group_symop_operation_xyz
x,y,z
1/2-x,-y,z
x,1/2-y,1/2-z
1/2-x,1/2+y,1/2-z
-x,-y,-z
1/2+x,y,-z
-x,1/2+y,1/2+z
1/2+x,1/2-y,1/2+z
loop_
_atom_site_type_symbol
_atom_site_label
_atom_site_fract_x
_atom_site_fract_y
_atom_site_fract_z
Si Si1 0.399567 0.000732 0.118724
Si Si2 0.209640 0.109668 0.749964
Si Si3 0.399681 0.111596 0.238385
Si Si4 0.305309 0.285042 0.147204
Si Si5 0.222517 0.757280 0.643862
Si Si6 0.543075 0.284093 0.582659
Si Si7 0.024118 0.199535 0.933724
O O1 0.394352 0.017176 0.194236
O O2 0.476566 0.090550 0.086473
O O3 0.250000 0.000000 0.095366
O O4 0.457358 0.896551 0.103975
O O5 0.250225 0.143876 0.680896
O O6 0.280973 0.175907 0.801453
O O7 0.054544 0.129691 0.754696
O O8 0.250000 0.000000 0.761547
O O9 0.335142 0.193168 0.193288
O O10 0.332106 0.124020 0.306288
O O11 0.165324 0.269393 0.115614
O O12 0.413393 0.271684 0.093191
O O13 0.342675 0.725295 0.601064
O O14 0.090359 0.762150 0.605898
O O15 0.546221 0.287809 0.507424
#
# Coordination Sequence:
#
# PCOD9408593 Si02
#       7
#     8   8   8   8   8   8   8
#     4  11  21  37  57  88 121 163 202 242 308 372
#     4  11  21  40  63  87 121 156 204 258 307 366
#     4  10  18  37  62  75 115 163 202 241 304 372
#     4  10  19  38  59  80 114 168 204 243 301 363
#     4  11  23  38  61  92 117 158 206 250 307 359
#     4  12  24  36  56  96 124 154 202 259 299 365
#     4  11  21  40  60  79 128 173 199 233 307 390
#
# _framework density 18.622761000000001
#
# number of rings (size 3 to 8) (size 9 to 14) (size 15 to 20)
#    0.000    1.143    7.143    3.000    0.000    2.286 
#    2.571    0.000    0.000    0.857    0.000    0.000 
#    0.000    0.000    0.000    0.000    0.000    0.000 
#
# Total GULP energy -312466.102724 kJ/mol
# GULP energy per Si atom -5579.751834 kJ/mol
# Density = 1.858038 g / cm^3
# Si number density = 18.622761 Si / 1000 Ang^3
#
#
#
# Elastic Constant Matrix: (Units=GPa)
#
#
# Indices 1 2 3 4 5 6 
#
# 1 112.2380 1.9408 37.0014 0.0000 0.0000 0.0000
# 2 1.9408 26.7067 27.4593 0.0000 0.0000 0.0000
# 3 37.0014 27.4593 127.3970 0.0000 0.0000 0.0000
# 4 0.0000 0.0000 0.0000 20.7324 0.0000 0.0000
# 5 0.0000 0.0000 0.0000 0.0000 29.7351 0.0000
# 6 0.0000 0.0000 0.0000 0.0000 0.0000 15.6502
#
#
#
# Elastic Compliance Matrix: (Units=1/GPa)
#
#
# Indices 1 2 3 4 5 6 
#
# 1 0.010026 0.002910 -0.003539 0.000000 0.000000 0.000000
# 2 0.002910 0.048949 -0.011396 0.000000 0.000000 0.000000
# 3 -0.003539 -0.011396 0.011334 0.000000 0.000000 0.000000
# 4 0.000000 0.000000 0.000000 0.048234 0.000000 0.000000
# 5 0.000000 0.000000 0.000000 0.000000 0.033630 0.000000
# 6 0.000000 0.000000 0.000000 0.000000 0.000000 0.063897
#
#
# Mechanical properties :
#
#
# Convention : Reuss Voigt Hill
#
# Bulk Modulus (GPa) = 21.61711 44.34939 32.98325
# Shear Modulus (GPa) = 19.56644 26.55288 23.05966
#
# Velocity S-wave (km/s) = 3.24493 3.78011 3.52270
# Velocity P-wave (km/s) = 5.06680 6.55123 5.85624
#
# Compressibility (1/GPa) = 0.04625966
#
# Stress axis : x y z
#
# Youngs Moduli (GPa) = 99.73950 20.42927 88.23209
#
# Poissons Ratio (x) = -0.05946 0.31228
# Poissons Ratio (y) = -0.29029 1.00549
# Poissons Ratio (z) = 0.35301 0.23281
#
# Static dielectric constant tensor:
#      x y z
#    x 1.653670 0.000000 0.000000 
#    y 0.000000 1.706370 0.000000 
#    z 0.000000 0.000000 1.662320 
# 
# From -- ./inp_files/36019.got.cif
#   From: 2010.05.17/outbox.cif.g08.bks.cpg/sg52_19_cif.got.tgz:36019.got - 2010.06.03 12:15:38.
