data_PCOD9408574
_publ_section_title
;
Structure prediction by ZEFSAII (Michael W. Deem and Ramdas Pophale) SiO2 
 PCOD9408574
Probable space group: P N N A
;
_chemical_formula_sum "Si O2"
_cell_formula_units_Z 28
_cell_length_a 13.356795
_cell_length_b 15.860641
_cell_length_c 5.165810
_cell_angle_alpha 90.000000
_cell_angle_beta 90.000000
_cell_angle_gamma 90.000000
_cell_volume 1094.363058
_symmetry_space_group_name_H-M "P N N A"
_symmetry_group_IT_number 52
_symmetry_cell_setting 'orthorhombic'
loop_
_space_group_symop_operation_xyz
x,y,z
1/2-x,-y,z
x,1/2-y,1/2-z
1/2-x,1/2+y,1/2-z
-x,-y,-z
1/2+x,y,-z
-x,1/2+y,1/2+z
1/2+x,1/2-y,1/2+z
loop_
_atom_site_type_symbol
_atom_site_label
_atom_site_fract_x
_atom_site_fract_y
_atom_site_fract_z
Si Si1 0.690374 0.163886 0.779644
Si Si2 0.250000 0.500000 0.008021
Si Si3 0.512128 0.803141 0.497471
Si Si4 0.062799 0.441025 0.691786
O O1 0.754005 0.250000 0.750000
O O2 0.605718 0.189423 0.571580
O O3 0.750959 0.083387 0.683433
O O4 0.623654 0.129507 0.020261
O O5 0.152440 0.490149 0.830667
O O6 0.530847 0.750000 0.750000
O O7 0.516125 0.899197 0.606214
O O8 0.555801 0.750000 0.250000
O O9 0.000000 0.500000 0.500000
#
# Coordination Sequence:
#
# PCOD9408574 Si02
#       4
#     8   4   8   8
#     4  10  20  41  72  98 144 196 245 301 391 451
#     4  10  24  38  72 112 144 198 254 318 386 464
#     4  10  18  36  65 102 132 188 240 290 374 447
#     4  11  23  42  73 107 149 199 258 318 384 466
#
# _framework density 25.585659
#
# number of rings (size 3 to 8) (size 9 to 14) (size 15 to 20)
#    0.000    1.714    5.714    0.857    0.000    4.571 
#    0.000    0.000   12.571    1.714    0.000    0.000 
#    0.000    0.000    0.000    0.000    0.000    0.000 
#
# Total GULP energy -155936.826239 kJ/mol
# GULP energy per Si atom -5569.172366 kJ/mol
# Density = 2.552743 g / cm^3
# Si number density = 25.585659 Si / 1000 Ang^3
#
#
#
# Elastic Constant Matrix: (Units=GPa)
#
#
# Indices 1 2 3 4 5 6 
#
# 1 100.5349 55.1547 54.4560 0.0000 0.0000 0.0000
# 2 55.1547 224.7475 87.5878 0.0000 0.0000 0.0000
# 3 54.4560 87.5878 184.9669 0.0000 0.0000 0.0000
# 4 0.0000 0.0000 0.0000 69.1289 0.0000 0.0000
# 5 0.0000 0.0000 0.0000 0.0000-5175.1758 0.0000
# 6 0.0000 0.0000 0.0000 0.0000 0.0000 12.1541
#
#
#
# Elastic Compliance Matrix: (Units=1/GPa)
#
#
# Indices 1 2 3 4 5 6 
#
# 1 0.012532 -0.002008 -0.002739 0.000000 0.000000 0.000000
# 2 -0.002008 0.005778 -0.002145 0.000000 0.000000 0.000000
# 3 -0.002739 -0.002145 0.007228 0.000000 0.000000 0.000000
# 4 0.000000 0.000000 0.000000 0.014466 0.000000 0.000000
# 5 0.000000 0.000000 0.000000 0.000000 -0.000193 0.000000
# 6 0.000000 0.000000 0.000000 0.000000 0.000000 0.082276
#
#
# Mechanical properties :
#
#
# Convention : Reuss Voigt Hill
#
# Bulk Modulus (GPa) = 85.06977 100.51625 92.79301
# Shear Modulus (GPa) = 35.76819 -997.90849 -481.07015
#
# Velocity S-wave (km/s) = 3.74301 -19.77051 -13.72704
# Velocity P-wave (km/s) = 7.21120 21.94978 14.65932
#
# Compressibility (1/GPa) = 0.01175506
#
# Stress axis : x y z
#
# Youngs Moduli (GPa) = 79.79658 173.06527 138.34454
#
# Poissons Ratio (x) = 0.34754 0.37887
# Poissons Ratio (y) = 0.16024 0.29674
# Poissons Ratio (z) = 0.21853 0.37121
#
# Static dielectric constant tensor:
#      x y z
#    x 2.017060 0.000000 0.000000 
#    y 0.000000 2.650440 0.000000 
#    z 0.000000 0.000000 2.156540 
# 
# From -- ./inp_files/2930.got.cif
#   From: 2010.05.17/outbox.cif.g08.bks.cpg/sg52_2_cif.got.tgz:2930.got - 2010.06.03 12:15:38.
