data_PCOD9408528
_publ_section_title
;
Structure prediction by ZEFSAII (Michael W. Deem and Ramdas Pophale) SiO2 
 PCOD9408528
Probable space group: P N N A
;
_chemical_formula_sum "Si O2"
_cell_formula_units_Z 44
_cell_length_a 26.147028
_cell_length_b 7.809305
_cell_length_c 9.393372
_cell_angle_alpha 90.000000
_cell_angle_beta 90.000000
_cell_angle_gamma 90.000000
_cell_volume 1918.033723
_symmetry_space_group_name_H-M "P N N A"
_symmetry_group_IT_number 52
_symmetry_cell_setting 'orthorhombic'
loop_
_space_group_symop_operation_xyz
x,y,z
1/2-x,-y,z
x,1/2-y,1/2-z
1/2-x,1/2+y,1/2-z
-x,-y,-z
1/2+x,y,-z
-x,1/2+y,1/2+z
1/2+x,1/2-y,1/2+z
loop_
_atom_site_type_symbol
_atom_site_label
_atom_site_fract_x
_atom_site_fract_y
_atom_site_fract_z
Si Si1 0.458486 0.510065 0.331834
Si Si2 0.146302 0.906981 0.138411
Si Si3 0.731453 0.733865 0.030635
Si Si4 0.954085 0.627877 0.963119
Si Si5 0.952742 0.750000 0.250000
Si Si6 0.702333 0.250000 0.750000
Si Si7 0.250000 0.000000 0.757175
O O1 0.411637 0.428564 0.416274
O O2 0.431035 0.540789 0.177096
O O3 0.472690 0.690543 0.400174
O O4 0.507700 0.394564 0.307248
O O5 0.147523 0.750000 0.250000
O O6 0.169680 0.084971 0.200150
O O7 0.183447 0.845881 0.014114
O O8 0.713027 0.584097 0.137710
O O9 0.766119 0.851716 0.133799
O O10 0.762258 0.697465 0.885377
O O11 0.000000 0.500000 0.000000
O O12 0.925503 0.672824 0.110347
#
# Coordination Sequence:
#
# PCOD9408528 Si02
#       7
#     8   8   8   8   4   4   4
#     4  10  20  37  58  93 121 160 206 263 332 373
#     4  12  23  38  65  94 132 164 219 283 326 377
#     4  11  22  40  65  95 122 178 230 277 323 398
#     4   9  19  35  62  87 117 160 211 253 315 394
#     4  10  18  35  64  88 118 160 202 258 308 401
#     4  12  22  39  64  98 118 174 242 264 304 399
#     4  10  22  40  64  88 132 162 230 278 338 382
#
# _framework density 22.940159000000001
#
# number of rings (size 3 to 8) (size 9 to 14) (size 15 to 20)
#    0.000    1.455    3.636    2.727    0.000    0.000 
#    0.000    0.000   16.000    4.364    0.000    0.000 
#    0.000    0.000    0.000    0.000    0.000    0.000 
#
# Total GULP energy -244955.029809 kJ/mol
# GULP energy per Si atom -5567.159768 kJ/mol
# Density = 2.288795 g / cm^3
# Si number density = 22.940159 Si / 1000 Ang^3
#
#
#
# Elastic Constant Matrix: (Units=GPa)
#
#
# Indices 1 2 3 4 5 6 
#
# 1 39.8080 16.9262 11.5744 0.0000 0.0000 0.0000
# 2 16.9262 105.0280 17.0146 0.0000 0.0000 0.0000
# 3 11.5744 17.0146 144.2544 0.0000 0.0000 0.0000
# 4 0.0000 0.0000 0.0000 58.4985 0.0000 0.0000
# 5 0.0000 0.0000 0.0000 0.0000 4.6088 0.0000
# 6 0.0000 0.0000 0.0000 0.0000 0.0000 12.2394
#
#
#
# Elastic Compliance Matrix: (Units=1/GPa)
#
#
# Indices 1 2 3 4 5 6 
#
# 1 0.027376 -0.004135 -0.001709 0.000000 0.000000 0.000000
# 2 -0.004135 0.010331 -0.000887 0.000000 0.000000 0.000000
# 3 -0.001709 -0.000887 0.007174 0.000000 0.000000 0.000000
# 4 0.000000 0.000000 0.000000 0.017094 0.000000 0.000000
# 5 0.000000 0.000000 0.000000 0.000000 0.216975 0.000000
# 6 0.000000 0.000000 0.000000 0.000000 0.000000 0.081703
#
#
# Mechanical properties :
#
#
# Convention : Reuss Voigt Hill
#
# Bulk Modulus (GPa) = 31.82720 42.23566 37.03143
# Shear Modulus (GPa) = 13.00093 31.30769 22.15431
#
# Velocity S-wave (km/s) = 2.38320 3.69827 3.11101
# Velocity P-wave (km/s) = 4.63432 6.05702 5.39279
#
# Compressibility (1/GPa) = 0.03141967
#
# Stress axis : x y z
#
# Youngs Moduli (GPa) = 36.52883 96.79301 139.39417
#
# Poissons Ratio (x) = 0.40024 0.23820
# Poissons Ratio (y) = 0.15105 0.12361
# Poissons Ratio (z) = 0.06242 0.08584
#
# Static dielectric constant tensor:
#      x y z
#    x 1.808070 0.000000 0.000000 
#    y 0.000000 2.023890 0.000000 
#    z 0.000000 0.000000 1.972330 
# 
# From -- ./inp_files/15434.got.cif
#   From: 2010.05.17/outbox.cif.g08.bks.cpg/sg52_8_cif.got.tgz:15434.got - 2010.06.03 12:15:38.
