data_PCOD9408807
_publ_section_title
;
Structure prediction by ZEFSAII (Michael W. Deem and Ramdas Pophale) SiO2 
 PCOD9408807
Probable space group: P N N A
;
_chemical_formula_sum "Si O2"
_cell_formula_units_Z 40
_cell_length_a 9.185211
_cell_length_b 10.320898
_cell_length_c 17.361921
_cell_angle_alpha 90.000000
_cell_angle_beta 90.000000
_cell_angle_gamma 90.000000
_cell_volume 1645.903615
_symmetry_space_group_name_H-M "P N N A"
_symmetry_group_IT_number 52
_symmetry_cell_setting 'orthorhombic'
loop_
_space_group_symop_operation_xyz
x,y,z
1/2-x,-y,z
x,1/2-y,1/2-z
1/2-x,1/2+y,1/2-z
-x,-y,-z
1/2+x,y,-z
-x,1/2+y,1/2+z
1/2+x,1/2-y,1/2+z
loop_
_atom_site_type_symbol
_atom_site_label
_atom_site_fract_x
_atom_site_fract_y
_atom_site_fract_z
Si Si1 0.659251 0.279084 0.554872
Si Si2 0.624925 0.893734 0.037773
Si Si3 0.594107 0.069153 0.433746
Si Si4 0.401779 0.936884 0.313271
Si Si5 0.664319 0.634196 0.294866
O O1 0.824649 0.321698 0.539912
O O2 0.549626 0.403197 0.548857
O O3 0.622211 0.204558 0.475353
O O4 0.636512 0.180024 0.625714
O O5 0.647845 0.815613 0.118275
O O6 0.750000 0.000000 0.048661
O O7 0.750000 0.000000 0.422814
O O8 0.500000 0.000000 0.500000
O O9 0.496217 0.045002 0.359094
O O10 0.507383 0.889658 0.245270
O O11 0.250000 0.000000 0.287245
O O12 0.750000 0.500000 0.290253
O O13 0.741258 0.750000 0.250000
#
# Coordination Sequence:
#
# PCOD9408807 Si02
#       5
#     8   8   8   8   8
#     4  11  20  39  65  94 136 168 233 293 345 416
#     4  11  24  41  64  95 136 188 235 280 353 435
#     4  10  19  32  59 100 128 162 214 288 356 402
#     4  11  22  40  67  99 132 174 232 302 363 416
#     4  11  25  47  71 101 144 192 237 290 365 445
#
# _framework density 24.302759999999999
#
# number of rings (size 3 to 8) (size 9 to 14) (size 15 to 20)
#    0.000    1.200    2.000    7.200    2.800    0.000 
#    0.000    6.000    0.000    0.000    0.000    0.000 
#    0.000    0.000    0.000    0.000    0.000    0.000 
#
# Total GULP energy -222955.599737 kJ/mol
# GULP energy per Si atom -5573.889993 kJ/mol
# Density = 2.424745 g / cm^3
# Si number density = 24.302760 Si / 1000 Ang^3
#
#
#
# Elastic Constant Matrix: (Units=GPa)
#
#
# Indices 1 2 3 4 5 6 
#
# 1 142.2071 32.3324 31.1528 0.0000 0.0000 0.0000
# 2 32.3324 67.5949 -7.8808 0.0000 0.0000 0.0000
# 3 31.1528 -7.8808 64.5827 0.0000 0.0000 0.0000
# 4 0.0000 0.0000 0.0000 17.1297 0.0000 0.0000
# 5 0.0000 0.0000 0.0000 0.0000 -6.9572 0.0000
# 6 0.0000 0.0000 0.0000 0.0000 0.0000 42.4105
#
#
#
# Elastic Compliance Matrix: (Units=1/GPa)
#
#
# Indices 1 2 3 4 5 6 
#
# 1 0.009295 -0.005040 -0.005099 0.000000 0.000000 0.000000
# 2 -0.005040 0.017741 0.004596 0.000000 0.000000 0.000000
# 3 -0.005099 0.004596 0.018504 0.000000 0.000000 0.000000
# 4 0.000000 0.000000 0.000000 0.058378 0.000000 0.000000
# 5 0.000000 0.000000 0.000000 0.000000 -0.143737 0.000000
# 6 0.000000 0.000000 0.000000 0.000000 0.000000 0.023579
#
#
# Mechanical properties :
#
#
# Convention : Reuss Voigt Hill
#
# Bulk Modulus (GPa) = 29.02395 42.84374 35.93384
# Shear Modulus (GPa) = 789.69485 25.10194 407.39840
#
# Velocity S-wave (km/s) = 18.04566 3.21734 12.96143
# Velocity P-wave (km/s) = 21.12257 5.60974 15.45367
#
# Compressibility (1/GPa) = 0.03445430
#
# Stress axis : x y z
#
# Youngs Moduli (GPa) = 107.58527 56.36708 54.04136
#
# Poissons Ratio (x) = 0.28412 0.27554
# Poissons Ratio (y) = 0.54228 -0.24839
# Poissons Ratio (z) = 0.54854 -0.25908
#
# Static dielectric constant tensor:
#      x y z
#    x 1.987310 0.000000 0.000000 
#    y 0.000000 2.076560 0.000000 
#    z 0.000000 0.000000 2.004910 
# 
# From -- ./inp_files/30836.got.cif
#   From: 2010.05.17/outbox.cif.g08.bks.cpg/sg52_16_cif.got.tgz:30836.got - 2010.06.03 12:15:38.
