data_PCOD9408762
_publ_section_title
;
Structure prediction by ZEFSAII (Michael W. Deem and Ramdas Pophale) SiO2 
 PCOD9408762
Probable space group: P N N A
;
_chemical_formula_sum "Si O2"
_cell_formula_units_Z 48
_cell_length_a 22.737793
_cell_length_b 15.483456
_cell_length_c 5.528247
_cell_angle_alpha 90.000000
_cell_angle_beta 90.000000
_cell_angle_gamma 90.000000
_cell_volume 1946.272524
_symmetry_space_group_name_H-M "P N N A"
_symmetry_group_IT_number 52
_symmetry_cell_setting 'orthorhombic'
loop_
_space_group_symop_operation_xyz
x,y,z
1/2-x,-y,z
x,1/2-y,1/2-z
1/2-x,1/2+y,1/2-z
-x,-y,-z
1/2+x,y,-z
-x,1/2+y,1/2+z
1/2+x,1/2-y,1/2+z
loop_
_atom_site_type_symbol
_atom_site_label
_atom_site_fract_x
_atom_site_fract_y
_atom_site_fract_z
Si Si1 0.234847 0.250000 0.750000
Si Si2 0.066021 0.085265 0.863294
Si Si3 0.922593 0.656017 0.859724
Si Si4 0.336796 0.391210 0.736648
Si Si5 0.235427 0.250000 0.250000
Si Si6 0.698628 0.566689 0.763735
Si Si7 0.539170 0.882972 0.159595
O O1 0.279470 0.330899 0.754983
O O2 0.200901 0.249796 0.500073
O O3 0.095993 0.128817 0.629804
O O4 0.095734 0.095677 0.130572
O O5 0.001812 0.127489 0.923579
O O6 0.052981 0.985069 0.813738
O O7 0.912093 0.750000 0.750000
O O8 0.993985 0.645552 0.865522
O O9 0.324643 0.451875 0.505816
O O10 0.396674 0.342493 0.665633
O O11 0.343406 0.432564 0.002543
O O12 0.275456 0.335646 0.253568
O O13 0.750000 0.500000 0.821126
#
# Coordination Sequence:
#
# PCOD9408762 Si02
#       7
#     4   8   8   8   4   8   8
#     4   8  16  30  42  74 106 119 150 189 256 308
#     4   9  20  33  48  70 105 134 171 205 244 306
#     4  10  19  32  49  73  99 136 173 210 248 298
#     4  10  20  30  53  76 103 133 158 207 249 306
#     4   8  16  32  50  70  98 131 150 199 252 296
#     4  10  20  35  51  78 103 130 171 201 254 310
#     4   9  21  31  52  73 105 133 169 203 262 303
#
# _framework density 24.662528999999999
#
# number of rings (size 3 to 8) (size 9 to 14) (size 15 to 20)
#    1.000    1.667    0.000    1.500    3.500    0.000 
#    0.000    1.667    0.000    0.000   13.000    0.000 
#    0.000    0.000    0.000    0.000    0.000    0.000 
#
# Total GULP energy -267346.125029 kJ/mol
# GULP energy per Si atom -5569.710938 kJ/mol
# Density = 2.460640 g / cm^3
# Si number density = 24.662529 Si / 1000 Ang^3
#
#
#
# Elastic Constant Matrix: (Units=GPa)
#
#
# Indices 1 2 3 4 5 6 
#
# 1 49.3310 12.5559 10.6876 0.0000 0.0000 0.0000
# 2 12.5559 77.7666 16.7167 0.0000 0.0000 0.0000
# 3 10.6876 16.7167 251.3727 0.0000 0.0000 0.0000
# 4 0.0000 0.0000 0.0000 7.2926 0.0000 0.0000
# 5 0.0000 0.0000 0.0000 0.0000 39.5226 0.0000
# 6 0.0000 0.0000 0.0000 0.0000 0.0000 -18.9976
#
#
#
# Elastic Compliance Matrix: (Units=1/GPa)
#
#
# Indices 1 2 3 4 5 6 
#
# 1 0.021256 -0.003285 -0.000685 0.000000 0.000000 0.000000
# 2 -0.003285 0.013553 -0.000762 0.000000 0.000000 0.000000
# 3 -0.000685 -0.000762 0.004058 0.000000 0.000000 0.000000
# 4 0.000000 0.000000 0.000000 0.137124 0.000000 0.000000
# 5 0.000000 0.000000 0.000000 0.000000 0.025302 0.000000
# 6 0.000000 0.000000 0.000000 0.000000 0.000000 -0.052638
#
#
# Mechanical properties :
#
#
# Convention : Reuss Voigt Hill
#
# Bulk Modulus (GPa) = 34.00934 50.93230 42.47082
# Shear Modulus (GPa) = 29.77626 28.13088 28.95357
#
# Velocity S-wave (km/s) = 3.47846 3.38099 3.43007
# Velocity P-wave (km/s) = 5.47291 5.99483 5.73980
#
# Compressibility (1/GPa) = 0.02940369
#
# Stress axis : x y z
#
# Youngs Moduli (GPa) = 47.04618 73.78424 246.43020
#
# Poissons Ratio (x) = 0.24235 0.16888
# Poissons Ratio (y) = 0.15453 0.18769
# Poissons Ratio (z) = 0.03224 0.05620
#
# Static dielectric constant tensor:
#      x y z
#    x 1.942910 0.000000 0.000000 
#    y 0.000000 1.927680 0.000000 
#    z 0.000000 0.000000 2.052950 
# 
# From -- ./inp_files/5831.got.cif
#   From: 2010.05.17/outbox.cif.g08.bks.cpg/sg52_3_cif.got.tgz:5831.got - 2010.06.03 12:15:38.
