data_PCOD9408825
_publ_section_title
;
Structure prediction by ZEFSAII (Michael W. Deem and Ramdas Pophale) SiO2 
 PCOD9408825
Probable space group: P N N A
;
_chemical_formula_sum "Si O2"
_cell_formula_units_Z 60
_cell_length_a 5.728001
_cell_length_b 19.692806
_cell_length_c 27.236855
_cell_angle_alpha 90.000000
_cell_angle_beta 90.000000
_cell_angle_gamma 90.000000
_cell_volume 3072.328478
_symmetry_space_group_name_H-M "P N N A"
_symmetry_group_IT_number 52
_symmetry_cell_setting 'orthorhombic'
loop_
_space_group_symop_operation_xyz
x,y,z
1/2-x,-y,z
x,1/2-y,1/2-z
1/2-x,1/2+y,1/2-z
-x,-y,-z
1/2+x,y,-z
-x,1/2+y,1/2+z
1/2+x,1/2-y,1/2+z
loop_
_atom_site_type_symbol
_atom_site_label
_atom_site_fract_x
_atom_site_fract_y
_atom_site_fract_z
Si Si1 0.464829 0.867599 0.857413
Si Si2 0.171340 0.831276 0.241852
Si Si3 0.750000 0.000000 0.127765
Si Si4 0.336262 0.177386 0.721753
Si Si5 0.943761 0.953424 0.953482
Si Si6 0.246842 0.816207 0.054305
Si Si7 0.717426 0.808973 0.484489
Si Si8 0.868708 0.246132 0.380346
O O1 0.645540 0.844837 0.815819
O O2 0.564958 0.857000 0.912062
O O3 0.258939 0.812053 0.857615
O O4 0.402021 0.945236 0.844104
O O5 0.180746 0.750000 0.250000
O O6 0.423770 0.858209 0.259965
O O7 0.922432 0.853361 0.266876
O O8 0.630584 0.948619 0.089021
O O9 0.327977 0.250000 0.750000
O O10 0.377545 0.193996 0.664480
O O11 0.883832 0.878579 0.970417
O O12 0.750000 0.000000 0.927821
O O13 0.000000 0.000000 0.000000
O O14 0.397044 0.773805 0.094067
O O15 0.176768 0.761941 0.013929
O O16 0.457845 0.841487 0.493880
O O17 0.754439 0.789802 0.427320
#
# Coordination Sequence:
#
# PCOD9408825 Si02
#       8
#     8   8   4   8   8   8   8   8
#     4  12  22  37  51  69  96 128 164 220 262 318
#     4  10  20  34  56  74  91 114 154 207 267 308
#     4  12  26  36  46  68  92 130 174 208 280 302
#     4  10  19  33  51  77  90 112 148 204 268 306
#     4  12  25  34  46  59  86 129 181 228 249 297
#     4  11  23  34  49  64  92 131 174 213 260 297
#     4  10  22  32  47  70  93 127 165 200 250 298
#     4  11  21  33  51  70  95 120 159 215 260 304
#
# _framework density 19.529161999999999
#
# number of rings (size 3 to 8) (size 9 to 14) (size 15 to 20)
#    0.000    1.067    7.333    1.600    5.600    0.000 
#    0.000    0.000    0.000    0.000    0.000    0.000 
#    0.000    0.000    0.000    0.000    0.000    0.000 
#
# Total GULP energy -334105.823691 kJ/mol
# GULP energy per Si atom -5568.430395 kJ/mol
# Density = 1.948471 g / cm^3
# Si number density = 19.529162 Si / 1000 Ang^3
#
#
#
# Elastic Constant Matrix: (Units=GPa)
#
#
# Indices 1 2 3 4 5 6 
#
# 1 99.6614 -3.5194 8.0586 0.0000 0.0000 0.0000
# 2 -3.5194 5.8047 6.0993 0.0000 0.0000 0.0000
# 3 8.0586 6.0993 102.7561 0.0000 0.0000 0.0000
# 4 0.0000 0.0000 0.0000 10.5350 0.0000 0.0000
# 5 0.0000 0.0000 0.0000 0.0000 34.7849 0.0000
# 6 0.0000 0.0000 0.0000 0.0000 0.0000 5.0189
#
#
#
# Elastic Compliance Matrix: (Units=1/GPa)
#
#
# Indices 1 2 3 4 5 6 
#
# 1 0.010407 0.007644 -0.001270 0.000000 0.000000 0.000000
# 2 0.007644 0.189347 -0.011839 0.000000 0.000000 0.000000
# 3 -0.001270 -0.011839 0.010534 0.000000 0.000000 0.000000
# 4 0.000000 0.000000 0.000000 0.094921 0.000000 0.000000
# 5 0.000000 0.000000 0.000000 0.000000 0.028748 0.000000
# 6 0.000000 0.000000 0.000000 0.000000 0.000000 0.199246
#
#
# Mechanical properties :
#
#
# Convention : Reuss Voigt Hill
#
# Bulk Modulus (GPa) = 5.01608 25.49991 15.25799
# Shear Modulus (GPa) = 8.18886 23.24001 15.71443
#
# Velocity S-wave (km/s) = 2.04994 3.45340 2.83974
# Velocity P-wave (km/s) = 2.85956 5.38396 4.31069
#
# Compressibility (1/GPa) = 0.19935886
#
# Stress axis : x y z
#
# Youngs Moduli (GPa) = 96.09299 5.28130 94.93005
#
# Poissons Ratio (x) = -0.04037 0.12055
# Poissons Ratio (y) = -0.73452 1.12383
# Poissons Ratio (z) = 0.12202 0.06252
#
# Static dielectric constant tensor:
#      x y z
#    x 1.590560 0.000000 0.000000 
#    y 0.000000 1.610670 0.000000 
#    z 0.000000 0.000000 1.717430 
# 
# From -- ./inp_files/38879.got.cif
#   From: 2010.05.17/outbox.cif.g08.bks.cpg/sg52_20_cif.got.tgz:38879.got - 2010.06.03 12:15:38.
