data_PCOD9408792
_publ_section_title
;
Structure prediction by ZEFSAII (Michael W. Deem and Ramdas Pophale) SiO2 
 PCOD9408792
Probable space group: P N N A
;
_chemical_formula_sum "Si O2"
_cell_formula_units_Z 32
_cell_length_a 17.156930
_cell_length_b 7.765370
_cell_length_c 11.492587
_cell_angle_alpha 90.000000
_cell_angle_beta 90.000000
_cell_angle_gamma 90.000000
_cell_volume 1531.156326
_symmetry_space_group_name_H-M "P N N A"
_symmetry_group_IT_number 52
_symmetry_cell_setting 'orthorhombic'
loop_
_space_group_symop_operation_xyz
x,y,z
1/2-x,-y,z
x,1/2-y,1/2-z
1/2-x,1/2+y,1/2-z
-x,-y,-z
1/2+x,y,-z
-x,1/2+y,1/2+z
1/2+x,1/2-y,1/2+z
loop_
_atom_site_type_symbol
_atom_site_label
_atom_site_fract_x
_atom_site_fract_y
_atom_site_fract_z
Si Si1 0.068614 0.323478 0.621381
Si Si2 0.592126 0.483634 0.974119
Si Si3 0.102533 0.634216 0.494977
Si Si4 0.338362 0.454495 0.260725
O O1 0.058711 0.250000 0.750000
O O2 0.116760 0.180782 0.549053
O O3 0.101914 0.516380 0.609230
O O4 0.984162 0.342321 0.559576
O O5 0.607732 0.458402 0.836637
O O6 0.500000 0.500000 0.000000
O O7 0.630482 0.668402 0.006999
O O8 0.144779 0.519304 0.396202
O O9 0.250000 0.500000 0.232328
O O10 0.350819 0.250000 0.250000
#
# Coordination Sequence:
#
# PCOD9408792 Si02
#       4
#     8   8   8   8
#     4  10  19  32  55  80 109 145 191 228 278 337
#     4   9  18  34  54  79 112 147 186 232 283 336
#     4   9  19  34  51  80 114 143 180 238 281 329
#     4  10  21  35  56  87 117 145 186 240 296 346
#
# _framework density 20.899236999999999
#
# number of rings (size 3 to 8) (size 9 to 14) (size 15 to 20)
#    0.000    2.500    0.000    3.750    3.500    1.000 
#    0.000   10.000    0.000    1.500    0.000    0.000 
#    0.000    0.000    0.000    0.000    0.000    0.000 
#
# Total GULP energy -178187.223514 kJ/mol
# GULP energy per Si atom -5568.350735 kJ/mol
# Density = 2.085167 g / cm^3
# Si number density = 20.899237 Si / 1000 Ang^3
#
#
#
# Elastic Constant Matrix: (Units=GPa)
#
#
# Indices 1 2 3 4 5 6 
#
# 1 39.1378 -3.4328 16.2823 0.0000 0.0000 0.0000
# 2 -3.4328 108.0175 57.0578 0.0000 0.0000 0.0000
# 3 16.2823 57.0578 86.5001 0.0000 0.0000 0.0000
# 4 0.0000 0.0000 0.0000 31.4571 0.0000 0.0000
# 5 0.0000 0.0000 0.0000 0.0000 2.2791 0.0000
# 6 0.0000 0.0000 0.0000 0.0000 0.0000 12.5928
#
#
#
# Elastic Compliance Matrix: (Units=1/GPa)
#
#
# Indices 1 2 3 4 5 6 
#
# 1 0.030103 0.006062 -0.009665 0.000000 0.000000 0.000000
# 2 0.006062 0.015429 -0.011319 0.000000 0.000000 0.000000
# 3 -0.009665 -0.011319 0.020846 0.000000 0.000000 0.000000
# 4 0.000000 0.000000 0.000000 0.031789 0.000000 0.000000
# 5 0.000000 0.000000 0.000000 0.000000 0.438761 0.000000
# 6 0.000000 0.000000 0.000000 0.000000 0.000000 0.079411
#
#
# Mechanical properties :
#
#
# Convention : Reuss Voigt Hill
#
# Bulk Modulus (GPa) = 27.37082 41.49667 34.43374
# Shear Modulus (GPa) = 7.59461 20.18234 13.88847
#
# Velocity S-wave (km/s) = 1.90835 3.11094 2.58067
# Velocity P-wave (km/s) = 4.24037 5.72736 5.03902
#
# Compressibility (1/GPa) = 0.03653526
#
# Stress axis : x y z
#
# Youngs Moduli (GPa) = 33.21878 64.81196 47.97057
#
# Poissons Ratio (x) = -0.39290 0.46365
# Poissons Ratio (y) = -0.20138 0.54296
# Poissons Ratio (z) = 0.32107 0.73358
#
# Static dielectric constant tensor:
#      x y z
#    x 1.814940 0.000000 0.000000 
#    y 0.000000 1.834430 0.000000 
#    z 0.000000 0.000000 1.816060 
# 
# From -- ./inp_files/12789.got.cif
#   From: 2010.05.17/outbox.cif.g08.bks.cpg/sg52_7_cif.got.tgz:12789.got - 2010.06.03 12:15:38.
