data_PCOD9408856
_publ_section_title
;
Structure prediction by ZEFSAII (Michael W. Deem and Ramdas Pophale) SiO2 
 PCOD9408856
Probable space group: P N N A
;
_chemical_formula_sum "Si O2"
_cell_formula_units_Z 32
_cell_length_a 37.376963
_cell_length_b 5.225887
_cell_length_c 7.371362
_cell_angle_alpha 90.000000
_cell_angle_beta 90.000000
_cell_angle_gamma 90.000000
_cell_volume 1439.831812
_symmetry_space_group_name_H-M "P N N A"
_symmetry_group_IT_number 52
_symmetry_cell_setting 'orthorhombic'
loop_
_space_group_symop_operation_xyz
x,y,z
1/2-x,-y,z
x,1/2-y,1/2-z
1/2-x,1/2+y,1/2-z
-x,-y,-z
1/2+x,y,-z
-x,1/2+y,1/2+z
1/2+x,1/2-y,1/2+z
loop_
_atom_site_type_symbol
_atom_site_label
_atom_site_fract_x
_atom_site_fract_y
_atom_site_fract_z
Si Si1 0.108457 0.722036 0.969956
Si Si2 0.228994 0.245763 0.031245
Si Si3 0.354637 0.732567 0.535787
Si Si4 0.464985 0.005920 0.623059
O O1 0.110820 0.750000 0.750000
O O2 0.135870 0.510556 0.040284
O O3 0.069750 0.589454 0.995167
O O4 0.120607 0.001293 0.037015
O O5 0.250000 0.500000 0.969635
O O6 0.230163 0.250000 0.250000
O O7 0.250000 0.000000 0.963624
O O8 0.187658 0.204473 0.982356
O O9 0.362814 0.750000 0.750000
O O10 0.459791 0.750000 0.750000
O O11 0.470172 0.250000 0.750000
O O12 0.500000 0.000000 0.500000
#
# Coordination Sequence:
#
# PCOD9408856 Si02
#       4
#     8   8   8   8
#     4   9  18  34  55  78 108 144 179 225 286 338
#     4  10  21  36  52  73 106 143 174 215 279 341
#     4  10  19  33  55  79 101 135 183 227 269 327
#     4  11  22  39  62  88 121 160 201 247 303 362
#
# _framework density 22.224817999999999
#
# number of rings (size 3 to 8) (size 9 to 14) (size 15 to 20)
#    0.000    2.000    0.000    6.000    0.000    1.000 
#    0.000    3.750    0.000    0.000    0.000    0.000 
#    0.000    0.000    0.000    0.000    0.000    0.000 
#
# Total GULP energy -178458.107519 kJ/mol
# GULP energy per Si atom -5576.815860 kJ/mol
# Density = 2.217423 g / cm^3
# Si number density = 22.224818 Si / 1000 Ang^3
#
#
#
# Elastic Constant Matrix: (Units=GPa)
#
#
# Indices 1 2 3 4 5 6 
#
# 1 172.3639 81.3027 -3.0352 0.0000 0.0000 0.0000
# 2 81.3027 195.2391 12.9152 0.0000 0.0000 0.0000
# 3 -3.0352 12.9152 50.8883 0.0000 0.0000 0.0000
# 4 0.0000 0.0000 0.0000 -20.2626 0.0000 0.0000
# 5 0.0000 0.0000 0.0000 0.0000 34.2211 0.0000
# 6 0.0000 0.0000 0.0000 0.0000 0.0000 37.6721
#
#
#
# Elastic Compliance Matrix: (Units=1/GPa)
#
#
# Indices 1 2 3 4 5 6 
#
# 1 0.007294 -0.003119 0.001227 0.000000 0.000000 0.000000
# 2 -0.003119 0.006543 -0.001847 0.000000 0.000000 0.000000
# 3 0.001227 -0.001847 0.020193 0.000000 0.000000 0.000000
# 4 0.000000 0.000000 0.000000 -0.049352 0.000000 0.000000
# 5 0.000000 0.000000 0.000000 0.000000 0.029222 0.000000
# 6 0.000000 0.000000 0.000000 0.000000 0.000000 0.026545
#
#
# Mechanical properties :
#
#
# Convention : Reuss Voigt Hill
#
# Bulk Modulus (GPa) = 37.66121 66.76186 52.21153
# Shear Modulus (GPa) = 88.07069 32.14668 60.10869
#
# Velocity S-wave (km/s) = 6.30184 3.80732 5.20619
# Velocity P-wave (km/s) = 8.36261 7.03080 7.72546
#
# Compressibility (1/GPa) = 0.02655252
#
# Stress axis : x y z
#
# Youngs Moduli (GPa) = 137.09253 152.84016 49.52283
#
# Poissons Ratio (x) = 0.47666 -0.06074
# Poissons Ratio (y) = 0.42755 0.09145
# Poissons Ratio (z) = -0.16816 0.28223
#
# Static dielectric constant tensor:
#      x y z
#    x 1.896700 0.000000 0.000000 
#    y 0.000000 1.820740 0.000000 
#    z 0.000000 0.000000 1.991170 
# 
# From -- ./inp_files/15290.got.cif
#   From: 2010.05.17/outbox.cif.g08.bks.cpg/sg52_8_cif.got.tgz:15290.got - 2010.06.03 12:15:38.
