data_PCOD9408775
_publ_section_title
;
Structure prediction by ZEFSAII (Michael W. Deem and Ramdas Pophale) SiO2 
 PCOD9408775
Probable space group: P N N A
;
_chemical_formula_sum "Si O2"
_cell_formula_units_Z 56
_cell_length_a 15.072180
_cell_length_b 27.949017
_cell_length_c 5.929486
_cell_angle_alpha 90.000000
_cell_angle_beta 90.000000
_cell_angle_gamma 90.000000
_cell_volume 2497.811483
_symmetry_space_group_name_H-M "P N N A"
_symmetry_group_IT_number 52
_symmetry_cell_setting 'orthorhombic'
loop_
_space_group_symop_operation_xyz
x,y,z
1/2-x,-y,z
x,1/2-y,1/2-z
1/2-x,1/2+y,1/2-z
-x,-y,-z
1/2+x,y,-z
-x,1/2+y,1/2+z
1/2+x,1/2-y,1/2+z
loop_
_atom_site_type_symbol
_atom_site_label
_atom_site_fract_x
_atom_site_fract_y
_atom_site_fract_z
Si Si1 0.308601 0.340583 0.003961
Si Si2 0.172980 0.119620 0.871829
Si Si3 0.161345 0.918240 0.142051
Si Si4 0.029622 0.539999 0.680963
Si Si5 0.894663 0.546968 0.058963
Si Si6 0.818679 0.793023 0.875429
Si Si7 0.186684 0.750000 0.750000
Si Si8 0.250000 0.000000 0.346957
O O1 0.358035 0.382456 0.148240
O O2 0.246169 0.316405 0.192084
O O3 0.239394 0.361680 0.822980
O O4 0.358220 0.296458 0.872636
O O5 0.101878 0.084561 0.760612
O O6 0.241678 0.094072 0.041085
O O7 0.130110 0.164517 0.000551
O O8 0.173363 0.973959 0.208776
O O9 0.088264 0.920203 0.944894
O O10 0.083668 0.506307 0.854843
O O11 0.000000 0.500000 0.500000
O O12 0.951829 0.560178 0.840392
O O13 0.792382 0.541973 0.991431
O O14 0.868772 0.750000 0.750000
O O15 0.752019 0.771574 0.061169
#
# Coordination Sequence:
#
# PCOD9408775 Si02
#       8
#     8   8   8   8   8   8   4   4
#     4   9  17  29  50  78 111 150 181 241 289 364
#     4  10  19  32  53  79 107 153 199 246 286 362
#     4  11  21  33  53  77 108 157 204 251 302 353
#     4  11  24  39  51  72 113 163 196 258 301 348
#     4  11  23  36  53  75 106 159 207 253 299 351
#     4   8  15  27  47  77 114 151 164 227 302 353
#     4   8  14  28  46  76 116 152 162 224 310 348
#     4  12  20  36  56  76 108 148 212 248 290 348
#
# _framework density 22.419625
#
# number of rings (size 3 to 8) (size 9 to 14) (size 15 to 20)
#    0.000    2.000    2.857    1.714    0.000    0.000 
#    0.000    0.000    0.000    0.000    0.000    0.000 
#    0.000    0.000 1224.000    0.000    0.000    0.000 
#
# Total GULP energy -312086.361487 kJ/mol
# GULP energy per Si atom -5572.970741 kJ/mol
# Density = 2.236860 g / cm^3
# Si number density = 22.419625 Si / 1000 Ang^3
#
#
#
# Elastic Constant Matrix: (Units=GPa)
#
#
# Indices 1 2 3 4 5 6 
#
# 1 39.4958 21.3894 16.3933 0.0000 0.0000 0.0000
# 2 21.3894 129.4839 52.4628 0.0000 0.0000 0.0000
# 3 16.3933 52.4628 104.4204 0.0000 0.0000 0.0000
# 4 0.0000 0.0000 0.0000 67.4897 0.0000 0.0000
# 5 0.0000 0.0000 0.0000 0.0000 31.6643 0.0000
# 6 0.0000 0.0000 0.0000 0.0000 0.0000 10.2297
#
#
#
# Elastic Compliance Matrix: (Units=1/GPa)
#
#
# Indices 1 2 3 4 5 6 
#
# 1 0.028373 -0.003619 -0.002636 0.000000 0.000000 0.000000
# 2 -0.003619 0.010158 -0.004536 0.000000 0.000000 0.000000
# 3 -0.002636 -0.004536 0.012269 0.000000 0.000000 0.000000
# 4 0.000000 0.000000 0.000000 0.014817 0.000000 0.000000
# 5 0.000000 0.000000 0.000000 0.000000 0.031581 0.000000
# 6 0.000000 0.000000 0.000000 0.000000 0.000000 0.097754
#
#
# Mechanical properties :
#
#
# Convention : Reuss Voigt Hill
#
# Bulk Modulus (GPa) = 34.22371 50.43233 42.32802
# Shear Modulus (GPa) = 22.09700 34.08705 28.09202
#
# Velocity S-wave (km/s) = 3.14285 3.90348 3.54363
# Velocity P-wave (km/s) = 5.33556 6.54673 5.97193
#
# Compressibility (1/GPa) = 0.02921951
#
# Stress axis : x y z
#
# Youngs Moduli (GPa) = 35.24462 98.43999 81.50391
#
# Poissons Ratio (x) = 0.35624 0.21486
# Poissons Ratio (y) = 0.12754 0.36968
# Poissons Ratio (z) = 0.09291 0.44649
#
# Static dielectric constant tensor:
#      x y z
#    x 1.848630 0.000000 0.000000 
#    y 0.000000 1.966450 0.000000 
#    z 0.000000 0.000000 1.946420 
# 
# From -- ./inp_files/2671.got.cif
#   From: 2010.05.17/outbox.cif.g08.bks.cpg/sg52_2_cif.got.tgz:2671.got - 2010.06.03 12:15:38.
