data_PCOD9408998
_publ_section_title
;
Structure prediction by ZEFSAII (Michael W. Deem and Ramdas Pophale) SiO2 
 PCOD9408998
Probable space group: P N N A
;
_chemical_formula_sum "Si O2"
_cell_formula_units_Z 32
_cell_length_a 15.100406
_cell_length_b 12.576175
_cell_length_c 8.307055
_cell_angle_alpha 90.000000
_cell_angle_beta 90.000000
_cell_angle_gamma 90.000000
_cell_volume 1577.554174
_symmetry_space_group_name_H-M "P N N A"
_symmetry_group_IT_number 52
_symmetry_cell_setting 'orthorhombic'
loop_
_space_group_symop_operation_xyz
x,y,z
1/2-x,-y,z
x,1/2-y,1/2-z
1/2-x,1/2+y,1/2-z
-x,-y,-z
1/2+x,y,-z
-x,1/2+y,1/2+z
1/2+x,1/2-y,1/2+z
loop_
_atom_site_type_symbol
_atom_site_label
_atom_site_fract_x
_atom_site_fract_y
_atom_site_fract_z
Si Si1 0.151542 0.607967 0.845527
Si Si2 0.056744 0.673924 0.557311
Si Si3 0.894252 0.750000 0.750000
Si Si4 0.508702 0.250000 0.250000
Si Si5 0.847922 0.878073 0.452617
O O1 0.117815 0.595010 0.661254
O O2 0.098928 0.709272 0.911570
O O3 0.133270 0.503605 0.949916
O O4 0.255506 0.632293 0.857477
O O5 0.960580 0.676741 0.643028
O O6 0.045826 0.671136 0.366382
O O7 0.840670 0.823601 0.627011
O O8 0.572582 0.180628 0.362568
#
# Coordination Sequence:
#
# PCOD9408998 Si02
#       5
#     8   8   4   4   8
#     4   9  19  35  56  77 107 146 182 223 280 337
#     4   9  19  35  53  78 107 139 179 227 273 327
#     4   8  18  32  52  76 104 138 178 222 270 330
#     4  10  20  32  54  80 108 144 182 228 278 328
#     4  10  19  35  56  78 106 145 183 226 281 336
#
# _framework density 20.284566000000002
#
# number of rings (size 3 to 8) (size 9 to 14) (size 15 to 20)
#    0.000    3.000    0.000    1.500    0.000   11.000 
#    0.000    2.500    0.000   21.000    0.000    0.000 
#    0.000    0.000    0.000    0.000    0.000    0.000 
#
# Total GULP energy -178291.447274 kJ/mol
# GULP energy per Si atom -5571.607727 kJ/mol
# Density = 2.023840 g / cm^3
# Si number density = 20.284566 Si / 1000 Ang^3
#
#
#
# Elastic Constant Matrix: (Units=GPa)
#
#
# Indices 1 2 3 4 5 6 
#
# 1 63.4435 8.8934 31.2923 0.0000 0.0000 0.0000
# 2 8.8934 71.4054 20.6262 0.0000 0.0000 0.0000
# 3 31.2923 20.6262 132.9036 0.0000 0.0000 0.0000
# 4 0.0000 0.0000 0.0000 25.3610 0.0000 0.0000
# 5 0.0000 0.0000 0.0000 0.0000 -0.9993 0.0000
# 6 0.0000 0.0000 0.0000 0.0000 0.0000 25.6553
#
#
#
# Elastic Compliance Matrix: (Units=1/GPa)
#
#
# Indices 1 2 3 4 5 6 
#
# 1 0.017909 -0.001060 -0.004052 0.000000 0.000000 0.000000
# 2 -0.001060 0.014725 -0.002036 0.000000 0.000000 0.000000
# 3 -0.004052 -0.002036 0.008794 0.000000 0.000000 0.000000
# 4 0.000000 0.000000 0.000000 0.039431 0.000000 0.000000
# 5 0.000000 0.000000 0.000000 0.000000 -1.000683 0.000000
# 6 0.000000 0.000000 0.000000 0.000000 0.000000 0.038978
#
#
# Mechanical properties :
#
#
# Convention : Reuss Voigt Hill
#
# Bulk Modulus (GPa) = 36.85630 43.26401 40.06016
# Shear Modulus (GPa) = -5.83086 23.79945 8.98430
#
# Velocity S-wave (km/s) = -1.69728 3.42903 2.10683
# Velocity P-wave (km/s) = 3.79052 6.08708 5.07053
#
# Compressibility (1/GPa) = 0.02713240
#
# Stress axis : x y z
#
# Youngs Moduli (GPa) = 55.83670 67.91367 113.71020
#
# Poissons Ratio (x) = 0.07199 0.46078
# Poissons Ratio (y) = 0.05919 0.23147
# Poissons Ratio (z) = 0.22627 0.13825
#
# Static dielectric constant tensor:
#      x y z
#    x 1.740750 0.000000 0.000000 
#    y 0.000000 1.738290 0.000000 
#    z 0.000000 0.000000 1.800560 
# 
# From -- ./inp_files/9593.got.cif
#   From: 2010.05.17/outbox.cif.g08.bks.cpg/sg52_5_cif.got.tgz:9593.got - 2010.06.03 12:15:38.
