data_PCOD9408328
_publ_section_title
;
Structure prediction by ZEFSAII (Michael W. Deem and Ramdas Pophale) SiO2 
 PCOD9408328
Probable space group: P N N A
;
_chemical_formula_sum "Si O2"
_cell_formula_units_Z 32
_cell_length_a 11.911572
_cell_length_b 14.278598
_cell_length_c 7.994717
_cell_angle_alpha 90.000000
_cell_angle_beta 90.000000
_cell_angle_gamma 90.000000
_cell_volume 1359.745850
_symmetry_space_group_name_H-M "P N N A"
_symmetry_group_IT_number 52
_symmetry_cell_setting 'orthorhombic'
loop_
_space_group_symop_operation_xyz
x,y,z
1/2-x,-y,z
x,1/2-y,1/2-z
1/2-x,1/2+y,1/2-z
-x,-y,-z
1/2+x,y,-z
-x,1/2+y,1/2+z
1/2+x,1/2-y,1/2+z
loop_
_atom_site_type_symbol
_atom_site_label
_atom_site_fract_x
_atom_site_fract_y
_atom_site_fract_z
Si Si1 0.994134 0.750000 0.250000
Si Si2 0.816410 0.193897 0.519305
Si Si3 0.250000 0.000000 0.018335
Si Si4 0.373102 0.818405 0.083469
Si Si5 0.111030 0.876305 0.806967
O O1 0.082508 0.815952 0.349602
O O2 0.922547 0.804442 0.108656
O O3 0.696139 0.219978 0.596297
O O4 0.830903 0.118697 0.373917
O O5 0.839041 0.289709 0.414055
O O6 0.208980 0.093006 0.108600
O O7 0.356031 0.031430 0.906588
O O8 0.481474 0.847537 0.192136
#
# Coordination Sequence:
#
# PCOD9408328 Si02
#       5
#     4   8   4   8   8
#     4  10  20  34  56  80 104 140 182 228 274 316
#     4   9  19  34  53  79 103 137 184 223 268 320
#     4  10  18  32  54  80 110 148 182 216 270 334
#     4  10  19  34  55  79 109 143 181 227 271 321
#     4   9  18  33  54  77 106 142 178 223 268 317
#
# _framework density 23.533806999999999
#
# number of rings (size 3 to 8) (size 9 to 14) (size 15 to 20)
#    0.000    2.500    0.000    3.750    0.000    4.000 
#    0.000    1.250    0.000   18.000    0.000    0.000 
#    0.000    0.000    0.000    0.000    0.000    0.000 
#
# Total GULP energy -178193.236771 kJ/mol
# GULP energy per Si atom -5568.538649 kJ/mol
# Density = 2.348024 g / cm^3
# Si number density = 23.533807 Si / 1000 Ang^3
#
#
#
# Elastic Constant Matrix: (Units=GPa)
#
#
# Indices 1 2 3 4 5 6 
#
# 1 150.3931 28.2719 22.2334 0.0000 0.0000 0.0000
# 2 28.2719 68.7958 12.9184 0.0000 0.0000 0.0000
# 3 22.2334 12.9184 73.0334 0.0000 0.0000 0.0000
# 4 0.0000 0.0000 0.0000 25.2100 0.0000 0.0000
# 5 0.0000 0.0000 0.0000 0.0000 -16.5619 0.0000
# 6 0.0000 0.0000 0.0000 0.0000 0.0000 30.8011
#
#
#
# Elastic Compliance Matrix: (Units=1/GPa)
#
#
# Indices 1 2 3 4 5 6 
#
# 1 0.007423 -0.002716 -0.001779 0.000000 0.000000 0.000000
# 2 -0.002716 0.016029 -0.002008 0.000000 0.000000 0.000000
# 3 -0.001779 -0.002008 0.014589 0.000000 0.000000 0.000000
# 4 0.000000 0.000000 0.000000 0.039667 0.000000 0.000000
# 5 0.000000 0.000000 0.000000 0.000000 -0.060379 0.000000
# 6 0.000000 0.000000 0.000000 0.000000 0.000000 0.032466
#
#
# Mechanical properties :
#
#
# Convention : Reuss Voigt Hill
#
# Bulk Modulus (GPa) = 39.94663 46.56330 43.25497
# Shear Modulus (GPa) = 70.27650 23.14308 46.70979
#
# Velocity S-wave (km/s) = 5.47054 3.13932 4.45994
# Velocity P-wave (km/s) = 7.54409 5.74187 6.70382
#
# Compressibility (1/GPa) = 0.02503340
#
# Stress axis : x y z
#
# Youngs Moduli (GPa) = 134.71783 62.38612 68.54352
#
# Poissons Ratio (x) = 0.16946 0.12196
# Poissons Ratio (y) = 0.36594 0.13766
# Poissons Ratio (z) = 0.23970 0.12529
#
# Static dielectric constant tensor:
#      x y z
#    x 1.989900 0.000000 0.000000 
#    y 0.000000 1.881390 0.000000 
#    z 0.000000 0.000000 2.102970 
# 
# From -- ./inp_files/8248.got.cif
#   From: 2010.05.17/outbox.cif.g08.bks.cpg/sg52_5_cif.got.tgz:8248.got - 2010.06.03 12:15:38.
