data_PCOD9408060
_publ_section_title
;
Structure prediction by ZEFSAII (Michael W. Deem and Ramdas Pophale) SiO2 
 PCOD9408060
Probable space group: P N N A
;
_chemical_formula_sum "Si O2"
_cell_formula_units_Z 64
_cell_length_a 5.905988
_cell_length_b 19.023598
_cell_length_c 31.901375
_cell_angle_alpha 90.000000
_cell_angle_beta 90.000000
_cell_angle_gamma 90.000000
_cell_volume 3584.219700
_symmetry_space_group_name_H-M "P N N A"
_symmetry_group_IT_number 52
_symmetry_cell_setting 'orthorhombic'
loop_
_space_group_symop_operation_xyz
x,y,z
1/2-x,-y,z
x,1/2-y,1/2-z
1/2-x,1/2+y,1/2-z
-x,-y,-z
1/2+x,y,-z
-x,1/2+y,1/2+z
1/2+x,1/2-y,1/2+z
loop_
_atom_site_type_symbol
_atom_site_label
_atom_site_fract_x
_atom_site_fract_y
_atom_site_fract_z
Si Si1 0.255479 0.915511 0.978942
Si Si2 0.190875 0.659933 0.608475
Si Si3 0.524465 0.209028 0.635026
Si Si4 0.915829 0.194838 0.826107
Si Si5 0.757008 0.919389 0.666719
Si Si6 0.862128 0.823462 0.297070
Si Si7 0.378617 0.568650 0.330255
Si Si8 0.103188 0.934532 0.743415
O O1 0.257127 0.876922 0.934330
O O2 0.250000 0.000000 0.974094
O O3 0.503601 0.898557 0.000542
O O4 0.091138 0.738960 0.601494
O O5 0.399650 0.670714 0.640083
O O6 0.016247 0.609233 0.633705
O O7 0.727328 0.257565 0.651321
O O8 0.626864 0.130932 0.631759
O O9 0.339718 0.197543 0.671382
O O10 0.796359 0.124795 0.810563
O O11 0.011008 0.249950 0.793028
O O12 0.524976 0.880360 0.679938
O O13 0.902122 0.922521 0.710134
O O14 0.750000 0.000000 0.652547
O O15 0.751833 0.863747 0.258199
O O16 0.250000 0.500000 0.346602
O O17 0.528163 0.548427 0.290297
O O18 0.250000 0.000000 0.727642
#
# Coordination Sequence:
#
# PCOD9408060 Si02
#       8
#     8   8   8   8   8   8   8   8
#     4  10  24  41  65  97 123 149 192 240 293 359
#     4  10  22  40  61  77 113 152 179 237 292 350
#     4   8  18  34  53  82 107 143 190 229 288 350
#     4   9  20  39  55  76 102 144 187 237 292 349
#     4  10  17  31  54  78 106 151 189 247 295 333
#     4   9  18  36  55  71 105 141 189 242 298 341
#     4  11  26  36  54  78 106 144 200 242 296 354
#     4  11  22  34  50  73 103 142 198 250 297 344
#
# _framework density 17.856048000000001
#
# number of rings (size 3 to 8) (size 9 to 14) (size 15 to 20)
#    0.000    2.250    1.250    0.375    7.000    0.500 
#    0.000   28.750    0.000    0.000    0.000    0.000 
#    0.000    1.000    0.000    0.750    0.000    0.000 
#
# Total GULP energy -356314.029210 kJ/mol
# GULP energy per Si atom -5567.406706 kJ/mol
# Density = 1.781541 g / cm^3
# Si number density = 17.856048 Si / 1000 Ang^3
#
#
#
# Elastic Constant Matrix: (Units=GPa)
#
#
# Indices 1 2 3 4 5 6 
#
# 1 90.5196 48.6203 31.0703 0.0000 0.0000 0.0000
# 2 48.6203 111.6573 24.3735 0.0000 0.0000 0.0000
# 3 31.0703 24.3735 60.1600 0.0000 0.0000 0.0000
# 4 0.0000 0.0000 0.0000 15.0314 0.0000 0.0000
# 5 0.0000 0.0000 0.0000 0.0000 4.7073 0.0000
# 6 0.0000 0.0000 0.0000 0.0000 0.0000 38.9671
#
#
#
# Elastic Compliance Matrix: (Units=1/GPa)
#
#
# Indices 1 2 3 4 5 6 
#
# 1 0.016203 -0.005736 -0.006044 0.000000 0.000000 0.000000
# 2 -0.005736 0.011856 -0.001841 0.000000 0.000000 0.000000
# 3 -0.006044 -0.001841 0.020490 0.000000 0.000000 0.000000
# 4 0.000000 0.000000 0.000000 0.066527 0.000000 0.000000
# 5 0.000000 0.000000 0.000000 0.000000 0.212436 0.000000
# 6 0.000000 0.000000 0.000000 0.000000 0.000000 0.025663
#
#
# Mechanical properties :
#
#
# Convention : Reuss Voigt Hill
#
# Bulk Modulus (GPa) = 46.93497 52.27389 49.60443
# Shear Modulus (GPa) = 12.90260 22.29268 17.59764
#
# Velocity S-wave (km/s) = 2.69102 3.53720 3.14272
# Velocity P-wave (km/s) = 5.99981 6.78388 6.40386
#
# Compressibility (1/GPa) = 0.02130608
#
# Stress axis : x y z
#
# Youngs Moduli (GPa) = 61.71705 84.34891 48.80489
#
# Poissons Ratio (x) = 0.48383 0.29499
# Poissons Ratio (y) = 0.35401 0.08984
# Poissons Ratio (z) = 0.37304 0.15526
#
# Static dielectric constant tensor:
#      x y z
#    x 1.714780 0.000000 0.000000 
#    y 0.000000 1.661040 0.000000 
#    z 0.000000 0.000000 1.554350 
# 
# From -- ./inp_files/43904.got.cif
#   From: 2010.05.17/outbox.cif.g08.bks.cpg/sg52_22_cif.got.tgz:43904.got - 2010.06.03 12:15:38.
