data_PCOD9408736
_publ_section_title
;
Structure prediction by ZEFSAII (Michael W. Deem and Ramdas Pophale) SiO2 
 PCOD9408736
Probable space group: P N N A
;
_chemical_formula_sum "Si O2"
_cell_formula_units_Z 40
_cell_length_a 31.018713
_cell_length_b 5.580080
_cell_length_c 9.406360
_cell_angle_alpha 90.000000
_cell_angle_beta 90.000000
_cell_angle_gamma 90.000000
_cell_volume 1628.117693
_symmetry_space_group_name_H-M "P N N A"
_symmetry_group_IT_number 52
_symmetry_cell_setting 'orthorhombic'
loop_
_space_group_symop_operation_xyz
x,y,z
1/2-x,-y,z
x,1/2-y,1/2-z
1/2-x,1/2+y,1/2-z
-x,-y,-z
1/2+x,y,-z
-x,1/2+y,1/2+z
1/2+x,1/2-y,1/2+z
loop_
_atom_site_type_symbol
_atom_site_label
_atom_site_fract_x
_atom_site_fract_y
_atom_site_fract_z
Si Si1 0.921772 0.000000 0.882211
Si Si2 0.671685 0.500000 0.575193
Si Si3 0.869728 0.000000 0.239362
Si Si4 0.546148 0.500000 0.927979
Si Si5 0.798344 0.500000 0.008379
O O1 0.930425 0.248894 0.962026
O O2 0.952452 0.000000 0.744373
O O3 0.930425 0.751106 0.962026
O O4 0.872077 1.000000 0.833348
O O5 0.653888 0.500000 0.412305
O O6 0.695590 0.244828 0.581770
O O7 0.695590 0.755172 0.581770
O O8 0.894191 0.250000 0.250000
O O9 0.894191 0.750000 0.250000
O O10 0.833337 0.000000 0.363893
O O11 0.500000 0.500000 0.000000
O O12 0.750000 0.500000 0.068779
#
# Coordination Sequence:
#
# PCOD9408736 Si02
#       5
#     8   8   8   8   8
#     4  10  21  38  65  91 123 157 193 250 301 365
#     4  10  19  32  52  81 117 156 207 243 303 356
#     4   8  16  27  44  66 111 147 203 240 294 335
#     4  10  21  40  68  91 118 145 200 238 306 371
#     4  10  19  31  51  79 121 165 211 259 296 334
#
# _framework density 24.568247
#
# number of rings (size 3 to 8) (size 9 to 14) (size 15 to 20)
#    0.000    2.400    0.000    2.400    0.000    7.200 
#    0.000    0.000   79.200    0.000    0.000   56.000 
#    0.000    0.000    0.000    0.000    0.000    0.000 
#
# Total GULP energy -223208.638924 kJ/mol
# GULP energy per Si atom -5580.215973 kJ/mol
# Density = 2.451233 g / cm^3
# Si number density = 24.568247 Si / 1000 Ang^3
#
#
#
# Elastic Constant Matrix: (Units=GPa)
#
#
# Indices 1 2 3 4 5 6 
#
# 1 77.0118 25.9707 24.3323 0.0000 0.0000 0.0000
# 2 25.9707 296.7936 9.8738 0.0000 0.0000 0.0000
# 3 24.3323 9.8738 104.7391 0.0000 0.0000 0.0000
# 4 0.0000 0.0000 0.0000 -12.0671 0.0000 0.0000
# 5 0.0000 0.0000 0.0000 0.0000 25.5931 0.0000
# 6 0.0000 0.0000 0.0000 0.0000 0.0000 29.0203
#
#
#
# Elastic Compliance Matrix: (Units=1/GPa)
#
#
# Indices 1 2 3 4 5 6 
#
# 1 0.014396 -0.001152 -0.003236 0.000000 0.000000 0.000000
# 2 -0.001152 0.003472 -0.000060 0.000000 0.000000 0.000000
# 3 -0.003236 -0.000060 0.010305 0.000000 0.000000 0.000000
# 4 0.000000 0.000000 0.000000 -0.082870 0.000000 0.000000
# 5 0.000000 0.000000 0.000000 0.000000 0.039073 0.000000
# 6 0.000000 0.000000 0.000000 0.000000 0.000000 0.034459
#
#
# Mechanical properties :
#
#
# Convention : Reuss Voigt Hill
#
# Bulk Modulus (GPa) = 51.87282 66.54422 59.20852
# Shear Modulus (GPa) = 146.38825 36.40042 91.39434
#
# Velocity S-wave (km/s) = 7.72746 3.85334 6.10581
# Velocity P-wave (km/s) = 10.03882 6.85141 8.59418
#
# Compressibility (1/GPa) = 0.01927792
#
# Stress axis : x y z
#
# Youngs Moduli (GPa) = 69.46427 288.00682 97.04147
#
# Poissons Ratio (x) = 0.33180 0.31400
# Poissons Ratio (y) = 0.08003 0.00579
# Poissons Ratio (z) = 0.22477 0.01719
#
# Static dielectric constant tensor:
#      x y z
#    x 1.877510 0.000000 0.000000 
#    y 0.000000 2.031440 0.000000 
#    z 0.000000 0.000000 1.964670 
# 
# From -- ./inp_files/22642.got.cif
#   From: 2010.05.17/outbox.cif.g08.bks.cpg/sg52_12_cif.got.tgz:22642.got - 2010.06.03 12:15:38.
