data_PCOD9408673
_publ_section_title
;
Structure prediction by ZEFSAII (Michael W. Deem and Ramdas Pophale) SiO2 
 PCOD9408673
Probable space group: P N N A
;
_chemical_formula_sum "Si O2"
_cell_formula_units_Z 40
_cell_length_a 5.313382
_cell_length_b 20.376534
_cell_length_c 22.795077
_cell_angle_alpha 90.000000
_cell_angle_beta 90.000000
_cell_angle_gamma 90.000000
_cell_volume 2467.984440
_symmetry_space_group_name_H-M "P N N A"
_symmetry_group_IT_number 52
_symmetry_cell_setting 'orthorhombic'
loop_
_space_group_symop_operation_xyz
x,y,z
1/2-x,-y,z
x,1/2-y,1/2-z
1/2-x,1/2+y,1/2-z
-x,-y,-z
1/2+x,y,-z
-x,1/2+y,1/2+z
1/2+x,1/2-y,1/2+z
loop_
_atom_site_type_symbol
_atom_site_label
_atom_site_fract_x
_atom_site_fract_y
_atom_site_fract_z
Si Si1 0.720581 0.627220 0.358306
Si Si2 0.777738 0.296847 0.662418
Si Si3 0.211784 0.653750 0.202341
Si Si4 0.444436 0.426351 0.523217
Si Si5 0.215073 0.577273 0.775766
O O1 0.490533 0.678429 0.360031
O O2 0.657354 0.577466 0.410788
O O3 0.717219 0.593017 0.294436
O O4 0.984162 0.665354 0.365252
O O5 0.785744 0.318893 0.730821
O O6 0.789916 0.218187 0.661827
O O7 0.457577 0.607759 0.198598
O O8 0.954579 0.613844 0.196718
O O9 0.500000 0.500000 0.500000
O O10 0.220032 0.395148 0.484879
O O11 0.250000 0.500000 0.783765
#
# Coordination Sequence:
#
# PCOD9408673 Si02
#       5
#     8   8   8   8   8
#     4  10  19  31  46  65  81 117 165 195 233 262
#     4   9  17  30  48  62  82 108 153 204 223 278
#     4   9  17  30  43  64  86 113 144 189 245 256
#     4  10  21  34  45  61  86 123 153 200 240 271
#     4  10  19  28  43  65  92 118 149 189 222 286
#
# _framework density 16.207557000000001
#
# number of rings (size 3 to 8) (size 9 to 14) (size 15 to 20)
#    0.000    2.400    0.000    3.000    2.800    4.800 
#    7.200    0.000    0.000    0.000    0.000    0.000 
#    0.000    0.000    0.000    0.000    0.000  252.000 
#
# Total GULP energy -222753.111700 kJ/mol
# GULP energy per Si atom -5568.827792 kJ/mol
# Density = 1.617067 g / cm^3
# Si number density = 16.207557 Si / 1000 Ang^3
#
#
#
# Elastic Constant Matrix: (Units=GPa)
#
#
# Indices 1 2 3 4 5 6 
#
# 1 151.3375 50.7463 11.6136 0.0000 0.0000 0.0000
# 2 50.7463 111.4551 16.2484 0.0000 0.0000 0.0000
# 3 11.6136 16.2484 23.3890 0.0000 0.0000 0.0000
# 4 0.0000 0.0000 0.0000 17.4115 0.0000 0.0000
# 5 0.0000 0.0000 0.0000 0.0000 15.0073 0.0000
# 6 0.0000 0.0000 0.0000 0.0000 0.0000 21.9150
#
#
#
# Elastic Compliance Matrix: (Units=1/GPa)
#
#
# Indices 1 2 3 4 5 6 
#
# 1 0.007850 -0.003345 -0.001574 0.000000 0.000000 0.000000
# 2 -0.003345 0.011408 -0.006265 0.000000 0.000000 0.000000
# 3 -0.001574 -0.006265 0.047889 0.000000 0.000000 0.000000
# 4 0.000000 0.000000 0.000000 0.057433 0.000000 0.000000
# 5 0.000000 0.000000 0.000000 0.000000 0.066634 0.000000
# 6 0.000000 0.000000 0.000000 0.000000 0.000000 0.045631
#
#
# Mechanical properties :
#
#
# Convention : Reuss Voigt Hill
#
# Bulk Modulus (GPa) = 22.33134 49.26647 35.79890
# Shear Modulus (GPa) = 18.23885 24.70496 21.47190
#
# Velocity S-wave (km/s) = 3.35823 3.90845 3.64374
# Velocity P-wave (km/s) = 5.37078 7.12960 6.31175
#
# Compressibility (1/GPa) = 0.04478012
#
# Stress axis : x y z
#
# Youngs Moduli (GPa) = 127.38688 87.65484 20.88160
#
# Poissons Ratio (x) = 0.29318 0.03287
# Poissons Ratio (y) = 0.42607 0.13082
# Poissons Ratio (z) = 0.20055 0.54913
#
# Static dielectric constant tensor:
#      x y z
#    x 1.622240 0.000000 0.000000 
#    y 0.000000 1.572580 0.000000 
#    z 0.000000 0.000000 1.549370 
# 
# From -- ./inp_files/35043.got.cif
#   From: 2010.05.17/outbox.cif.g08.bks.cpg/sg52_18_cif.got.tgz:35043.got - 2010.06.03 12:15:38.
