data_PCOD9408781
_publ_section_title
;
Structure prediction by ZEFSAII (Michael W. Deem and Ramdas Pophale) SiO2 
 PCOD9408781
Probable space group: P N N A
;
_chemical_formula_sum "Si O2"
_cell_formula_units_Z 60
_cell_length_a 9.240904
_cell_length_b 27.491955
_cell_length_c 9.706412
_cell_angle_alpha 90.000000
_cell_angle_beta 90.000000
_cell_angle_gamma 90.000000
_cell_volume 2465.918986
_symmetry_space_group_name_H-M "P N N A"
_symmetry_group_IT_number 52
_symmetry_cell_setting 'orthorhombic'
loop_
_space_group_symop_operation_xyz
x,y,z
1/2-x,-y,z
x,1/2-y,1/2-z
1/2-x,1/2+y,1/2-z
-x,-y,-z
1/2+x,y,-z
-x,1/2+y,1/2+z
1/2+x,1/2-y,1/2+z
loop_
_atom_site_type_symbol
_atom_site_label
_atom_site_fract_x
_atom_site_fract_y
_atom_site_fract_z
Si Si1 0.708885 0.250000 0.250000
Si Si2 0.929895 0.542833 0.119975
Si Si3 0.081499 0.337785 0.622622
Si Si4 0.805395 0.381326 0.203833
Si Si5 0.563291 0.048992 0.702783
Si Si6 0.261523 0.685772 0.067972
Si Si7 0.041679 0.751030 0.974124
Si Si8 0.832430 0.101177 0.752353
O O1 0.604413 0.296225 0.259488
O O2 0.824733 0.242828 0.129709
O O3 0.793653 0.572806 0.168479
O O4 0.965980 0.498897 0.225197
O O5 0.069268 0.577632 0.132224
O O6 0.900254 0.535751 0.957603
O O7 0.235990 0.363533 0.650267
O O8 0.037355 0.302318 0.498794
O O9 0.952908 0.376252 0.646309
O O10 0.964806 0.402949 0.211412
O O11 0.780593 0.343499 0.075392
O O12 0.709786 0.061123 0.785459
O O13 0.415834 0.712714 0.063746
O O14 0.251431 0.646439 0.187244
O O15 0.138102 0.726007 0.092291
#
# Coordination Sequence:
#
# PCOD9408781 Si02
#       8
#     4   8   8   8   8   8   8   8
#     4  12  24  46  68  88 126 166 218 288 334 396
#     4  10  19  32  53  87 135 173 221 272 327 404
#     4  11  24  44  59  87 127 172 220 281 329 393
#     4  11  20  35  58  84 132 177 215 270 333 392
#     4  11  19  32  54  90 126 179 224 266 329 409
#     4  12  21  36  60  88 126 174 222 263 337 388
#     4  12  25  42  65  87 122 172 219 274 337 389
#     4  11  22  34  59  87 129 173 221 270 328 395
#
# _framework density 24.331700999999999
#
# number of rings (size 3 to 8) (size 9 to 14) (size 15 to 20)
#    0.000    0.800    5.333    4.000    0.000    3.200 
#    0.000    0.000    0.000    0.000    0.000    0.000 
#    0.000   51.200    0.000    0.000    0.000    0.000 
#
# Total GULP energy -334186.094472 kJ/mol
# GULP energy per Si atom -5569.768241 kJ/mol
# Density = 2.427632 g / cm^3
# Si number density = 24.331701 Si / 1000 Ang^3
#
#
#
# Elastic Constant Matrix: (Units=GPa)
#
#
# Indices 1 2 3 4 5 6 
#
# 1 120.5874 12.7173 13.8866 0.0000 0.0000 0.0000
# 2 12.7173 68.2295 9.5862 0.0000 0.0000 0.0000
# 3 13.8866 9.5862 17.9566 0.0000 0.0000 0.0000
# 4 0.0000 0.0000 0.0000 22.0387 0.0000 0.0000
# 5 0.0000 0.0000 0.0000 0.0000 27.8777 0.0000
# 6 0.0000 0.0000 0.0000 0.0000 0.0000 43.0419
#
#
#
# Elastic Compliance Matrix: (Units=1/GPa)
#
#
# Indices 1 2 3 4 5 6 
#
# 1 0.009141 -0.000768 -0.006659 0.000000 0.000000 0.000000
# 2 -0.000768 0.015909 -0.007899 0.000000 0.000000 0.000000
# 3 -0.006659 -0.007899 0.065056 0.000000 0.000000 0.000000
# 4 0.000000 0.000000 0.000000 0.045375 0.000000 0.000000
# 5 0.000000 0.000000 0.000000 0.000000 0.035871 0.000000
# 6 0.000000 0.000000 0.000000 0.000000 0.000000 0.023233
#
#
# Mechanical properties :
#
#
# Convention : Reuss Voigt Hill
#
# Bulk Modulus (GPa) = 16.81973 31.01708 23.91840
# Shear Modulus (GPa) = 20.40356 29.96390 25.18373
#
# Velocity S-wave (km/s) = 2.89893 3.51305 3.22066
# Velocity P-wave (km/s) = 4.25826 5.40653 4.86638
#
# Compressibility (1/GPa) = 0.05945400
#
# Stress axis : x y z
#
# Youngs Moduli (GPa) = 109.40268 62.85574 15.37132
#
# Poissons Ratio (x) = 0.04828 0.10235
# Poissons Ratio (y) = 0.08404 0.12142
# Poissons Ratio (z) = 0.72847 0.49652
#
# Static dielectric constant tensor:
#      x y z
#    x 1.936640 0.000000 0.000000 
#    y 0.000000 2.145030 0.000000 
#    z 0.000000 0.000000 2.052450 
# 
# From -- ./inp_files/17207.got.cif
#   From: 2010.05.17/outbox.cif.g08.bks.cpg/sg52_9_cif.got.tgz:17207.got - 2010.06.03 12:15:38.
