data_PCOD9408682
_publ_section_title
;
Structure prediction by ZEFSAII (Michael W. Deem and Ramdas Pophale) SiO2 
 PCOD9408682
Probable space group: P N N A
;
_chemical_formula_sum "Si O2"
_cell_formula_units_Z 64
_cell_length_a 5.605829
_cell_length_b 15.433924
_cell_length_c 27.271443
_cell_angle_alpha 90.000000
_cell_angle_beta 90.000000
_cell_angle_gamma 90.000000
_cell_volume 2359.523578
_symmetry_space_group_name_H-M "P N N A"
_symmetry_group_IT_number 52
_symmetry_cell_setting 'orthorhombic'
loop_
_space_group_symop_operation_xyz
x,y,z
1/2-x,-y,z
x,1/2-y,1/2-z
1/2-x,1/2+y,1/2-z
-x,-y,-z
1/2+x,y,-z
-x,1/2+y,1/2+z
1/2+x,1/2-y,1/2+z
loop_
_atom_site_type_symbol
_atom_site_label
_atom_site_fract_x
_atom_site_fract_y
_atom_site_fract_z
Si Si1 0.614170 0.394732 0.016927
Si Si2 0.650414 0.374584 0.198005
Si Si3 0.195359 0.398396 0.688705
Si Si4 0.598289 0.211326 0.397366
Si Si5 0.898267 0.734938 0.556640
Si Si6 0.503506 0.034242 0.944518
Si Si7 0.315422 0.834072 0.182709
Si Si8 0.652383 0.127004 0.703278
O O1 0.557925 0.380245 0.074102
O O2 0.379219 0.430065 0.990417
O O3 0.634458 0.298644 0.989883
O O4 0.670265 0.356307 0.256203
O O5 0.626770 0.294629 0.160786
O O6 0.397169 0.417565 0.188881
O O7 0.906170 0.411796 0.184980
O O8 0.250000 0.500000 0.697259
O O9 0.432777 0.366234 0.660083
O O10 0.935874 0.376577 0.665934
O O11 0.354571 0.260026 0.413979
O O12 0.863098 0.233208 0.416121
O O13 0.961345 0.636141 0.547169
O O14 0.750000 0.000000 0.920642
O O15 0.250000 0.000000 0.922432
O O16 0.500000 0.000000 0.000000
O O17 0.341858 0.871485 0.237975
O O18 0.334459 0.729419 0.188112
#
# Coordination Sequence:
#
# PCOD9408682 Si02
#       8
#     8   8   8   8   8   8   8   8
#     4   8  16  25  42  56  84 111 144 191 244 265
#     4  10  19  31  47  74 100 130 158 186 239 294
#     4  10  19  31  49  75 109 126 150 192 236 284
#     4  10  19  29  46  63  91 124 157 190 238 293
#     4  10  19  31  44  64  91 116 154 208 248 279
#     4  10  21  27  43  64  88 108 142 186 247 306
#     4   9  17  30  49  74  97 127 156 188 239 276
#     4   9  17  30  49  70 101 122 153 203 228 272
#
# _framework density 27.124119
#
# number of rings (size 3 to 8) (size 9 to 14) (size 15 to 20)
#    0.000    2.500    0.000    2.625   10.500    3.000 
#    0.000    0.000    0.000    0.000    0.000   30.625 
#    0.000    9.000    0.000    0.000    0.000   13.750 
#
# Total GULP energy -357190.453294 kJ/mol
# GULP energy per Si atom -5581.100833 kJ/mol
# Density = 2.706238 g / cm^3
# Si number density = 27.124119 Si / 1000 Ang^3
#
#
#
# Elastic Constant Matrix: (Units=GPa)
#
#
# Indices 1 2 3 4 5 6 
#
# 1 335.9647 55.0597 23.7226 0.0000 0.0000 0.0000
# 2 55.0597 70.5553 15.6016 0.0000 0.0000 0.0000
# 3 23.7226 15.6016 94.3036 0.0000 0.0000 0.0000
# 4 0.0000 0.0000 0.0000 74.0009 0.0000 0.0000
# 5 0.0000 0.0000 0.0000 0.0000 24.7810 0.0000
# 6 0.0000 0.0000 0.0000 0.0000 0.0000 48.6325
#
#
#
# Elastic Compliance Matrix: (Units=1/GPa)
#
#
# Indices 1 2 3 4 5 6 
#
# 1 0.003430 -0.002580 -0.000436 0.000000 0.000000 0.000000
# 2 -0.002580 0.016653 -0.002106 0.000000 0.000000 0.000000
# 3 -0.000436 -0.002106 0.011062 0.000000 0.000000 0.000000
# 4 0.000000 0.000000 0.000000 0.013513 0.000000 0.000000
# 5 0.000000 0.000000 0.000000 0.000000 0.040353 0.000000
# 6 0.000000 0.000000 0.000000 0.000000 0.000000 0.020562
#
#
# Mechanical properties :
#
#
# Convention : Reuss Voigt Hill
#
# Bulk Modulus (GPa) = 47.84607 76.62127 62.23367
# Shear Modulus (GPa) = 40.72141 56.57887 48.65014
#
# Velocity S-wave (km/s) = 3.87886 4.57215 4.23970
# Velocity P-wave (km/s) = 6.14319 7.49549 6.85278
#
# Compressibility (1/GPa) = 0.02090036
#
# Stress axis : x y z
#
# Youngs Moduli (GPa) = 291.52974 60.05046 90.39859
#
# Poissons Ratio (x) = 0.15496 0.03941
# Poissons Ratio (y) = 0.75227 0.19037
# Poissons Ratio (z) = 0.12710 0.12646
#
# Static dielectric constant tensor:
#      x y z
#    x 2.223490 0.000000 0.000000 
#    y 0.000000 1.786140 0.000000 
#    z 0.000000 0.000000 2.102810 
# 
# From -- ./inp_files/43910.got.cif
#   From: 2010.05.17/outbox.cif.g08.bks.cpg/sg52_22_cif.got.tgz:43910.got - 2010.06.03 12:15:38.
