data_PCOD9408167
_publ_section_title
;
Structure prediction by ZEFSAII (Michael W. Deem and Ramdas Pophale) SiO2 
 PCOD9408167
Probable space group: P N N A
;
_chemical_formula_sum "Si O2"
_cell_formula_units_Z 64
_cell_length_a 10.016822
_cell_length_b 16.594633
_cell_length_c 22.775291
_cell_angle_alpha 90.000000
_cell_angle_beta 90.000000
_cell_angle_gamma 90.000000
_cell_volume 3785.833791
_symmetry_space_group_name_H-M "P N N A"
_symmetry_group_IT_number 52
_symmetry_cell_setting 'orthorhombic'
loop_
_space_group_symop_operation_xyz
x,y,z
1/2-x,-y,z
x,1/2-y,1/2-z
1/2-x,1/2+y,1/2-z
-x,-y,-z
1/2+x,y,-z
-x,1/2+y,1/2+z
1/2+x,1/2-y,1/2+z
loop_
_atom_site_type_symbol
_atom_site_label
_atom_site_fract_x
_atom_site_fract_y
_atom_site_fract_z
Si Si1 0.195371 0.814422 0.303273
Si Si2 0.503553 0.422739 0.260453
Si Si3 0.266039 0.162152 0.772782
Si Si4 0.937087 0.040596 0.057221
Si Si5 0.069196 0.682308 0.378633
Si Si6 0.691689 0.379551 0.404315
Si Si7 0.063633 0.388210 0.253152
Si Si8 0.309086 0.911679 0.126836
O O1 0.191810 0.750000 0.250000
O O2 0.089407 0.883129 0.288191
O O3 0.134790 0.765545 0.358020
O O4 0.341679 0.855910 0.299237
O O5 0.659101 0.403327 0.249769
O O6 0.468343 0.371821 0.320121
O O7 0.467087 0.516518 0.260476
O O8 0.219026 0.250000 0.750000
O O9 0.258380 0.148860 0.843251
O O10 0.418042 0.151189 0.752897
O O11 0.811880 0.100885 0.051030
O O12 0.057971 0.082567 0.089778
O O13 0.882332 0.966974 0.097602
O O14 0.000000 0.000000 0.000000
O O15 0.190886 0.633628 0.406432
O O16 0.931828 0.681099 0.414954
O O17 0.149231 0.369831 0.312168
O O18 0.250000 0.000000 0.139542
#
# Coordination Sequence:
#
# PCOD9408167 Si02
#       8
#     8   8   8   8   8   8   8   8
#     4  10  18  29  42  67  93 120 166 225 259 315
#     4  10  18  29  42  60  90 126 166 210 255 309
#     4  11  22  32  47  71  99 134 185 230 270 330
#     4  11  24  35  51  75 100 134 189 248 277 314
#     4  10  19  29  49  64  90 126 172 220 270 318
#     4  10  21  36  51  67  98 137 176 228 283 324
#     4  12  19  29  46  69  94 130 176 226 261 310
#     4  12  18  31  46  67  91 127 173 225 273 304
#
# _framework density 16.905125999999999
#
# number of rings (size 3 to 8) (size 9 to 14) (size 15 to 20)
#    0.000    1.250    6.250    3.750    5.250    0.000 
#    0.000    0.000    0.000    0.000    0.000    0.000 
#    0.000    0.000    0.000    0.000    0.000  152.500 
#
# Total GULP energy -356389.359609 kJ/mol
# GULP energy per Si atom -5568.583744 kJ/mol
# Density = 1.686665 g / cm^3
# Si number density = 16.905126 Si / 1000 Ang^3
#
#
#
# Elastic Constant Matrix: (Units=GPa)
#
#
# Indices 1 2 3 4 5 6 
#
# 1 158.2669 24.7202 27.1528 0.0000 0.0000 0.0000
# 2 24.7202 56.1843 21.0380 0.0000 0.0000 0.0000
# 3 27.1528 21.0380 37.7982 0.0000 0.0000 0.0000
# 4 0.0000 0.0000 0.0000 -0.1609 0.0000 0.0000
# 5 0.0000 0.0000 0.0000 0.0000 -2.6561 0.0000
# 6 0.0000 0.0000 0.0000 0.0000 0.0000 32.5552
#
#
#
# Elastic Compliance Matrix: (Units=1/GPa)
#
#
# Indices 1 2 3 4 5 6 
#
# 1 0.007316 -0.001580 -0.004376 0.000000 0.000000 0.000000
# 2 -0.001580 0.022826 -0.011569 0.000000 0.000000 0.000000
# 3 -0.004376 -0.011569 0.036039 0.000000 0.000000 0.000000
# 4 0.000000 0.000000 0.000000 -6.213198 0.000000 0.000000
# 5 0.000000 0.000000 0.000000 0.000000 -0.376496 0.000000
# 6 0.000000 0.000000 0.000000 0.000000 0.000000 0.030717
#
#
# Mechanical properties :
#
#
# Convention : Reuss Voigt Hill
#
# Bulk Modulus (GPa) = 32.12354 44.23014 38.17684
# Shear Modulus (GPa) = -0.77551 17.90354 8.56401
#
# Velocity S-wave (km/s) = -0.67804 3.25785 2.25320
# Velocity P-wave (km/s) = 4.29308 6.35390 5.42229
#
# Compressibility (1/GPa) = 0.03112982
#
# Stress axis : x y z
#
# Youngs Moduli (GPa) = 136.68606 43.80971 27.74760
#
# Poissons Ratio (x) = 0.06924 0.12142
# Poissons Ratio (y) = 0.21602 0.32102
# Poissons Ratio (z) = 0.59813 0.50685
#
# Static dielectric constant tensor:
#      x y z
#    x 1.653770 0.000000 0.000000 
#    y 0.000000 1.610780 0.000000 
#    z 0.000000 0.000000 1.602680 
# 
# From -- ./inp_files/44647.got.cif
#   From: 2010.05.17/outbox.cif.g08.bks.cpg/sg52_23_cif.got.tgz:44647.got - 2010.06.03 12:15:38.
