data_PCOD9408705
_publ_section_title
;
Structure prediction by ZEFSAII (Michael W. Deem and Ramdas Pophale) SiO2 
 PCOD9408705
Probable space group: P N N A
;
_chemical_formula_sum "Si O2"
_cell_formula_units_Z 52
_cell_length_a 19.326842
_cell_length_b 8.708344
_cell_length_c 13.260352
_cell_angle_alpha 90.000000
_cell_angle_beta 90.000000
_cell_angle_gamma 90.000000
_cell_volume 2231.780740
_symmetry_space_group_name_H-M "P N N A"
_symmetry_group_IT_number 52
_symmetry_cell_setting 'orthorhombic'
loop_
_space_group_symop_operation_xyz
x,y,z
1/2-x,-y,z
x,1/2-y,1/2-z
1/2-x,1/2+y,1/2-z
-x,-y,-z
1/2+x,y,-z
-x,1/2+y,1/2+z
1/2+x,1/2-y,1/2+z
loop_
_atom_site_type_symbol
_atom_site_label
_atom_site_fract_x
_atom_site_fract_y
_atom_site_fract_z
Si Si1 0.908829 0.642352 0.924812
Si Si2 0.134870 0.823820 0.357719
Si Si3 0.984136 0.325365 0.530614
Si Si4 0.446660 0.750000 0.750000
Si Si5 0.767985 0.668748 0.572614
Si Si6 0.262888 0.221158 0.634633
Si Si7 0.131122 0.012829 0.630205
O O1 0.891785 0.499940 0.852045
O O2 0.846529 0.767714 0.916807
O O3 0.980878 0.731192 0.937618
O O4 0.910306 0.548482 0.030246
O O5 0.121492 0.750000 0.250000
O O6 0.215692 0.797967 0.383181
O O7 0.093498 0.725938 0.442516
O O8 0.018090 0.287079 0.641645
O O9 0.000000 0.500000 0.500000
O O10 0.403535 0.904257 0.724342
O O11 0.750000 0.500000 0.617239
O O12 0.747654 0.659991 0.454343
O O13 0.245953 0.250000 0.750000
O O14 0.201962 0.103416 0.606845
O O15 0.340629 0.157111 0.638971
#
# Coordination Sequence:
#
# PCOD9408705 Si02
#       7
#     8   8   8   4   8   8   8
#     4  10  22  45  71  94 140 189 228 291 361 413
#     4  12  25  46  73 102 140 189 240 293 354 417
#     4  11  24  45  73 101 139 184 237 292 353 426
#     4  10  20  40  66  92 134 176 230 276 354 402
#     4  11  24  41  65 103 141 183 236 296 354 420
#     4  10  19  30  54  91 136 169 220 266 346 412
#     4   9  18  33  56  90 127 178 210 274 339 418
#
# _framework density 23.299779000000001
#
# number of rings (size 3 to 8) (size 9 to 14) (size 15 to 20)
#    0.000    1.538    3.077    1.846    2.154    2.462 
#    0.000    2.308    0.000    0.000    0.000    0.000 
#    0.000    0.000    0.000    0.000    0.000    0.000 
#
# Total GULP energy -289500.401231 kJ/mol
# GULP energy per Si atom -5567.315408 kJ/mol
# Density = 2.324675 g / cm^3
# Si number density = 23.299779 Si / 1000 Ang^3
#
#
#
# Elastic Constant Matrix: (Units=GPa)
#
#
# Indices 1 2 3 4 5 6 
#
# 1 73.7572 6.1479 6.0415 0.0000 0.0000 0.0000
# 2 6.1479 83.9510 28.4600 0.0000 0.0000 0.0000
# 3 6.0415 28.4600 70.3532 0.0000 0.0000 0.0000
# 4 0.0000 0.0000 0.0000 34.1646 0.0000 0.0000
# 5 0.0000 0.0000 0.0000 0.0000 15.7164 0.0000
# 6 0.0000 0.0000 0.0000 0.0000 0.0000 17.5185
#
#
#
# Elastic Compliance Matrix: (Units=1/GPa)
#
#
# Indices 1 2 3 4 5 6 
#
# 1 0.013689 -0.000700 -0.000892 0.000000 0.000000 0.000000
# 2 -0.000700 0.013841 -0.005539 0.000000 0.000000 0.000000
# 3 -0.000892 -0.005539 0.016531 0.000000 0.000000 0.000000
# 4 0.000000 0.000000 0.000000 0.029270 0.000000 0.000000
# 5 0.000000 0.000000 0.000000 0.000000 0.063628 0.000000
# 6 0.000000 0.000000 0.000000 0.000000 0.000000 0.057082
#
#
# Mechanical properties :
#
#
# Convention : Reuss Voigt Hill
#
# Bulk Modulus (GPa) = 33.55826 34.37333 33.96580
# Shear Modulus (GPa) = 22.91084 25.97403 24.44243
#
# Velocity S-wave (km/s) = 3.13917 3.34245 3.24240
# Velocity P-wave (km/s) = 5.25103 5.44799 5.35042
#
# Compressibility (1/GPa) = 0.02979893
#
# Stress axis : x y z
#
# Youngs Moduli (GPa) = 73.04896 72.25067 60.49136
#
# Poissons Ratio (x) = 0.05057 0.05398
# Poissons Ratio (y) = 0.05113 0.33505
# Poissons Ratio (z) = 0.06519 0.40019
#
# Static dielectric constant tensor:
#      x y z
#    x 1.984020 0.000000 0.000000 
#    y 0.000000 2.002800 0.000000 
#    z 0.000000 0.000000 1.901250 
# 
# From -- ./inp_files/28716.got.cif
#   From: 2010.05.17/outbox.cif.g08.bks.cpg/sg52_15_cif.got.tgz:28716.got - 2010.06.03 12:15:38.
