data_PCOD9408848
_publ_section_title
;
Structure prediction by ZEFSAII (Michael W. Deem and Ramdas Pophale) SiO2 
 PCOD9408848
Probable space group: P N N A
;
_chemical_formula_sum "Si O2"
_cell_formula_units_Z 56
_cell_length_a 11.581592
_cell_length_b 11.538452
_cell_length_c 20.284854
_cell_angle_alpha 90.000000
_cell_angle_beta 90.000000
_cell_angle_gamma 90.000000
_cell_volume 2710.738945
_symmetry_space_group_name_H-M "P N N A"
_symmetry_group_IT_number 52
_symmetry_cell_setting 'orthorhombic'
loop_
_space_group_symop_operation_xyz
x,y,z
1/2-x,-y,z
x,1/2-y,1/2-z
1/2-x,1/2+y,1/2-z
-x,-y,-z
1/2+x,y,-z
-x,1/2+y,1/2+z
1/2+x,1/2-y,1/2+z
loop_
_atom_site_type_symbol
_atom_site_label
_atom_site_fract_x
_atom_site_fract_y
_atom_site_fract_z
Si Si1 0.200717 0.275837 0.324496
Si Si2 0.119769 0.555172 0.965426
Si Si3 0.036915 0.062212 0.346699
Si Si4 0.391302 0.337145 0.090875
Si Si5 0.559428 0.289610 0.327182
Si Si6 0.969858 0.970217 0.807436
Si Si7 0.704995 0.630311 0.293047
O O1 0.242443 0.250000 0.250000
O O2 0.098715 0.184968 0.339856
O O3 0.299586 0.243839 0.374420
O O4 0.144779 0.401769 0.325053
O O5 0.250000 0.500000 0.968204
O O6 0.078093 0.571298 0.890700
O O7 0.126036 0.665826 0.013126
O O8 0.000000 0.500000 0.000000
O O9 0.018236 0.021812 0.272045
O O10 0.120500 0.968742 0.381938
O O11 0.515947 0.303371 0.120589
O O12 0.553167 0.250000 0.250000
O O13 0.479829 0.401911 0.334269
O O14 0.689500 0.330448 0.338557
O O15 0.084043 0.898547 0.826483
O O16 0.750000 0.500000 0.265684
O O17 0.686692 0.750000 0.250000
#
# Coordination Sequence:
#
# PCOD9408848 Si02
#       7
#     8   8   8   8   8   8   8
#     4  10  21  34  57  87 126 171 197 264 331 388
#     4  10  22  40  61  89 126 173 218 271 328 382
#     4  10  20  36  58  86 121 159 209 261 318 386
#     4  11  20  36  56  84 125 159 214 256 311 391
#     4  10  19  33  54  83 118 163 196 256 321 385
#     4  10  20  36  54  88 126 156 207 252 332 398
#     4   9  18  32  51  76 120 157 198 253 317 397
#
# _framework density 20.658571999999999
#
# number of rings (size 3 to 8) (size 9 to 14) (size 15 to 20)
#    0.000    2.000    1.429    3.857    0.000    2.286 
#    7.714    0.000    0.000    0.857    0.000    2.000 
#    0.000    0.000    0.000    0.000    0.000    0.000 
#
# Total GULP energy -311754.652146 kJ/mol
# GULP energy per Si atom -5567.047360 kJ/mol
# Density = 2.061155 g / cm^3
# Si number density = 20.658572 Si / 1000 Ang^3
#
#
#
# Elastic Constant Matrix: (Units=GPa)
#
#
# Indices 1 2 3 4 5 6 
#
# 1 86.1203 14.4959 34.4175 0.0000 0.0000 0.0000
# 2 14.4959 70.3146 18.4096 0.0000 0.0000 0.0000
# 3 34.4175 18.4096 62.1439 0.0000 0.0000 0.0000
# 4 0.0000 0.0000 0.0000 17.9628 0.0000 0.0000
# 5 0.0000 0.0000 0.0000 0.0000 21.1897 0.0000
# 6 0.0000 0.0000 0.0000 0.0000 0.0000 -0.2474
#
#
#
# Elastic Compliance Matrix: (Units=1/GPa)
#
#
# Indices 1 2 3 4 5 6 
#
# 1 0.014976 -0.000993 -0.008000 0.000000 0.000000 0.000000
# 2 -0.000993 0.015483 -0.004037 0.000000 0.000000 0.000000
# 3 -0.008000 -0.004037 0.021718 0.000000 0.000000 0.000000
# 4 0.000000 0.000000 0.000000 0.055671 0.000000 0.000000
# 5 0.000000 0.000000 0.000000 0.000000 0.047193 0.000000
# 6 0.000000 0.000000 0.000000 0.000000 0.000000 -4.042518
#
#
# Mechanical properties :
#
#
# Convention : Reuss Voigt Hill
#
# Bulk Modulus (GPa) = 38.28786 39.24718 38.76752
# Shear Modulus (GPa) = -1.29779 17.86476 8.28349
#
# Velocity S-wave (km/s) = -0.79346 2.94387 2.00460
# Velocity P-wave (km/s) = 4.21123 5.53123 4.91574
#
# Compressibility (1/GPa) = 0.02611794
#
# Stress axis : x y z
#
# Youngs Moduli (GPa) = 66.77362 64.58514 46.04403
#
# Poissons Ratio (x) = 0.06412 0.36836
# Poissons Ratio (y) = 0.06630 0.18588
# Poissons Ratio (z) = 0.53420 0.26073
#
# Static dielectric constant tensor:
#      x y z
#    x 1.837650 0.000000 0.000000 
#    y 0.000000 1.808770 0.000000 
#    z 0.000000 0.000000 1.780100 
# 
# From -- ./inp_files/36813.got.cif
#   From: 2010.05.17/outbox.cif.g08.bks.cpg/sg52_19_cif.got.tgz:36813.got - 2010.06.03 12:15:38.
