data_PCOD9408645
_publ_section_title
;
Structure prediction by ZEFSAII (Michael W. Deem and Ramdas Pophale) SiO2 
 PCOD9408645
Probable space group: P N N A
;
_chemical_formula_sum "Si O2"
_cell_formula_units_Z 60
_cell_length_a 5.396342
_cell_length_b 25.622877
_cell_length_c 21.320426
_cell_angle_alpha 90.000000
_cell_angle_beta 90.000000
_cell_angle_gamma 90.000000
_cell_volume 2947.971195
_symmetry_space_group_name_H-M "P N N A"
_symmetry_group_IT_number 52
_symmetry_cell_setting 'orthorhombic'
loop_
_space_group_symop_operation_xyz
x,y,z
1/2-x,-y,z
x,1/2-y,1/2-z
1/2-x,1/2+y,1/2-z
-x,-y,-z
1/2+x,y,-z
-x,1/2+y,1/2+z
1/2+x,1/2-y,1/2+z
loop_
_atom_site_type_symbol
_atom_site_label
_atom_site_fract_x
_atom_site_fract_y
_atom_site_fract_z
Si Si1 0.093312 0.689712 0.766547
Si Si2 0.922235 0.349141 0.829090
Si Si3 0.250000 0.500000 0.664035
Si Si4 0.859611 0.450501 0.758483
Si Si5 0.689814 0.190446 0.922884
Si Si6 0.936959 0.847807 0.470976
Si Si7 0.012974 0.604787 0.662963
Si Si8 0.312767 0.769699 0.941403
O O1 0.051992 0.750000 0.750000
O O2 0.845024 0.670321 0.803630
O O3 0.135265 0.651116 0.705737
O O4 0.345447 0.685462 0.806669
O O5 0.941107 0.354759 0.903261
O O6 0.973173 0.406448 0.801181
O O7 0.454567 0.523797 0.709852
O O8 0.345787 0.445656 0.633341
O O9 0.750000 0.500000 0.795240
O O10 0.662183 0.421470 0.714687
O O11 0.630179 0.135767 0.891183
O O12 0.453565 0.227643 0.908734
O O13 0.954202 0.212153 0.900320
O O14 0.713957 0.191624 0.998558
O O15 0.654912 0.867121 0.482301
O O16 0.887452 0.785241 0.471646
#
# Coordination Sequence:
#
# PCOD9408645 Si02
#       8
#     8   8   4   8   8   8   8   8
#     4  11  24  38  55  93 132 163 193 241 317 386
#     4  11  24  40  60  89 125 162 203 249 310 367
#     4  10  18  40  60  86 116 152 212 252 288 372
#     4   9  20  40  61  89 116 156 201 253 307 375
#     4  10  20  34  56  80 114 149 200 245 281 349
#     4  12  22  39  60  85 117 162 213 247 291 358
#     4  10  22  34  62  86 122 155 205 245 307 355
#     4  10  20  36  53  81 113 159 207 231 295 348
#
# _framework density 20.352981
#
# number of rings (size 3 to 8) (size 9 to 14) (size 15 to 20)
#    0.000    1.600    4.000    1.200    5.600    0.000 
#    0.000    0.000    0.000    4.000    0.000    0.000 
#    0.000    0.000    0.000    0.000    0.000    0.000 
#
# Total GULP energy -334005.567388 kJ/mol
# GULP energy per Si atom -5566.759456 kJ/mol
# Density = 2.030666 g / cm^3
# Si number density = 20.352981 Si / 1000 Ang^3
#
#
#
# Elastic Constant Matrix: (Units=GPa)
#
#
# Indices 1 2 3 4 5 6 
#
# 1 98.8120 8.7863 -6.9225 0.0000 0.0000 0.0000
# 2 8.7863 69.5947 5.7788 0.0000 0.0000 0.0000
# 3 -6.9225 5.7788 36.6262 0.0000 0.0000 0.0000
# 4 0.0000 0.0000 0.0000 21.4435 0.0000 0.0000
# 5 0.0000 0.0000 0.0000 0.0000 22.0780 0.0000
# 6 0.0000 0.0000 0.0000 0.0000 0.0000 21.2866
#
#
#
# Elastic Compliance Matrix: (Units=1/GPa)
#
#
# Indices 1 2 3 4 5 6 
#
# 1 0.010408 -0.001497 0.002203 0.000000 0.000000 0.000000
# 2 -0.001497 0.014775 -0.002614 0.000000 0.000000 0.000000
# 3 0.002203 -0.002614 0.028132 0.000000 0.000000 0.000000
# 4 0.000000 0.000000 0.000000 0.046634 0.000000 0.000000
# 5 0.000000 0.000000 0.000000 0.000000 0.045294 0.000000
# 6 0.000000 0.000000 0.000000 0.000000 0.000000 0.046978
#
#
# Mechanical properties :
#
#
# Convention : Reuss Voigt Hill
#
# Bulk Modulus (GPa) = 20.20246 24.47980 22.34113
# Shear Modulus (GPa) = 23.52549 26.12098 24.82323
#
# Velocity S-wave (km/s) = 3.40350 3.58634 3.49612
# Velocity P-wave (km/s) = 5.03912 5.40397 5.22473
#
# Compressibility (1/GPa) = 0.04949893
#
# Stress axis : x y z
#
# Youngs Moduli (GPa) = 96.08281 67.68211 35.54701
#
# Poissons Ratio (x) = 0.10131 -0.07832
# Poissons Ratio (y) = 0.14383 0.09292
# Poissons Ratio (z) = -0.21170 0.17693
#
# Static dielectric constant tensor:
#      x y z
#    x 2.138590 0.000000 0.000000 
#    y 0.000000 1.768880 0.000000 
#    z 0.000000 0.000000 1.753780 
# 
# From -- ./inp_files/35277.got.cif
#   From: 2010.05.17/outbox.cif.g08.bks.cpg/sg52_18_cif.got.tgz:35277.got - 2010.06.03 12:15:38.
