data_PCOD9408626
_publ_section_title
;
Structure prediction by ZEFSAII (Michael W. Deem and Ramdas Pophale) SiO2 
 PCOD9408626
Probable space group: P N N A
;
_chemical_formula_sum "Si O2"
_cell_formula_units_Z 60
_cell_length_a 12.683812
_cell_length_b 24.268051
_cell_length_c 9.171217
_cell_angle_alpha 90.000000
_cell_angle_beta 90.000000
_cell_angle_gamma 90.000000
_cell_volume 2823.005112
_symmetry_space_group_name_H-M "P N N A"
_symmetry_group_IT_number 52
_symmetry_cell_setting 'orthorhombic'
loop_
_space_group_symop_operation_xyz
x,y,z
1/2-x,-y,z
x,1/2-y,1/2-z
1/2-x,1/2+y,1/2-z
-x,-y,-z
1/2+x,y,-z
-x,1/2+y,1/2+z
1/2+x,1/2-y,1/2+z
loop_
_atom_site_type_symbol
_atom_site_label
_atom_site_fract_x
_atom_site_fract_y
_atom_site_fract_z
Si Si1 0.912083 0.535535 0.813970
Si Si2 0.285490 0.556925 0.885069
Si Si3 0.643427 0.611808 0.515191
Si Si4 0.750000 0.000000 0.936086
Si Si5 0.137660 0.856020 0.490521
Si Si6 0.222020 0.186467 0.240056
Si Si7 0.015584 0.653011 0.750863
Si Si8 0.008475 0.417592 0.766973
O O1 0.843718 0.542626 0.960942
O O2 0.835865 0.526242 0.675307
O O3 0.980689 0.479957 0.816567
O O4 0.977603 0.590973 0.793233
O O5 0.250000 0.500000 0.817321
O O6 0.185339 0.592864 0.922018
O O7 0.367687 0.588631 0.783903
O O8 0.700143 0.553041 0.483722
O O9 0.718322 0.649913 0.617294
O O10 0.597409 0.645549 0.380413
O O11 0.541503 0.593852 0.610926
O O12 0.236772 0.835731 0.396215
O O13 0.076716 0.820594 0.611227
O O14 0.051666 0.877043 0.376060
O O15 0.254106 0.250000 0.250000
O O16 0.096335 0.181665 0.218933
#
# Coordination Sequence:
#
# PCOD9408626 Si02
#       8
#     8   8   8   4   8   8   8   8
#     4  11  17  33  57  88 128 176 216 253 307 372
#     4  12  18  30  56  93 129 169 217 266 307 367
#     4  10  24  43  64  94 135 175 212 262 330 401
#     4  10  18  38  62  88 140 180 206 254 322 396
#     4  11  21  38  64  93 123 165 219 266 315 382
#     4  11  25  48  71  91 124 167 216 280 338 382
#     4  12  24  41  67  97 132 169 217 265 324 395
#     4  10  20  34  56  88 132 176 215 257 307 379
#
# _framework density 21.253948000000001
#
# number of rings (size 3 to 8) (size 9 to 14) (size 15 to 20)
#    0.000    1.067    6.000    2.000    0.000    4.267 
#    3.600    0.000    0.000    0.000    0.000    0.000 
#    0.000    0.000    0.000    0.000    0.000    0.000 
#
# Total GULP energy -335269.500014 kJ/mol
# GULP energy per Si atom -5587.825000 kJ/mol
# Density = 2.120557 g / cm^3
# Si number density = 21.253948 Si / 1000 Ang^3
#
#
#
# Elastic Constant Matrix: (Units=GPa)
#
#
# Indices 1 2 3 4 5 6 
#
# 1 81.7981 1.9218 32.8798 0.0000 0.0000 0.0000
# 2 1.9218 62.0501 8.8032 0.0000 0.0000 0.0000
# 3 32.8798 8.8032 62.8894 0.0000 0.0000 0.0000
# 4 0.0000 0.0000 0.0000 4.5373 0.0000 0.0000
# 5 0.0000 0.0000 0.0000 0.0000 6.1895 0.0000
# 6 0.0000 0.0000 0.0000 0.0000 0.0000 12.0169
#
#
#
# Elastic Compliance Matrix: (Units=1/GPa)
#
#
# Indices 1 2 3 4 5 6 
#
# 1 0.015506 0.000683 -0.008203 0.000000 0.000000 0.000000
# 2 0.000683 0.016473 -0.002663 0.000000 0.000000 0.000000
# 3 -0.008203 -0.002663 0.020562 0.000000 0.000000 0.000000
# 4 0.000000 0.000000 0.000000 0.220397 0.000000 0.000000
# 5 0.000000 0.000000 0.000000 0.000000 0.161564 0.000000
# 6 0.000000 0.000000 0.000000 0.000000 0.000000 0.083216
#
#
# Mechanical properties :
#
#
# Convention : Reuss Voigt Hill
#
# Bulk Modulus (GPa) = 31.07856 32.66078 31.86967
# Shear Modulus (GPa) = 9.11065 15.42426 12.26745
#
# Velocity S-wave (km/s) = 2.07265 2.69683 2.40507
# Velocity P-wave (km/s) = 4.51465 5.00974 4.76862
#
# Compressibility (1/GPa) = 0.03217652
#
# Stress axis : x y z
#
# Youngs Moduli (GPa) = 64.48973 60.70662 48.63282
#
# Poissons Ratio (x) = -0.04149 0.39892
# Poissons Ratio (y) = -0.04408 0.12952
# Poissons Ratio (z) = 0.52899 0.16167
#
# Static dielectric constant tensor:
#      x y z
#    x 1.792520 0.000000 0.000000 
#    y 0.000000 1.817790 0.000000 
#    z 0.000000 0.000000 1.819800 
# 
# From -- ./inp_files/9057.got.cif
#   From: 2010.05.17/outbox.cif.g08.bks.cpg/sg52_5_cif.got.tgz:9057.got - 2010.06.03 12:15:38.
