data_PCOD9408055
_publ_section_title
;
Structure prediction by ZEFSAII (Michael W. Deem and Ramdas Pophale) SiO2 
 PCOD9408055
Probable space group: P N N A
;
_chemical_formula_sum "Si O2"
_cell_formula_units_Z 60
_cell_length_a 13.823148
_cell_length_b 10.183479
_cell_length_c 21.837908
_cell_angle_alpha 90.000000
_cell_angle_beta 90.000000
_cell_angle_gamma 90.000000
_cell_volume 3074.072898
_symmetry_space_group_name_H-M "P N N A"
_symmetry_group_IT_number 52
_symmetry_cell_setting 'orthorhombic'
loop_
_space_group_symop_operation_xyz
x,y,z
1/2-x,-y,z
x,1/2-y,1/2-z
1/2-x,1/2+y,1/2-z
-x,-y,-z
1/2+x,y,-z
-x,1/2+y,1/2+z
1/2+x,1/2-y,1/2+z
loop_
_atom_site_type_symbol
_atom_site_label
_atom_site_fract_x
_atom_site_fract_y
_atom_site_fract_z
Si Si1 0.071267 0.342798 0.480500
Si Si2 0.481677 0.397769 0.405238
Si Si3 0.831644 0.753054 0.868240
Si Si4 0.540072 0.904649 0.765076
Si Si5 0.349594 0.139810 0.408606
Si Si6 0.074347 0.894599 0.530387
Si Si7 0.750000 0.500000 0.706386
Si Si8 0.997077 0.563782 0.847153
O O1 0.056634 0.479483 0.444733
O O2 0.155231 0.278258 0.440927
O O3 0.074663 0.356374 0.553748
O O4 0.979592 0.246398 0.471404
O O5 0.494892 0.430349 0.334410
O O6 0.403200 0.280957 0.404504
O O7 0.746018 0.648827 0.868576
O O8 0.932324 0.696395 0.842393
O O9 0.794695 0.881800 0.833990
O O10 0.529590 0.750000 0.750000
O O11 0.654504 0.942583 0.760727
O O12 0.483339 0.996908 0.717465
O O13 0.340017 0.109191 0.481025
O O14 0.422758 0.036663 0.379612
O O15 0.082310 0.923344 0.602611
O O16 0.000000 0.000000 0.500000
#
# Coordination Sequence:
#
# PCOD9408055 Si02
#       8
#     8   8   8   8   8   8   4   8
#     4   9  18  31  49  67  93 125 164 212 247 284
#     4  10  18  33  48  66  95 131 167 204 244 290
#     4  11  19  33  47  72  97 131 165 207 253 293
#     4  12  23  33  47  68 101 140 170 196 243 306
#     4  10  17  31  49  68  96 126 166 206 246 293
#     4   8  17  32  48  65  90 131 164 205 245 288
#     4  12  24  32  44  74 106 140 166 198 242 304
#     4  10  21  32  47  67  98 137 165 198 243 302
#
# _framework density 19.518080000000001
#
# number of rings (size 3 to 8) (size 9 to 14) (size 15 to 20)
#    0.000    1.867    4.000    0.400    3.733    0.000 
#    0.000    0.000    0.000    0.000    0.000    0.000 
#    0.000   14.933    0.000    0.000    0.000    0.000 
#
# Total GULP energy -334087.661696 kJ/mol
# GULP energy per Si atom -5568.127695 kJ/mol
# Density = 1.947366 g / cm^3
# Si number density = 19.518080 Si / 1000 Ang^3
#
#
#
# Elastic Constant Matrix: (Units=GPa)
#
#
# Indices 1 2 3 4 5 6 
#
# 1 1.5206 3.1193 5.4653 0.0000 0.0000 0.0000
# 2 3.1193 83.3503 14.4147 0.0000 0.0000 0.0000
# 3 5.4653 14.4147 155.1941 0.0000 0.0000 0.0000
# 4 0.0000 0.0000 0.0000 30.1256 0.0000 0.0000
# 5 0.0000 0.0000 0.0000 0.0000 20.5686 0.0000
# 6 0.0000 0.0000 0.0000 0.0000 0.0000 17.3067
#
#
#
# Elastic Compliance Matrix: (Units=1/GPa)
#
#
# Indices 1 2 3 4 5 6 
#
# 1 0.803221 -0.025578 -0.025910 0.000000 0.000000 0.000000
# 2 -0.025578 0.013008 -0.000307 0.000000 0.000000 0.000000
# 3 -0.025910 -0.000307 0.007385 0.000000 0.000000 0.000000
# 4 0.000000 0.000000 0.000000 0.033194 0.000000 0.000000
# 5 0.000000 0.000000 0.000000 0.000000 0.048618 0.000000
# 6 0.000000 0.000000 0.000000 0.000000 0.000000 0.057781
#
#
# Mechanical properties :
#
#
# Convention : Reuss Voigt Hill
#
# Bulk Modulus (GPa) = 1.38885 31.78484 16.58684
# Shear Modulus (GPa) = 3.82612 28.07123 15.94867
#
# Velocity S-wave (km/s) = 1.40162 3.79650 2.86164
# Velocity P-wave (km/s) = 1.82552 5.96138 4.40855
#
# Compressibility (1/GPa) = 0.72002202
#
# Stress axis : x y z
#
# Youngs Moduli (GPa) = 1.24499 76.87605 135.41806
#
# Poissons Ratio (x) = 1.96636 3.50870
# Poissons Ratio (y) = 0.03184 0.04163
# Poissons Ratio (z) = 0.03226 0.02364
#
# Static dielectric constant tensor:
#      x y z
#    x 1.688630 0.000000 0.000000 
#    y 0.000000 1.772700 0.000000 
#    z 0.000000 0.000000 1.785300 
# 
# From -- ./inp_files/37452.got.cif
#   From: 2010.05.17/outbox.cif.g08.bks.cpg/sg52_19_cif.got.tgz:37452.got - 2010.06.03 12:15:38.
