data_PCOD9408774
_publ_section_title
;
Structure prediction by ZEFSAII (Michael W. Deem and Ramdas Pophale) SiO2 
 PCOD9408774
Probable space group: P N N A
;
_chemical_formula_sum "Si O2"
_cell_formula_units_Z 48
_cell_length_a 30.067742
_cell_length_b 5.185934
_cell_length_c 12.635770
_cell_angle_alpha 90.000000
_cell_angle_beta 90.000000
_cell_angle_gamma 90.000000
_cell_volume 1970.287094
_symmetry_space_group_name_H-M "P N N A"
_symmetry_group_IT_number 52
_symmetry_cell_setting 'orthorhombic'
loop_
_space_group_symop_operation_xyz
x,y,z
1/2-x,-y,z
x,1/2-y,1/2-z
1/2-x,1/2+y,1/2-z
-x,-y,-z
1/2+x,y,-z
-x,1/2+y,1/2+z
1/2+x,1/2-y,1/2+z
loop_
_atom_site_type_symbol
_atom_site_label
_atom_site_fract_x
_atom_site_fract_y
_atom_site_fract_z
Si Si1 0.118188 0.498485 0.675879
Si Si2 0.202624 0.454166 0.114616
Si Si3 0.573100 0.336054 0.623682
Si Si4 0.479607 0.000082 0.824859
Si Si5 0.109425 0.661226 0.140936
Si Si6 0.701980 0.954574 0.025800
O O1 0.119438 0.750000 0.750000
O O2 0.068994 0.483897 0.622793
O O3 0.160771 0.503273 0.601569
O O4 0.120774 0.250000 0.750000
O O5 0.250000 0.500000 0.171294
O O6 0.201230 0.166392 0.069073
O O7 0.202073 0.664310 0.019679
O O8 0.156786 0.534066 0.170417
O O9 0.577080 0.250000 0.750000
O O10 0.523994 0.448543 0.607891
O O11 0.608521 0.554883 0.591269
O O12 0.583943 0.056041 0.574700
O O13 0.484996 0.750000 0.750000
O O14 0.477639 0.250000 0.750000
O O15 0.086203 0.750000 0.250000
O O16 0.750000 0.000000 0.079329
#
# Coordination Sequence:
#
# PCOD9408774 Si02
#       6
#     8   8   8   8   8   8
#     4  10  20  33  54  83 107 132 172 220 258 292
#     4  10  21  38  55  73 102 142 176 206 261 325
#     4   9  16  28  48  74 102 130 164 207 256 305
#     4   9  16  28  47  73 105 135 164 204 256 309
#     4  10  19  32  53  78 100 128 172 220 254 289
#     4  10  21  37  56  75 103 143 176 206 258 322
#
# _framework density 24.361934000000002
#
# number of rings (size 3 to 8) (size 9 to 14) (size 15 to 20)
#    0.000    2.333    0.000    4.500    0.000    0.667 
#    0.000    5.000    0.000    6.000    0.000    0.000 
#    0.000    0.000    0.000    0.000    0.000    0.000 
#
# Total GULP energy -267929.053579 kJ/mol
# GULP energy per Si atom -5581.855283 kJ/mol
# Density = 2.430648 g / cm^3
# Si number density = 24.361934 Si / 1000 Ang^3
#
#
#
# Elastic Constant Matrix: (Units=GPa)
#
#
# Indices 1 2 3 4 5 6 
#
# 1 213.2108 45.3969 38.1180 0.0000 0.0000 0.0000
# 2 45.3969 190.9170 19.4807 0.0000 0.0000 0.0000
# 3 38.1180 19.4807 39.5678 0.0000 0.0000 0.0000
# 4 0.0000 0.0000 0.0000 17.9273 0.0000 0.0000
# 5 0.0000 0.0000 0.0000 0.0000 40.3695 0.0000
# 6 0.0000 0.0000 0.0000 0.0000 0.0000 38.3199
#
#
#
# Elastic Compliance Matrix: (Units=1/GPa)
#
#
# Indices 1 2 3 4 5 6 
#
# 1 0.005794 -0.000851 -0.005163 0.000000 0.000000 0.000000
# 2 -0.000851 0.005640 -0.001957 0.000000 0.000000 0.000000
# 3 -0.005163 -0.001957 0.031211 0.000000 0.000000 0.000000
# 4 0.000000 0.000000 0.000000 0.055781 0.000000 0.000000
# 5 0.000000 0.000000 0.000000 0.000000 0.024771 0.000000
# 6 0.000000 0.000000 0.000000 0.000000 0.000000 0.026096
#
#
# Mechanical properties :
#
#
# Convention : Reuss Voigt Hill
#
# Bulk Modulus (GPa) = 37.44937 72.18743 54.81840
# Shear Modulus (GPa) = 28.71318 42.03668 35.37493
#
# Velocity S-wave (km/s) = 3.43681 4.15843 3.81472
# Velocity P-wave (km/s) = 5.58161 7.26308 6.47714
#
# Compressibility (1/GPa) = 0.02670272
#
# Stress axis : x y z
#
# Youngs Moduli (GPa) = 172.57842 177.30780 32.04044
#
# Poissons Ratio (x) = 0.15089 0.16543
# Poissons Ratio (y) = 0.14686 0.06270
# Poissons Ratio (z) = 0.89105 0.34698
#
# Static dielectric constant tensor:
#      x y z
#    x 2.019630 0.000000 0.000000 
#    y 0.000000 2.009350 0.000000 
#    z 0.000000 0.000000 1.996100 
# 
# From -- ./inp_files/29413.got.cif
#   From: 2010.05.17/outbox.cif.g08.bks.cpg/sg52_15_cif.got.tgz:29413.got - 2010.06.03 12:15:38.
