data_PCOD9408716
_publ_section_title
;
Structure prediction by ZEFSAII (Michael W. Deem and Ramdas Pophale) SiO2 
 PCOD9408716
Probable space group: P N N A
;
_chemical_formula_sum "Si O2"
_cell_formula_units_Z 56
_cell_length_a 5.383330
_cell_length_b 25.756537
_cell_length_c 26.003740
_cell_angle_alpha 90.000000
_cell_angle_beta 90.000000
_cell_angle_gamma 90.000000
_cell_volume 3605.572970
_symmetry_space_group_name_H-M "P N N A"
_symmetry_group_IT_number 52
_symmetry_cell_setting 'orthorhombic'
loop_
_space_group_symop_operation_xyz
x,y,z
1/2-x,-y,z
x,1/2-y,1/2-z
1/2-x,1/2+y,1/2-z
-x,-y,-z
1/2+x,y,-z
-x,1/2+y,1/2+z
1/2+x,1/2-y,1/2+z
loop_
_atom_site_type_symbol
_atom_site_label
_atom_site_fract_x
_atom_site_fract_y
_atom_site_fract_z
Si Si1 0.265770 0.664988 0.233672
Si Si2 0.764819 0.614016 0.269816
Si Si3 0.750000 0.500000 0.311151
Si Si4 0.205247 0.074027 0.028589
Si Si5 0.763613 0.687425 0.370233
Si Si6 0.236602 0.238558 0.165531
Si Si7 0.783134 0.687198 0.487136
Si Si8 0.750000 0.500000 0.621639
O O1 0.519047 0.632897 0.240023
O O2 0.265480 0.701950 0.183906
O O3 0.265738 0.703890 0.282575
O O4 0.015495 0.631801 0.240925
O O5 0.756003 0.552892 0.278980
O O6 0.763783 0.643167 0.325976
O O7 0.499971 0.500087 0.345295
O O8 0.243378 0.050142 0.084407
O O9 0.439381 0.057111 0.993853
O O10 0.210754 0.136448 0.024089
O O11 0.511900 0.720781 0.363750
O O12 0.776214 0.667499 0.428533
O O13 0.008196 0.722453 0.361853
O O14 0.534586 0.716925 0.501162
#
# Coordination Sequence:
#
# PCOD9408716 Si02
#       8
#     8   8   4   8   8   8   8   4
#     4   9  17  33  51  70  87 109 134 180 245 302
#     4  10  21  33  48  65  92 116 147 188 239 285
#     4  12  26  35  48  68  90 126 156 206 238 281
#     4  10  21  35  47  59  74 109 156 211 247 274
#     4  10  19  31  47  69  89 112 149 197 237 277
#     4   9  17  30  52  72  87 103 136 187 245 291
#     4  10  21  31  45  60  87 121 153 190 237 279
#     4  12  24  35  50  58  82 114 176 214 242 267
#
# _framework density 15.531511999999999
#
# number of rings (size 3 to 8) (size 9 to 14) (size 15 to 20)
#    0.000    2.000    0.000    3.857    8.000    3.429 
#    0.000    0.000    0.000    0.000    0.000    0.000 
#    0.000    0.000    0.000    0.000    0.000    0.000 
#
# Total GULP energy -312368.130659 kJ/mol
# GULP energy per Si atom -5578.002333 kJ/mol
# Density = 1.549616 g / cm^3
# Si number density = 15.531512 Si / 1000 Ang^3
#
#
#
# Elastic Constant Matrix: (Units=GPa)
#
#
# Indices 1 2 3 4 5 6 
#
# 1 155.2374 50.5663 25.8884 0.0000 0.0000 0.0000
# 2 50.5663 89.3027 31.6708 0.0000 0.0000 0.0000
# 3 25.8884 31.6708 28.5648 0.0000 0.0000 0.0000
# 4 0.0000 0.0000 0.0000 10.1559 0.0000 0.0000
# 5 0.0000 0.0000 0.0000 0.0000 20.5017 0.0000
# 6 0.0000 0.0000 0.0000 0.0000 0.0000 12.0450
#
#
#
# Elastic Compliance Matrix: (Units=1/GPa)
#
#
# Indices 1 2 3 4 5 6 
#
# 1 0.008133 -0.003281 -0.003733 0.000000 0.000000 0.000000
# 2 -0.003281 0.019778 -0.018955 0.000000 0.000000 0.000000
# 3 -0.003733 -0.018955 0.059407 0.000000 0.000000 0.000000
# 4 0.000000 0.000000 0.000000 0.098465 0.000000 0.000000
# 5 0.000000 0.000000 0.000000 0.000000 0.048776 0.000000
# 6 0.000000 0.000000 0.000000 0.000000 0.000000 0.083022
#
#
# Mechanical properties :
#
#
# Convention : Reuss Voigt Hill
#
# Bulk Modulus (GPa) = 28.26439 54.37287 41.31863
# Shear Modulus (GPa) = 13.11259 19.53915 16.32587
#
# Velocity S-wave (km/s) = 2.90876 3.55072 3.24565
# Velocity P-wave (km/s) = 5.43312 7.20377 6.38017
#
# Compressibility (1/GPa) = 0.03538021
#
# Stress axis : x y z
#
# Youngs Moduli (GPa) = 122.95374 50.56091 16.83305
#
# Poissons Ratio (x) = 0.16591 0.06284
# Poissons Ratio (y) = 0.40346 0.31907
# Poissons Ratio (z) = 0.45897 0.95837
#
# Static dielectric constant tensor:
#      x y z
#    x 1.611150 0.000000 0.000000 
#    y 0.000000 1.514910 0.000000 
#    z 0.000000 0.000000 1.506350 
# 
# From -- ./inp_files/38858.got.cif
#   From: 2010.05.17/outbox.cif.g08.bks.cpg/sg52_20_cif.got.tgz:38858.got - 2010.06.03 12:15:38.
