data_PCOD9408472
_publ_section_title
;
Structure prediction by ZEFSAII (Michael W. Deem and Ramdas Pophale) SiO2 
 PCOD9408472
Probable space group: P N N A
;
_chemical_formula_sum "Si O2"
_cell_formula_units_Z 56
_cell_length_a 17.630022
_cell_length_b 18.304904
_cell_length_c 8.806385
_cell_angle_alpha 90.000000
_cell_angle_beta 90.000000
_cell_angle_gamma 90.000000
_cell_volume 2841.960111
_symmetry_space_group_name_H-M "P N N A"
_symmetry_group_IT_number 52
_symmetry_cell_setting 'orthorhombic'
loop_
_space_group_symop_operation_xyz
x,y,z
1/2-x,-y,z
x,1/2-y,1/2-z
1/2-x,1/2+y,1/2-z
-x,-y,-z
1/2+x,y,-z
-x,1/2+y,1/2+z
1/2+x,1/2-y,1/2+z
loop_
_atom_site_type_symbol
_atom_site_label
_atom_site_fract_x
_atom_site_fract_y
_atom_site_fract_z
Si Si1 0.840579 0.922251 0.666974
Si Si2 0.417038 0.981067 0.806739
Si Si3 0.050795 0.900710 0.062147
Si Si4 0.672900 0.902745 0.715765
Si Si5 0.978657 0.828545 0.780812
Si Si6 0.783635 0.918766 0.332389
Si Si7 0.876536 0.118897 0.379342
O O1 0.762377 0.891998 0.738408
O O2 0.917617 0.888720 0.730313
O O3 0.828184 0.902659 0.488470
O O4 0.839492 0.009264 0.698241
O O5 0.493136 0.934497 0.814767
O O6 0.344490 0.928242 0.800272
O O7 0.407448 0.037544 0.666994
O O8 0.420401 0.033466 0.953166
O O9 0.123172 0.871121 0.148926
O O10 0.005508 0.846874 0.951273
O O11 0.642472 0.873206 0.555400
O O12 0.943430 0.750000 0.750000
O O13 0.055892 0.831839 0.681729
O O14 0.707121 0.873224 0.302860
O O15 0.750000 0.000000 0.360303
#
# Coordination Sequence:
#
# PCOD9408472 Si02
#       7
#     8   8   8   8   8   8   8
#     4  10  18  34  61  88 118 144 180 237 293 357
#     4   9  16  31  54  88 124 134 171 232 290 349
#     4  10  21  34  51  90 116 144 189 229 288 339
#     4  10  18  35  61  98 112 133 188 245 308 343
#     4  11  25  43  53  72 115 168 201 228 280 344
#     4   9  15  32  55  94 111 137 182 219 294 352
#     4   9  18  34  60  83 112 151 182 232 285 350
#
# _framework density 19.704709999999999
#
# number of rings (size 3 to 8) (size 9 to 14) (size 15 to 20)
#    0.000    2.286    4.286    2.571    2.000    1.143 
#   23.143    3.571    0.000    0.000    0.000    0.000 
#    0.000    0.000    0.000    0.000    0.000    0.000 
#
# Total GULP energy -311959.667179 kJ/mol
# GULP energy per Si atom -5570.708342 kJ/mol
# Density = 1.965986 g / cm^3
# Si number density = 19.704710 Si / 1000 Ang^3
#
#
#
# Elastic Constant Matrix: (Units=GPa)
#
#
# Indices 1 2 3 4 5 6 
#
# 1 92.6725 13.6750 39.2941 0.0000 0.0000 0.0000
# 2 13.6750 17.8368 -5.5508 0.0000 0.0000 0.0000
# 3 39.2941 -5.5508 35.2135 0.0000 0.0000 0.0000
# 4 0.0000 0.0000 0.0000 5.0937 0.0000 0.0000
# 5 0.0000 0.0000 0.0000 0.0000 -126.9102 0.0000
# 6 0.0000 0.0000 0.0000 0.0000 0.0000 9.7151
#
#
#
# Elastic Compliance Matrix: (Units=1/GPa)
#
#
# Indices 1 2 3 4 5 6 
#
# 1 0.039138 -0.045847 -0.050901 0.000000 0.000000 0.000000
# 2 -0.045847 0.112661 0.068919 0.000000 0.000000 0.000000
# 3 -0.050901 0.068919 0.096061 0.000000 0.000000 0.000000
# 4 0.000000 0.000000 0.000000 0.196320 0.000000 0.000000
# 5 0.000000 0.000000 0.000000 0.000000 -0.007880 0.000000
# 6 0.000000 0.000000 0.000000 0.000000 0.000000 0.102933
#
#
# Mechanical properties :
#
#
# Convention : Reuss Voigt Hill
#
# Bulk Modulus (GPa) = 5.20283 26.72882 15.96583
# Shear Modulus (GPa) = 7.58772 -15.86665 -4.13947
#
# Velocity S-wave (km/s) = 1.96445 -2.84072 -1.45097
# Velocity P-wave (km/s) = 2.79134 1.68361 2.30501
#
# Compressibility (1/GPa) = 0.19220305
#
# Stress axis : x y z
#
# Youngs Moduli (GPa) = 25.55033 8.87618 10.41001
#
# Poissons Ratio (x) = 0.40694 0.52988
# Poissons Ratio (y) = 1.17140 -0.71744
# Poissons Ratio (z) = 1.30053 -0.61174
#
# Static dielectric constant tensor:
#      x y z
#    x 1.737530 0.000000 0.000000 
#    y 0.000000 1.774100 0.000000 
#    z 0.000000 0.000000 1.718840 
# 
# From -- ./inp_files/12517.got.cif
#   From: 2010.05.17/outbox.cif.g08.bks.cpg/sg52_7_cif.got.tgz:12517.got - 2010.06.03 12:15:38.
