data_PCOD9408141
_publ_section_title
;
Structure prediction by ZEFSAII (Michael W. Deem and Ramdas Pophale) SiO2 
 PCOD9408141
Probable space group: P N N A
;
_chemical_formula_sum "Si O2"
_cell_formula_units_Z 40
_cell_length_a 8.849572
_cell_length_b 16.395156
_cell_length_c 13.207930
_cell_angle_alpha 90.000000
_cell_angle_beta 90.000000
_cell_angle_gamma 90.000000
_cell_volume 1916.340062
_symmetry_space_group_name_H-M "P N N A"
_symmetry_group_IT_number 52
_symmetry_cell_setting 'orthorhombic'
loop_
_space_group_symop_operation_xyz
x,y,z
1/2-x,-y,z
x,1/2-y,1/2-z
1/2-x,1/2+y,1/2-z
-x,-y,-z
1/2+x,y,-z
-x,1/2+y,1/2+z
1/2+x,1/2-y,1/2+z
loop_
_atom_site_type_symbol
_atom_site_label
_atom_site_fract_x
_atom_site_fract_y
_atom_site_fract_z
Si Si1 0.318707 0.171436 0.378978
Si Si2 0.475035 0.197939 0.587422
Si Si3 0.540336 0.656520 0.676245
Si Si4 0.250000 0.500000 0.512504
Si Si5 0.753880 0.750000 0.250000
Si Si6 0.997096 0.390666 0.457151
O O1 0.402753 0.159579 0.486096
O O2 0.353295 0.266874 0.354516
O O3 0.396243 0.126116 0.283724
O O4 0.138929 0.161318 0.387354
O O5 0.353204 0.197283 0.677281
O O6 0.498994 0.295919 0.569838
O O7 0.372163 0.693820 0.689480
O O8 0.529878 0.601946 0.578339
O O9 0.152548 0.437722 0.444061
O O10 0.356618 0.442761 0.581989
#
# Coordination Sequence:
#
# PCOD9408141 Si02
#       6
#     8   8   8   4   4   8
#     4   9  17  27  43  64  90 122 151 174 228 289
#     4  11  18  29  45  67  98 126 149 189 230 280
#     4   9  17  30  43  63  91 121 151 191 229 274
#     4  10  20  30  46  66  86 128 170 190 226 272
#     4  10  18  26  44  68  92 124 156 176 232 294
#     4  10  19  32  46  64  96 125 156 196 228 260
#
# _framework density 20.873121000000001
#
# number of rings (size 3 to 8) (size 9 to 14) (size 15 to 20)
#    0.000    2.400    0.000    8.400    0.000    0.000 
#    0.000    0.000    0.000    0.000    0.000    0.000 
#    0.000   54.400    0.000    0.000    0.000    0.000 
#
# Total GULP energy -222926.286363 kJ/mol
# GULP energy per Si atom -5573.157159 kJ/mol
# Density = 2.082561 g / cm^3
# Si number density = 20.873121 Si / 1000 Ang^3
#
#
#
# Elastic Constant Matrix: (Units=GPa)
#
#
# Indices 1 2 3 4 5 6 
#
# 1 150.8152 -3.6883 25.7022 0.0000 0.0000 0.0000
# 2 -3.6883 22.0368 -17.4137 0.0000 0.0000 0.0000
# 3 25.7022 -17.4137 89.5231 0.0000 0.0000 0.0000
# 4 0.0000 0.0000 0.0000 6.6921 0.0000 0.0000
# 5 0.0000 0.0000 0.0000 0.0000 34.8267 0.0000
# 6 0.0000 0.0000 0.0000 0.0000 0.0000 14.5591
#
#
#
# Elastic Compliance Matrix: (Units=1/GPa)
#
#
# Indices 1 2 3 4 5 6 
#
# 1 0.006976 -0.000490 -0.002098 0.000000 0.000000 0.000000
# 2 -0.000490 0.053655 0.010578 0.000000 0.000000 0.000000
# 3 -0.002098 0.010578 0.013830 0.000000 0.000000 0.000000
# 4 0.000000 0.000000 0.000000 0.149429 0.000000 0.000000
# 5 0.000000 0.000000 0.000000 0.000000 0.028714 0.000000
# 6 0.000000 0.000000 0.000000 0.000000 0.000000 0.068686
#
#
# Mechanical properties :
#
#
# Convention : Reuss Voigt Hill
#
# Bulk Modulus (GPa) = 11.05716 30.17508 20.61612
# Shear Modulus (GPa) = 14.90498 28.40058 21.65278
#
# Velocity S-wave (km/s) = 2.67512 3.69267 3.22429
# Velocity P-wave (km/s) = 3.85363 5.71567 4.87439
#
# Compressibility (1/GPa) = 0.09043912
#
# Stress axis : x y z
#
# Youngs Moduli (GPa) = 143.34383 18.63757 72.30534
#
# Poissons Ratio (x) = 0.00914 0.15172
# Poissons Ratio (y) = 0.07031 -0.76482
# Poissons Ratio (z) = 0.30078 -0.19714
#
# Static dielectric constant tensor:
#      x y z
#    x 1.814010 0.000000 0.000000 
#    y 0.000000 1.753290 0.000000 
#    z 0.000000 0.000000 1.792950 
# 
# From -- ./inp_files/24600.got.cif
#   From: 2010.05.17/outbox.cif.g08.bks.cpg/sg52_13_cif.got.tgz:24600.got - 2010.06.03 12:15:38.
