data_PCOD9408957
_publ_section_title
;
Structure prediction by ZEFSAII (Michael W. Deem and Ramdas Pophale) SiO2 
 PCOD9408957
Probable space group: P N N A
;
_chemical_formula_sum "Si O2"
_cell_formula_units_Z 52
_cell_length_a 5.656918
_cell_length_b 14.009227
_cell_length_c 27.172643
_cell_angle_alpha 90.000000
_cell_angle_beta 90.000000
_cell_angle_gamma 90.000000
_cell_volume 2153.406100
_symmetry_space_group_name_H-M "P N N A"
_symmetry_group_IT_number 52
_symmetry_cell_setting 'orthorhombic'
loop_
_space_group_symop_operation_xyz
x,y,z
1/2-x,-y,z
x,1/2-y,1/2-z
1/2-x,1/2+y,1/2-z
-x,-y,-z
1/2+x,y,-z
-x,1/2+y,1/2+z
1/2+x,1/2-y,1/2+z
loop_
_atom_site_type_symbol
_atom_site_label
_atom_site_fract_x
_atom_site_fract_y
_atom_site_fract_z
Si Si1 0.610901 0.857504 0.018454
Si Si2 0.485040 0.859122 0.230236
Si Si3 0.750000 0.500000 0.971887
Si Si4 0.511801 0.359282 0.231273
Si Si5 0.229554 0.386172 0.870501
Si Si6 0.394112 0.304903 0.059142
Si Si7 0.460043 0.708084 0.376944
O O1 0.598552 0.839984 0.077016
O O2 0.361486 0.900792 0.999096
O O3 0.600178 0.753985 0.990866
O O4 0.490078 0.750000 0.250000
O O5 0.739365 0.898592 0.247303
O O6 0.465023 0.855936 0.171309
O O7 0.240196 0.899370 0.251742
O O8 0.761461 0.599569 0.942852
O O9 0.500000 0.500000 0.000000
O O10 0.507182 0.250000 0.250000
O O11 0.541092 0.366459 0.172799
O O12 0.250000 0.500000 0.872535
O O13 0.439758 0.311833 0.859990
O O14 0.138210 0.347662 0.922478
O O15 0.293399 0.230869 0.099136
#
# Coordination Sequence:
#
# PCOD9408957 Si02
#       7
#     8   8   4   8   8   8   8
#     4  10  20  33  50  68 101 137 178 222 264 300
#     4  10  19  34  59  72  95 126 176 231 267 334
#     4  12  26  38  50  64  94 146 190 222 262 312
#     4  10  20  38  55  77  97 132 176 229 279 329
#     4  12  24  36  55  80 109 141 187 238 279 329
#     4  11  23  36  49  69 105 141 181 227 271 308
#     4  11  21  36  53  78  97 141 189 229 274 316
#
# _framework density 24.147789
#
# number of rings (size 3 to 8) (size 9 to 14) (size 15 to 20)
#    0.000    1.231    4.615    4.615    3.231    0.000 
#    0.000    0.000    0.000    0.000    0.000    0.000 
#    0.000    0.000    0.000    0.000    0.000  104.615 
#
# Total GULP energy -290336.151687 kJ/mol
# GULP energy per Si atom -5583.387532 kJ/mol
# Density = 2.409283 g / cm^3
# Si number density = 24.147789 Si / 1000 Ang^3
#
#
#
# Elastic Constant Matrix: (Units=GPa)
#
#
# Indices 1 2 3 4 5 6 
#
# 1 193.5252 22.1579 47.8045 0.0000 0.0000 0.0000
# 2 22.1579 65.3603 0.0146 0.0000 0.0000 0.0000
# 3 47.8045 0.0146 153.3702 0.0000 0.0000 0.0000
# 4 0.0000 0.0000 0.0000 -5.9736 0.0000 0.0000
# 5 0.0000 0.0000 0.0000 0.0000 70.4802 0.0000
# 6 0.0000 0.0000 0.0000 0.0000 0.0000 -3.7064
#
#
#
# Elastic Compliance Matrix: (Units=1/GPa)
#
#
# Indices 1 2 3 4 5 6 
#
# 1 0.005844 -0.001981 -0.001821 0.000000 0.000000 0.000000
# 2 -0.001981 0.015971 0.000616 0.000000 0.000000 0.000000
# 3 -0.001821 0.000616 0.007088 0.000000 0.000000 0.000000
# 4 0.000000 0.000000 0.000000 -0.167403 0.000000 0.000000
# 5 0.000000 0.000000 0.000000 0.000000 0.014188 0.000000
# 6 0.000000 0.000000 0.000000 0.000000 0.000000 -0.269807
#
#
# Mechanical properties :
#
#
# Convention : Reuss Voigt Hill
#
# Bulk Modulus (GPa) = 44.38428 61.35662 52.87045
# Shear Modulus (GPa) = -13.14973 34.97863 10.91445
#
# Velocity S-wave (km/s) = -2.33610 3.81008 2.12830
# Velocity P-wave (km/s) = 3.33822 6.69474 5.28977
#
# Compressibility (1/GPa) = 0.02253050
#
# Stress axis : x y z
#
# Youngs Moduli (GPa) = 171.11621 62.61279 141.08723
#
# Poissons Ratio (x) = 0.12402 0.25697
# Poissons Ratio (y) = 0.33894 -0.08689
# Poissons Ratio (z) = 0.31166 -0.03856
#
# Static dielectric constant tensor:
#      x y z
#    x 2.097470 0.000000 0.000000 
#    y 0.000000 1.926390 0.000000 
#    z 0.000000 0.000000 1.905420 
# 
# From -- ./inp_files/41783.got.cif
#   From: 2010.05.17/outbox.cif.g08.bks.cpg/sg52_21_cif.got.tgz:41783.got - 2010.06.03 12:15:38.
