data_PCOD9408637
_publ_section_title
;
Structure prediction by ZEFSAII (Michael W. Deem and Ramdas Pophale) SiO2 
 PCOD9408637
Probable space group: P N N A
;
_chemical_formula_sum "Si O2"
_cell_formula_units_Z 36
_cell_length_a 12.758008
_cell_length_b 20.798198
_cell_length_c 5.202959
_cell_angle_alpha 90.000000
_cell_angle_beta 90.000000
_cell_angle_gamma 90.000000
_cell_volume 1380.571749
_symmetry_space_group_name_H-M "P N N A"
_symmetry_group_IT_number 52
_symmetry_cell_setting 'orthorhombic'
loop_
_space_group_symop_operation_xyz
x,y,z
1/2-x,-y,z
x,1/2-y,1/2-z
1/2-x,1/2+y,1/2-z
-x,-y,-z
1/2+x,y,-z
-x,1/2+y,1/2+z
1/2+x,1/2-y,1/2+z
loop_
_atom_site_type_symbol
_atom_site_label
_atom_site_fract_x
_atom_site_fract_y
_atom_site_fract_z
Si Si1 0.124324 0.488664 0.899829
Si Si2 0.195828 0.371702 0.159877
Si Si3 0.398823 0.187858 0.370793
Si Si4 0.566855 0.250000 0.750000
Si Si5 0.119493 0.566967 0.395891
O O1 0.250000 0.500000 0.904602
O O2 0.120367 0.413628 0.980077
O O3 0.083182 0.528627 0.143669
O O4 0.094234 0.525432 0.641137
O O5 0.299395 0.347994 0.998613
O O6 0.139573 0.312492 0.299603
O O7 0.255238 0.417920 0.366410
O O8 0.346636 0.250000 0.250000
O O9 0.490957 0.218567 0.535395
O O10 0.429615 0.137873 0.144164
#
# Coordination Sequence:
#
# PCOD9408637 Si02
#       5
#     8   8   8   4   8
#     4  10  18  38  73 108 137 200 254 310 396 456
#     4   9  21  44  73 108 150 203 260 327 394 467
#     4  10  24  44  71 107 150 203 255 330 380 477
#     4  12  24  50  68 112 158 204 270 312 402 478
#     4   9  21  40  72 105 145 197 252 318 391 450
#
# _framework density 26.076153999999999
#
# number of rings (size 3 to 8) (size 9 to 14) (size 15 to 20)
#    1.333    0.889    1.111    2.000    3.111    0.000 
#   14.000    2.222    0.000    1.333    0.000    0.000 
#    0.000    0.000    0.000    0.000    0.000    0.000 
#
# Total GULP energy -200728.543410 kJ/mol
# GULP energy per Si atom -5575.792873 kJ/mol
# Density = 2.601680 g / cm^3
# Si number density = 26.076154 Si / 1000 Ang^3
#
#
#
# Elastic Constant Matrix: (Units=GPa)
#
#
# Indices 1 2 3 4 5 6 
#
# 1 107.8720 64.4780 49.2197 0.0000 0.0000 0.0000
# 2 64.4780 223.4828 101.1001 0.0000 0.0000 0.0000
# 3 49.2197 101.1001 159.8335 0.0000 0.0000 0.0000
# 4 0.0000 0.0000 0.0000 51.4393 0.0000 0.0000
# 5 0.0000 0.0000 0.0000 0.0000 38.1866 0.0000
# 6 0.0000 0.0000 0.0000 0.0000 0.0000 48.7834
#
#
#
# Elastic Compliance Matrix: (Units=1/GPa)
#
#
# Indices 1 2 3 4 5 6 
#
# 1 0.011662 -0.002438 -0.002049 0.000000 0.000000 0.000000
# 2 -0.002438 0.006778 -0.003537 0.000000 0.000000 0.000000
# 3 -0.002049 -0.003537 0.009125 0.000000 0.000000 0.000000
# 4 0.000000 0.000000 0.000000 0.019440 0.000000 0.000000
# 5 0.000000 0.000000 0.000000 0.000000 0.026187 0.000000
# 6 0.000000 0.000000 0.000000 0.000000 0.000000 0.020499
#
#
# Mechanical properties :
#
#
# Convention : Reuss Voigt Hill
#
# Bulk Modulus (GPa) = 86.82411 102.30930 94.56671
# Shear Modulus (GPa) = 44.02276 46.10789 45.06533
#
# Velocity S-wave (km/s) = 4.11328 4.20956 4.16170
# Velocity P-wave (km/s) = 7.47846 7.93393 7.70956
#
# Compressibility (1/GPa) = 0.01151754
#
# Stress axis : x y z
#
# Youngs Moduli (GPa) = 85.74557 147.54114 109.59378
#
# Poissons Ratio (x) = 0.35965 0.22461
# Poissons Ratio (y) = 0.20901 0.38758
# Poissons Ratio (z) = 0.17573 0.52178
#
# Static dielectric constant tensor:
#      x y z
#    x 2.249480 0.000000 0.000000 
#    y 0.000000 2.067410 0.000000 
#    z 0.000000 0.000000 2.054080 
# 
# From -- ./inp_files/8671.got.cif
#   From: 2010.05.17/outbox.cif.g08.bks.cpg/sg52_5_cif.got.tgz:8671.got - 2010.06.03 12:15:38.
