data_PCOD9408913
_publ_section_title
;
Structure prediction by ZEFSAII (Michael W. Deem and Ramdas Pophale) SiO2 
 PCOD9408913
Probable space group: P N N A
;
_chemical_formula_sum "Si O2"
_cell_formula_units_Z 48
_cell_length_a 7.363225
_cell_length_b 16.061746
_cell_length_c 18.226434
_cell_angle_alpha 90.000000
_cell_angle_beta 90.000000
_cell_angle_gamma 90.000000
_cell_volume 2155.571994
_symmetry_space_group_name_H-M "P N N A"
_symmetry_group_IT_number 52
_symmetry_cell_setting 'orthorhombic'
loop_
_space_group_symop_operation_xyz
x,y,z
1/2-x,-y,z
x,1/2-y,1/2-z
1/2-x,1/2+y,1/2-z
-x,-y,-z
1/2+x,y,-z
-x,1/2+y,1/2+z
1/2+x,1/2-y,1/2+z
loop_
_atom_site_type_symbol
_atom_site_label
_atom_site_fract_x
_atom_site_fract_y
_atom_site_fract_z
Si Si1 0.381879 0.758855 0.109443
Si Si2 0.037290 0.891652 0.788351
Si Si3 0.773130 0.912532 0.657500
Si Si4 0.554243 0.351236 0.247429
Si Si5 0.047763 0.872870 0.094307
Si Si6 0.634195 0.612046 0.443980
O O1 0.454843 0.802777 0.184384
O O2 0.375128 0.661007 0.115144
O O3 0.183216 0.794527 0.093795
O O4 0.120931 0.926161 0.024826
O O5 0.236301 0.880903 0.752389
O O6 0.898891 0.928294 0.729788
O O7 0.059806 0.933734 0.870134
O O8 0.575523 0.878528 0.681502
O O9 0.750000 0.000000 0.618049
O O10 0.554084 0.250000 0.250000
O O11 0.457613 0.391151 0.319260
O O12 0.017054 0.803169 0.946980
O O13 0.836547 0.863785 0.076634
#
# Coordination Sequence:
#
# PCOD9408913 Si02
#       6
#     8   8   8   8   8   8
#     4  10  19  34  54  79 112 130 185 225 266 310
#     4   9  20  34  55  79 107 131 181 233 267 308
#     4  12  23  35  52  77 114 154 177 213 266 323
#     4  11  19  33  57  82 103 135 181 231 271 309
#     4  11  17  30  55  87 103 130 170 227 280 313
#     4   9  19  29  54  86 103 130 168 229 279 309
#
# _framework density 22.267872000000001
#
# number of rings (size 3 to 8) (size 9 to 14) (size 15 to 20)
#    1.000    0.667    5.000    1.500    0.000    0.667 
#    0.000    0.000    0.000    2.000    0.000    0.000 
#    0.000    0.000    0.000    0.000    0.000    0.000 
#
# Total GULP energy -267298.655053 kJ/mol
# GULP energy per Si atom -5568.721980 kJ/mol
# Density = 2.221719 g / cm^3
# Si number density = 22.267872 Si / 1000 Ang^3
#
#
#
# Elastic Constant Matrix: (Units=GPa)
#
#
# Indices 1 2 3 4 5 6 
#
# 1 110.3093 23.9319 13.4790 0.0000 0.0000 0.0000
# 2 23.9319 103.3111 3.4805 0.0000 0.0000 0.0000
# 3 13.4790 3.4805 47.9427 0.0000 0.0000 0.0000
# 4 0.0000 0.0000 0.0000 4.7682 0.0000 0.0000
# 5 0.0000 0.0000 0.0000 0.0000 24.1316 0.0000
# 6 0.0000 0.0000 0.0000 0.0000 0.0000 13.5202
#
#
#
# Elastic Compliance Matrix: (Units=1/GPa)
#
#
# Indices 1 2 3 4 5 6 
#
# 1 0.009861 -0.002196 -0.002613 0.000000 0.000000 0.000000
# 2 -0.002196 0.010192 -0.000122 0.000000 0.000000 0.000000
# 3 -0.002613 -0.000122 0.021602 0.000000 0.000000 0.000000
# 4 0.000000 0.000000 0.000000 0.209721 0.000000 0.000000
# 5 0.000000 0.000000 0.000000 0.000000 0.041440 0.000000
# 6 0.000000 0.000000 0.000000 0.000000 0.000000 0.073963
#
#
# Mechanical properties :
#
#
# Convention : Reuss Voigt Hill
#
# Bulk Modulus (GPa) = 31.45462 38.14953 34.80208
# Shear Modulus (GPa) = 12.91190 23.19545 18.05367
#
# Velocity S-wave (km/s) = 2.41061 3.23097 2.85046
# Velocity P-wave (km/s) = 4.68020 5.57568 5.14745
#
# Compressibility (1/GPa) = 0.03179184
#
# Stress axis : x y z
#
# Youngs Moduli (GPa) = 101.40748 98.11228 46.29253
#
# Poissons Ratio (x) = 0.21548 0.12096
# Poissons Ratio (y) = 0.22272 0.00567
# Poissons Ratio (z) = 0.26498 0.01201
#
# Static dielectric constant tensor:
#      x y z
#    x 1.806920 0.000000 0.000000 
#    y 0.000000 1.890930 0.000000 
#    z 0.000000 0.000000 1.884340 
# 
# From -- ./inp_files/39553.got.cif
#   From: 2010.05.17/outbox.cif.g08.bks.cpg/sg52_20_cif.got.tgz:39553.got - 2010.06.03 12:15:38.
