data_PCOD9408557
_publ_section_title
;
Structure prediction by ZEFSAII (Michael W. Deem and Ramdas Pophale) SiO2 
 PCOD9408557
Probable space group: P N N A
;
_chemical_formula_sum "Si O2"
_cell_formula_units_Z 36
_cell_length_a 9.299263
_cell_length_b 19.089392
_cell_length_c 8.062153
_cell_angle_alpha 90.000000
_cell_angle_beta 90.000000
_cell_angle_gamma 90.000000
_cell_volume 1431.171445
_symmetry_space_group_name_H-M "P N N A"
_symmetry_group_IT_number 52
_symmetry_cell_setting 'orthorhombic'
loop_
_space_group_symop_operation_xyz
x,y,z
1/2-x,-y,z
x,1/2-y,1/2-z
1/2-x,1/2+y,1/2-z
-x,-y,-z
1/2+x,y,-z
-x,1/2+y,1/2+z
1/2+x,1/2-y,1/2+z
loop_
_atom_site_type_symbol
_atom_site_label
_atom_site_fract_x
_atom_site_fract_y
_atom_site_fract_z
Si Si1 0.790646 0.363276 0.533098
Si Si2 0.643216 0.169123 0.301808
Si Si3 0.647079 0.250000 0.750000
Si Si4 0.056039 0.635490 0.930973
Si Si5 0.962771 0.937043 0.876448
O O1 0.706029 0.367036 0.359948
O O2 0.749934 0.293160 0.627733
O O3 0.706927 0.422685 0.635750
O O4 0.952109 0.373729 0.473208
O O5 0.618753 0.250000 0.250000
O O6 0.505784 0.132753 0.383819
O O7 0.778801 0.158325 0.425537
O O8 0.540338 0.302359 0.848145
O O9 0.026350 0.568959 0.810141
O O10 0.000000 0.000000 0.000000
#
# Coordination Sequence:
#
# PCOD9408557 Si02
#       5
#     8   8   4   8   8
#     4  10  22  37  64  96 128 171 218 281 340 400
#     4  11  21  38  58  95 134 167 201 273 339 403
#     4  10  18  36  60  98 130 162 222 268 344 424
#     4  10  22  37  61  93 134 170 217 270 336 408
#     4  10  22  43  64  90 126 177 234 275 329 405
#
# _framework density 25.154222000000001
#
# number of rings (size 3 to 8) (size 9 to 14) (size 15 to 20)
#    0.000    1.778    3.333    0.667    0.000    3.556 
#    4.000    1.111    0.000    8.000    0.000    0.000 
#    0.000    0.000    0.000    0.000    0.000    0.000 
#
# Total GULP energy -201150.078122 kJ/mol
# GULP energy per Si atom -5587.502170 kJ/mol
# Density = 2.509697 g / cm^3
# Si number density = 25.154222 Si / 1000 Ang^3
#
#
#
# Elastic Constant Matrix: (Units=GPa)
#
#
# Indices 1 2 3 4 5 6 
#
# 1 127.5271 -3.3747 24.3475 0.0000 0.0000 0.0000
# 2 -3.3747 56.8635 17.6528 0.0000 0.0000 0.0000
# 3 24.3475 17.6528 66.0783 0.0000 0.0000 0.0000
# 4 0.0000 0.0000 0.0000 37.5073 0.0000 0.0000
# 5 0.0000 0.0000 0.0000 0.0000 51.5256 0.0000
# 6 0.0000 0.0000 0.0000 0.0000 0.0000 20.9813
#
#
#
# Elastic Compliance Matrix: (Units=1/GPa)
#
#
# Indices 1 2 3 4 5 6 
#
# 1 0.008570 0.001624 -0.003592 0.000000 0.000000 0.000000
# 2 0.001624 0.019484 -0.005803 0.000000 0.000000 0.000000
# 3 -0.003592 -0.005803 0.018007 0.000000 0.000000 0.000000
# 4 0.000000 0.000000 0.000000 0.026661 0.000000 0.000000
# 5 0.000000 0.000000 0.000000 0.000000 0.019408 0.000000
# 6 0.000000 0.000000 0.000000 0.000000 0.000000 0.047661
#
#
# Mechanical properties :
#
#
# Convention : Reuss Voigt Hill
#
# Bulk Modulus (GPa) = 32.76676 36.41334 34.59005
# Shear Modulus (GPa) = 30.21009 36.12573 33.16791
#
# Velocity S-wave (km/s) = 3.46930 3.79379 3.63517
# Velocity P-wave (km/s) = 5.39469 5.80499 5.60360
#
# Compressibility (1/GPa) = 0.03051874
#
# Stress axis : x y z
#
# Youngs Moduli (GPa) = 116.68428 51.32431 55.53308
#
# Poissons Ratio (x) = -0.08333 0.19945
# Poissons Ratio (y) = -0.18945 0.32228
# Poissons Ratio (z) = 0.41908 0.29785
#
# Static dielectric constant tensor:
#      x y z
#    x 2.005390 0.000000 0.000000 
#    y 0.000000 2.036090 0.000000 
#    z 0.000000 0.000000 2.081040 
# 
# From -- ./inp_files/7310.got.cif
#   From: 2010.05.17/outbox.cif.g08.bks.cpg/sg52_4_cif.got.tgz:7310.got - 2010.06.03 12:15:38.
