data_PCOD9408401
_publ_section_title
;
Structure prediction by ZEFSAII (Michael W. Deem and Ramdas Pophale) SiO2 
 PCOD9408401
Probable space group: P N N A
;
_chemical_formula_sum "Si O2"
_cell_formula_units_Z 56
_cell_length_a 22.399311
_cell_length_b 19.611025
_cell_length_c 6.488087
_cell_angle_alpha 90.000000
_cell_angle_beta 90.000000
_cell_angle_gamma 90.000000
_cell_volume 2850.044347
_symmetry_space_group_name_H-M "P N N A"
_symmetry_group_IT_number 52
_symmetry_cell_setting 'orthorhombic'
loop_
_space_group_symop_operation_xyz
x,y,z
1/2-x,-y,z
x,1/2-y,1/2-z
1/2-x,1/2+y,1/2-z
-x,-y,-z
1/2+x,y,-z
-x,1/2+y,1/2+z
1/2+x,1/2-y,1/2+z
loop_
_atom_site_type_symbol
_atom_site_label
_atom_site_fract_x
_atom_site_fract_y
_atom_site_fract_z
Si Si1 0.718212 0.750000 0.750000
Si Si2 0.010950 0.653431 0.487489
Si Si3 0.234746 0.323928 0.637419
Si Si4 0.392971 0.668572 0.771849
Si Si5 0.566699 0.750000 0.250000
Si Si6 0.929022 0.439467 0.828558
Si Si7 0.159707 0.852091 0.579100
Si Si8 0.544279 0.089715 0.611309
O O1 0.753796 0.697392 0.600082
O O2 0.680865 0.797528 0.594250
O O3 0.031115 0.730574 0.542206
O O4 0.060579 0.607471 0.373550
O O5 0.950642 0.649616 0.358929
O O6 0.990627 0.626281 0.707436
O O7 0.236244 0.250000 0.750000
O O8 0.170202 0.356172 0.681423
O O9 0.286620 0.364818 0.759145
O O10 0.390018 0.750000 0.750000
O O11 0.407730 0.637952 0.996712
O O12 0.608930 0.813766 0.291420
O O13 0.926363 0.520605 0.801067
O O14 0.872753 0.413287 0.960303
O O15 0.990741 0.428353 0.954015
#
# Coordination Sequence:
#
# PCOD9408401 Si02
#       8
#     4   8   8   8   4   8   8   8
#     4  10  18  33  56  82 117 148 192 252 306 354
#     4  11  22  34  57  88 119 153 193 253 300 366
#     4   9  20  36  55  83 114 156 198 243 302 360
#     4  10  22  38  58  85 114 152 197 242 306 362
#     4  12  20  33  56  92 123 144 192 256 316 358
#     4  10  22  36  58  82 114 160 194 236 298 369
#     4  11  20  35  55  86 116 152 196 247 303 359
#     4  10  21  40  56  80 117 156 194 237 297 366
#
# _framework density 19.648816
#
# number of rings (size 3 to 8) (size 9 to 14) (size 15 to 20)
#    0.000    1.714    3.571    2.143    2.000    4.000 
#    0.000    0.714    0.000    0.000    0.000    0.000 
#    0.000    0.000    0.000    0.000    0.000    0.000 
#
# Total GULP energy -311979.910968 kJ/mol
# GULP energy per Si atom -5571.069839 kJ/mol
# Density = 1.960409 g / cm^3
# Si number density = 19.648816 Si / 1000 Ang^3
#
#
#
# Elastic Constant Matrix: (Units=GPa)
#
#
# Indices 1 2 3 4 5 6 
#
# 1 109.1902 24.1631 39.8531 0.0000 0.0000 0.0000
# 2 24.1631 48.9643 10.6581 0.0000 0.0000 0.0000
# 3 39.8531 10.6581 80.8190 0.0000 0.0000 0.0000
# 4 0.0000 0.0000 0.0000 14.9895 0.0000 0.0000
# 5 0.0000 0.0000 0.0000 0.0000 19.3024 0.0000
# 6 0.0000 0.0000 0.0000 0.0000 0.0000 9.2000
#
#
#
# Elastic Compliance Matrix: (Units=1/GPa)
#
#
# Indices 1 2 3 4 5 6 
#
# 1 0.012192 -0.004847 -0.005373 0.000000 0.000000 0.000000
# 2 -0.004847 0.022954 -0.000637 0.000000 0.000000 0.000000
# 3 -0.005373 -0.000637 0.015107 0.000000 0.000000 0.000000
# 4 0.000000 0.000000 0.000000 0.066714 0.000000 0.000000
# 5 0.000000 0.000000 0.000000 0.000000 0.051807 0.000000
# 6 0.000000 0.000000 0.000000 0.000000 0.000000 0.108696
#
#
# Mechanical properties :
#
#
# Convention : Reuss Voigt Hill
#
# Bulk Modulus (GPa) = 35.04002 43.14691 39.09347
# Shear Modulus (GPa) = 16.19722 19.65166 17.92444
#
# Velocity S-wave (km/s) = 2.87424 3.16594 3.02361
# Velocity P-wave (km/s) = 5.37465 5.94735 5.66824
#
# Compressibility (1/GPa) = 0.02853879
#
# Stress axis : x y z
#
# Youngs Moduli (GPa) = 82.02125 43.56617 66.19557
#
# Poissons Ratio (x) = 0.21117 0.35566
# Poissons Ratio (y) = 0.39756 0.04216
# Poissons Ratio (z) = 0.44069 0.02775
#
# Static dielectric constant tensor:
#      x y z
#    x 1.732350 0.000000 0.000000 
#    y 0.000000 1.715040 0.000000 
#    z 0.000000 0.000000 1.932380 
# 
# From -- ./inp_files/5246.got.cif
#   From: 2010.05.17/outbox.cif.g08.bks.cpg/sg52_3_cif.got.tgz:5246.got - 2010.06.03 12:15:38.
