data_PCOD9408071
_publ_section_title
;
Structure prediction by ZEFSAII (Michael W. Deem and Ramdas Pophale) SiO2 
 PCOD9408071
Probable space group: P N N A
;
_chemical_formula_sum "Si O2"
_cell_formula_units_Z 64
_cell_length_a 9.073827
_cell_length_b 21.059083
_cell_length_c 19.558837
_cell_angle_alpha 90.000000
_cell_angle_beta 90.000000
_cell_angle_gamma 90.000000
_cell_volume 3737.429235
_symmetry_space_group_name_H-M "P N N A"
_symmetry_group_IT_number 52
_symmetry_cell_setting 'orthorhombic'
loop_
_space_group_symop_operation_xyz
x,y,z
1/2-x,-y,z
x,1/2-y,1/2-z
1/2-x,1/2+y,1/2-z
-x,-y,-z
1/2+x,y,-z
-x,1/2+y,1/2+z
1/2+x,1/2-y,1/2+z
loop_
_atom_site_type_symbol
_atom_site_label
_atom_site_fract_x
_atom_site_fract_y
_atom_site_fract_z
Si Si1 0.972712 0.248268 0.852073
Si Si2 0.458640 0.880262 0.298907
Si Si3 0.579328 0.982187 0.692347
Si Si4 0.179584 0.377852 0.050386
Si Si5 0.135749 0.444267 0.919723
Si Si6 0.651544 0.850581 0.750907
Si Si7 0.928976 0.203825 0.502871
Si Si8 0.274670 0.311684 0.864140
O O1 0.917539 0.185032 0.815418
O O2 0.886068 0.305254 0.813673
O O3 0.143969 0.266054 0.839746
O O4 0.939822 0.249709 0.932903
O O5 0.376455 0.885675 0.373075
O O6 0.329334 0.856978 0.248538
O O7 0.597164 0.834037 0.311854
O O8 0.499589 0.953318 0.282022
O O9 0.510618 0.962250 0.620359
O O10 0.579211 0.919381 0.738957
O O11 0.750000 0.000000 0.685939
O O12 0.089849 0.317347 0.021096
O O13 0.131364 0.434787 0.001096
O O14 0.346770 0.358294 0.034876
O O15 0.250000 0.500000 0.904438
O O16 0.198815 0.377871 0.889255
O O17 0.848127 0.218966 0.431893
#
# Coordination Sequence:
#
# PCOD9408071 Si02
#       8
#     8   8   8   8   8   8   8   8
#     4  11  19  35  53  67 100 141 181 221 259 318
#     4  10  20  34  50  74 105 136 176 223 258 304
#     4  10  20  32  48  70 102 138 181 224 253 304
#     4  10  20  29  45  69 103 135 175 213 257 300
#     4  11  19  31  43  71 101 140 181 214 257 298
#     4  10  21  33  51  71  96 142 186 217 260 305
#     4  10  17  32  49  69  98 132 174 221 256 306
#     4  10  20  33  52  74 102 135 176 220 272 307
#
# _framework density 17.124071000000001
#
# number of rings (size 3 to 8) (size 9 to 14) (size 15 to 20)
#    0.000    1.750    6.250    0.000    1.750    2.000 
#    0.000    2.500    0.000    0.000    0.000    0.000 
#    0.000    9.000    0.000    0.000    0.000   15.625 
#
# Total GULP energy -356773.579954 kJ/mol
# GULP energy per Si atom -5574.587187 kJ/mol
# Density = 1.708510 g / cm^3
# Si number density = 17.124071 Si / 1000 Ang^3
#
#
#
# Elastic Constant Matrix: (Units=GPa)
#
#
# Indices 1 2 3 4 5 6 
#
# 1 57.4341 41.2490 18.2722 0.0000 0.0000 0.0000
# 2 41.2490 77.4757 45.8777 0.0000 0.0000 0.0000
# 3 18.2722 45.8777 54.3641 0.0000 0.0000 0.0000
# 4 0.0000 0.0000 0.0000 33.9753 0.0000 0.0000
# 5 0.0000 0.0000 0.0000 0.0000 14.2802 0.0000
# 6 0.0000 0.0000 0.0000 0.0000 0.0000 24.3478
#
#
#
# Elastic Compliance Matrix: (Units=1/GPa)
#
#
# Indices 1 2 3 4 5 6 
#
# 1 0.029342 -0.019554 0.006639 0.000000 0.000000 0.000000
# 2 -0.019554 0.038830 -0.026197 0.000000 0.000000 0.000000
# 3 0.006639 -0.026197 0.038270 0.000000 0.000000 0.000000
# 4 0.000000 0.000000 0.000000 0.029433 0.000000 0.000000
# 5 0.000000 0.000000 0.000000 0.000000 0.070027 0.000000
# 6 0.000000 0.000000 0.000000 0.000000 0.000000 0.041071
#
#
# Mechanical properties :
#
#
# Convention : Reuss Voigt Hill
#
# Bulk Modulus (GPa) = 35.43509 44.45239 39.94374
# Shear Modulus (GPa) = 14.94301 20.11233 17.52767
#
# Velocity S-wave (km/s) = 2.95724 3.43082 3.20280
# Velocity P-wave (km/s) = 5.69196 6.45828 6.08719
#
# Compressibility (1/GPa) = 0.02822061
#
# Stress axis : x y z
#
# Youngs Moduli (GPa) = 34.08033 25.75302 26.12982
#
# Poissons Ratio (x) = 0.50356 -0.17348
# Poissons Ratio (y) = 0.66639 0.68452
# Poissons Ratio (z) = -0.22626 0.67465
#
# Static dielectric constant tensor:
#      x y z
#    x 1.643800 0.000000 0.000000 
#    y 0.000000 1.605050 0.000000 
#    z 0.000000 0.000000 1.592510 
# 
# From -- ./inp_files/31666.got.cif
#   From: 2010.05.17/outbox.cif.g08.bks.cpg/sg52_16_cif.got.tgz:31666.got - 2010.06.03 12:15:38.
