data_PCOD9408375
_publ_section_title
;
Structure prediction by ZEFSAII (Michael W. Deem and Ramdas Pophale) SiO2 
 PCOD9408375
Probable space group: P N N A
;
_chemical_formula_sum "Si O2"
_cell_formula_units_Z 64
_cell_length_a 5.372419
_cell_length_b 23.976094
_cell_length_c 26.116005
_cell_angle_alpha 90.000000
_cell_angle_beta 90.000000
_cell_angle_gamma 90.000000
_cell_volume 3363.992757
_symmetry_space_group_name_H-M "P N N A"
_symmetry_group_IT_number 52
_symmetry_cell_setting 'orthorhombic'
loop_
_space_group_symop_operation_xyz
x,y,z
1/2-x,-y,z
x,1/2-y,1/2-z
1/2-x,1/2+y,1/2-z
-x,-y,-z
1/2+x,y,-z
-x,1/2+y,1/2+z
1/2+x,1/2-y,1/2+z
loop_
_atom_site_type_symbol
_atom_site_label
_atom_site_fract_x
_atom_site_fract_y
_atom_site_fract_z
Si Si1 0.456180 0.390105 0.031423
Si Si2 0.701039 0.719661 0.793495
Si Si3 0.421698 0.154634 0.669612
Si Si4 0.341392 0.772232 0.860541
Si Si5 0.004546 0.743567 0.029821
Si Si6 0.819929 0.649179 0.273958
Si Si7 0.993855 0.034816 0.746695
Si Si8 0.605126 0.443240 0.130500
O O1 0.480756 0.323193 0.040740
O O2 0.435614 0.424004 0.083969
O O3 0.715810 0.403144 0.002909
O O4 0.871551 0.750000 0.750000
O O5 0.610071 0.764146 0.834146
O O6 0.491766 0.692951 0.757364
O O7 0.790954 0.669429 0.829384
O O8 0.302715 0.214388 0.653030
O O9 0.383332 0.138800 0.729632
O O10 0.308621 0.106008 0.636931
O O11 0.397244 0.774420 0.920132
O O12 0.233672 0.823283 0.827055
O O13 0.788549 0.755583 0.987587
O O14 0.970468 0.591772 0.278353
O O15 0.977364 0.049853 0.686016
O O16 0.750000 0.000000 0.760882
O O17 0.250000 0.000000 0.752149
O O18 0.750000 0.500000 0.119138
#
# Coordination Sequence:
#
# PCOD9408375 Si02
#       8
#     8   8   8   8   8   8   8   8
#     4  10  22  39  56  72  99 138 189 247 290 320
#     4   9  18  29  51  81 108 137 177 225 274 326
#     4  10  18  33  51  76 111 144 178 232 278 336
#     4  10  19  34  54  80 107 141 182 229 278 332
#     4  10  22  38  54  78 108 143 180 226 289 336
#     4   9  20  33  52  82 109 141 185 220 267 335
#     4  10  23  40  56  79 116 150 175 218 272 330
#     4  10  22  36  53  78 100 147 195 236 281 328
#
# _framework density 19.025010000000002
#
# number of rings (size 3 to 8) (size 9 to 14) (size 15 to 20)
#    0.000    2.250    1.250    1.875    7.000    3.500 
#    0.000    0.000    0.000    0.000    0.000    0.000 
#    0.000    3.000    0.000    0.000    0.000    0.000 
#
# Total GULP energy -356510.365412 kJ/mol
# GULP energy per Si atom -5570.474460 kJ/mol
# Density = 1.898171 g / cm^3
# Si number density = 19.025010 Si / 1000 Ang^3
#
#
#
# Elastic Constant Matrix: (Units=GPa)
#
#
# Indices 1 2 3 4 5 6 
#
# 1 51.9751 9.0567 6.1458 0.0000 0.0000 0.0000
# 2 9.0567 68.4810 24.9027 0.0000 0.0000 0.0000
# 3 6.1458 24.9027 53.7039 0.0000 0.0000 0.0000
# 4 0.0000 0.0000 0.0000 20.4000 0.0000 0.0000
# 5 0.0000 0.0000 0.0000 0.0000 13.4639 0.0000
# 6 0.0000 0.0000 0.0000 0.0000 0.0000 13.3115
#
#
#
# Elastic Compliance Matrix: (Units=1/GPa)
#
#
# Indices 1 2 3 4 5 6 
#
# 1 0.019765 -0.002155 -0.001263 0.000000 0.000000 0.000000
# 2 -0.002155 0.017799 -0.008007 0.000000 0.000000 0.000000
# 3 -0.001263 -0.008007 0.022478 0.000000 0.000000 0.000000
# 4 0.000000 0.000000 0.000000 0.049020 0.000000 0.000000
# 5 0.000000 0.000000 0.000000 0.000000 0.074273 0.000000
# 6 0.000000 0.000000 0.000000 0.000000 0.000000 0.075123
#
#
# Mechanical properties :
#
#
# Convention : Reuss Voigt Hill
#
# Bulk Modulus (GPa) = 26.88666 28.26337 27.57501
# Shear Modulus (GPa) = 17.02394 18.37206 17.69800
#
# Velocity S-wave (km/s) = 2.99460 3.11091 3.05331
# Velocity P-wave (km/s) = 5.11075 5.27180 5.19190
#
# Compressibility (1/GPa) = 0.03719317
#
# Stress axis : x y z
#
# Youngs Moduli (GPa) = 50.59510 56.18212 44.48791
#
# Poissons Ratio (x) = 0.12106 0.05617
# Poissons Ratio (y) = 0.10902 0.35621
# Poissons Ratio (z) = 0.06388 0.44985
#
# Static dielectric constant tensor:
#      x y z
#    x 1.835910 0.000000 0.000000 
#    y 0.000000 1.776270 0.000000 
#    z 0.000000 0.000000 1.734480 
# 
# From -- ./inp_files/38940.got.cif
#   From: 2010.05.17/outbox.cif.g08.bks.cpg/sg52_20_cif.got.tgz:38940.got - 2010.06.03 12:15:38.
