data_PCOD9408163
_publ_section_title
;
Structure prediction by ZEFSAII (Michael W. Deem and Ramdas Pophale) SiO2 
 PCOD9408163
Probable space group: P N N A
;
_chemical_formula_sum "Si O2"
_cell_formula_units_Z 40
_cell_length_a 10.738912
_cell_length_b 7.686150
_cell_length_c 21.873707
_cell_angle_alpha 90.000000
_cell_angle_beta 90.000000
_cell_angle_gamma 90.000000
_cell_volume 1805.475210
_symmetry_space_group_name_H-M "P N N A"
_symmetry_group_IT_number 52
_symmetry_cell_setting 'orthorhombic'
loop_
_space_group_symop_operation_xyz
x,y,z
1/2-x,-y,z
x,1/2-y,1/2-z
1/2-x,1/2+y,1/2-z
-x,-y,-z
1/2+x,y,-z
-x,1/2+y,1/2+z
1/2+x,1/2-y,1/2+z
loop_
_atom_site_type_symbol
_atom_site_label
_atom_site_fract_x
_atom_site_fract_y
_atom_site_fract_z
Si Si1 0.625936 0.387206 0.198101
Si Si2 0.389821 0.185382 0.492176
Si Si3 0.479179 0.779338 0.318734
Si Si4 0.212689 0.688860 0.613252
Si Si5 0.371473 0.716557 0.050213
O O1 0.750000 0.500000 0.214704
O O2 0.595205 0.250000 0.250000
O O3 0.517742 0.519109 0.182425
O O4 0.666166 0.279620 0.139250
O O5 0.347231 0.184292 0.563272
O O6 0.269343 0.274061 0.462315
O O7 0.523731 0.278184 0.500754
O O8 0.388940 0.993235 0.462129
O O9 0.431055 0.750000 0.250000
O O10 0.609511 0.676618 0.332371
O O11 0.400163 0.742408 0.379243
O O12 0.250000 0.500000 0.590221
#
# Coordination Sequence:
#
# PCOD9408163 Si02
#       5
#     8   8   8   8   8
#     4  10  18  28  49  77 114 149 190 242 295 350
#     4   9  19  33  58  85 116 147 196 236 291 352
#     4  10  20  33  54  81 112 155 200 244 295 356
#     4  10  19  31  52  86 120 148 185 250 305 348
#     4   9  19  34  59  87 111 151 198 241 286 356
#
# _framework density 22.154831999999999
#
# number of rings (size 3 to 8) (size 9 to 14) (size 15 to 20)
#    0.000    2.400    0.000    4.200   16.800    0.000 
#    0.000    4.000    4.400    4.800    0.000    0.000 
#    0.000    0.000    0.000    0.000    0.000    0.000 
#
# Total GULP energy -222865.094153 kJ/mol
# GULP energy per Si atom -5571.627354 kJ/mol
# Density = 2.210441 g / cm^3
# Si number density = 22.154832 Si / 1000 Ang^3
#
#
#
# Elastic Constant Matrix: (Units=GPa)
#
#
# Indices 1 2 3 4 5 6 
#
# 1 88.7724 2.7116 35.0010 0.0000 0.0000 0.0000
# 2 2.7116 66.4818 11.5328 0.0000 0.0000 0.0000
# 3 35.0010 11.5328 116.3281 0.0000 0.0000 0.0000
# 4 0.0000 0.0000 0.0000 27.8837 0.0000 0.0000
# 5 0.0000 0.0000 0.0000 0.0000 17.8996 0.0000
# 6 0.0000 0.0000 0.0000 0.0000 0.0000 3.0718
#
#
#
# Elastic Compliance Matrix: (Units=1/GPa)
#
#
# Indices 1 2 3 4 5 6 
#
# 1 0.012782 0.000148 -0.003861 0.000000 0.000000 0.000000
# 2 0.000148 0.015307 -0.001562 0.000000 0.000000 0.000000
# 3 -0.003861 -0.001562 0.009913 0.000000 0.000000 0.000000
# 4 0.000000 0.000000 0.000000 0.035863 0.000000 0.000000
# 5 0.000000 0.000000 0.000000 0.000000 0.055867 0.000000
# 6 0.000000 0.000000 0.000000 0.000000 0.000000 0.325541
#
#
# Mechanical properties :
#
#
# Convention : Reuss Voigt Hill
#
# Bulk Modulus (GPa) = 36.42591 41.11921 38.77256
# Shear Modulus (GPa) = 10.52692 24.59349 17.56020
#
# Velocity S-wave (km/s) = 2.18216 3.33539 2.81839
# Velocity P-wave (km/s) = 4.77769 5.78216 5.30376
#
# Compressibility (1/GPa) = 0.02745298
#
# Stress axis : x y z
#
# Youngs Moduli (GPa) = 78.23244 65.33110 100.87900
#
# Poissons Ratio (x) = -0.00969 0.38946
# Poissons Ratio (y) = -0.01161 0.15759
# Poissons Ratio (z) = 0.30203 0.10206
#
# Static dielectric constant tensor:
#      x y z
#    x 2.187580 0.000000 0.000000 
#    y 0.000000 1.873560 0.000000 
#    z 0.000000 0.000000 1.841620 
# 
# From -- ./inp_files/36653.got.cif
#   From: 2010.05.17/outbox.cif.g08.bks.cpg/sg52_19_cif.got.tgz:36653.got - 2010.06.03 12:15:38.
