data_PCOD9408199
_publ_section_title
;
Structure prediction by ZEFSAII (Michael W. Deem and Ramdas Pophale) SiO2 
 PCOD9408199
Probable space group: P N N A
;
_chemical_formula_sum "Si O2"
_cell_formula_units_Z 56
_cell_length_a 5.134614
_cell_length_b 23.291209
_cell_length_c 30.366299
_cell_angle_alpha 90.000000
_cell_angle_beta 90.000000
_cell_angle_gamma 90.000000
_cell_volume 3631.547233
_symmetry_space_group_name_H-M "P N N A"
_symmetry_group_IT_number 52
_symmetry_cell_setting 'orthorhombic'
loop_
_space_group_symop_operation_xyz
x,y,z
1/2-x,-y,z
x,1/2-y,1/2-z
1/2-x,1/2+y,1/2-z
-x,-y,-z
1/2+x,y,-z
-x,1/2+y,1/2+z
1/2+x,1/2-y,1/2+z
loop_
_atom_site_type_symbol
_atom_site_label
_atom_site_fract_x
_atom_site_fract_y
_atom_site_fract_z
Si Si1 0.053210 0.657511 0.261623
Si Si2 0.545606 0.616410 0.308001
Si Si3 0.750000 0.500000 0.350434
Si Si4 0.956596 0.073558 0.024775
Si Si5 0.557209 0.729252 0.369140
Si Si6 0.433239 0.271152 0.178739
Si Si7 0.050427 0.711488 0.527533
Si Si8 0.750000 0.500000 0.596116
O O1 0.270725 0.616501 0.282747
O O2 0.081111 0.673744 0.210452
O O3 0.093419 0.716490 0.288730
O O4 0.765620 0.636909 0.273734
O O5 0.628382 0.554244 0.325261
O O6 0.543214 0.664668 0.347341
O O7 0.496031 0.475711 0.376643
O O8 0.956226 0.141959 0.028033
O O9 0.101025 0.046998 0.066521
O O10 0.156511 0.057348 0.984952
O O11 0.298892 0.763187 0.355388
O O12 0.583296 0.727788 0.421613
O O13 0.796397 0.761583 0.346061
O O14 0.785290 0.730282 0.503993
#
# Coordination Sequence:
#
# PCOD9408199 Si02
#       8
#     8   8   4   8   8   8   8   4
#     4   9  17  31  47  66  86 106 129 173 224 263
#     4  10  20  32  46  62  87 112 141 178 218 261
#     4  12  24  33  44  64  84 116 146 174 218 271
#     4  10  20  33  46  58  73 102 143 188 236 272
#     4  10  18  30  46  65  85 109 141 183 220 254
#     4   9  17  28  48  69  84 102 133 173 224 266
#     4  10  20  31  43  59  83 113 143 176 217 264
#     4  12  22  33  46  58  78 100 144 198 232 261
#
# _framework density 15.420423
#
# number of rings (size 3 to 8) (size 9 to 14) (size 15 to 20)
#    0.000    2.000    0.000    4.714    0.000    8.000 
#    0.000    0.000    0.000    0.000    0.000    0.000 
#    0.000    0.000    0.000    0.000    0.000    0.000 
#
# Total GULP energy -312230.901419 kJ/mol
# GULP energy per Si atom -5575.551811 kJ/mol
# Density = 1.538533 g / cm^3
# Si number density = 15.420423 Si / 1000 Ang^3
#
#
#
# Elastic Constant Matrix: (Units=GPa)
#
#
# Indices 1 2 3 4 5 6 
#
# 1 52.1405 -4.7208 -1.7903 0.0000 0.0000 0.0000
# 2 -4.7208 15.7241 17.3276 0.0000 0.0000 0.0000
# 3 -1.7903 17.3276 62.4810 0.0000 0.0000 0.0000
# 4 0.0000 0.0000 0.0000 9.5511 0.0000 0.0000
# 5 0.0000 0.0000 0.0000 0.0000 40.3195 0.0000
# 6 0.0000 0.0000 0.0000 0.0000 0.0000 -425.9860
#
#
#
# Elastic Compliance Matrix: (Units=1/GPa)
#
#
# Indices 1 2 3 4 5 6 
#
# 1 0.019820 0.007668 -0.001559 0.000000 0.000000 0.000000
# 2 0.007668 0.094552 -0.026002 0.000000 0.000000 0.000000
# 3 -0.001559 -0.026002 0.023171 0.000000 0.000000 0.000000
# 4 0.000000 0.000000 0.000000 0.104700 0.000000 0.000000
# 5 0.000000 0.000000 0.000000 0.000000 0.024802 0.000000
# 6 0.000000 0.000000 0.000000 0.000000 0.000000 -0.002347
#
#
# Mechanical properties :
#
#
# Convention : Reuss Voigt Hill
#
# Bulk Modulus (GPa) = 10.22938 16.88653 13.55795
# Shear Modulus (GPa) = 14.83374 -67.25449 -26.21037
#
# Velocity S-wave (km/s) = 3.10490 -6.61125 -4.12724
# Velocity P-wave (km/s) = 4.41610 6.87776 3.72838
#
# Compressibility (1/GPa) = 0.09775765
#
# Stress axis : x y z
#
# Youngs Moduli (GPa) = 50.45491 10.57617 43.15693
#
# Poissons Ratio (x) = -0.08110 0.06727
# Poissons Ratio (y) = -0.38689 1.12217
# Poissons Ratio (z) = 0.07864 0.27500
#
# Static dielectric constant tensor:
#      x y z
#    x 1.551250 0.000000 0.000000 
#    y 0.000000 1.500270 0.000000 
#    z 0.000000 0.000000 1.538860 
# 
# From -- ./inp_files/38860.got.cif
#   From: 2010.05.17/outbox.cif.g08.bks.cpg/sg52_20_cif.got.tgz:38860.got - 2010.06.03 12:15:38.
