data_PCOD9408333
_publ_section_title
;
Structure prediction by ZEFSAII (Michael W. Deem and Ramdas Pophale) SiO2 
 PCOD9408333
Probable space group: P N N A
;
_chemical_formula_sum "Si O2"
_cell_formula_units_Z 64
_cell_length_a 26.508056
_cell_length_b 14.727566
_cell_length_c 8.135892
_cell_angle_alpha 90.000000
_cell_angle_beta 90.000000
_cell_angle_gamma 90.000000
_cell_volume 3176.245275
_symmetry_space_group_name_H-M "P N N A"
_symmetry_group_IT_number 52
_symmetry_cell_setting 'orthorhombic'
loop_
_space_group_symop_operation_xyz
x,y,z
1/2-x,-y,z
x,1/2-y,1/2-z
1/2-x,1/2+y,1/2-z
-x,-y,-z
1/2+x,y,-z
-x,1/2+y,1/2+z
1/2+x,1/2-y,1/2+z
loop_
_atom_site_type_symbol
_atom_site_label
_atom_site_fract_x
_atom_site_fract_y
_atom_site_fract_z
Si Si1 0.074818 0.664456 0.640062
Si Si2 0.632574 0.483517 0.257232
Si Si3 0.961925 0.472102 0.854894
Si Si4 0.045387 0.155698 0.168740
Si Si5 0.952364 0.646426 0.298480
Si Si6 0.341270 0.228816 0.060582
Si Si7 0.850083 0.428493 0.937821
Si Si8 0.805791 0.461935 0.570146
O O1 0.090782 0.750000 0.750000
O O2 0.095877 0.569932 0.706646
O O3 0.102621 0.688741 0.470888
O O4 0.015077 0.661819 0.643123
O O5 0.595251 0.400913 0.213023
O O6 0.664763 0.482112 0.426590
O O7 0.662017 0.504382 0.088483
O O8 0.944601 0.565943 0.772157
O O9 0.911194 0.423663 0.915931
O O10 0.996890 0.410979 0.736333
O O11 0.000000 0.500000 0.000000
O O12 0.062055 0.250000 0.250000
O O13 0.064692 0.143121 0.986644
O O14 0.961143 0.750000 0.250000
O O15 0.334483 0.250000 0.250000
O O16 0.332984 0.329727 0.994100
O O17 0.307113 0.143680 0.009790
O O18 0.829443 0.456621 0.756346
O O19 0.750000 0.500000 0.584159
#
# Coordination Sequence:
#
# PCOD9408333 Si02
#       8
#     8   8   8   8   8   8   8   8
#     4  10  18  32  55  89 126 162 212 265 321 376
#     4  11  22  42  65  92 129 173 213 274 334 397
#     4  12  23  39  60  97 136 180 225 270 324 397
#     4  11  24  36  55  87 129 183 228 269 322 380
#     4  12  26  38  59  87 137 182 232 266 318 402
#     4   9  20  34  61  96 125 157 212 271 336 389
#     4  11  22  39  71  97 136 169 223 274 336 396
#     4  10  24  43  69  98 129 163 215 285 353 408
#
# _framework density 20.149576
#
# number of rings (size 3 to 8) (size 9 to 14) (size 15 to 20)
#    0.000    1.250    3.750    1.875    8.750    0.500 
#    0.000    0.000   11.000    0.000    0.000    0.000 
#    0.000    0.000    0.000    0.000    0.000    0.000 
#
# Total GULP energy -356869.892045 kJ/mol
# GULP energy per Si atom -5576.092063 kJ/mol
# Density = 2.010371 g / cm^3
# Si number density = 20.149576 Si / 1000 Ang^3
#
#
#
# Elastic Constant Matrix: (Units=GPa)
#
#
# Indices 1 2 3 4 5 6 
#
# 1 71.6266 18.1444 12.5229 0.0000 0.0000 0.0000
# 2 18.1444 103.1544 15.9061 0.0000 0.0000 0.0000
# 3 12.5229 15.9061 74.7738 0.0000 0.0000 0.0000
# 4 0.0000 0.0000 0.0000 24.7514 0.0000 0.0000
# 5 0.0000 0.0000 0.0000 0.0000 13.9238 0.0000
# 6 0.0000 0.0000 0.0000 0.0000 0.0000 11.7209
#
#
#
# Elastic Compliance Matrix: (Units=1/GPa)
#
#
# Indices 1 2 3 4 5 6 
#
# 1 0.014897 -0.002311 -0.002003 0.000000 0.000000 0.000000
# 2 -0.002311 0.010382 -0.001821 0.000000 0.000000 0.000000
# 3 -0.002003 -0.001821 0.014097 0.000000 0.000000 0.000000
# 4 0.000000 0.000000 0.000000 0.040402 0.000000 0.000000
# 5 0.000000 0.000000 0.000000 0.000000 0.071820 0.000000
# 6 0.000000 0.000000 0.000000 0.000000 0.000000 0.085317
#
#
# Mechanical properties :
#
#
# Convention : Reuss Voigt Hill
#
# Bulk Modulus (GPa) = 36.89579 38.07796 37.48687
# Shear Modulus (GPa) = 19.36330 23.61131 21.48731
#
# Velocity S-wave (km/s) = 3.10333 3.42687 3.26911
# Velocity P-wave (km/s) = 5.58494 5.88189 5.73534
#
# Compressibility (1/GPa) = 0.02710336
#
# Stress axis : x y z
#
# Youngs Moduli (GPa) = 67.12739 96.32412 70.93911
#
# Poissons Ratio (x) = 0.22265 0.14211
# Poissons Ratio (y) = 0.15516 0.12920
# Poissons Ratio (z) = 0.13447 0.17543
#
# Static dielectric constant tensor:
#      x y z
#    x 1.688280 0.000000 0.000000 
#    y 0.000000 1.777800 0.000000 
#    z 0.000000 0.000000 1.796450 
# 
# From -- ./inp_files/14512.got.cif
#   From: 2010.05.17/outbox.cif.g08.bks.cpg/sg52_8_cif.got.tgz:14512.got - 2010.06.03 12:15:38.
