data_PCOD9408681
_publ_section_title
;
Structure prediction by ZEFSAII (Michael W. Deem and Ramdas Pophale) SiO2 
 PCOD9408681
Probable space group: P N N A
;
_chemical_formula_sum "Si O2"
_cell_formula_units_Z 56
_cell_length_a 26.798984
_cell_length_b 5.602382
_cell_length_c 15.393023
_cell_angle_alpha 90.000000
_cell_angle_beta 90.000000
_cell_angle_gamma 90.000000
_cell_volume 2311.079928
_symmetry_space_group_name_H-M "P N N A"
_symmetry_group_IT_number 52
_symmetry_cell_setting 'orthorhombic'
loop_
_space_group_symop_operation_xyz
x,y,z
1/2-x,-y,z
x,1/2-y,1/2-z
1/2-x,1/2+y,1/2-z
-x,-y,-z
1/2+x,y,-z
-x,1/2+y,1/2+z
1/2+x,1/2-y,1/2+z
loop_
_atom_site_type_symbol
_atom_site_label
_atom_site_fract_x
_atom_site_fract_y
_atom_site_fract_z
Si Si1 0.230451 0.249411 0.882873
Si Si2 0.707633 0.750000 0.750000
Si Si3 0.111196 0.062587 0.084643
Si Si4 0.528601 0.549355 0.093145
Si Si5 0.992674 0.445703 0.602889
Si Si6 0.352284 0.750000 0.250000
Si Si7 0.795081 0.238563 0.557399
Si Si8 0.868593 0.907699 0.451698
O O1 0.250000 0.500000 0.845569
O O2 0.255586 0.242887 0.980065
O O3 0.250000 0.000000 0.844816
O O4 0.171002 0.283143 0.887829
O O5 0.677574 0.500214 0.749567
O O6 0.730668 0.763707 0.652616
O O7 0.115815 0.244393 0.163592
O O8 0.066524 0.891074 0.110641
O O9 0.164735 0.948721 0.065940
O O10 0.099425 0.205005 0.998246
O O11 0.507005 0.789415 0.137242
O O12 0.588623 0.583520 0.082277
O O13 0.520111 0.290075 0.137262
O O14 0.500000 0.500000 0.000000
O O15 0.000000 0.500000 0.500000
O O16 0.832371 0.029941 0.523683
#
# Coordination Sequence:
#
# PCOD9408681 Si02
#       8
#     8   4   8   8   8   4   8   8
#     4  10  21  32  44  63  80 111 149 177 227 266
#     4  10  20  32  47  60  82 110 156 190 226 257
#     4  11  19  31  50  61  94 110 150 185 230 266
#     4  10  19  29  45  69  84 102 139 171 239 261
#     4  10  19  29  45  70  83 109 134 183 225 269
#     4  10  22  32  45  70  82 120 146 182 238 269
#     4  10  20  33  45  63  84 116 151 190 227 266
#     4  11  19  31  49  61  88 112 139 195 226 273
#
# _framework density 24.231096000000001
#
# number of rings (size 3 to 8) (size 9 to 14) (size 15 to 20)
#    0.000    1.714    5.714    1.714    0.000    0.000 
#    0.000    2.857    0.000    0.000    0.000    0.000 
#    0.000    0.000    0.000    0.000    0.000    0.000 
#
# Total GULP energy -311942.114170 kJ/mol
# GULP energy per Si atom -5570.394896 kJ/mol
# Density = 2.417594 g / cm^3
# Si number density = 24.231096 Si / 1000 Ang^3
#
#
#
# Elastic Constant Matrix: (Units=GPa)
#
#
# Indices 1 2 3 4 5 6 
#
# 1 135.7409 34.4727 15.8660 0.0000 0.0000 0.0000
# 2 34.4727 170.6503 6.9638 0.0000 0.0000 0.0000
# 3 15.8660 6.9638 58.6601 0.0000 0.0000 0.0000
# 4 0.0000 0.0000 0.0000 -25.3677 0.0000 0.0000
# 5 0.0000 0.0000 0.0000 0.0000 -2.3779 0.0000
# 6 0.0000 0.0000 0.0000 0.0000 0.0000 22.9112
#
#
#
# Elastic Compliance Matrix: (Units=1/GPa)
#
#
# Indices 1 2 3 4 5 6 
#
# 1 0.007987 -0.001533 -0.001978 0.000000 0.000000 0.000000
# 2 -0.001533 0.006183 -0.000319 0.000000 0.000000 0.000000
# 3 -0.001978 -0.000319 0.017620 0.000000 0.000000 0.000000
# 4 0.000000 0.000000 0.000000 -0.039420 0.000000 0.000000
# 5 0.000000 0.000000 0.000000 0.000000 -0.420542 0.000000
# 6 0.000000 0.000000 0.000000 0.000000 0.000000 0.043647
#
#
# Mechanical properties :
#
#
# Convention : Reuss Voigt Hill
#
# Bulk Modulus (GPa) = 41.44348 53.29514 47.36931
# Shear Modulus (GPa) = -13.55673 19.54971 2.99649
#
# Velocity S-wave (km/s) = -2.36789 2.84351 1.11324
# Velocity P-wave (km/s) = 3.10881 5.72914 4.60910
#
# Compressibility (1/GPa) = 0.02412925
#
# Stress axis : x y z
#
# Youngs Moduli (GPa) = 125.19572 161.74404 56.75241
#
# Poissons Ratio (x) = 0.24792 0.11228
# Poissons Ratio (y) = 0.19190 0.01813
# Poissons Ratio (z) = 0.24769 0.05166
#
# Static dielectric constant tensor:
#      x y z
#    x 1.948200 0.000000 0.000000 
#    y 0.000000 2.074940 0.000000 
#    z 0.000000 0.000000 1.935280 
# 
# From -- ./inp_files/38260.got.cif
#   From: 2010.05.17/outbox.cif.g08.bks.cpg/sg52_20_cif.got.tgz:38260.got - 2010.06.03 12:15:38.
