data_PCOD9408521
_publ_section_title
;
Structure prediction by ZEFSAII (Michael W. Deem and Ramdas Pophale) SiO2 
 PCOD9408521
Probable space group: P N N A
;
_chemical_formula_sum "Si O2"
_cell_formula_units_Z 48
_cell_length_a 9.893850
_cell_length_b 7.723780
_cell_length_c 28.849657
_cell_angle_alpha 90.000000
_cell_angle_beta 90.000000
_cell_angle_gamma 90.000000
_cell_volume 2204.630802
_symmetry_space_group_name_H-M "P N N A"
_symmetry_group_IT_number 52
_symmetry_cell_setting 'orthorhombic'
loop_
_space_group_symop_operation_xyz
x,y,z
1/2-x,-y,z
x,1/2-y,1/2-z
1/2-x,1/2+y,1/2-z
-x,-y,-z
1/2+x,y,-z
-x,1/2+y,1/2+z
1/2+x,1/2-y,1/2+z
loop_
_atom_site_type_symbol
_atom_site_label
_atom_site_fract_x
_atom_site_fract_y
_atom_site_fract_z
Si Si1 0.205091 0.202045 0.042515
Si Si2 0.588739 0.524129 0.826119
Si Si3 0.934549 0.329717 0.608805
Si Si4 0.447361 0.155563 0.595200
Si Si5 0.750000 0.000000 0.825467
Si Si6 0.170005 0.215512 0.562042
Si Si7 0.341484 0.250000 0.250000
O O1 0.317410 0.264373 0.078938
O O2 0.059693 0.252334 0.063346
O O3 0.250000 0.000000 0.039179
O O4 0.212675 0.277145 0.991217
O O5 0.750000 0.500000 0.834414
O O6 0.529454 0.693518 0.851634
O O7 0.508443 0.375843 0.853496
O O8 0.580352 0.586246 0.772544
O O9 0.057772 0.358489 0.574560
O O10 0.873640 0.486692 0.638401
O O11 0.301402 0.244221 0.593457
O O12 0.404294 0.967799 0.572764
O O13 0.755811 0.165119 0.791716
#
# Coordination Sequence:
#
# PCOD9408521 Si02
#       7
#     8   8   8   8   4   8   4
#     4  12  23  38  59  89 131 177 226 270 309 365
#     4  10  18  35  61  92 124 151 201 266 322 376
#     4  10  21  37  59  90 129 163 209 262 315 366
#     4  10  22  40  61  89 128 171 217 268 319 382
#     4  10  20  38  60  96 126 152 200 268 324 384
#     4  10  23  39  60  89 129 180 220 259 312 388
#     4  10  20  34  64  98 124 146 198 270 332 384
#
# _framework density 21.772354
#
# number of rings (size 3 to 8) (size 9 to 14) (size 15 to 20)
#    0.000    1.667    3.333    1.500    0.000    6.667 
#    0.000    0.000    0.000    0.000    0.000   85.167 
#    0.000    0.000    0.000    0.000    0.000    0.000 
#
# Total GULP energy -267382.161175 kJ/mol
# GULP energy per Si atom -5570.461691 kJ/mol
# Density = 2.172280 g / cm^3
# Si number density = 21.772354 Si / 1000 Ang^3
#
#
#
# Elastic Constant Matrix: (Units=GPa)
#
#
# Indices 1 2 3 4 5 6 
#
# 1 135.4280 32.2075 47.0896 0.0000 0.0000 0.0000
# 2 32.2075 66.2653 28.1134 0.0000 0.0000 0.0000
# 3 47.0896 28.1134 132.6428 0.0000 0.0000 0.0000
# 4 0.0000 0.0000 0.0000 35.4979 0.0000 0.0000
# 5 0.0000 0.0000 0.0000 0.0000 1.8255 0.0000
# 6 0.0000 0.0000 0.0000 0.0000 0.0000 24.9466
#
#
#
# Elastic Compliance Matrix: (Units=1/GPa)
#
#
# Indices 1 2 3 4 5 6 
#
# 1 0.009048 -0.003335 -0.002505 0.000000 0.000000 0.000000
# 2 -0.003335 0.017811 -0.002591 0.000000 0.000000 0.000000
# 3 -0.002505 -0.002591 0.008978 0.000000 0.000000 0.000000
# 4 0.000000 0.000000 0.000000 0.028171 0.000000 0.000000
# 5 0.000000 0.000000 0.000000 0.000000 0.547798 0.000000
# 6 0.000000 0.000000 0.000000 0.000000 0.000000 0.040086
#
#
# Mechanical properties :
#
#
# Convention : Reuss Voigt Hill
#
# Bulk Modulus (GPa) = 52.70316 61.01747 56.86031
# Shear Modulus (GPa) = 7.40654 27.58237 17.49446
#
# Velocity S-wave (km/s) = 1.84640 3.56315 2.83771
# Velocity P-wave (km/s) = 5.36699 6.70925 6.07531
#
# Compressibility (1/GPa) = 0.01897419
#
# Stress axis : x y z
#
# Youngs Moduli (GPa) = 110.51856 56.14499 111.38748
#
# Poissons Ratio (x) = 0.18724 0.27907
# Poissons Ratio (y) = 0.36857 0.28862
# Poissons Ratio (z) = 0.27689 0.14548
#
# Static dielectric constant tensor:
#      x y z
#    x 1.848370 0.000000 0.000000 
#    y 0.000000 2.014650 0.000000 
#    z 0.000000 0.000000 1.792070 
# 
# From -- ./inp_files/44421.got.cif
#   From: 2010.05.17/outbox.cif.g08.bks.cpg/sg52_23_cif.got.tgz:44421.got - 2010.06.03 12:15:38.
