data_PCOD9408707
_publ_section_title
;
Structure prediction by ZEFSAII (Michael W. Deem and Ramdas Pophale) SiO2 
 PCOD9408707
Probable space group: P N N A
;
_chemical_formula_sum "Si O2"
_cell_formula_units_Z 48
_cell_length_a 13.447984
_cell_length_b 9.419916
_cell_length_c 17.836163
_cell_angle_alpha 90.000000
_cell_angle_beta 90.000000
_cell_angle_gamma 90.000000
_cell_volume 2259.465146
_symmetry_space_group_name_H-M "P N N A"
_symmetry_group_IT_number 52
_symmetry_cell_setting 'orthorhombic'
loop_
_space_group_symop_operation_xyz
x,y,z
1/2-x,-y,z
x,1/2-y,1/2-z
1/2-x,1/2+y,1/2-z
-x,-y,-z
1/2+x,y,-z
-x,1/2+y,1/2+z
1/2+x,1/2-y,1/2+z
loop_
_atom_site_type_symbol
_atom_site_label
_atom_site_fract_x
_atom_site_fract_y
_atom_site_fract_z
Si Si1 0.985349 0.286833 0.570850
Si Si2 0.360497 0.028393 0.373495
Si Si3 0.139644 0.050979 0.543043
Si Si4 0.250000 0.500000 0.649450
Si Si5 0.216246 0.750000 0.750000
Si Si6 0.960912 0.131849 0.339755
Si Si7 0.962082 0.083559 0.095527
O O1 0.896809 0.184534 0.599262
O O2 0.979600 0.349290 0.486302
O O3 0.087066 0.193124 0.573944
O O4 0.988008 0.434508 0.614650
O O5 0.250000 0.000000 0.343646
O O6 0.361536 0.943544 0.453219
O O7 0.446772 0.967027 0.320211
O O8 0.250000 0.000000 0.564448
O O9 0.072077 0.927893 0.578684
O O10 0.275854 0.640748 0.698323
O O11 0.155445 0.551726 0.602725
O O12 0.140176 0.857449 0.707356
O O13 0.993000 0.294248 0.347216
#
# Coordination Sequence:
#
# PCOD9408707 Si02
#       7
#     8   8   8   4   4   8   8
#     4  10  19  33  51  83 114 150 174 227 293 340
#     4  10  19  34  57  81 106 145 196 228 280 344
#     4  10  19  30  56  80 111 148 189 224 276 347
#     4  10  24  38  56  82 110 158 190 230 270 352
#     4  10  24  36  56  76 110 152 196 230 284 324
#     4  10  19  38  52  77 113 144 188 236 277 332
#     4  10  20  34  51  78 120 141 180 224 296 330
#
# _framework density 21.243966
#
# number of rings (size 3 to 8) (size 9 to 14) (size 15 to 20)
#    0.000    2.000    3.333    1.000    5.833    1.333 
#    0.000    0.000    0.000    4.000    0.000    0.000 
#    0.000    0.000    0.000    0.000    0.000    0.000 
#
# Total GULP energy -267234.575748 kJ/mol
# GULP energy per Si atom -5567.386995 kJ/mol
# Density = 2.119561 g / cm^3
# Si number density = 21.243966 Si / 1000 Ang^3
#
#
#
# Elastic Constant Matrix: (Units=GPa)
#
#
# Indices 1 2 3 4 5 6 
#
# 1 105.2995 48.3428 3.0569 0.0000 0.0000 0.0000
# 2 48.3428 149.5529 10.0347 0.0000 0.0000 0.0000
# 3 3.0569 10.0347 19.2668 0.0000 0.0000 0.0000
# 4 0.0000 0.0000 0.0000 16.9676 0.0000 0.0000
# 5 0.0000 0.0000 0.0000 0.0000 13.5553 0.0000
# 6 0.0000 0.0000 0.0000 0.0000 0.0000 25.5493
#
#
#
# Elastic Compliance Matrix: (Units=1/GPa)
#
#
# Indices 1 2 3 4 5 6 
#
# 1 0.011152 -0.003612 0.000112 0.000000 0.000000 0.000000
# 2 -0.003612 0.008099 -0.003645 0.000000 0.000000 0.000000
# 3 0.000112 -0.003645 0.053783 0.000000 0.000000 0.000000
# 4 0.000000 0.000000 0.000000 0.058936 0.000000 0.000000
# 5 0.000000 0.000000 0.000000 0.000000 0.073772 0.000000
# 6 0.000000 0.000000 0.000000 0.000000 0.000000 0.039140
#
#
# Mechanical properties :
#
#
# Convention : Reuss Voigt Hill
#
# Bulk Modulus (GPa) = 17.02317 44.10978 30.56648
# Shear Modulus (GPa) = 17.93700 25.39344 21.66522
#
# Velocity S-wave (km/s) = 2.90889 3.46110 3.19694
# Velocity P-wave (km/s) = 4.39463 6.06472 5.29592
#
# Compressibility (1/GPa) = 0.05874345
#
# Stress axis : x y z
#
# Youngs Moduli (GPa) = 89.67090 123.47429 18.59314
#
# Poissons Ratio (x) = 0.44603 -0.00208
# Poissons Ratio (y) = 0.32392 0.06777
# Poissons Ratio (z) = -0.01004 0.45006
#
# Static dielectric constant tensor:
#      x y z
#    x 1.833150 0.000000 0.000000 
#    y 0.000000 1.809640 0.000000 
#    z 0.000000 0.000000 1.852970 
# 
# From -- ./inp_files/37234.got.cif
#   From: 2010.05.17/outbox.cif.g08.bks.cpg/sg52_19_cif.got.tgz:37234.got - 2010.06.03 12:15:38.
