data_PCOD9408486
_publ_section_title
;
Structure prediction by ZEFSAII (Michael W. Deem and Ramdas Pophale) SiO2 
 PCOD9408486
Probable space group: P N N A
;
_chemical_formula_sum "Si O2"
_cell_formula_units_Z 48
_cell_length_a 11.084425
_cell_length_b 11.736649
_cell_length_c 14.818006
_cell_angle_alpha 90.000000
_cell_angle_beta 90.000000
_cell_angle_gamma 90.000000
_cell_volume 1927.733755
_symmetry_space_group_name_H-M "P N N A"
_symmetry_group_IT_number 52
_symmetry_cell_setting 'orthorhombic'
loop_
_space_group_symop_operation_xyz
x,y,z
1/2-x,-y,z
x,1/2-y,1/2-z
1/2-x,1/2+y,1/2-z
-x,-y,-z
1/2+x,y,-z
-x,1/2+y,1/2+z
1/2+x,1/2-y,1/2+z
loop_
_atom_site_type_symbol
_atom_site_label
_atom_site_fract_x
_atom_site_fract_y
_atom_site_fract_z
Si Si1 0.028671 0.170054 0.168929
Si Si2 0.017018 0.439085 0.597346
Si Si3 0.180494 0.268644 0.916744
Si Si4 0.918811 0.368648 0.095075
Si Si5 0.557506 0.578088 0.895144
Si Si6 0.712996 0.776646 0.882457
O O1 0.986954 0.250000 0.250000
O O2 0.975881 0.045760 0.163788
O O3 0.172709 0.170552 0.167265
O O4 0.983738 0.246253 0.083687
O O5 0.897090 0.364666 0.613463
O O6 0.000000 0.500000 0.500000
O O7 0.131703 0.356692 0.607933
O O8 0.289349 0.333888 0.865837
O O9 0.064584 0.348256 0.903178
O O10 0.235398 0.250758 0.017148
O O11 0.017140 0.454302 0.138439
O O12 0.896198 0.429681 0.998630
O O13 0.656542 0.657086 0.846465
#
# Coordination Sequence:
#
# PCOD9408486 Si02
#       6
#     8   8   8   8   8   8
#     4  12  25  41  57  89 137 174 212 265 346 421
#     4  11  21  38  67  96 121 163 231 293 323 384
#     4  10  18  34  66  93 118 155 217 292 324 358
#     4  10  20  35  58  90 126 165 208 259 331 394
#     4   9  18  34  61  93 123 154 213 273 320 387
#     4  10  20  37  59  96 126 161 215 269 341 387
#
# _framework density 24.899704
#
# number of rings (size 3 to 8) (size 9 to 14) (size 15 to 20)
#    0.000    1.667    3.333    3.000    0.000    2.667 
#    6.000    0.000    7.333    0.000    0.000    0.000 
#    0.000    0.000    0.000    0.000    0.000    0.000 
#
# Total GULP energy -268035.537383 kJ/mol
# GULP energy per Si atom -5584.073695 kJ/mol
# Density = 2.484303 g / cm^3
# Si number density = 24.899704 Si / 1000 Ang^3
#
#
#
# Elastic Constant Matrix: (Units=GPa)
#
#
# Indices 1 2 3 4 5 6 
#
# 1 137.5149 68.9153 5.6486 0.0000 0.0000 0.0000
# 2 68.9153 167.1089 -5.8227 0.0000 0.0000 0.0000
# 3 5.6486 -5.8227 38.7092 0.0000 0.0000 0.0000
# 4 0.0000 0.0000 0.0000 22.6842 0.0000 0.0000
# 5 0.0000 0.0000 0.0000 0.0000 16.7765 0.0000
# 6 0.0000 0.0000 0.0000 0.0000 0.0000 52.2397
#
#
#
# Elastic Compliance Matrix: (Units=1/GPa)
#
#
# Indices 1 2 3 4 5 6 
#
# 1 0.009310 -0.003907 -0.001946 0.000000 0.000000 0.000000
# 2 -0.003907 0.007655 0.001722 0.000000 0.000000 0.000000
# 3 -0.001946 0.001722 0.026377 0.000000 0.000000 0.000000
# 4 0.000000 0.000000 0.000000 0.044084 0.000000 0.000000
# 5 0.000000 0.000000 0.000000 0.000000 0.059607 0.000000
# 6 0.000000 0.000000 0.000000 0.000000 0.000000 0.019143
#
#
# Mechanical properties :
#
#
# Convention : Reuss Voigt Hill
#
# Bulk Modulus (GPa) = 28.50750 53.42392 40.96571
# Shear Modulus (GPa) = 26.86271 36.64620 31.75445
#
# Velocity S-wave (km/s) = 3.28813 3.84050 3.57500
# Velocity P-wave (km/s) = 5.08817 6.41624 5.79041
#
# Compressibility (1/GPa) = 0.03507849
#
# Stress axis : x y z
#
# Youngs Moduli (GPa) = 107.41148 130.62593 37.91230
#
# Poissons Ratio (x) = 0.51039 0.07379
# Poissons Ratio (y) = 0.41968 -0.06527
# Poissons Ratio (z) = 0.20905 -0.22490
#
# Static dielectric constant tensor:
#      x y z
#    x 1.980620 0.000000 0.000000 
#    y 0.000000 1.984420 0.000000 
#    z 0.000000 0.000000 2.210030 
# 
# From -- ./inp_files/32233.got.cif
#   From: 2010.05.17/outbox.cif.g08.bks.cpg/sg52_17_cif.got.tgz:32233.got - 2010.06.03 12:15:38.
