data_PCOD9408156
_publ_section_title
;
Structure prediction by ZEFSAII (Michael W. Deem and Ramdas Pophale) SiO2 
 PCOD9408156
Probable space group: P N N A
;
_chemical_formula_sum "Si O2"
_cell_formula_units_Z 48
_cell_length_a 24.404475
_cell_length_b 20.635427
_cell_length_c 5.046769
_cell_angle_alpha 90.000000
_cell_angle_beta 90.000000
_cell_angle_gamma 90.000000
_cell_volume 2541.536529
_symmetry_space_group_name_H-M "P N N A"
_symmetry_group_IT_number 52
_symmetry_cell_setting 'orthorhombic'
loop_
_space_group_symop_operation_xyz
x,y,z
1/2-x,-y,z
x,1/2-y,1/2-z
1/2-x,1/2+y,1/2-z
-x,-y,-z
1/2+x,y,-z
-x,1/2+y,1/2+z
1/2+x,1/2-y,1/2+z
loop_
_atom_site_type_symbol
_atom_site_label
_atom_site_fract_x
_atom_site_fract_y
_atom_site_fract_z
Si Si1 0.452931 0.532678 0.176275
Si Si2 0.079692 0.250000 0.750000
Si Si3 0.158806 0.250000 0.250000
Si Si4 0.717531 0.932485 0.301038
Si Si5 0.565986 0.387358 0.326299
Si Si6 0.190118 0.116275 0.043731
Si Si7 0.838495 0.025769 0.797295
O O1 0.464537 0.566602 0.460347
O O2 0.401504 0.485614 0.225059
O O3 0.500000 0.500000 0.000000
O O4 0.433480 0.587798 0.972487
O O5 0.119548 0.237232 0.501292
O O6 0.045763 0.313755 0.677556
O O7 0.192021 0.183551 0.202145
O O8 0.691133 0.927303 0.588359
O O9 0.750000 0.000000 0.304577
O O10 0.762016 0.884427 0.175554
O O11 0.669700 0.944759 0.087081
O O12 0.629399 0.385591 0.417194
O O13 0.189813 0.046743 0.198733
#
# Coordination Sequence:
#
# PCOD9408156 Si02
#       7
#     8   4   4   8   8   8   8
#     4  11  21  34  50  72 100 129 166 213 261 297
#     4  10  18  32  50  74 103 136 163 194 252 312
#     4  10  20  30  48  74 107 138 161 194 244 314
#     4  10  18  28  46  68  95 127 160 192 230 286
#     4  10  20  32  50  74 103 130 159 201 247 309
#     4   9  19  32  49  75 105 132 161 197 248 301
#     4  10  19  30  46  68  94 127 163 201 240 290
#
# _framework density 18.886210999999999
#
# number of rings (size 3 to 8) (size 9 to 14) (size 15 to 20)
#    0.000    2.000    0.000    8.000    0.000    6.667 
#    0.000    0.000    0.000    0.000    0.000    7.000 
#    0.000    0.000    0.000    0.000    0.000    0.000 
#
# Total GULP energy -267588.467199 kJ/mol
# GULP energy per Si atom -5574.759733 kJ/mol
# Density = 1.884323 g / cm^3
# Si number density = 18.886211 Si / 1000 Ang^3
#
#
#
# Elastic Constant Matrix: (Units=GPa)
#
#
# Indices 1 2 3 4 5 6 
#
# 1 41.8365 3.0185 -1.2065 0.0000 0.0000 0.0000
# 2 3.0185 51.8440 3.2161 0.0000 0.0000 0.0000
# 3 -1.2065 3.2161 91.2429 0.0000 0.0000 0.0000
# 4 0.0000 0.0000 0.0000 29.3401 0.0000 0.0000
# 5 0.0000 0.0000 0.0000 0.0000 15.5415 0.0000
# 6 0.0000 0.0000 0.0000 0.0000 0.0000 10.7159
#
#
#
# Elastic Compliance Matrix: (Units=1/GPa)
#
#
# Indices 1 2 3 4 5 6 
#
# 1 0.024016 -0.001421 0.000368 0.000000 0.000000 0.000000
# 2 -0.001421 0.019415 -0.000703 0.000000 0.000000 0.000000
# 3 0.000368 -0.000703 0.010989 0.000000 0.000000 0.000000
# 4 0.000000 0.000000 0.000000 0.034083 0.000000 0.000000
# 5 0.000000 0.000000 0.000000 0.000000 0.064344 0.000000
# 6 0.000000 0.000000 0.000000 0.000000 0.000000 0.093319
#
#
# Mechanical properties :
#
#
# Convention : Reuss Voigt Hill
#
# Bulk Modulus (GPa) = 19.64366 21.66440 20.65403
# Shear Modulus (GPa) = 18.75129 23.11253 20.93191
#
# Velocity S-wave (km/s) = 3.15438 3.50205 3.33275
# Velocity P-wave (km/s) = 4.86728 5.27716 5.07636
#
# Compressibility (1/GPa) = 0.05090702
#
# Stress axis : x y z
#
# Youngs Moduli (GPa) = 41.63938 51.50658 90.99681
#
# Poissons Ratio (x) = 0.07320 -0.03345
# Poissons Ratio (y) = 0.05917 0.06398
# Poissons Ratio (z) = -0.01531 0.03622
#
# Static dielectric constant tensor:
#      x y z
#    x 1.690400 0.000000 0.000000 
#    y 0.000000 1.733500 0.000000 
#    z 0.000000 0.000000 1.778420 
# 
# From -- ./inp_files/5896.got.cif
#   From: 2010.05.17/outbox.cif.g08.bks.cpg/sg52_3_cif.got.tgz:5896.got - 2010.06.03 12:15:38.
