data_PCOD9408912
_publ_section_title
;
Structure prediction by ZEFSAII (Michael W. Deem and Ramdas Pophale) SiO2 
 PCOD9408912
Probable space group: P N N A
;
_chemical_formula_sum "Si O2"
_cell_formula_units_Z 64
_cell_length_a 9.694884
_cell_length_b 28.357988
_cell_length_c 11.648627
_cell_angle_alpha 90.000000
_cell_angle_beta 90.000000
_cell_angle_gamma 90.000000
_cell_volume 3202.526783
_symmetry_space_group_name_H-M "P N N A"
_symmetry_group_IT_number 52
_symmetry_cell_setting 'orthorhombic'
loop_
_space_group_symop_operation_xyz
x,y,z
1/2-x,-y,z
x,1/2-y,1/2-z
1/2-x,1/2+y,1/2-z
-x,-y,-z
1/2+x,y,-z
-x,1/2+y,1/2+z
1/2+x,1/2-y,1/2+z
loop_
_atom_site_type_symbol
_atom_site_label
_atom_site_fract_x
_atom_site_fract_y
_atom_site_fract_z
Si Si1 0.098723 0.519618 0.177944
Si Si2 0.635642 0.960049 0.409987
Si Si3 0.460380 0.120270 0.251367
Si Si4 0.197065 0.330675 0.162302
Si Si5 0.197392 0.133457 0.595033
Si Si6 0.090505 0.702716 0.823416
Si Si7 0.925696 0.790414 0.146006
Si Si8 0.311924 0.253528 0.471438
O O1 0.250000 0.500000 0.205546
O O2 0.054606 0.563683 0.258081
O O3 0.993433 0.475917 0.166645
O O4 0.100691 0.538862 0.045854
O O5 0.708813 0.911569 0.380463
O O6 0.750000 0.000000 0.393788
O O7 0.310286 0.144058 0.260084
O O8 0.539355 0.127200 0.372274
O O9 0.560385 0.153483 0.175214
O O10 0.042091 0.327728 0.208968
O O11 0.200000 0.356697 0.039809
O O12 0.237754 0.277395 0.125990
O O13 0.267522 0.174324 0.671355
O O14 0.094561 0.750000 0.750000
O O15 0.087746 0.718712 0.955650
O O16 0.926309 0.750000 0.250000
O O17 0.800513 0.776519 0.058438
O O18 0.074722 0.785599 0.085605
#
# Coordination Sequence:
#
# PCOD9408912 Si02
#       8
#     8   8   8   8   8   8   8   8
#     4  10  22  34  53  83 119 156 194 248 307 380
#     4  10  19  34  54  78 118 161 199 240 307 384
#     4  12  23  36  57  86 121 157 207 250 302 379
#     4  11  22  33  52  80 118 160 201 243 295 360
#     4  11  21  36  55  82 115 163 203 241 305 364
#     4  11  24  37  55  83 120 161 208 253 294 363
#     4  12  24  41  64  91 124 171 213 263 316 366
#     4  11  22  42  57  83 124 165 212 260 305 364
#
# _framework density 19.984220000000001
#
# number of rings (size 3 to 8) (size 9 to 14) (size 15 to 20)
#    0.000    1.000    5.000    4.125    3.500    0.000 
#    0.000    0.000    0.000    0.000    0.000    0.875 
#    0.000    0.000    0.000    0.000    0.000    0.000 
#
# Total GULP energy -356686.077085 kJ/mol
# GULP energy per Si atom -5573.219954 kJ/mol
# Density = 1.993873 g / cm^3
# Si number density = 19.984220 Si / 1000 Ang^3
#
#
#
# Elastic Constant Matrix: (Units=GPa)
#
#
# Indices 1 2 3 4 5 6 
#
# 1 79.1645 22.8848 5.3637 0.0000 0.0000 0.0000
# 2 22.8848 104.3504 11.8575 0.0000 0.0000 0.0000
# 3 5.3637 11.8575 17.8506 0.0000 0.0000 0.0000
# 4 0.0000 0.0000 0.0000 14.3151 0.0000 0.0000
# 5 0.0000 0.0000 0.0000 0.0000 -3.5344 0.0000
# 6 0.0000 0.0000 0.0000 0.0000 0.0000 28.7444
#
#
#
# Elastic Compliance Matrix: (Units=1/GPa)
#
#
# Indices 1 2 3 4 5 6 
#
# 1 0.013572 -0.002718 -0.002272 0.000000 0.000000 0.000000
# 2 -0.002718 0.010910 -0.006430 0.000000 0.000000 0.000000
# 3 -0.002272 -0.006430 0.060975 0.000000 0.000000 0.000000
# 4 0.000000 0.000000 0.000000 0.069856 0.000000 0.000000
# 5 0.000000 0.000000 0.000000 0.000000 -0.282936 0.000000
# 6 0.000000 0.000000 0.000000 0.000000 0.000000 0.034789
#
#
# Mechanical properties :
#
#
# Convention : Reuss Voigt Hill
#
# Bulk Modulus (GPa) = 15.97075 31.28641 23.62858
# Shear Modulus (GPa) = -101.78969 18.65566 -41.56701
#
# Velocity S-wave (km/s) = -7.14462 3.05867 -4.56564
# Velocity P-wave (km/s) = 7.74931 5.30693 3.99301
#
# Compressibility (1/GPa) = 0.06261447
#
# Stress axis : x y z
#
# Youngs Moduli (GPa) = 73.68302 91.65996 16.40024
#
# Poissons Ratio (x) = 0.24914 0.03727
# Poissons Ratio (y) = 0.20028 0.10546
# Poissons Ratio (z) = 0.16744 0.58940
#
# Static dielectric constant tensor:
#      x y z
#    x 1.809980 0.000000 0.000000 
#    y 0.000000 1.731220 0.000000 
#    z 0.000000 0.000000 1.771060 
# 
# From -- ./inp_files/17251.got.cif
#   From: 2010.05.17/outbox.cif.g08.bks.cpg/sg52_9_cif.got.tgz:17251.got - 2010.06.03 12:15:38.
