data_PCOD9408430
_publ_section_title
;
Structure prediction by ZEFSAII (Michael W. Deem and Ramdas Pophale) SiO2 
 PCOD9408430
Probable space group: P N N A
;
_chemical_formula_sum "Si O2"
_cell_formula_units_Z 56
_cell_length_a 21.089922
_cell_length_b 5.009698
_cell_length_c 23.945911
_cell_angle_alpha 90.000000
_cell_angle_beta 90.000000
_cell_angle_gamma 90.000000
_cell_volume 2529.984635
_symmetry_space_group_name_H-M "P N N A"
_symmetry_group_IT_number 52
_symmetry_cell_setting 'orthorhombic'
loop_
_space_group_symop_operation_xyz
x,y,z
1/2-x,-y,z
x,1/2-y,1/2-z
1/2-x,1/2+y,1/2-z
-x,-y,-z
1/2+x,y,-z
-x,1/2+y,1/2+z
1/2+x,1/2-y,1/2+z
loop_
_atom_site_type_symbol
_atom_site_label
_atom_site_fract_x
_atom_site_fract_y
_atom_site_fract_z
Si Si1 0.984265 0.631460 0.191061
Si Si2 0.167077 0.850802 0.876639
Si Si3 0.143586 0.602634 0.988010
Si Si4 0.670122 0.353720 0.190016
Si Si5 0.485728 0.128846 0.876927
Si Si6 0.711179 0.220808 0.582712
Si Si7 0.586528 0.135113 0.963410
O O1 0.006310 0.750000 0.250000
O O2 0.003959 0.339033 0.171512
O O3 0.907092 0.638126 0.193262
O O4 0.003752 0.834915 0.142805
O O5 0.181882 0.721174 0.935947
O O6 0.187875 0.650925 0.827567
O O7 0.090211 0.850577 0.879884
O O8 0.186436 0.146679 0.859482
O O9 0.192215 0.477009 0.031508
O O10 0.098173 0.341885 0.984924
O O11 0.104168 0.844234 0.014468
O O12 0.691834 0.250000 0.250000
O O13 0.519116 0.179705 0.935534
O O14 0.750000 0.500000 0.575427
O O15 0.637470 0.316753 0.588002
O O16 0.750000 0.000000 0.619391
#
# Coordination Sequence:
#
# PCOD9408430 Si02
#       7
#     8   8   8   8   8   8   8
#     4   9  17  29  45  64  90 128 170 202 227 260
#     4  10  19  30  45  67  99 133 161 192 230 277
#     4  10  20  31  47  70  95 128 155 195 228 292
#     4   9  17  29  45  64  90 130 169 199 228 261
#     4  10  19  30  45  67  99 131 162 194 229 276
#     4  10  18  34  51  66  89 120 152 200 246 276
#     4  10  20  31  47  70  95 126 156 197 226 292
#
# _framework density 22.134520999999999
#
# number of rings (size 3 to 8) (size 9 to 14) (size 15 to 20)
#    0.857    1.429    1.429    2.571    0.000    4.571 
#    0.000    0.000    0.000    0.000    0.000    0.000 
#    0.000   14.857    0.857    0.000    0.000    0.000 
#
# Total GULP energy -311810.373998 kJ/mol
# GULP energy per Si atom -5568.042393 kJ/mol
# Density = 2.208414 g / cm^3
# Si number density = 22.134521 Si / 1000 Ang^3
#
#
#
# Elastic Constant Matrix: (Units=GPa)
#
#
# Indices 1 2 3 4 5 6 
#
# 1 63.9553 25.2005 13.9625 0.0000 0.0000 0.0000
# 2 25.2005 118.7624 15.3081 0.0000 0.0000 0.0000
# 3 13.9625 15.3081 44.3674 0.0000 0.0000 0.0000
# 4 0.0000 0.0000 0.0000 18.7048 0.0000 0.0000
# 5 0.0000 0.0000 0.0000 0.0000 13.5407 0.0000
# 6 0.0000 0.0000 0.0000 0.0000 0.0000 2.7467
#
#
#
# Elastic Compliance Matrix: (Units=1/GPa)
#
#
# Indices 1 2 3 4 5 6 
#
# 1 0.017889 -0.003213 -0.004521 0.000000 0.000000 0.000000
# 2 -0.003213 0.009389 -0.002228 0.000000 0.000000 0.000000
# 3 -0.004521 -0.002228 0.024731 0.000000 0.000000 0.000000
# 4 0.000000 0.000000 0.000000 0.053462 0.000000 0.000000
# 5 0.000000 0.000000 0.000000 0.000000 0.073852 0.000000
# 6 0.000000 0.000000 0.000000 0.000000 0.000000 0.364076
#
#
# Mechanical properties :
#
#
# Convention : Reuss Voigt Hill
#
# Bulk Modulus (GPa) = 31.16844 37.33636 34.25240
# Shear Modulus (GPa) = 8.71052 18.50603 13.60827
#
# Velocity S-wave (km/s) = 1.98590 2.89463 2.48220
# Velocity P-wave (km/s) = 4.40118 5.29871 4.87066
#
# Compressibility (1/GPa) = 0.03208373
#
# Stress axis : x y z
#
# Youngs Moduli (GPa) = 55.90017 106.50519 40.43555
#
# Poissons Ratio (x) = 0.34222 0.18281
# Poissons Ratio (y) = 0.17962 0.09011
# Poissons Ratio (z) = 0.25273 0.23733
#
# Static dielectric constant tensor:
#      x y z
#    x 2.067820 0.000000 0.000000 
#    y 0.000000 1.883810 0.000000 
#    z 0.000000 0.000000 1.861500 
# 
# From -- ./inp_files/38148.got.cif
#   From: 2010.05.17/outbox.cif.g08.bks.cpg/sg52_20_cif.got.tgz:38148.got - 2010.06.03 12:15:38.
