data_PCOD9408263
_publ_section_title
;
Structure prediction by ZEFSAII (Michael W. Deem and Ramdas Pophale) SiO2 
 PCOD9408263
Probable space group: P N N A
;
_chemical_formula_sum "Si O2"
_cell_formula_units_Z 40
_cell_length_a 9.252539
_cell_length_b 10.120080
_cell_length_c 22.359241
_cell_angle_alpha 90.000000
_cell_angle_beta 90.000000
_cell_angle_gamma 90.000000
_cell_volume 2093.639614
_symmetry_space_group_name_H-M "P N N A"
_symmetry_group_IT_number 52
_symmetry_cell_setting 'orthorhombic'
loop_
_space_group_symop_operation_xyz
x,y,z
1/2-x,-y,z
x,1/2-y,1/2-z
1/2-x,1/2+y,1/2-z
-x,-y,-z
1/2+x,y,-z
-x,1/2+y,1/2+z
1/2+x,1/2-y,1/2+z
loop_
_atom_site_type_symbol
_atom_site_label
_atom_site_fract_x
_atom_site_fract_y
_atom_site_fract_z
Si Si1 0.636641 0.776073 0.898680
Si Si2 0.475004 0.735782 0.362506
Si Si3 0.423725 0.026335 0.331312
Si Si4 0.923305 0.481159 0.699626
Si Si5 0.119730 0.901499 0.974354
O O1 0.803550 0.771610 0.877605
O O2 0.559727 0.639546 0.880777
O O3 0.558504 0.888988 0.858573
O O4 0.647744 0.808994 0.968264
O O5 0.493438 0.624283 0.311642
O O6 0.564379 0.684794 0.419237
O O7 0.500111 0.887375 0.345124
O O8 0.465906 0.073578 0.264561
O O9 0.250000 0.000000 0.330003
O O10 0.750000 0.500000 0.703079
O O11 0.250000 0.000000 0.958343
O O12 0.000000 0.000000 0.000000
#
# Coordination Sequence:
#
# PCOD9408263 Si02
#       5
#     8   8   8   8   8
#     4  10  18  31  51  79 111 138 178 224 266 322
#     4  10  19  32  51  79 109 139 177 226 269 323
#     4   9  18  29  48  81 114 139 169 223 284 315
#     4   9  15  28  50  78 109 138 173 217 265 322
#     4  12  21  36  56  80 103 141 187 227 266 322
#
# _framework density 19.105485999999999
#
# number of rings (size 3 to 8) (size 9 to 14) (size 15 to 20)
#    0.000    2.000    4.000    1.800    0.000    5.600 
#    0.000    0.000    0.000    0.000   10.400    0.000 
#    0.000    0.000    0.000    0.000    0.000    0.000 
#
# Total GULP energy -222814.482919 kJ/mol
# GULP energy per Si atom -5570.362073 kJ/mol
# Density = 1.906200 g / cm^3
# Si number density = 19.105486 Si / 1000 Ang^3
#
#
#
# Elastic Constant Matrix: (Units=GPa)
#
#
# Indices 1 2 3 4 5 6 
#
# 1 21.3052 14.0630 3.4580 0.0000 0.0000 0.0000
# 2 14.0630 117.7915 47.1019 0.0000 0.0000 0.0000
# 3 3.4580 47.1019 94.0855 0.0000 0.0000 0.0000
# 4 0.0000 0.0000 0.0000 22.4436 0.0000 0.0000
# 5 0.0000 0.0000 0.0000 0.0000 10.3824 0.0000
# 6 0.0000 0.0000 0.0000 0.0000 0.0000 13.3311
#
#
#
# Elastic Compliance Matrix: (Units=1/GPa)
#
#
# Indices 1 2 3 4 5 6 
#
# 1 0.051114 -0.006691 0.001471 0.000000 0.000000 0.000000
# 2 -0.006691 0.011490 -0.005506 0.000000 0.000000 0.000000
# 3 0.001471 -0.005506 0.013331 0.000000 0.000000 0.000000
# 4 0.000000 0.000000 0.000000 0.044556 0.000000 0.000000
# 5 0.000000 0.000000 0.000000 0.000000 0.096317 0.000000
# 6 0.000000 0.000000 0.000000 0.000000 0.000000 0.075013
#
#
# Mechanical properties :
#
#
# Convention : Reuss Voigt Hill
#
# Bulk Modulus (GPa) = 18.35420 40.26980 29.31200
# Shear Modulus (GPa) = 15.08589 20.46871 17.77730
#
# Velocity S-wave (km/s) = 2.81305 3.27670 3.05369
# Velocity P-wave (km/s) = 4.49206 5.95307 5.27341
#
# Compressibility (1/GPa) = 0.05448344
#
# Stress axis : x y z
#
# Youngs Moduli (GPa) = 19.56395 87.03031 75.01176
#
# Poissons Ratio (x) = 0.58229 -0.11033
# Poissons Ratio (y) = 0.13090 0.41305
# Poissons Ratio (z) = -0.02878 0.47923
#
# Static dielectric constant tensor:
#      x y z
#    x 1.655980 0.000000 0.000000 
#    y 0.000000 1.712170 0.000000 
#    z 0.000000 0.000000 1.695240 
# 
# From -- ./inp_files/35784.got.cif
#   From: 2010.05.17/outbox.cif.g08.bks.cpg/sg52_18_cif.got.tgz:35784.got - 2010.06.03 12:15:38.
