data_PCOD9408181
_publ_section_title
;
Structure prediction by ZEFSAII (Michael W. Deem and Ramdas Pophale) SiO2 
 PCOD9408181
Probable space group: P N N A
;
_chemical_formula_sum "Si O2"
_cell_formula_units_Z 56
_cell_length_a 5.437878
_cell_length_b 24.556543
_cell_length_c 17.533845
_cell_angle_alpha 90.000000
_cell_angle_beta 90.000000
_cell_angle_gamma 90.000000
_cell_volume 2341.390495
_symmetry_space_group_name_H-M "P N N A"
_symmetry_group_IT_number 52
_symmetry_cell_setting 'orthorhombic'
loop_
_space_group_symop_operation_xyz
x,y,z
1/2-x,-y,z
x,1/2-y,1/2-z
1/2-x,1/2+y,1/2-z
-x,-y,-z
1/2+x,y,-z
-x,1/2+y,1/2+z
1/2+x,1/2-y,1/2+z
loop_
_atom_site_type_symbol
_atom_site_label
_atom_site_fract_x
_atom_site_fract_y
_atom_site_fract_z
Si Si1 0.768080 0.065314 0.541792
Si Si2 0.061240 0.196054 0.908774
Si Si3 0.559694 0.270319 0.664097
Si Si4 0.735538 0.437342 0.284194
Si Si5 0.235974 0.066970 0.287025
Si Si6 0.946365 0.698258 0.978995
Si Si7 0.884353 0.923532 0.039579
O O1 0.548804 0.074773 0.482157
O O2 0.703251 0.086312 0.626443
O O3 0.750000 0.000000 0.552822
O O4 0.300772 0.200216 0.854588
O O5 0.093191 0.142146 0.958548
O O6 0.804575 0.197393 0.862737
O O7 0.059177 0.247952 0.965808
O O8 0.576955 0.250000 0.750000
O O9 0.552372 0.218556 0.606987
O O10 0.750000 0.500000 0.257281
O O11 0.497757 0.411949 0.243782
O O12 0.677648 0.438153 0.373641
O O13 0.002233 0.414127 0.262806
O O14 0.250000 0.000000 0.281726
O O15 0.694863 0.668986 0.998215
O O16 0.651951 0.941856 0.989124
#
# Coordination Sequence:
#
# PCOD9408181 Si02
#       7
#     8   8   8   8   8   8   8
#     4   9  15  23  40  67  94 118 146 184 236 306
#     4  10  19  33  49  71 103 135 163 197 251 307
#     4  10  18  29  48  74 103 129 155 195 242 291
#     4  10  21  35  50  70  99 138 182 229 280 330
#     4   9  17  31  47  65  98 134 160 204 273 333
#     4   8  14  25  41  60  90 125 151 178 223 276
#     4  12  23  36  55  75  98 137 184 229 276 321
#
# _framework density 23.917411000000001
#
# number of rings (size 3 to 8) (size 9 to 14) (size 15 to 20)
#    0.000    2.286    0.000    5.571    0.000    4.000 
#    0.000    0.000    0.000    0.000    0.000    0.000 
#    0.000   68.571    0.000    0.000    0.000    0.000 
#
# Total GULP energy -313144.297525 kJ/mol
# GULP energy per Si atom -5591.862456 kJ/mol
# Density = 2.386297 g / cm^3
# Si number density = 23.917411 Si / 1000 Ang^3
#
#
#
# Elastic Constant Matrix: (Units=GPa)
#
#
# Indices 1 2 3 4 5 6 
#
# 1 232.7049 20.4963 72.2058 0.0000 0.0000 0.0000
# 2 20.4963 46.6636 -9.4626 0.0000 0.0000 0.0000
# 3 72.2058 -9.4626 131.6292 0.0000 0.0000 0.0000
# 4 0.0000 0.0000 0.0000 28.9286 0.0000 0.0000
# 5 0.0000 0.0000 0.0000 0.0000 42.7475 0.0000
# 6 0.0000 0.0000 0.0000 0.0000 0.0000 25.9765
#
#
#
# Elastic Compliance Matrix: (Units=1/GPa)
#
#
# Indices 1 2 3 4 5 6 
#
# 1 0.005595 -0.003125 -0.003294 0.000000 0.000000 0.000000
# 2 -0.003125 0.023493 0.003403 0.000000 0.000000 0.000000
# 3 -0.003294 0.003403 0.009648 0.000000 0.000000 0.000000
# 4 0.000000 0.000000 0.000000 0.034568 0.000000 0.000000
# 5 0.000000 0.000000 0.000000 0.000000 0.023393 0.000000
# 6 0.000000 0.000000 0.000000 0.000000 0.000000 0.038496
#
#
# Mechanical properties :
#
#
# Convention : Reuss Voigt Hill
#
# Bulk Modulus (GPa) = 30.57670 64.16407 47.37038
# Shear Modulus (GPa) = 32.86756 41.38108 37.12432
#
# Velocity S-wave (km/s) = 3.71106 4.16404 3.94406
# Velocity P-wave (km/s) = 5.58342 7.07139 6.37100
#
# Compressibility (1/GPa) = 0.03270465
#
# Stress axis : x y z
#
# Youngs Moduli (GPa) = 178.74693 42.56624 103.64366
#
# Poissons Ratio (x) = 0.13303 0.34136
# Poissons Ratio (y) = 0.55862 -0.35272
# Poissons Ratio (z) = 0.58871 -0.14486
#
# Static dielectric constant tensor:
#      x y z
#    x 1.966330 0.000000 0.000000 
#    y 0.000000 2.032220 0.000000 
#    z 0.000000 0.000000 1.793480 
# 
# From -- ./inp_files/23770.got.cif
#   From: 2010.05.17/outbox.cif.g08.bks.cpg/sg52_12_cif.got.tgz:23770.got - 2010.06.03 12:15:38.
