data_PCOD9408458
_publ_section_title
;
Structure prediction by ZEFSAII (Michael W. Deem and Ramdas Pophale) SiO2 
 PCOD9408458
Probable space group: P N N A
;
_chemical_formula_sum "Si O2"
_cell_formula_units_Z 48
_cell_length_a 28.727959
_cell_length_b 15.573960
_cell_length_c 5.476094
_cell_angle_alpha 90.000000
_cell_angle_beta 90.000000
_cell_angle_gamma 90.000000
_cell_volume 2450.048726
_symmetry_space_group_name_H-M "P N N A"
_symmetry_group_IT_number 52
_symmetry_cell_setting 'orthorhombic'
loop_
_space_group_symop_operation_xyz
x,y,z
1/2-x,-y,z
x,1/2-y,1/2-z
1/2-x,1/2+y,1/2-z
-x,-y,-z
1/2+x,y,-z
-x,1/2+y,1/2+z
1/2+x,1/2-y,1/2+z
loop_
_atom_site_type_symbol
_atom_site_label
_atom_site_fract_x
_atom_site_fract_y
_atom_site_fract_z
Si Si1 0.338253 0.750000 0.750000
Si Si2 0.906601 0.304229 0.999340
Si Si3 0.339926 0.041967 0.639110
Si Si4 0.321765 0.914032 0.024484
Si Si5 0.892074 0.621765 0.917875
Si Si6 0.750000 0.000000 0.642457
Si Si7 0.011911 0.305314 0.998364
O O1 0.310537 0.666977 0.649355
O O2 0.370161 0.793777 0.542835
O O3 0.907951 0.250000 0.250000
O O4 0.868859 0.376176 0.059734
O O5 0.896897 0.250000 0.750000
O O6 0.959357 0.339924 0.968983
O O7 0.289329 0.044400 0.519251
O O8 0.369633 0.960737 0.544664
O O9 0.330402 0.009036 0.913066
O O10 0.370460 0.886553 0.149142
O O11 0.278918 0.929854 0.204776
O O12 0.946856 0.627132 0.959589
O O13 0.020874 0.250000 0.750000
O O14 0.013240 0.250000 0.250000
#
# Coordination Sequence:
#
# PCOD9408458 Si02
#       7
#     4   8   8   8   8   4   8
#     4  10  18  34  58  94 120 158 198 250 322 380
#     4  10  24  44  67  91 127 175 217 260 309 380
#     4  10  23  41  63  89 120 165 210 268 325 376
#     4  10  21  37  62  88 126 161 203 265 325 385
#     4  10  20  34  62  92 128 161 202 256 316 378
#     4  10  22  42  62  82 120 164 204 266 324 372
#     4  10  20  37  61  94 132 171 210 252 310 373
#
# _framework density 19.591445
#
# number of rings (size 3 to 8) (size 9 to 14) (size 15 to 20)
#    0.000    2.000    0.833    2.000    7.000    0.667 
#    0.000    7.500    7.333    0.000    0.000    0.000 
#    0.000    0.000    0.000    0.000    0.000    0.000 
#
# Total GULP energy -267231.449709 kJ/mol
# GULP energy per Si atom -5567.321869 kJ/mol
# Density = 1.954685 g / cm^3
# Si number density = 19.591445 Si / 1000 Ang^3
#
#
#
# Elastic Constant Matrix: (Units=GPa)
#
#
# Indices 1 2 3 4 5 6 
#
# 1 165.2446 61.5339 43.6357 0.0000 0.0000 0.0000
# 2 61.5339 65.7136 29.6394 0.0000 0.0000 0.0000
# 3 43.6357 29.6394 98.7815 0.0000 0.0000 0.0000
# 4 0.0000 0.0000 0.0000 -0.6690 0.0000 0.0000
# 5 0.0000 0.0000 0.0000 0.0000 12.4791 0.0000
# 6 0.0000 0.0000 0.0000 0.0000 0.0000 10.2498
#
#
#
# Elastic Compliance Matrix: (Units=1/GPa)
#
#
# Indices 1 2 3 4 5 6 
#
# 1 0.009554 -0.008145 -0.001776 0.000000 0.000000 0.000000
# 2 -0.008145 0.024543 -0.003766 0.000000 0.000000 0.000000
# 3 -0.001776 -0.003766 0.012038 0.000000 0.000000 0.000000
# 4 0.000000 0.000000 0.000000 -1.494699 0.000000 0.000000
# 5 0.000000 0.000000 0.000000 0.000000 0.080134 0.000000
# 6 0.000000 0.000000 0.000000 0.000000 0.000000 0.097563
#
#
# Mechanical properties :
#
#
# Convention : Reuss Voigt Hill
#
# Bulk Modulus (GPa) = 53.30510 66.59530 59.95020
# Shear Modulus (GPa) = -4.04126 17.40735 6.68305
#
# Velocity S-wave (km/s) = -1.43779 2.98404 1.84895
# Velocity P-wave (km/s) = 4.95087 6.77779 5.93505
#
# Compressibility (1/GPa) = 0.01875993
#
# Stress axis : x y z
#
# Youngs Moduli (GPa) = 104.67165 40.74475 83.06945
#
# Poissons Ratio (x) = 0.33186 0.14756
# Poissons Ratio (y) = 0.85253 0.31286
# Poissons Ratio (z) = 0.18594 0.15346
#
# Static dielectric constant tensor:
#      x y z
#    x 1.674580 0.000000 0.000000 
#    y 0.000000 1.686300 0.000000 
#    z 0.000000 0.000000 1.839070 
# 
# From -- ./inp_files/5817.got.cif
#   From: 2010.05.17/outbox.cif.g08.bks.cpg/sg52_3_cif.got.tgz:5817.got - 2010.06.03 12:15:38.
