data_PCOD9408119
_publ_section_title
;
Structure prediction by ZEFSAII (Michael W. Deem and Ramdas Pophale) SiO2 
 PCOD9408119
Probable space group: P N N A
;
_chemical_formula_sum "Si O2"
_cell_formula_units_Z 40
_cell_length_a 11.702986
_cell_length_b 5.512034
_cell_length_c 28.069525
_cell_angle_alpha 90.000000
_cell_angle_beta 90.000000
_cell_angle_gamma 90.000000
_cell_volume 1810.688056
_symmetry_space_group_name_H-M "P N N A"
_symmetry_group_IT_number 52
_symmetry_cell_setting 'orthorhombic'
loop_
_space_group_symop_operation_xyz
x,y,z
1/2-x,-y,z
x,1/2-y,1/2-z
1/2-x,1/2+y,1/2-z
-x,-y,-z
1/2+x,y,-z
-x,1/2+y,1/2+z
1/2+x,1/2-y,1/2+z
loop_
_atom_site_type_symbol
_atom_site_label
_atom_site_fract_x
_atom_site_fract_y
_atom_site_fract_z
Si Si1 0.551477 0.777961 0.428025
Si Si2 0.932676 0.645686 0.152842
Si Si3 0.180960 0.755132 0.484794
Si Si4 0.629103 0.598622 0.617789
Si Si5 0.250000 0.000000 0.881348
Si Si6 0.250000 0.500000 0.779122
O O1 0.563211 0.764688 0.484803
O O2 0.451628 0.613991 0.405012
O O3 0.674977 0.671906 0.413796
O O4 0.555510 0.028531 0.399598
O O5 0.866877 0.470848 0.189185
O O6 0.056759 0.763420 0.158355
O O7 0.840734 0.858143 0.149532
O O8 0.250000 0.500000 0.491234
O O9 0.157810 0.762366 0.428319
O O10 0.250000 0.000000 0.497721
O O11 0.750000 0.500000 0.635387
O O12 0.236931 0.250000 0.750000
#
# Coordination Sequence:
#
# PCOD9408119 Si02
#       6
#     8   8   8   8   4   4
#     4  11  21  37  66  90 137 187 241 286 339 401
#     4  11  23  40  71  99 139 177 221 281 364 421
#     4  11  24  40  61  95 139 188 246 300 335 381
#     4  10  26  42  61  95 142 192 245 277 328 410
#     4  10  17  36  58 100 130 176 224 276 344 409
#     4  12  27  46  76 118 144 156 214 296 378 441
#
# _framework density 22.091049999999999
#
# number of rings (size 3 to 8) (size 9 to 14) (size 15 to 20)
#    0.000    1.200    3.000    2.400   11.200    0.800 
#    0.000    0.000    0.000    0.000    5.200    0.000 
#    0.000    0.000    0.000    0.000    0.000    0.000 
#
# Total GULP energy -223131.623547 kJ/mol
# GULP energy per Si atom -5578.290589 kJ/mol
# Density = 2.204077 g / cm^3
# Si number density = 22.091050 Si / 1000 Ang^3
#
#
#
# Elastic Constant Matrix: (Units=GPa)
#
#
# Indices 1 2 3 4 5 6 
#
# 1 154.7784 39.2304 26.3795 0.0000 0.0000 0.0000
# 2 39.2304 97.1486 19.2222 0.0000 0.0000 0.0000
# 3 26.3795 19.2222 49.9955 0.0000 0.0000 0.0000
# 4 0.0000 0.0000 0.0000 18.5065 0.0000 0.0000
# 5 0.0000 0.0000 0.0000 0.0000 3.0706 0.0000
# 6 0.0000 0.0000 0.0000 0.0000 0.0000 42.2346
#
#
#
# Elastic Compliance Matrix: (Units=1/GPa)
#
#
# Indices 1 2 3 4 5 6 
#
# 1 0.007608 -0.002466 -0.003067 0.000000 0.000000 0.000000
# 2 -0.002466 0.011940 -0.003290 0.000000 0.000000 0.000000
# 3 -0.003067 -0.003290 0.022885 0.000000 0.000000 0.000000
# 4 0.000000 0.000000 0.000000 0.054035 0.000000 0.000000
# 5 0.000000 0.000000 0.000000 0.000000 0.325670 0.000000
# 6 0.000000 0.000000 0.000000 0.000000 0.000000 0.023677
#
#
# Mechanical properties :
#
#
# Convention : Reuss Voigt Hill
#
# Bulk Modulus (GPa) = 40.33988 52.39854 46.36921
# Shear Modulus (GPa) = 10.59946 27.23504 18.91725
#
# Velocity S-wave (km/s) = 2.19283 3.51501 2.92949
# Velocity P-wave (km/s) = 4.97109 6.34386 5.69896
#
# Compressibility (1/GPa) = 0.02478937
#
# Stress axis : x y z
#
# Youngs Moduli (GPa) = 131.43294 83.75131 43.69744
#
# Poissons Ratio (x) = 0.20650 0.13400
# Poissons Ratio (y) = 0.32407 0.14375
# Poissons Ratio (z) = 0.40304 0.27552
#
# Static dielectric constant tensor:
#      x y z
#    x 1.889830 0.000000 0.000000 
#    y 0.000000 1.900520 0.000000 
#    z 0.000000 0.000000 1.921280 
# 
# From -- ./inp_files/44745.got.cif
#   From: 2010.05.17/outbox.cif.g08.bks.cpg/sg52_23_cif.got.tgz:44745.got - 2010.06.03 12:15:38.
