data_PCOD9408314
_publ_section_title
;
Structure prediction by ZEFSAII (Michael W. Deem and Ramdas Pophale) SiO2 
 PCOD9408314
Probable space group: P N N A
;
_chemical_formula_sum "Si O2"
_cell_formula_units_Z 64
_cell_length_a 5.454966
_cell_length_b 27.509495
_cell_length_c 24.339923
_cell_angle_alpha 90.000000
_cell_angle_beta 90.000000
_cell_angle_gamma 90.000000
_cell_volume 3652.530625
_symmetry_space_group_name_H-M "P N N A"
_symmetry_group_IT_number 52
_symmetry_cell_setting 'orthorhombic'
loop_
_space_group_symop_operation_xyz
x,y,z
1/2-x,-y,z
x,1/2-y,1/2-z
1/2-x,1/2+y,1/2-z
-x,-y,-z
1/2+x,y,-z
-x,1/2+y,1/2+z
1/2+x,1/2-y,1/2+z
loop_
_atom_site_type_symbol
_atom_site_label
_atom_site_fract_x
_atom_site_fract_y
_atom_site_fract_z
Si Si1 0.749999 0.590085 0.735603
Si Si2 0.250001 0.666079 0.033711
Si Si3 0.750000 0.206569 0.206656
Si Si4 0.749999 0.844215 0.653063
Si Si5 0.749999 0.946026 0.277145
Si Si6 0.750003 0.781776 0.965906
Si Si7 0.750001 0.343288 0.185657
Si Si8 0.750000 0.678412 0.652571
O O1 0.749999 0.621825 0.792614
O O2 0.497898 0.560406 0.741446
O O3 0.750000 0.625929 0.683170
O O4 0.002100 0.560406 0.741446
O O5 0.250000 0.636911 0.091077
O O6 0.250001 0.723907 0.048973
O O7 0.500001 0.657006 0.000000
O O8 0.750002 0.250000 0.250000
O O9 0.750000 0.161061 0.248735
O O10 0.499526 0.203750 0.173439
O O11 0.000471 0.203749 0.173438
O O12 0.489593 0.818761 0.660693
O O13 0.010405 0.818761 0.660693
O O14 0.749999 0.901814 0.322160
O O15 0.750000 0.000000 0.301708
O O16 0.749998 0.816046 0.912655
O O17 0.500005 0.789862 0.000001
#
# Coordination Sequence:
#
# PCOD9408314 Si02
#       8
#     8   8   8   8   8   8   8   8
#     4  10  19  34  51  82 106 131 167 218 264 321
#     4  10  21  35  49  68  95 137 188 223 255 292
#     4  12  23  32  50  80 108 144 178 207 265 318
#     4  10  18  32  52  66 105 134 160 218 259 298
#     4  10  18  32  52  74 112 142 160 200 264 335
#     4  10  23  38  50  70  97 138 189 226 256 301
#     4  10  19  33  46  76 110 127 172 209 251 312
#     4  12  21  38  54  72 111 141 176 231 256 310
#
# _framework density 17.522098
#
# number of rings (size 3 to 8) (size 9 to 14) (size 15 to 20)
#    0.000    1.500    5.000    2.250    3.500    0.000 
#    0.000    0.000    0.000    0.000    0.000    0.000 
#    0.000  170.000    0.000    0.000    0.000    0.000 
#
# Total GULP energy -356328.426967 kJ/mol
# GULP energy per Si atom -5567.631671 kJ/mol
# Density = 1.748222 g / cm^3
# Si number density = 17.522098 Si / 1000 Ang^3
#
#
#
# Elastic Constant Matrix: (Units=GPa)
#
#
# Indices 1 2 3 4 5 6 
#
# 1 193.8687 6.7960 43.2431 0.0000 0.0000 0.0000
# 2 6.7960 51.0092 18.0940 0.0000 0.0000 0.0000
# 3 43.2431 18.0940 100.2263 0.0000 0.0000 0.0000
# 4 0.0000 0.0000 0.0000 9.2941 0.0000 0.0000
# 5 0.0000 0.0000 0.0000 0.0000 31.9102 0.0000
# 6 0.0000 0.0000 0.0000 0.0000 0.0000 19.7886
#
#
#
# Elastic Compliance Matrix: (Units=1/GPa)
#
#
# Indices 1 2 3 4 5 6 
#
# 1 0.005708 0.000121 -0.002485 0.000000 0.000000 0.000000
# 2 0.000121 0.020948 -0.003834 0.000000 0.000000 0.000000
# 3 -0.002485 -0.003834 0.011742 0.000000 0.000000 0.000000
# 4 0.000000 0.000000 0.000000 0.107596 0.000000 0.000000
# 5 0.000000 0.000000 0.000000 0.000000 0.031338 0.000000
# 6 0.000000 0.000000 0.000000 0.000000 0.000000 0.050534
#
#
# Mechanical properties :
#
#
# Convention : Reuss Voigt Hill
#
# Bulk Modulus (GPa) = 38.45792 53.48559 45.97175
# Shear Modulus (GPa) = 20.08611 30.66331 25.37471
#
# Velocity S-wave (km/s) = 3.38942 4.18781 3.80959
# Velocity P-wave (km/s) = 6.10847 7.34674 6.75604
#
# Compressibility (1/GPa) = 0.02600245
#
# Stress axis : x y z
#
# Youngs Moduli (GPa) = 175.18982 47.73682 85.16759
#
# Poissons Ratio (x) = -0.00577 0.21161
# Poissons Ratio (y) = -0.02117 0.32653
# Poissons Ratio (z) = 0.43528 0.18302
#
# Static dielectric constant tensor:
#      x y z
#    x 1.703010 0.000000 0.000000 
#    y 0.000000 1.658340 0.000000 
#    z 0.000000 0.000000 1.606790 
# 
# From -- ./inp_files/35316.got.cif
#   From: 2010.05.17/outbox.cif.g08.bks.cpg/sg52_18_cif.got.tgz:35316.got - 2010.06.03 12:15:38.
