data_PCOD9408567
_publ_section_title
;
Structure prediction by ZEFSAII (Michael W. Deem and Ramdas Pophale) SiO2 
 PCOD9408567
Probable space group: P N N A
;
_chemical_formula_sum "Si O2"
_cell_formula_units_Z 60
_cell_length_a 4.969869
_cell_length_b 17.725001
_cell_length_c 30.715384
_cell_angle_alpha 90.000000
_cell_angle_beta 90.000000
_cell_angle_gamma 90.000000
_cell_volume 2705.746834
_symmetry_space_group_name_H-M "P N N A"
_symmetry_group_IT_number 52
_symmetry_cell_setting 'orthorhombic'
loop_
_space_group_symop_operation_xyz
x,y,z
1/2-x,-y,z
x,1/2-y,1/2-z
1/2-x,1/2+y,1/2-z
-x,-y,-z
1/2+x,y,-z
-x,1/2+y,1/2+z
1/2+x,1/2-y,1/2+z
loop_
_atom_site_type_symbol
_atom_site_label
_atom_site_fract_x
_atom_site_fract_y
_atom_site_fract_z
Si Si1 0.844848 0.425711 0.170695
Si Si2 0.479995 0.950717 0.887764
Si Si3 0.461716 0.232670 0.700906
Si Si4 0.175943 0.890138 0.972674
Si Si5 0.610387 0.711217 0.027742
Si Si6 0.250000 0.500000 0.101714
Si Si7 0.550386 0.785087 0.851373
Si Si8 0.516612 0.145034 0.403045
O O1 0.750000 0.500000 0.196327
O O2 0.601311 0.386926 0.144393
O O3 0.979300 0.357764 0.195976
O O4 0.034682 0.458993 0.132979
O O5 0.317043 0.925966 0.931216
O O6 0.560428 0.871201 0.866373
O O7 0.750000 0.000000 0.894155
O O8 0.250000 0.000000 0.863124
O O9 0.382270 0.250000 0.750000
O O10 0.742972 0.268819 0.687266
O O11 0.245788 0.265349 0.666496
O O12 0.160205 0.800171 0.964599
O O13 0.374271 0.909419 0.012934
O O14 0.724880 0.665996 0.068327
O O15 0.307864 0.695354 0.013289
O O16 0.376149 0.428878 0.076606
O O17 0.620358 0.725161 0.890422
#
# Coordination Sequence:
#
# PCOD9408567 Si02
#       8
#     8   8   8   8   8   4   8   8
#     4   9  20  36  62  94 125 156 204 262 302 361
#     4  12  25  41  63  92 129 173 222 269 315 379
#     4  11  23  42  69  99 126 166 207 251 312 390
#     4  10  21  38  58  87 122 163 213 273 324 363
#     4  10  22  36  57  86 122 160 208 256 316 372
#     4  10  18  36  62  92 118 148 214 252 304 354
#     4  11  23  43  66  92 127 169 209 258 309 381
#     4  10  20  37  63  88 119 164 207 252 309 364
#
# _framework density 22.175024000000001
#
# number of rings (size 3 to 8) (size 9 to 14) (size 15 to 20)
#    0.000    1.600    2.667    2.000    1.867    1.600 
#    0.000    2.667    0.000    0.000    0.000    0.000 
#    0.000    0.000    0.000    0.000    0.000    0.000 
#
# Total GULP energy -335063.095504 kJ/mol
# GULP energy per Si atom -5584.384925 kJ/mol
# Density = 2.212455 g / cm^3
# Si number density = 22.175024 Si / 1000 Ang^3
#
#
#
# Elastic Constant Matrix: (Units=GPa)
#
#
# Indices 1 2 3 4 5 6 
#
# 1 70.4749 26.8285 -14.5349 0.0000 0.0000 0.0000
# 2 26.8285 185.3200 36.6447 0.0000 0.0000 0.0000
# 3 -14.5349 36.6447 42.0763 0.0000 0.0000 0.0000
# 4 0.0000 0.0000 0.0000 17.9403 0.0000 0.0000
# 5 0.0000 0.0000 0.0000 0.0000 21.5108 0.0000
# 6 0.0000 0.0000 0.0000 0.0000 0.0000 36.0285
#
#
#
# Elastic Compliance Matrix: (Units=1/GPa)
#
#
# Indices 1 2 3 4 5 6 
#
# 1 0.018087 -0.004656 0.010302 0.000000 0.000000 0.000000
# 2 -0.004656 0.007717 -0.008329 0.000000 0.000000 0.000000
# 3 0.010302 -0.008329 0.034579 0.000000 0.000000 0.000000
# 4 0.000000 0.000000 0.000000 0.055740 0.000000 0.000000
# 5 0.000000 0.000000 0.000000 0.000000 0.046488 0.000000
# 6 0.000000 0.000000 0.000000 0.000000 0.000000 0.027756
#
#
# Mechanical properties :
#
#
# Convention : Reuss Voigt Hill
#
# Bulk Modulus (GPa) = 18.17579 43.97197 31.07388
# Shear Modulus (GPa) = 23.35674 31.69143 27.52409
#
# Velocity S-wave (km/s) = 3.24896 3.78451 3.52692
# Velocity P-wave (km/s) = 4.72109 6.24254 5.53434
#
# Compressibility (1/GPa) = 0.05501825
#
# Stress axis : x y z
#
# Youngs Moduli (GPa) = 55.28982 129.58393 28.91922
#
# Poissons Ratio (x) = 0.60328 -0.29794
# Poissons Ratio (y) = 0.25740 0.24087
# Poissons Ratio (z) = -0.56962 1.07931
#
# Static dielectric constant tensor:
#      x y z
#    x 1.855970 0.000000 0.000000 
#    y 0.000000 1.874560 0.000000 
#    z 0.000000 0.000000 1.805500 
# 
# From -- ./inp_files/41816.got.cif
#   From: 2010.05.17/outbox.cif.g08.bks.cpg/sg52_21_cif.got.tgz:41816.got - 2010.06.03 12:15:38.
