data_PCOD9408604
_publ_section_title
;
Structure prediction by ZEFSAII (Michael W. Deem and Ramdas Pophale) SiO2 
 PCOD9408604
Probable space group: P N N A
;
_chemical_formula_sum "Si O2"
_cell_formula_units_Z 56
_cell_length_a 18.688510
_cell_length_b 14.694648
_cell_length_c 9.778809
_cell_angle_alpha 90.000000
_cell_angle_beta 90.000000
_cell_angle_gamma 90.000000
_cell_volume 2685.467051
_symmetry_space_group_name_H-M "P N N A"
_symmetry_group_IT_number 52
_symmetry_cell_setting 'orthorhombic'
loop_
_space_group_symop_operation_xyz
x,y,z
1/2-x,-y,z
x,1/2-y,1/2-z
1/2-x,1/2+y,1/2-z
-x,-y,-z
1/2+x,y,-z
-x,1/2+y,1/2+z
1/2+x,1/2-y,1/2+z
loop_
_atom_site_type_symbol
_atom_site_label
_atom_site_fract_x
_atom_site_fract_y
_atom_site_fract_z
Si Si1 0.439330 0.981653 0.887260
Si Si2 0.977583 0.298974 0.612078
Si Si3 0.685277 0.573159 0.879268
Si Si4 0.844686 0.412509 0.569226
Si Si5 0.730372 0.240172 0.899898
Si Si6 0.572458 0.993956 0.412750
Si Si7 0.609046 0.298746 0.103088
O O1 0.467267 0.880545 0.850658
O O2 0.441714 0.035211 0.744032
O O3 0.500000 0.000000 0.000000
O O4 0.364706 0.005681 0.965075
O O5 0.951565 0.250000 0.750000
O O6 0.030851 0.228156 0.542027
O O7 0.908957 0.340848 0.540595
O O8 0.750000 0.500000 0.892971
O O9 0.650651 0.557281 0.728482
O O10 0.714319 0.675681 0.890483
O O11 0.627577 0.563041 0.997864
O O12 0.771597 0.354280 0.568109
O O13 0.695319 0.250000 0.750000
O O14 0.671504 0.259805 0.011139
O O15 0.610378 0.092660 0.397082
O O16 0.500000 0.000000 0.500000
O O17 0.617208 0.250000 0.250000
#
# Coordination Sequence:
#
# PCOD9408604 Si02
#       7
#     8   8   8   8   8   8   8
#     4  10  21  40  63 100 126 165 225 273 325 396
#     4  10  18  37  66  91 123 166 216 263 330 392
#     4  11  23  42  67  97 134 171 223 268 342 401
#     4  10  23  41  70  94 132 176 221 273 327 409
#     4  10  23  44  63  94 132 179 218 270 336 404
#     4  12  24  42  67  96 132 173 216 281 337 397
#     4  11  23  41  66  94 127 172 214 268 333 392
#
# _framework density 20.852983999999999
#
# number of rings (size 3 to 8) (size 9 to 14) (size 15 to 20)
#    0.000    1.429    4.286    3.000    2.000    3.429 
#    5.143    0.000    0.000    0.000    0.000    0.000 
#    0.000    0.000    0.000    0.000    0.000    0.000 
#
# Total GULP energy -311968.518920 kJ/mol
# GULP energy per Si atom -5570.866409 kJ/mol
# Density = 2.080552 g / cm^3
# Si number density = 20.852984 Si / 1000 Ang^3
#
#
#
# Elastic Constant Matrix: (Units=GPa)
#
#
# Indices 1 2 3 4 5 6 
#
# 1 54.9503 -7.1897 49.2819 0.0000 0.0000 0.0000
# 2 -7.1897 30.7216 14.5975 0.0000 0.0000 0.0000
# 3 49.2819 14.5975 143.0154 0.0000 0.0000 0.0000
# 4 0.0000 0.0000 0.0000 20.5160 0.0000 0.0000
# 5 0.0000 0.0000 0.0000 0.0000 22.8655 0.0000
# 6 0.0000 0.0000 0.0000 0.0000 0.0000 32.4099
#
#
#
# Elastic Compliance Matrix: (Units=1/GPa)
#
#
# Indices 1 2 3 4 5 6 
#
# 1 0.030432 0.012722 -0.011785 0.000000 0.000000 0.000000
# 2 0.012722 0.039528 -0.008418 0.000000 0.000000 0.000000
# 3 -0.011785 -0.008418 0.011913 0.000000 0.000000 0.000000
# 4 0.000000 0.000000 0.000000 0.048742 0.000000 0.000000
# 5 0.000000 0.000000 0.000000 0.000000 0.043734 0.000000
# 6 0.000000 0.000000 0.000000 0.000000 0.000000 0.030855
#
#
# Mechanical properties :
#
#
# Convention : Reuss Voigt Hill
#
# Bulk Modulus (GPa) = 14.94568 38.00743 26.47655
# Shear Modulus (GPa) = 20.62106 26.62478 23.62292
#
# Velocity S-wave (km/s) = 3.14806 3.57709 3.36941
# Velocity P-wave (km/s) = 4.51624 5.94363 5.27840
#
# Compressibility (1/GPa) = 0.06690896
#
# Stress axis : x y z
#
# Youngs Moduli (GPa) = 32.85985 25.29869 83.94468
#
# Poissons Ratio (x) = -0.32184 0.98931
# Poissons Ratio (y) = -0.41804 0.70668
# Poissons Ratio (z) = 0.38726 0.21297
#
# Static dielectric constant tensor:
#      x y z
#    x 1.761430 0.000000 0.000000 
#    y 0.000000 1.910260 0.000000 
#    z 0.000000 0.000000 1.834470 
# 
# From -- ./inp_files/13456.got.cif
#   From: 2010.05.17/outbox.cif.g08.bks.cpg/sg52_7_cif.got.tgz:13456.got - 2010.06.03 12:15:38.
