data_PCOD9408808
_publ_section_title
;
Structure prediction by ZEFSAII (Michael W. Deem and Ramdas Pophale) SiO2 
 PCOD9408808
Probable space group: P N N A
;
_chemical_formula_sum "Si O2"
_cell_formula_units_Z 32
_cell_length_a 13.665515
_cell_length_b 9.647171
_cell_length_c 9.484384
_cell_angle_alpha 90.000000
_cell_angle_beta 90.000000
_cell_angle_gamma 90.000000
_cell_volume 1250.360107
_symmetry_space_group_name_H-M "P N N A"
_symmetry_group_IT_number 52
_symmetry_cell_setting 'orthorhombic'
loop_
_space_group_symop_operation_xyz
x,y,z
1/2-x,-y,z
x,1/2-y,1/2-z
1/2-x,1/2+y,1/2-z
-x,-y,-z
1/2+x,y,-z
-x,1/2+y,1/2+z
1/2+x,1/2-y,1/2+z
loop_
_atom_site_type_symbol
_atom_site_label
_atom_site_fract_x
_atom_site_fract_y
_atom_site_fract_z
Si Si1 0.392321 0.250000 0.250000
Si Si2 0.947892 0.771776 0.897073
Si Si3 0.250331 0.345885 0.486677
Si Si4 0.250000 0.000000 0.746403
Si Si5 0.035000 0.989685 0.706087
O O1 0.323482 0.261032 0.388937
O O2 0.463046 0.117977 0.270161
O O3 0.887673 0.750000 0.750000
O O4 0.002597 0.626666 0.908339
O O5 0.862927 0.803328 0.002637
O O6 0.017274 0.898464 0.852015
O O7 0.250000 0.500000 0.418344
O O8 0.278107 0.374829 0.647518
O O9 0.352960 0.971851 0.673681
#
# Coordination Sequence:
#
# PCOD9408808 Si02
#       5
#     4   8   8   4   8
#     4  12  18  32  56  94 102 156 186 232 268 356
#     4   8  17  35  54  83 109 153 181 238 267 351
#     4  10  19  32  59  85 112 137 194 234 274 321
#     4  10  22  38  54  92 110 152 184 246 266 334
#     4   9  20  34  59  79 118 144 196 223 284 326
#
# _framework density 25.592628000000001
#
# number of rings (size 3 to 8) (size 9 to 14) (size 15 to 20)
#    2.250    0.000    3.750    0.000    0.000    6.000 
#    0.000    0.000    0.000   19.500    0.000    0.000 
#    0.000    0.000    0.000    0.000    0.000    0.000 
#
# Total GULP energy -178317.511736 kJ/mol
# GULP energy per Si atom -5572.422242 kJ/mol
# Density = 2.553438 g / cm^3
# Si number density = 25.592628 Si / 1000 Ang^3
#
#
#
# Elastic Constant Matrix: (Units=GPa)
#
#
# Indices 1 2 3 4 5 6 
#
# 1 228.9431 89.4179 17.6460 0.0000 0.0000 0.0000
# 2 89.4179 157.7447 24.0684 0.0000 0.0000 0.0000
# 3 17.6460 24.0684 34.2445 0.0000 0.0000 0.0000
# 4 0.0000 0.0000 0.0000 39.8859 0.0000 0.0000
# 5 0.0000 0.0000 0.0000 0.0000 29.4964 0.0000
# 6 0.0000 0.0000 0.0000 0.0000 0.0000 24.3249
#
#
#
# Elastic Compliance Matrix: (Units=1/GPa)
#
#
# Indices 1 2 3 4 5 6 
#
# 1 0.005626 -0.003077 -0.000737 0.000000 0.000000 0.000000
# 2 -0.003077 0.008784 -0.004588 0.000000 0.000000 0.000000
# 3 -0.000737 -0.004588 0.032806 0.000000 0.000000 0.000000
# 4 0.000000 0.000000 0.000000 0.025072 0.000000 0.000000
# 5 0.000000 0.000000 0.000000 0.000000 0.033902 0.000000
# 6 0.000000 0.000000 0.000000 0.000000 0.000000 0.041110
#
#
# Mechanical properties :
#
#
# Convention : Reuss Voigt Hill
#
# Bulk Modulus (GPa) = 32.88082 75.91076 54.39579
# Shear Modulus (GPa) = 28.69593 38.06142 33.37868
#
# Velocity S-wave (km/s) = 3.35215 3.86061 3.61533
# Velocity P-wave (km/s) = 5.27809 7.04258 6.22319
#
# Compressibility (1/GPa) = 0.03041287
#
# Stress axis : x y z
#
# Youngs Moduli (GPa) = 177.73232 113.84910 30.48232
#
# Poissons Ratio (x) = 0.35031 0.02245
# Poissons Ratio (y) = 0.54688 0.13985
# Poissons Ratio (z) = 0.13093 0.52233
#
# Static dielectric constant tensor:
#      x y z
#    x 1.927890 0.000000 0.000000 
#    y 0.000000 2.103170 0.000000 
#    z 0.000000 0.000000 2.188170 
# 
# From -- ./inp_files/19047.got.cif
#   From: 2010.05.17/outbox.cif.g08.bks.cpg/sg52_10_cif.got.tgz:19047.got - 2010.06.03 12:15:38.
