data_PCOD9408960
_publ_section_title
;
Structure prediction by ZEFSAII (Michael W. Deem and Ramdas Pophale) SiO2 
 PCOD9408960
Probable space group: P N N A
;
_chemical_formula_sum "Si O2"
_cell_formula_units_Z 40
_cell_length_a 22.656594
_cell_length_b 5.899169
_cell_length_c 14.808908
_cell_angle_alpha 90.000000
_cell_angle_beta 90.000000
_cell_angle_gamma 90.000000
_cell_volume 1979.285739
_symmetry_space_group_name_H-M "P N N A"
_symmetry_group_IT_number 52
_symmetry_cell_setting 'orthorhombic'
loop_
_space_group_symop_operation_xyz
x,y,z
1/2-x,-y,z
x,1/2-y,1/2-z
1/2-x,1/2+y,1/2-z
-x,-y,-z
1/2+x,y,-z
-x,1/2+y,1/2+z
1/2+x,1/2-y,1/2+z
loop_
_atom_site_type_symbol
_atom_site_label
_atom_site_fract_x
_atom_site_fract_y
_atom_site_fract_z
Si Si1 0.451684 0.250000 0.750000
Si Si2 0.627288 0.351171 0.338681
Si Si3 0.047971 0.547431 0.925533
Si Si4 0.250000 0.000000 0.463311
Si Si5 0.689719 0.366814 0.661617
Si Si6 0.844895 0.150015 0.006286
O O1 0.411519 0.448430 0.706858
O O2 0.483745 0.351438 0.836410
O O3 0.658831 0.250000 0.250000
O O4 0.665069 0.457550 0.418656
O O5 0.584978 0.167787 0.388171
O O6 0.094473 0.724480 0.968475
O O7 0.000000 0.500000 0.000000
O O8 0.290205 0.840371 0.401096
O O9 0.206576 0.833924 0.515297
O O10 0.750000 0.500000 0.690157
O O11 0.661648 0.250000 0.750000
O O12 0.656160 0.539642 0.594010
#
# Coordination Sequence:
#
# PCOD9408960 Si02
#       6
#     4   8   8   4   8   8
#     4   8  18  34  60  90 108 160 198 244 302 360
#     4   9  18  37  62  89 110 156 204 244 307 360
#     4  10  20  37  64  86 124 158 206 249 307 368
#     4  10  20  36  58  88 122 154 200 240 304 360
#     4  10  19  34  59  84 117 161 200 235 301 370
#     4  10  21  34  60  95 114 162 202 251 298 364
#
# _framework density 20.209309999999999
#
# number of rings (size 3 to 8) (size 9 to 14) (size 15 to 20)
#    0.000    2.400    1.000    1.200    0.000    3.200 
#    0.000    0.000   41.800    0.000  618.800    0.000 
#    0.000    0.000    0.000    0.000    0.000    0.000 
#
# Total GULP energy -222866.686463 kJ/mol
# GULP energy per Si atom -5571.667162 kJ/mol
# Density = 2.016331 g / cm^3
# Si number density = 20.209310 Si / 1000 Ang^3
#
#
#
# Elastic Constant Matrix: (Units=GPa)
#
#
# Indices 1 2 3 4 5 6 
#
# 1 45.3416 25.1799 58.8923 0.0000 0.0000 0.0000
# 2 25.1799 98.9992 57.3856 0.0000 0.0000 0.0000
# 3 58.8923 57.3856 167.5404 0.0000 0.0000 0.0000
# 4 0.0000 0.0000 0.0000 43.6063 0.0000 0.0000
# 5 0.0000 0.0000 0.0000 0.0000 24.1847 0.0000
# 6 0.0000 0.0000 0.0000 0.0000 0.0000 12.2617
#
#
#
# Elastic Compliance Matrix: (Units=1/GPa)
#
#
# Indices 1 2 3 4 5 6 
#
# 1 0.041111 -0.002595 -0.013562 0.000000 0.000000 0.000000
# 2 -0.002595 0.012767 -0.003461 0.000000 0.000000 0.000000
# 3 -0.013562 -0.003461 0.011921 0.000000 0.000000 0.000000
# 4 0.000000 0.000000 0.000000 0.022932 0.000000 0.000000
# 5 0.000000 0.000000 0.000000 0.000000 0.041348 0.000000
# 6 0.000000 0.000000 0.000000 0.000000 0.000000 0.081555
#
#
# Mechanical properties :
#
#
# Convention : Reuss Voigt Hill
#
# Bulk Modulus (GPa) = 37.64523 66.08853 51.86688
# Shear Modulus (GPa) = 19.25101 27.37211 23.31156
#
# Velocity S-wave (km/s) = 3.08974 3.68425 3.40001
# Velocity P-wave (km/s) = 5.60328 7.13241 6.41358
#
# Compressibility (1/GPa) = 0.02656379
#
# Stress axis : x y z
#
# Youngs Moduli (GPa) = 24.32420 78.32571 83.88275
#
# Poissons Ratio (x) = 0.20325 1.13764
# Poissons Ratio (y) = 0.06312 0.29030
# Poissons Ratio (z) = 0.32989 0.27107
#
# Static dielectric constant tensor:
#      x y z
#    x 1.696030 0.000000 0.000000 
#    y 0.000000 1.783020 0.000000 
#    z 0.000000 0.000000 1.740690 
# 
# From -- ./inp_files/29084.got.cif
#   From: 2010.05.17/outbox.cif.g08.bks.cpg/sg52_15_cif.got.tgz:29084.got - 2010.06.03 12:15:38.
