data_PCOD9408325
_publ_section_title
;
Structure prediction by ZEFSAII (Michael W. Deem and Ramdas Pophale) SiO2 
 PCOD9408325
Probable space group: P N N A
;
_chemical_formula_sum "Si O2"
_cell_formula_units_Z 40
_cell_length_a 9.199351
_cell_length_b 8.259731
_cell_length_c 28.246053
_cell_angle_alpha 90.000000
_cell_angle_beta 90.000000
_cell_angle_gamma 90.000000
_cell_volume 2146.252741
_symmetry_space_group_name_H-M "P N N A"
_symmetry_group_IT_number 52
_symmetry_cell_setting 'orthorhombic'
loop_
_space_group_symop_operation_xyz
x,y,z
1/2-x,-y,z
x,1/2-y,1/2-z
1/2-x,1/2+y,1/2-z
-x,-y,-z
1/2+x,y,-z
-x,1/2+y,1/2+z
1/2+x,1/2-y,1/2+z
loop_
_atom_site_type_symbol
_atom_site_label
_atom_site_fract_x
_atom_site_fract_y
_atom_site_fract_z
Si Si1 0.089700 0.557823 0.242381
Si Si2 0.568326 0.853345 0.640069
Si Si3 0.083457 0.049883 0.453188
Si Si4 0.844806 0.841325 0.895875
Si Si5 0.920930 0.518168 0.332753
O O1 0.250000 0.500000 0.256693
O O2 0.089229 0.750000 0.250000
O O3 0.066498 0.534308 0.186599
O O4 0.969880 0.491379 0.278249
O O5 0.729385 0.776709 0.630963
O O6 0.467167 0.699367 0.651114
O O7 0.528372 0.951196 0.592964
O O8 0.089410 0.238546 0.439038
O O9 0.250000 0.000000 0.460069
O O10 0.000000 0.000000 0.500000
O O11 0.750000 0.000000 0.909350
O O12 0.976407 0.900148 0.863151
O O13 0.750000 0.500000 0.338958
#
# Coordination Sequence:
#
# PCOD9408325 Si02
#       5
#     8   8   8   8   8
#     4  10  18  32  54  77 103 141 182 214 253 313
#     4   9  19  37  55  76 106 144 184 220 260 324
#     4  10  21  38  58  81 107 136 177 227 275 324
#     4   9  18  37  60  78 105 144 185 221 262 324
#     4  10  20  34  52  80 113 141 175 224 274 319
#
# _framework density 18.637135000000001
#
# number of rings (size 3 to 8) (size 9 to 14) (size 15 to 20)
#    0.000    2.400    0.000    4.800    0.000    1.600 
#    0.000   26.000    0.000    0.000    0.000    0.000 
#    0.000    0.000    0.000    0.000    0.000    0.000 
#
# Total GULP energy -223104.732480 kJ/mol
# GULP energy per Si atom -5577.618312 kJ/mol
# Density = 1.859472 g / cm^3
# Si number density = 18.637135 Si / 1000 Ang^3
#
#
#
# Elastic Constant Matrix: (Units=GPa)
#
#
# Indices 1 2 3 4 5 6 
#
# 1 108.7146 35.1192 57.0342 0.0000 0.0000 0.0000
# 2 35.1192 73.6437 61.1784 0.0000 0.0000 0.0000
# 3 57.0342 61.1784 151.2617 0.0000 0.0000 0.0000
# 4 0.0000 0.0000 0.0000 16.7134 0.0000 0.0000
# 5 0.0000 0.0000 0.0000 0.0000 17.9139 0.0000
# 6 0.0000 0.0000 0.0000 0.0000 0.0000 16.2054
#
#
#
# Elastic Compliance Matrix: (Units=1/GPa)
#
#
# Indices 1 2 3 4 5 6 
#
# 1 0.011871 -0.002926 -0.003293 0.000000 0.000000 0.000000
# 2 -0.002926 0.021171 -0.007460 0.000000 0.000000 0.000000
# 3 -0.003293 -0.007460 0.010870 0.000000 0.000000 0.000000
# 4 0.000000 0.000000 0.000000 0.059832 0.000000 0.000000
# 5 0.000000 0.000000 0.000000 0.000000 0.055822 0.000000
# 6 0.000000 0.000000 0.000000 0.000000 0.000000 0.061708
#
#
# Mechanical properties :
#
#
# Convention : Reuss Voigt Hill
#
# Bulk Modulus (GPa) = 60.40201 71.14262 65.77231
# Shear Modulus (GPa) = 19.67354 22.18576 20.92965
#
# Velocity S-wave (km/s) = 3.25254 3.45397 3.35477
# Velocity P-wave (km/s) = 6.82534 7.35948 7.09743
#
# Compressibility (1/GPa) = 0.01655574
#
# Stress axis : x y z
#
# Youngs Moduli (GPa) = 84.23937 47.23445 91.99914
#
# Poissons Ratio (x) = 0.13819 0.30293
# Poissons Ratio (y) = 0.24645 0.68627
# Poissons Ratio (z) = 0.27738 0.35235
#
# Static dielectric constant tensor:
#      x y z
#    x 1.613580 0.000000 0.000000 
#    y 0.000000 1.667390 0.000000 
#    z 0.000000 0.000000 1.679770 
# 
# From -- ./inp_files/42125.got.cif
#   From: 2010.05.17/outbox.cif.g08.bks.cpg/sg52_22_cif.got.tgz:42125.got - 2010.06.03 12:15:38.
