data_PCOD9408268
_publ_section_title
;
Structure prediction by ZEFSAII (Michael W. Deem and Ramdas Pophale) SiO2 
 PCOD9408268
Probable space group: P N N A
;
_chemical_formula_sum "Si O2"
_cell_formula_units_Z 64
_cell_length_a 14.942203
_cell_length_b 26.014788
_cell_length_c 8.407145
_cell_angle_alpha 90.000000
_cell_angle_beta 90.000000
_cell_angle_gamma 90.000000
_cell_volume 3268.010636
_symmetry_space_group_name_H-M "P N N A"
_symmetry_group_IT_number 52
_symmetry_cell_setting 'orthorhombic'
loop_
_space_group_symop_operation_xyz
x,y,z
1/2-x,-y,z
x,1/2-y,1/2-z
1/2-x,1/2+y,1/2-z
-x,-y,-z
1/2+x,y,-z
-x,1/2+y,1/2+z
1/2+x,1/2-y,1/2+z
loop_
_atom_site_type_symbol
_atom_site_label
_atom_site_fract_x
_atom_site_fract_y
_atom_site_fract_z
Si Si1 0.325491 0.541716 0.837946
Si Si2 0.405390 0.893827 0.929886
Si Si3 0.899749 0.804347 0.328355
Si Si4 0.231103 0.399812 0.296505
Si Si5 0.763069 0.352724 0.028848
Si Si6 0.578527 0.462676 0.851949
Si Si7 0.573312 0.933739 0.821635
Si Si8 0.535389 0.872533 0.489525
O O1 0.250000 0.500000 0.820204
O O2 0.367443 0.558213 0.671682
O O3 0.281225 0.594566 0.903444
O O4 0.398453 0.521146 0.965760
O O5 0.405651 0.845354 0.813892
O O6 0.507512 0.911292 0.955582
O O7 0.338922 0.881980 0.071889
O O8 0.921198 0.750000 0.250000
O O9 0.799657 0.808275 0.400849
O O10 0.967655 0.826646 0.462340
O O11 0.175546 0.444228 0.208872
O O12 0.323675 0.422553 0.361389
O O13 0.252801 0.357603 0.161902
O O14 0.868095 0.353056 0.068826
O O15 0.554920 0.507753 0.730557
O O16 0.513585 0.413583 0.874036
O O17 0.554173 0.902749 0.656040
#
# Coordination Sequence:
#
# PCOD9408268 Si02
#       8
#     8   8   8   8   8   8   8   8
#     4  10  18  31  52  81 116 155 197 237 273 337
#     4  10  22  38  52  84 119 154 197 239 299 345
#     4  10  20  42  64  84 111 148 191 257 298 342
#     4  10  20  37  53  80 125 154 191 234 289 345
#     4   9  19  36  59  84 112 151 195 237 290 344
#     4  11  18  33  57  82 118 155 199 232 277 348
#     4  10  20  33  57  84 119 162 195 232 286 345
#     4  10  18  34  61  89 109 146 198 244 284 348
#
# _framework density 19.583779
#
# number of rings (size 3 to 8) (size 9 to 14) (size 15 to 20)
#    0.000    2.000    5.000    3.000    1.750    1.500 
#    4.500    4.375    0.000    0.000    0.000    0.000 
#    0.000    0.000    0.000    0.000    0.000    0.000 
#
# Total GULP energy -356793.227190 kJ/mol
# GULP energy per Si atom -5574.894175 kJ/mol
# Density = 1.953921 g / cm^3
# Si number density = 19.583779 Si / 1000 Ang^3
#
#
#
# Elastic Constant Matrix: (Units=GPa)
#
#
# Indices 1 2 3 4 5 6 
#
# 1 151.4266 30.8270 25.1204 0.0000 0.0000 0.0000
# 2 30.8270 63.0782 10.2853 0.0000 0.0000 0.0000
# 3 25.1204 10.2853 27.1602 0.0000 0.0000 0.0000
# 4 0.0000 0.0000 0.0000 6.3788 0.0000 0.0000
# 5 0.0000 0.0000 0.0000 0.0000 15.9782 0.0000
# 6 0.0000 0.0000 0.0000 0.0000 0.0000 14.8333
#
#
#
# Elastic Compliance Matrix: (Units=1/GPa)
#
#
# Indices 1 2 3 4 5 6 
#
# 1 0.008298 -0.002988 -0.006543 0.000000 0.000000 0.000000
# 2 -0.002988 0.017973 -0.004042 0.000000 0.000000 0.000000
# 3 -0.006543 -0.004042 0.044401 0.000000 0.000000 0.000000
# 4 0.000000 0.000000 0.000000 0.156770 0.000000 0.000000
# 5 0.000000 0.000000 0.000000 0.000000 0.062585 0.000000
# 6 0.000000 0.000000 0.000000 0.000000 0.000000 0.067416
#
#
# Mechanical properties :
#
#
# Convention : Reuss Voigt Hill
#
# Bulk Modulus (GPa) = 22.97558 41.57005 32.27282
# Shear Modulus (GPa) = 12.52829 19.13355 15.83092
#
# Velocity S-wave (km/s) = 2.53203 3.12911 2.84627
# Velocity P-wave (km/s) = 4.50618 5.85901 5.22655
#
# Compressibility (1/GPa) = 0.04352446
#
# Stress axis : x y z
#
# Youngs Moduli (GPa) = 120.51681 55.63947 22.52216
#
# Poissons Ratio (x) = 0.16627 0.14736
# Poissons Ratio (y) = 0.36014 0.09104
# Poissons Ratio (z) = 0.78852 0.22491
#
# Static dielectric constant tensor:
#      x y z
#    x 1.745300 0.000000 0.000000 
#    y 0.000000 1.672070 0.000000 
#    z 0.000000 0.000000 1.754340 
# 
# From -- ./inp_files/11078.got.cif
#   From: 2010.05.17/outbox.cif.g08.bks.cpg/sg52_6_cif.got.tgz:11078.got - 2010.06.03 12:15:38.
