data_PCOD9408500
_publ_section_title
;
Structure prediction by ZEFSAII (Michael W. Deem and Ramdas Pophale) SiO2 
 PCOD9408500
Probable space group: P N N A
;
_chemical_formula_sum "Si O2"
_cell_formula_units_Z 32
_cell_length_a 15.441105
_cell_length_b 7.587372
_cell_length_c 12.181895
_cell_angle_alpha 90.000000
_cell_angle_beta 90.000000
_cell_angle_gamma 90.000000
_cell_volume 1427.199239
_symmetry_space_group_name_H-M "P N N A"
_symmetry_group_IT_number 52
_symmetry_cell_setting 'orthorhombic'
loop_
_space_group_symop_operation_xyz
x,y,z
1/2-x,-y,z
x,1/2-y,1/2-z
1/2-x,1/2+y,1/2-z
-x,-y,-z
1/2+x,y,-z
-x,1/2+y,1/2+z
1/2+x,1/2-y,1/2+z
loop_
_atom_site_type_symbol
_atom_site_label
_atom_site_fract_x
_atom_site_fract_y
_atom_site_fract_z
Si Si1 0.781168 0.758789 0.376271
Si Si2 0.521057 0.984321 0.844925
Si Si3 0.366846 0.086750 0.974500
Si Si4 0.037296 0.078755 0.611889
O O1 0.751224 0.750000 0.250000
O O2 0.699175 0.746606 0.457828
O O3 0.829013 0.576189 0.405612
O O4 0.857598 0.903236 0.384696
O O5 0.503222 0.018378 0.717952
O O6 0.494062 0.780522 0.868493
O O7 0.458992 0.112229 0.915127
O O8 0.614902 0.983258 0.902740
O O9 0.000000 0.000000 0.500000
#
# Coordination Sequence:
#
# PCOD9408500 Si02
#       4
#     8   8   8   8
#     4  10  18  35  56  87 116 150 207 269 302 363
#     4   9  18  37  55  86 117 158 197 250 318 375
#     4   9  18  33  60  78 114 153 188 258 322 354
#     4  10  19  35  59  83 122 159 205 255 302 384
#
# _framework density 22.421538000000002
#
# number of rings (size 3 to 8) (size 9 to 14) (size 15 to 20)
#    0.000    2.500    5.000    0.000    0.000    2.000 
#    0.000   10.000   22.000    0.000    0.000    0.000 
#    0.000    0.000    0.000    0.000    0.000    0.000 
#
# Total GULP energy -178218.930776 kJ/mol
# GULP energy per Si atom -5569.341587 kJ/mol
# Density = 2.237051 g / cm^3
# Si number density = 22.421538 Si / 1000 Ang^3
#
#
#
# Elastic Constant Matrix: (Units=GPa)
#
#
# Indices 1 2 3 4 5 6 
#
# 1 102.3063 4.6567 72.5849 0.0000 0.0000 0.0000
# 2 4.6567 50.7349 21.4312 0.0000 0.0000 0.0000
# 3 72.5849 21.4312 198.6973 0.0000 0.0000 0.0000
# 4 0.0000 0.0000 0.0000 34.8787 0.0000 0.0000
# 5 0.0000 0.0000 0.0000 0.0000 31.7723 0.0000
# 6 0.0000 0.0000 0.0000 0.0000 0.0000 9.4497
#
#
#
# Elastic Compliance Matrix: (Units=1/GPa)
#
#
# Indices 1 2 3 4 5 6 
#
# 1 0.013230 0.000867 -0.004927 0.000000 0.000000 0.000000
# 2 0.000867 0.020708 -0.002550 0.000000 0.000000 0.000000
# 3 -0.004927 -0.002550 0.007108 0.000000 0.000000 0.000000
# 4 0.000000 0.000000 0.000000 0.028671 0.000000 0.000000
# 5 0.000000 0.000000 0.000000 0.000000 0.031474 0.000000
# 6 0.000000 0.000000 0.000000 0.000000 0.000000 0.105823
#
#
# Mechanical properties :
#
#
# Convention : Reuss Voigt Hill
#
# Bulk Modulus (GPa) = 35.93771 61.00934 48.47353
# Shear Modulus (GPa) = 21.78559 32.09119 26.93839
#
# Velocity S-wave (km/s) = 3.12049 3.78731 3.46996
# Velocity P-wave (km/s) = 5.38946 6.81133 6.14168
#
# Compressibility (1/GPa) = 0.02782592
#
# Stress axis : x y z
#
# Youngs Moduli (GPa) = 75.58295 48.29057 140.69534
#
# Poissons Ratio (x) = -0.04186 0.69315
# Poissons Ratio (y) = -0.06551 0.35880
# Poissons Ratio (z) = 0.37237 0.12315
#
# Static dielectric constant tensor:
#      x y z
#    x 2.054130 0.000000 0.000000 
#    y 0.000000 2.001050 0.000000 
#    z 0.000000 0.000000 1.932750 
# 
# From -- ./inp_files/19015.got.cif
#   From: 2010.05.17/outbox.cif.g08.bks.cpg/sg52_10_cif.got.tgz:19015.got - 2010.06.03 12:15:38.
