data_PCOD9408794
_publ_section_title
;
Structure prediction by ZEFSAII (Michael W. Deem and Ramdas Pophale) SiO2 
 PCOD9408794
Probable space group: P N N A
;
_chemical_formula_sum "Si O2"
_cell_formula_units_Z 56
_cell_length_a 15.862886
_cell_length_b 15.763277
_cell_length_c 12.472893
_cell_angle_alpha 90.000000
_cell_angle_beta 90.000000
_cell_angle_gamma 90.000000
_cell_volume 3118.860191
_symmetry_space_group_name_H-M "P N N A"
_symmetry_group_IT_number 52
_symmetry_cell_setting 'orthorhombic'
loop_
_space_group_symop_operation_xyz
x,y,z
1/2-x,-y,z
x,1/2-y,1/2-z
1/2-x,1/2+y,1/2-z
-x,-y,-z
1/2+x,y,-z
-x,1/2+y,1/2+z
1/2+x,1/2-y,1/2+z
loop_
_atom_site_type_symbol
_atom_site_label
_atom_site_fract_x
_atom_site_fract_y
_atom_site_fract_z
Si Si1 0.805156 0.649452 0.733427
Si Si2 0.184188 0.928404 0.413942
Si Si3 0.789869 0.595303 0.486587
Si Si4 0.053494 0.013497 0.894089
Si Si5 0.389647 0.158035 0.614834
Si Si6 0.540014 0.036302 0.688449
Si Si7 0.646757 0.838028 0.147654
O O1 0.809263 0.750000 0.750000
O O2 0.730369 0.612453 0.809882
O O3 0.793969 0.625274 0.609107
O O4 0.892204 0.604228 0.767598
O O5 0.162796 0.864902 0.509863
O O6 0.250000 0.000000 0.452802
O O7 0.096626 0.974274 0.383416
O O8 0.750000 0.500000 0.487424
O O9 0.878067 0.584613 0.423884
O O10 0.730922 0.659402 0.421411
O O11 0.100179 0.924617 0.877629
O O12 0.998440 0.019280 0.786231
O O13 0.000000 0.000000 0.000000
O O14 0.466078 0.091429 0.632081
O O15 0.336197 0.156351 0.725305
O O16 0.411554 0.258121 0.615699
#
# Coordination Sequence:
#
# PCOD9408794 Si02
#       7
#     8   8   8   8   8   8   8
#     4  11  22  34  57  84 115 148 190 237 290 339
#     4  10  22  38  55  82 116 155 192 233 281 352
#     4  10  19  35  56  82 113 143 184 236 284 339
#     4  10  19  32  55  83 109 142 181 236 284 334
#     4  10  20  38  56  81 112 147 193 233 280 337
#     4  10  21  35  57  84 114 148 194 233 283 345
#     4   9  21  34  57  82 108 146 187 235 282 336
#
# _framework density 17.955278
#
# number of rings (size 3 to 8) (size 9 to 14) (size 15 to 20)
#    0.000    2.000    1.429    2.571    6.000    2.857 
#    0.000    0.000    0.000    1.714    0.000    0.000 
#    0.000    0.000    0.000    0.000    0.000    0.000 
#
# Total GULP energy -311902.765661 kJ/mol
# GULP energy per Si atom -5569.692244 kJ/mol
# Density = 1.791441 g / cm^3
# Si number density = 17.955278 Si / 1000 Ang^3
#
#
#
# Elastic Constant Matrix: (Units=GPa)
#
#
# Indices 1 2 3 4 5 6 
#
# 1 66.6424 13.1208 49.5750 0.0000 0.0000 0.0000
# 2 13.1208 57.5573 38.0697 0.0000 0.0000 0.0000
# 3 49.5750 38.0697 103.9046 0.0000 0.0000 0.0000
# 4 0.0000 0.0000 0.0000 28.0583 0.0000 0.0000
# 5 0.0000 0.0000 0.0000 0.0000 23.4606 0.0000
# 6 0.0000 0.0000 0.0000 0.0000 0.0000 20.1141
#
#
#
# Elastic Compliance Matrix: (Units=1/GPa)
#
#
# Indices 1 2 3 4 5 6 
#
# 1 0.023582 0.002727 -0.012250 0.000000 0.000000 0.000000
# 2 0.002727 0.023246 -0.009818 0.000000 0.000000 0.000000
# 3 -0.012250 -0.009818 0.019067 0.000000 0.000000 0.000000
# 4 0.000000 0.000000 0.000000 0.035640 0.000000 0.000000
# 5 0.000000 0.000000 0.000000 0.000000 0.042625 0.000000
# 6 0.000000 0.000000 0.000000 0.000000 0.000000 0.049716
#
#
# Mechanical properties :
#
#
# Convention : Reuss Voigt Hill
#
# Bulk Modulus (GPa) = 36.74990 47.73727 42.24358
# Shear Modulus (GPa) = 20.69284 22.81587 21.75435
#
# Velocity S-wave (km/s) = 3.39848 3.56856 3.48456
# Velocity P-wave (km/s) = 5.99262 6.60485 6.30617
#
# Compressibility (1/GPa) = 0.02721096
#
# Stress axis : x y z
#
# Youngs Moduli (GPa) = 42.40593 43.01734 52.44793
#
# Poissons Ratio (x) = -0.11731 0.64251
# Poissons Ratio (y) = -0.11564 0.51496
# Poissons Ratio (z) = 0.51949 0.42236
#
# Static dielectric constant tensor:
#      x y z
#    x 1.652710 0.000000 0.000000 
#    y 0.000000 1.608100 0.000000 
#    z 0.000000 0.000000 1.608760 
# 
# From -- ./inp_files/19618.got.cif
#   From: 2010.05.17/outbox.cif.g08.bks.cpg/sg52_10_cif.got.tgz:19618.got - 2010.06.03 12:15:38.
