data_PCOD9408535
_publ_section_title
;
Structure prediction by ZEFSAII (Michael W. Deem and Ramdas Pophale) SiO2 
 PCOD9408535
Probable space group: P N N A
;
_chemical_formula_sum "Si O2"
_cell_formula_units_Z 48
_cell_length_a 14.022212
_cell_length_b 13.467598
_cell_length_c 11.068249
_cell_angle_alpha 90.000000
_cell_angle_beta 90.000000
_cell_angle_gamma 90.000000
_cell_volume 2090.189175
_symmetry_space_group_name_H-M "P N N A"
_symmetry_group_IT_number 52
_symmetry_cell_setting 'orthorhombic'
loop_
_space_group_symop_operation_xyz
x,y,z
1/2-x,-y,z
x,1/2-y,1/2-z
1/2-x,1/2+y,1/2-z
-x,-y,-z
1/2+x,y,-z
-x,1/2+y,1/2+z
1/2+x,1/2-y,1/2+z
loop_
_atom_site_type_symbol
_atom_site_label
_atom_site_fract_x
_atom_site_fract_y
_atom_site_fract_z
Si Si1 0.637023 0.637085 0.908230
Si Si2 0.224589 0.106396 0.184614
Si Si3 0.241572 0.227828 0.945376
Si Si4 0.576835 0.851672 0.174877
Si Si5 0.952281 0.930868 0.645918
Si Si6 0.967916 0.743241 0.467910
O O1 0.701201 0.626615 0.790773
O O2 0.701277 0.669670 0.024196
O O3 0.583775 0.531189 0.917190
O O4 0.558635 0.722604 0.891361
O O5 0.227927 0.185452 0.080186
O O6 0.125214 0.098580 0.252942
O O7 0.250000 0.000000 0.128868
O O8 0.132513 0.228770 0.901431
O O9 0.314339 0.159695 0.869839
O O10 0.559107 0.750000 0.250000
O O11 0.547522 0.935811 0.271139
O O12 0.509045 0.843620 0.055704
O O13 0.953169 0.840134 0.553010
#
# Coordination Sequence:
#
# PCOD9408535 Si02
#       6
#     8   8   8   8   8   8
#     4  10  21  32  55  93 116 148 196 253 293 349
#     4  10  20  35  59  84 113 154 201 247 288 348
#     4  11  20  36  61  85 116 155 205 246 295 351
#     4   9  20  36  58  82 114 161 193 235 300 364
#     4  10  18  36  57  84 120 156 193 240 305 354
#     4  10  19  33  58  86 118 151 193 247 300 345
#
# _framework density 22.964428999999999
#
# number of rings (size 3 to 8) (size 9 to 14) (size 15 to 20)
#    0.000    2.000    3.333    1.000    0.000    0.000 
#    0.000    6.667    7.333    0.000    0.000    0.000 
#    0.000    0.000    0.000    0.000    0.000    0.000 
#
# Total GULP energy -267866.797190 kJ/mol
# GULP energy per Si atom -5580.558275 kJ/mol
# Density = 2.291216 g / cm^3
# Si number density = 22.964429 Si / 1000 Ang^3
#
#
#
# Elastic Constant Matrix: (Units=GPa)
#
#
# Indices 1 2 3 4 5 6 
#
# 1 145.3383 -10.7480 6.3839 0.0000 0.0000 0.0000
# 2 -10.7480 25.6262 -4.7228 0.0000 0.0000 0.0000
# 3 6.3839 -4.7228 22.4598 0.0000 0.0000 0.0000
# 4 0.0000 0.0000 0.0000 18.0839 0.0000 0.0000
# 5 0.0000 0.0000 0.0000 0.0000 20.0623 0.0000
# 6 0.0000 0.0000 0.0000 0.0000 0.0000 18.6475
#
#
#
# Elastic Compliance Matrix: (Units=1/GPa)
#
#
# Indices 1 2 3 4 5 6 
#
# 1 0.007146 0.002729 -0.001457 0.000000 0.000000 0.000000
# 2 0.002729 0.041638 0.007980 0.000000 0.000000 0.000000
# 3 -0.001457 0.007980 0.046616 0.000000 0.000000 0.000000
# 4 0.000000 0.000000 0.000000 0.055298 0.000000 0.000000
# 5 0.000000 0.000000 0.000000 0.000000 0.049845 0.000000
# 6 0.000000 0.000000 0.000000 0.000000 0.000000 0.053627
#
#
# Mechanical properties :
#
#
# Convention : Reuss Voigt Hill
#
# Bulk Modulus (GPa) = 8.77944 19.47227 14.12585
# Shear Modulus (GPa) = 18.27255 24.85949 21.56602
#
# Velocity S-wave (km/s) = 2.82386 3.29374 3.06781
# Velocity P-wave (km/s) = 3.80310 4.79194 4.32587
#
# Compressibility (1/GPa) = 0.11390254
#
# Stress axis : x y z
#
# Youngs Moduli (GPa) = 139.93250 24.01675 21.45173
#
# Poissons Ratio (x) = -0.06553 0.03126
# Poissons Ratio (y) = -0.38183 -0.17118
# Poissons Ratio (z) = 0.20394 -0.19165
#
# Static dielectric constant tensor:
#      x y z
#    x 1.960920 0.000000 0.000000 
#    y 0.000000 1.874800 0.000000 
#    z 0.000000 0.000000 1.850370 
# 
# From -- ./inp_files/19511.got.cif
#   From: 2010.05.17/outbox.cif.g08.bks.cpg/sg52_10_cif.got.tgz:19511.got - 2010.06.03 12:15:38.
