data_PCOD9408098
_publ_section_title
;
Structure prediction by ZEFSAII (Michael W. Deem and Ramdas Pophale) SiO2 
 PCOD9408098
Probable space group: P N N A
;
_chemical_formula_sum "Si O2"
_cell_formula_units_Z 60
_cell_length_a 12.141886
_cell_length_b 14.710455
_cell_length_c 18.005618
_cell_angle_alpha 90.000000
_cell_angle_beta 90.000000
_cell_angle_gamma 90.000000
_cell_volume 3216.031463
_symmetry_space_group_name_H-M "P N N A"
_symmetry_group_IT_number 52
_symmetry_cell_setting 'orthorhombic'
loop_
_space_group_symop_operation_xyz
x,y,z
1/2-x,-y,z
x,1/2-y,1/2-z
1/2-x,1/2+y,1/2-z
-x,-y,-z
1/2+x,y,-z
-x,1/2+y,1/2+z
1/2+x,1/2-y,1/2+z
loop_
_atom_site_type_symbol
_atom_site_label
_atom_site_fract_x
_atom_site_fract_y
_atom_site_fract_z
Si Si1 0.125821 0.340739 0.702504
Si Si2 0.750000 0.500000 0.821508
Si Si3 0.983262 0.500000 0.740469
Si Si4 0.453775 0.805628 0.073274
Si Si5 0.250000 0.284014 0.161886
Si Si6 0.625821 0.659261 0.297496
Si Si7 0.622594 0.500000 0.580667
Si Si8 0.953775 0.305628 0.573274
O O1 0.131915 0.250000 0.750000
O O2 0.250000 0.372876 0.685893
O O3 0.057687 0.412305 0.751629
O O4 0.055554 0.322506 0.628621
O O5 0.867028 0.500000 0.780028
O O6 0.750000 0.606215 0.850211
O O7 0.951233 0.500000 0.653976
O O8 0.057687 0.587695 0.751629
O O9 0.357729 0.757526 0.121077
O O10 0.555554 0.822506 0.128621
O O11 0.403660 0.902718 0.044957
O O12 0.500000 0.756389 0.000000
O O13 0.250000 0.250000 0.250000
O O14 0.357729 0.242473 0.121077
O O15 0.631915 0.750000 0.250000
O O16 0.750000 0.500000 0.601944
O O17 0.596339 0.597282 0.544957
#
# Coordination Sequence:
#
# PCOD9408098 Si02
#       8
#     8   4   8   8   8   8   8   8
#     4  10  21  36  56  83 118 155 196 242 303 375
#     4  12  22  36  66  94 118 156 222 272 314 356
#     4  10  19  33  56  86 118 151 195 255 304 362
#     4  11  23  37  60  89 125 163 202 254 312 378
#     4  12  24  42  68  94 125 163 217 268 316 372
#     4  10  21  36  56  83 118 155 196 242 303 375
#     4  10  17  34  55  88 123 157 188 237 306 381
#     4  11  23  37  60  89 125 163 202 254 312 378
#
# _framework density 18.656534000000001
#
# number of rings (size 3 to 8) (size 9 to 14) (size 15 to 20)
#    0.000    1.333    2.000    6.400    1.867    0.000 
#    0.000    0.667    0.000    0.000    0.000    0.000 
#    0.000    0.000    0.000    0.000    0.000    0.000 
#
# Total GULP energy -334137.399485 kJ/mol
# GULP energy per Si atom -5568.956658 kJ/mol
# Density = 1.861407 g / cm^3
# Si number density = 18.656534 Si / 1000 Ang^3
#
#
#
# Elastic Constant Matrix: (Units=GPa)
#
#
# Indices 1 2 3 4 5 6 
#
# 1 169.8833 51.1596 44.3277 0.0000 0.0000 0.0000
# 2 51.1596 100.1478 28.0085 0.0000 0.0000 0.0000
# 3 44.3277 28.0085 73.0538 0.0000 0.0000 0.0000
# 4 0.0000 0.0000 0.0000 5.7913 0.0000 0.0000
# 5 0.0000 0.0000 0.0000 0.0000 38.6523 0.0000
# 6 0.0000 0.0000 0.0000 0.0000 0.0000 5.9449
#
#
#
# Elastic Compliance Matrix: (Units=1/GPa)
#
#
# Indices 1 2 3 4 5 6 
#
# 1 0.007696 -0.002941 -0.003542 0.000000 0.000000 0.000000
# 2 -0.002941 0.012308 -0.002934 0.000000 0.000000 0.000000
# 3 -0.003542 -0.002934 0.016963 0.000000 0.000000 0.000000
# 4 0.000000 0.000000 0.000000 0.172672 0.000000 0.000000
# 5 0.000000 0.000000 0.000000 0.000000 0.025872 0.000000
# 6 0.000000 0.000000 0.000000 0.000000 0.000000 0.168211
#
#
# Mechanical properties :
#
#
# Convention : Reuss Voigt Hill
#
# Bulk Modulus (GPa) = 55.15090 65.56406 60.35748
# Shear Modulus (GPa) = 11.66581 24.71697 18.19139
#
# Velocity S-wave (km/s) = 2.50330 3.64379 3.12600
# Velocity P-wave (km/s) = 6.16285 7.27474 6.74176
#
# Compressibility (1/GPa) = 0.01813207
#
# Stress axis : x y z
#
# Youngs Moduli (GPa) = 129.93133 81.24628 58.95144
#
# Poissons Ratio (x) = 0.23894 0.20883
# Poissons Ratio (y) = 0.38211 0.17299
# Poissons Ratio (z) = 0.46028 0.23841
#
# Static dielectric constant tensor:
#      x y z
#    x 1.722160 0.000000 0.000000 
#    y 0.000000 1.739020 0.000000 
#    z 0.000000 0.000000 1.641580 
# 
# From -- ./inp_files/32376.got.cif
#   From: 2010.05.17/outbox.cif.g08.bks.cpg/sg52_17_cif.got.tgz:32376.got - 2010.06.03 12:15:38.
