data_PCOD9408383
_publ_section_title
;
Structure prediction by ZEFSAII (Michael W. Deem and Ramdas Pophale) SiO2 
 PCOD9408383
Probable space group: P N N A
;
_chemical_formula_sum "Si O2"
_cell_formula_units_Z 28
_cell_length_a 8.609052
_cell_length_b 17.268403
_cell_length_c 6.482120
_cell_angle_alpha 90.000000
_cell_angle_beta 90.000000
_cell_angle_gamma 90.000000
_cell_volume 963.661643
_symmetry_space_group_name_H-M "P N N A"
_symmetry_group_IT_number 52
_symmetry_cell_setting 'orthorhombic'
loop_
_space_group_symop_operation_xyz
x,y,z
1/2-x,-y,z
x,1/2-y,1/2-z
1/2-x,1/2+y,1/2-z
-x,-y,-z
1/2+x,y,-z
-x,1/2+y,1/2+z
1/2+x,1/2-y,1/2+z
loop_
_atom_site_type_symbol
_atom_site_label
_atom_site_fract_x
_atom_site_fract_y
_atom_site_fract_z
Si Si1 0.738131 0.386823 0.088122
Si Si2 0.158458 0.877417 0.148862
Si Si3 0.477327 0.750000 0.750000
Si Si4 0.959794 0.953952 0.763136
O O1 0.638687 0.316950 0.171721
O O2 0.864636 0.421977 0.247561
O O3 0.621553 0.446428 0.966829
O O4 0.835924 0.357403 0.894434
O O5 0.338287 0.898959 0.112122
O O6 0.078767 0.798560 0.078877
O O7 0.067299 0.959401 0.153362
#
# Coordination Sequence:
#
# PCOD9408383 Si02
#       4
#     8   8   4   8
#     4  10  18  33  52  83 110 144 173 238 270 330
#     4   9  19  33  53  82 111 140 176 240 264 334
#     4  12  22  28  52  88 116 140 182 224 302 312
#     4   9  18  33  58  73 116 135 184 226 279 307
#
# _framework density 29.055838999999999
#
# number of rings (size 3 to 8) (size 9 to 14) (size 15 to 20)
#    1.714    0.571    2.857    0.857    4.000    1.143 
#    0.000    0.000    0.000    0.000    0.000   24.000 
#    0.000    0.000    0.000    0.000    0.000    0.000 
#
# Total GULP energy -156382.311712 kJ/mol
# GULP energy per Si atom -5585.082561 kJ/mol
# Density = 2.898971 g / cm^3
# Si number density = 29.055839 Si / 1000 Ang^3
#
#
#
# Elastic Constant Matrix: (Units=GPa)
#
#
# Indices 1 2 3 4 5 6 
#
# 1 247.6568 139.2394 37.6245 0.0000 0.0000 0.0000
# 2 139.2394 269.2671 35.1526 0.0000 0.0000 0.0000
# 3 37.6245 35.1526 46.3605 0.0000 0.0000 0.0000
# 4 0.0000 0.0000 0.0000 28.4341 0.0000 0.0000
# 5 0.0000 0.0000 0.0000 0.0000 59.6542 0.0000
# 6 0.0000 0.0000 0.0000 0.0000 0.0000 70.7007
#
#
#
# Elastic Compliance Matrix: (Units=1/GPa)
#
#
# Indices 1 2 3 4 5 6 
#
# 1 0.006002 -0.002739 -0.002794 0.000000 0.000000 0.000000
# 2 -0.002739 0.005372 -0.001850 0.000000 0.000000 0.000000
# 3 -0.002794 -0.001850 0.025241 0.000000 0.000000 0.000000
# 4 0.000000 0.000000 0.000000 0.035169 0.000000 0.000000
# 5 0.000000 0.000000 0.000000 0.000000 0.016763 0.000000
# 6 0.000000 0.000000 0.000000 0.000000 0.000000 0.014144
#
#
# Mechanical properties :
#
#
# Convention : Reuss Voigt Hill
#
# Bulk Modulus (GPa) = 45.77162 109.70193 77.73678
# Shear Modulus (GPa) = 40.08309 55.17570 47.62939
#
# Velocity S-wave (km/s) = 3.71822 4.36243 4.05314
# Velocity P-wave (km/s) = 5.84985 7.95059 6.97971
#
# Compressibility (1/GPa) = 0.02184760
#
# Stress axis : x y z
#
# Youngs Moduli (GPa) = 166.60184 186.16129 39.61844
#
# Poissons Ratio (x) = 0.50990 0.11071
# Poissons Ratio (y) = 0.45633 0.07330
# Poissons Ratio (z) = 0.46555 0.34443
#
# Static dielectric constant tensor:
#      x y z
#    x 2.270490 0.000000 0.000000 
#    y 0.000000 2.413530 0.000000 
#    z 0.000000 0.000000 2.546530 
# 
# From -- ./inp_files/7080.got.cif
#   From: 2010.05.17/outbox.cif.g08.bks.cpg/sg52_4_cif.got.tgz:7080.got - 2010.06.03 12:15:38.
