data_PCOD9408936
_publ_section_title
;
Structure prediction by ZEFSAII (Michael W. Deem and Ramdas Pophale) SiO2 
 PCOD9408936
Probable space group: P N N A
;
_chemical_formula_sum "Si O2"
_cell_formula_units_Z 48
_cell_length_a 19.522810
_cell_length_b 13.102417
_cell_length_c 9.220371
_cell_angle_alpha 90.000000
_cell_angle_beta 90.000000
_cell_angle_gamma 90.000000
_cell_volume 2358.533998
_symmetry_space_group_name_H-M "P N N A"
_symmetry_group_IT_number 52
_symmetry_cell_setting 'orthorhombic'
loop_
_space_group_symop_operation_xyz
x,y,z
1/2-x,-y,z
x,1/2-y,1/2-z
1/2-x,1/2+y,1/2-z
-x,-y,-z
1/2+x,y,-z
-x,1/2+y,1/2+z
1/2+x,1/2-y,1/2+z
loop_
_atom_site_type_symbol
_atom_site_label
_atom_site_fract_x
_atom_site_fract_y
_atom_site_fract_z
Si Si1 0.002578 0.789020 0.416062
Si Si2 0.175788 0.531708 0.765449
Si Si3 0.108407 0.556021 0.188160
Si Si4 0.106681 0.626011 0.507210
Si Si5 0.639916 0.134508 0.507600
Si Si6 0.208411 0.805808 0.485953
O O1 0.001849 0.750000 0.250000
O O2 0.926945 0.800799 0.475391
O O3 0.044834 0.895218 0.401964
O O4 0.046136 0.709234 0.510881
O O5 0.250000 0.500000 0.701976
O O6 0.119196 0.557040 0.646414
O O7 0.152517 0.440527 0.870335
O O8 0.189217 0.629549 0.869226
O O9 0.096567 0.564941 0.358636
O O10 0.171489 0.630060 0.141880
O O11 0.125235 0.442886 0.138474
O O12 0.174847 0.695523 0.494153
O O13 0.710324 0.194287 0.530568
#
# Coordination Sequence:
#
# PCOD9408936 Si02
#       6
#     8   8   8   8   8   8
#     4   9  19  34  54  77 105 144 179 213 264 321
#     4   9  19  32  52  83 108 136 179 226 267 311
#     4   9  18  34  54  76 104 143 178 212 264 325
#     4  10  19  35  57  79 107 141 177 220 269 315
#     4  10  19  34  57  80 105 139 181 221 262 319
#     4   9  18  33  55  79 103 139 180 216 264 321
#
# _framework density 20.351627000000001
#
# number of rings (size 3 to 8) (size 9 to 14) (size 15 to 20)
#    0.000    2.667    0.000    4.000    0.000    4.000 
#    0.000    3.333    0.000   28.000    0.000    0.000 
#    0.000    0.000    0.000    0.000    0.000    0.000 
#
# Total GULP energy -268052.756111 kJ/mol
# GULP energy per Si atom -5584.432419 kJ/mol
# Density = 2.030531 g / cm^3
# Si number density = 20.351627 Si / 1000 Ang^3
#
#
#
# Elastic Constant Matrix: (Units=GPa)
#
#
# Indices 1 2 3 4 5 6 
#
# 1 104.2648 -0.0604 -9.6937 0.0000 0.0000 0.0000
# 2 -0.0604 18.8236 -11.6102 0.0000 0.0000 0.0000
# 3 -9.6937 -11.6102 30.6380 0.0000 0.0000 0.0000
# 4 0.0000 0.0000 0.0000 5.0166 0.0000 0.0000
# 5 0.0000 0.0000 0.0000 0.0000 9.8605 0.0000
# 6 0.0000 0.0000 0.0000 0.0000 0.0000 13.2989
#
#
#
# Elastic Compliance Matrix: (Units=1/GPa)
#
#
# Indices 1 2 3 4 5 6 
#
# 1 0.009977 0.002583 0.004135 0.000000 0.000000 0.000000
# 2 0.002583 0.069998 0.027343 0.000000 0.000000 0.000000
# 3 0.004135 0.027343 0.044309 0.000000 0.000000 0.000000
# 4 0.000000 0.000000 0.000000 0.199339 0.000000 0.000000
# 5 0.000000 0.000000 0.000000 0.000000 0.101415 0.000000
# 6 0.000000 0.000000 0.000000 0.000000 0.000000 0.075194
#
#
# Mechanical properties :
#
#
# Convention : Reuss Voigt Hill
#
# Bulk Modulus (GPa) = 5.19739 12.33312 8.76525
# Shear Modulus (GPa) = 10.07565 17.30791 13.69178
#
# Velocity S-wave (km/s) = 2.22745 2.91940 2.59658
# Velocity P-wave (km/s) = 3.02898 4.17577 3.64772
#
# Compressibility (1/GPa) = 0.19240426
#
# Stress axis : x y z
#
# Youngs Moduli (GPa) = 100.23133 14.28621 22.56882
#
# Poissons Ratio (x) = -0.03690 -0.09333
# Poissons Ratio (y) = -0.25886 -0.61709
# Poissons Ratio (z) = -0.41449 -0.39062
#
# Static dielectric constant tensor:
#      x y z
#    x 1.719450 0.000000 0.000000 
#    y 0.000000 1.711590 0.000000 
#    z 0.000000 0.000000 1.726940 
# 
# From -- ./inp_files/12077.got.cif
#   From: 2010.05.17/outbox.cif.g08.bks.cpg/sg52_7_cif.got.tgz:12077.got - 2010.06.03 12:15:38.
