data_PCOD9408070
_publ_section_title
;
Structure prediction by ZEFSAII (Michael W. Deem and Ramdas Pophale) SiO2 
 PCOD9408070
Probable space group: P N N A
;
_chemical_formula_sum "Si O2"
_cell_formula_units_Z 64
_cell_length_a 13.558646
_cell_length_b 19.889001
_cell_length_c 13.069592
_cell_angle_alpha 90.000000
_cell_angle_beta 90.000000
_cell_angle_gamma 90.000000
_cell_volume 3524.449740
_symmetry_space_group_name_H-M "P N N A"
_symmetry_group_IT_number 52
_symmetry_cell_setting 'orthorhombic'
loop_
_space_group_symop_operation_xyz
x,y,z
1/2-x,-y,z
x,1/2-y,1/2-z
1/2-x,1/2+y,1/2-z
-x,-y,-z
1/2+x,y,-z
-x,1/2+y,1/2+z
1/2+x,1/2-y,1/2+z
loop_
_atom_site_type_symbol
_atom_site_label
_atom_site_fract_x
_atom_site_fract_y
_atom_site_fract_z
Si Si1 0.537883 0.509165 0.172038
Si Si2 0.638389 0.298247 0.005971
Si Si3 0.344854 0.333898 0.077692
Si Si4 0.638695 0.512928 0.967980
Si Si5 0.556776 0.761283 0.404017
Si Si6 0.983446 0.857226 0.297142
Si Si7 0.184731 0.306680 0.668224
Si Si8 0.380572 0.360866 0.725270
O O1 0.621820 0.496449 0.086382
O O2 0.516388 0.436995 0.220060
O O3 0.571044 0.567941 0.247691
O O4 0.440653 0.525137 0.103000
O O5 0.583388 0.337880 0.100652
O O6 0.679974 0.230738 0.060423
O O7 0.728799 0.333592 0.947259
O O8 0.555636 0.280239 0.924009
O O9 0.405281 0.331099 0.184017
O O10 0.381648 0.407227 0.039265
O O11 0.388985 0.273766 0.010639
O O12 0.750000 0.500000 0.935353
O O13 0.568820 0.687070 0.359185
O O14 0.605508 0.815990 0.327906
O O15 0.924483 0.826294 0.202764
O O16 0.216467 0.250000 0.750000
O O17 0.266469 0.363691 0.688576
#
# Coordination Sequence:
#
# PCOD9408070 Si02
#       8
#     8   8   8   8   8   8   8   8
#     4  10  21  31  45  75 105 135 169 206 250 309
#     4  10  19  32  57  73 104 139 175 212 265 307
#     4  10  17  32  48  74 104 137 169 207 256 313
#     4  10  20  29  45  71 107 142 164 194 254 321
#     4  10  19  32  51  75 102 138 171 216 252 306
#     4   9  20  31  49  77 105 131 169 214 258 305
#     4  10  18  33  52  75  99 139 172 219 260 299
#     4  11  19  32  52  74 108 132 177 211 255 307
#
# _framework density 18.158863
#
# number of rings (size 3 to 8) (size 9 to 14) (size 15 to 20)
#    0.000    2.000    3.750    1.500    5.250    0.000 
#    0.000    0.000   13.750    0.750    0.000    0.000 
#    0.000    0.000    0.000    0.000    0.000    0.000 
#
# Total GULP energy -356275.647893 kJ/mol
# GULP energy per Si atom -5566.806998 kJ/mol
# Density = 1.811753 g / cm^3
# Si number density = 18.158863 Si / 1000 Ang^3
#
#
#
# Elastic Constant Matrix: (Units=GPa)
#
#
# Indices 1 2 3 4 5 6 
#
# 1 72.5781 0.9933 3.8285 0.0000 0.0000 0.0000
# 2 0.9933 65.5278 18.5553 0.0000 0.0000 0.0000
# 3 3.8285 18.5553 20.5478 0.0000 0.0000 0.0000
# 4 0.0000 0.0000 0.0000 23.8635 0.0000 0.0000
# 5 0.0000 0.0000 0.0000 0.0000 24.7673 0.0000
# 6 0.0000 0.0000 0.0000 0.0000 0.0000 21.4871
#
#
#
# Elastic Compliance Matrix: (Units=1/GPa)
#
#
# Indices 1 2 3 4 5 6 
#
# 1 0.013939 0.000704 -0.003233 0.000000 0.000000 0.000000
# 2 0.000704 0.020539 -0.018679 0.000000 0.000000 0.000000
# 3 -0.003233 -0.018679 0.066137 0.000000 0.000000 0.000000
# 4 0.000000 0.000000 0.000000 0.041905 0.000000 0.000000
# 5 0.000000 0.000000 0.000000 0.000000 0.040376 0.000000
# 6 0.000000 0.000000 0.000000 0.000000 0.000000 0.046540
#
#
# Mechanical properties :
#
#
# Convention : Reuss Voigt Hill
#
# Bulk Modulus (GPa) = 17.18214 22.82310 20.00262
# Shear Modulus (GPa) = 17.16734 23.04202 20.10468
#
# Velocity S-wave (km/s) = 3.07807 3.56605 3.33100
# Velocity P-wave (km/s) = 4.70269 5.43612 5.08265
#
# Compressibility (1/GPa) = 0.05819998
#
# Stress axis : x y z
#
# Youngs Moduli (GPa) = 71.74026 48.68734 15.12017
#
# Poissons Ratio (x) = -0.03429 0.04888
# Poissons Ratio (y) = -0.05052 0.28243
# Poissons Ratio (z) = 0.23194 0.90942
#
# Static dielectric constant tensor:
#      x y z
#    x 1.700680 0.000000 0.000000 
#    y 0.000000 1.654870 0.000000 
#    z 0.000000 0.000000 1.676280 
# 
# From -- ./inp_files/26368.got.cif
#   From: 2010.05.17/outbox.cif.g08.bks.cpg/sg52_14_cif.got.tgz:26368.got - 2010.06.03 12:15:38.
