data_PCOD9408351
_publ_section_title
;
Structure prediction by ZEFSAII (Michael W. Deem and Ramdas Pophale) SiO2 
 PCOD9408351
Probable space group: P N N A
;
_chemical_formula_sum "Si O2"
_cell_formula_units_Z 60
_cell_length_a 16.779169
_cell_length_b 28.906035
_cell_length_c 6.776602
_cell_angle_alpha 90.000000
_cell_angle_beta 90.000000
_cell_angle_gamma 90.000000
_cell_volume 3286.782395
_symmetry_space_group_name_H-M "P N N A"
_symmetry_group_IT_number 52
_symmetry_cell_setting 'orthorhombic'
loop_
_space_group_symop_operation_xyz
x,y,z
1/2-x,-y,z
x,1/2-y,1/2-z
1/2-x,1/2+y,1/2-z
-x,-y,-z
1/2+x,y,-z
-x,1/2+y,1/2+z
1/2+x,1/2-y,1/2+z
loop_
_atom_site_type_symbol
_atom_site_label
_atom_site_fract_x
_atom_site_fract_y
_atom_site_fract_z
Si Si1 0.333044 0.885441 0.177535
Si Si2 0.120401 0.670886 0.034850
Si Si3 0.160899 0.750000 0.750000
Si Si4 0.134279 0.440452 0.713691
Si Si5 0.931560 0.472670 0.118316
Si Si6 0.719640 0.578547 0.005446
Si Si7 0.735303 0.706380 0.630709
Si Si8 0.972443 0.612121 0.964194
O O1 0.273033 0.916329 0.310284
O O2 0.288337 0.839087 0.113004
O O3 0.404842 0.869840 0.319137
O O4 0.362210 0.915951 0.995687
O O5 0.180596 0.629613 0.966471
O O6 0.159007 0.691633 0.234150
O O7 0.114845 0.710854 0.871800
O O8 0.034357 0.647985 0.055320
O O9 0.212015 0.724173 0.583809
O O10 0.102552 0.493226 0.715115
O O11 0.220801 0.435985 0.818896
O O12 0.073776 0.413545 0.859267
O O13 0.975295 0.424560 0.163879
O O14 0.853707 0.457273 0.992983
O O15 0.000000 0.500000 0.000000
O O16 0.772046 0.750000 0.750000
#
# Coordination Sequence:
#
# PCOD9408351 Si02
#       8
#     8   8   4   8   8   8   8   8
#     4  10  20  35  57  81 108 147 187 227 279 333
#     4   9  18  34  55  78 105 142 183 223 277 331
#     4  10  18  32  58  80 106 138 182 228 272 336
#     4  10  19  33  54  80 108 143 186 227 275 331
#     4   9  18  35  54  75 108 147 180 223 279 323
#     4   9  18  35  55  76 105 141 183 234 276 323
#     4   9  19  35  57  82 107 140 186 230 274 331
#     4   9  20  36  53  75 113 147 177 227 275 326
#
# _framework density 18.254936000000001
#
# number of rings (size 3 to 8) (size 9 to 14) (size 15 to 20)
#    0.000    2.667    0.000    1.200    0.000    2.667 
#    1.200   14.667    0.000    0.000    0.000    0.000 
#    0.000    0.000    0.000    0.000    0.000    0.000 
#
# Total GULP energy -334175.278938 kJ/mol
# GULP energy per Si atom -5569.587982 kJ/mol
# Density = 1.821339 g / cm^3
# Si number density = 18.254936 Si / 1000 Ang^3
#
#
#
# Elastic Constant Matrix: (Units=GPa)
#
#
# Indices 1 2 3 4 5 6 
#
# 1 86.7328 25.4418 22.3720 0.0000 0.0000 0.0000
# 2 25.4418 72.1234 28.3393 0.0000 0.0000 0.0000
# 3 22.3720 28.3393 59.9796 0.0000 0.0000 0.0000
# 4 0.0000 0.0000 0.0000 24.9811 0.0000 0.0000
# 5 0.0000 0.0000 0.0000 0.0000 2.0897 0.0000
# 6 0.0000 0.0000 0.0000 0.0000 0.0000 20.7159
#
#
#
# Elastic Compliance Matrix: (Units=1/GPa)
#
#
# Indices 1 2 3 4 5 6 
#
# 1 0.013401 -0.003393 -0.003395 0.000000 0.000000 0.000000
# 2 -0.003393 0.017885 -0.007185 0.000000 0.000000 0.000000
# 3 -0.003395 -0.007185 0.021333 0.000000 0.000000 0.000000
# 4 0.000000 0.000000 0.000000 0.040030 0.000000 0.000000
# 5 0.000000 0.000000 0.000000 0.000000 0.478548 0.000000
# 6 0.000000 0.000000 0.000000 0.000000 0.000000 0.048272
#
#
# Mechanical properties :
#
#
# Convention : Reuss Voigt Hill
#
# Bulk Modulus (GPa) = 40.52998 41.23799 40.88399
# Shear Modulus (GPa) = 7.62614 19.06951 13.34782
#
# Velocity S-wave (km/s) = 2.04613 3.23557 2.70699
# Velocity P-wave (km/s) = 5.27566 6.04960 5.67584
#
# Compressibility (1/GPa) = 0.02467309
#
# Stress axis : x y z
#
# Youngs Moduli (GPa) = 74.62268 55.91223 46.87483
#
# Poissons Ratio (x) = 0.18972 0.15915
# Poissons Ratio (y) = 0.25320 0.33679
# Poissons Ratio (z) = 0.25336 0.40172
#
# Static dielectric constant tensor:
#      x y z
#    x 1.631910 0.000000 0.000000 
#    y 0.000000 1.661670 0.000000 
#    z 0.000000 0.000000 1.601220 
# 
# From -- ./inp_files/3657.got.cif
#   From: 2010.05.17/outbox.cif.g08.bks.cpg/sg52_2_cif.got.tgz:3657.got - 2010.06.03 12:15:38.
