data_PCOD9408043
_publ_section_title
;
Structure prediction by ZEFSAII (Michael W. Deem and Ramdas Pophale) SiO2 
 PCOD9408043
Probable space group: P N N A
;
_chemical_formula_sum "Si O2"
_cell_formula_units_Z 40
_cell_length_a 9.524783
_cell_length_b 21.604014
_cell_length_c 7.019350
_cell_angle_alpha 90.000000
_cell_angle_beta 90.000000
_cell_angle_gamma 90.000000
_cell_volume 1444.396535
_symmetry_space_group_name_H-M "P N N A"
_symmetry_group_IT_number 52
_symmetry_cell_setting 'orthorhombic'
loop_
_space_group_symop_operation_xyz
x,y,z
1/2-x,-y,z
x,1/2-y,1/2-z
1/2-x,1/2+y,1/2-z
-x,-y,-z
1/2+x,y,-z
-x,1/2+y,1/2+z
1/2+x,1/2-y,1/2+z
loop_
_atom_site_type_symbol
_atom_site_label
_atom_site_fract_x
_atom_site_fract_y
_atom_site_fract_z
Si Si1 0.024211 0.193526 0.493444
Si Si2 0.394715 0.474825 0.280454
Si Si3 0.883989 0.424465 0.136344
Si Si4 0.380625 0.615079 0.645148
Si Si5 0.268436 0.230289 0.973587
O O1 0.053039 0.156619 0.686489
O O2 0.173230 0.218102 0.424619
O O3 0.946746 0.145031 0.357418
O O4 0.927581 0.253882 0.523001
O O5 0.250000 0.500000 0.366698
O O6 0.497155 0.528735 0.205725
O O7 0.490698 0.429582 0.409200
O O8 0.351062 0.439709 0.084782
O O9 0.739965 0.424890 0.251481
O O10 0.297521 0.662182 0.507457
O O11 0.256646 0.250000 0.750000
#
# Coordination Sequence:
#
# PCOD9408043 Si02
#       5
#     8   8   8   8   8
#     4  10  18  32  54  76 110 145 180 229 266 329
#     4  10  19  28  50  84 111 142 176 224 288 340
#     4  10  17  30  51  78 114 142 171 222 292 337
#     4  10  20  34  52  76 116 150 179 222 281 341
#     4  10  20  36  52  76 113 149 187 220 276 333
#
# _framework density 27.693225000000002
#
# number of rings (size 3 to 8) (size 9 to 14) (size 15 to 20)
#    0.000    2.000    4.000    4.200    2.800    0.000 
#    0.000    5.000    0.000    0.000    0.000    9.800 
#    0.000    0.000    0.000    0.000    0.000    0.000 
#
# Total GULP energy -224267.538040 kJ/mol
# GULP energy per Si atom -5606.688451 kJ/mol
# Density = 2.763019 g / cm^3
# Si number density = 27.693225 Si / 1000 Ang^3
#
#
#
# Elastic Constant Matrix: (Units=GPa)
#
#
# Indices 1 2 3 4 5 6 
#
# 1 164.8077 50.8125 6.3750 0.0000 0.0000 0.0000
# 2 50.8125 122.6541 18.2465 0.0000 0.0000 0.0000
# 3 6.3750 18.2465 92.8888 0.0000 0.0000 0.0000
# 4 0.0000 0.0000 0.0000 39.0526 0.0000 0.0000
# 5 0.0000 0.0000 0.0000 0.0000 -15.1547 0.0000
# 6 0.0000 0.0000 0.0000 0.0000 0.0000 71.8752
#
#
#
# Elastic Compliance Matrix: (Units=1/GPa)
#
#
# Indices 1 2 3 4 5 6 
#
# 1 0.006957 -0.002896 0.000091 0.000000 0.000000 0.000000
# 2 -0.002896 0.009604 -0.001688 0.000000 0.000000 0.000000
# 3 0.000091 -0.001688 0.011091 0.000000 0.000000 0.000000
# 4 0.000000 0.000000 0.000000 0.025606 0.000000 0.000000
# 5 0.000000 0.000000 0.000000 0.000000 -0.065986 0.000000
# 6 0.000000 0.000000 0.000000 0.000000 0.000000 0.013913
#
#
# Mechanical properties :
#
#
# Convention : Reuss Voigt Hill
#
# Bulk Modulus (GPa) = 53.56967 59.02431 56.29699
# Shear Modulus (GPa) = 305.03686 39.48239 172.25963
#
# Velocity S-wave (km/s) = 10.50655 3.77995 7.89543
# Velocity P-wave (km/s) = 12.90618 6.35693 10.17301
#
# Compressibility (1/GPa) = 0.01866728
#
# Stress axis : x y z
#
# Youngs Moduli (GPa) = 143.74181 104.12664 90.16468
#
# Poissons Ratio (x) = 0.30152 -0.00824
# Poissons Ratio (y) = 0.41623 0.15218
# Poissons Ratio (z) = -0.01313 0.17574
#
# Static dielectric constant tensor:
#      x y z
#    x 2.073940 0.000000 0.000000 
#    y 0.000000 2.183580 0.000000 
#    z 0.000000 0.000000 2.134690 
# 
# From -- ./inp_files/7399.got.cif
#   From: 2010.05.17/outbox.cif.g08.bks.cpg/sg52_4_cif.got.tgz:7399.got - 2010.06.03 12:15:38.
