data_PCOD9408425
_publ_section_title
;
Structure prediction by ZEFSAII (Michael W. Deem and Ramdas Pophale) SiO2 
 PCOD9408425
Probable space group: P N N A
;
_chemical_formula_sum "Si O2"
_cell_formula_units_Z 40
_cell_length_a 8.778938
_cell_length_b 24.408223
_cell_length_c 7.551080
_cell_angle_alpha 90.000000
_cell_angle_beta 90.000000
_cell_angle_gamma 90.000000
_cell_volume 1618.032407
_symmetry_space_group_name_H-M "P N N A"
_symmetry_group_IT_number 52
_symmetry_cell_setting 'orthorhombic'
loop_
_space_group_symop_operation_xyz
x,y,z
1/2-x,-y,z
x,1/2-y,1/2-z
1/2-x,1/2+y,1/2-z
-x,-y,-z
1/2+x,y,-z
-x,1/2+y,1/2+z
1/2+x,1/2-y,1/2+z
loop_
_atom_site_type_symbol
_atom_site_label
_atom_site_fract_x
_atom_site_fract_y
_atom_site_fract_z
Si Si1 0.027934 0.250000 0.750000
Si Si2 0.280153 0.327120 0.325161
Si Si3 0.225459 0.670318 0.900526
Si Si4 0.475141 0.750000 0.250000
Si Si5 0.803416 0.444430 0.742554
Si Si6 0.158779 0.445718 0.872398
O O1 0.131737 0.292846 0.850635
O O2 0.919928 0.288131 0.629774
O O3 0.139166 0.288269 0.363836
O O4 0.283135 0.390299 0.377613
O O5 0.287768 0.333467 0.111336
O O6 0.257314 0.610644 0.819050
O O7 0.081553 0.703221 0.831352
O O8 0.750000 0.500000 0.647174
O O9 0.979912 0.445545 0.815477
O O10 0.686543 0.443955 0.912630
O O11 0.250000 0.500000 0.813868
#
# Coordination Sequence:
#
# PCOD9408425 Si02
#       6
#     4   8   8   4   8   8
#     4  10  18  34  46  70 100 132 170 200 240 298
#     4  10  20  33  50  71 105 134 162 207 246 287
#     4  10  20  33  50  71 105 134 162 207 246 287
#     4  10  22  30  50  74  96 140 174 196 240 306
#     4  10  19  29  47  70  99 134 164 194 246 311
#     4  10  19  29  47  70  99 134 164 194 246 311
#
# _framework density 24.721382999999999
#
# number of rings (size 3 to 8) (size 9 to 14) (size 15 to 20)
#    0.000    2.000    2.000    3.600   11.200    0.000 
#    0.000    0.000    0.000    0.000    0.000    0.000 
#    0.000  112.000    0.000    0.000    0.000    0.000 
#
# Total GULP energy -223493.088856 kJ/mol
# GULP energy per Si atom -5587.327221 kJ/mol
# Density = 2.466512 g / cm^3
# Si number density = 24.721383 Si / 1000 Ang^3
#
#
#
# Elastic Constant Matrix: (Units=GPa)
#
#
# Indices 1 2 3 4 5 6 
#
# 1 172.1076 81.6420 24.2668 0.0000 0.0000 0.0000
# 2 81.6420 286.9673 16.7645 0.0000 0.0000 0.0000
# 3 24.2668 16.7645 42.9113 0.0000 0.0000 0.0000
# 4 0.0000 0.0000 0.0000 19.7629 0.0000 0.0000
# 5 0.0000 0.0000 0.0000 0.0000 10.7193 0.0000
# 6 0.0000 0.0000 0.0000 0.0000 0.0000 -51.3147
#
#
#
# Elastic Compliance Matrix: (Units=1/GPa)
#
#
# Indices 1 2 3 4 5 6 
#
# 1 0.007152 -0.001841 -0.003326 0.000000 0.000000 0.000000
# 2 -0.001841 0.004040 -0.000537 0.000000 0.000000 0.000000
# 3 -0.003326 -0.000537 0.025395 0.000000 0.000000 0.000000
# 4 0.000000 0.000000 0.000000 0.050600 0.000000 0.000000
# 5 0.000000 0.000000 0.000000 0.000000 0.093289 0.000000
# 6 0.000000 0.000000 0.000000 0.000000 0.000000 -0.019488
#
#
# Mechanical properties :
#
#
# Convention : Reuss Voigt Hill
#
# Bulk Modulus (GPa) = 39.71495 83.03695 61.37595
# Shear Modulus (GPa) = 27.65662 21.12105 24.38883
#
# Velocity S-wave (km/s) = 3.34837 2.92612 3.14434
# Velocity P-wave (km/s) = 5.57214 6.71404 6.16956
#
# Compressibility (1/GPa) = 0.02517943
#
# Stress axis : x y z
#
# Youngs Moduli (GPa) = 139.81475 247.54039 39.37853
#
# Poissons Ratio (x) = 0.45561 0.13096
# Poissons Ratio (y) = 0.25734 0.02116
# Poissons Ratio (z) = 0.46498 0.13303
#
# Static dielectric constant tensor:
#      x y z
#    x 1.931540 0.000000 0.000000 
#    y 0.000000 2.040100 0.000000 
#    z 0.000000 0.000000 2.043820 
# 
# From -- ./inp_files/7467.got.cif
#   From: 2010.05.17/outbox.cif.g08.bks.cpg/sg52_4_cif.got.tgz:7467.got - 2010.06.03 12:15:38.
