data_PCOD9408964
_publ_section_title
;
Structure prediction by ZEFSAII (Michael W. Deem and Ramdas Pophale) SiO2 
 PCOD9408964
Probable space group: P N N A
;
_chemical_formula_sum "Si O2"
_cell_formula_units_Z 48
_cell_length_a 12.562530
_cell_length_b 17.787198
_cell_length_c 11.338985
_cell_angle_alpha 90.000000
_cell_angle_beta 90.000000
_cell_angle_gamma 90.000000
_cell_volume 2533.721240
_symmetry_space_group_name_H-M "P N N A"
_symmetry_group_IT_number 52
_symmetry_cell_setting 'orthorhombic'
loop_
_space_group_symop_operation_xyz
x,y,z
1/2-x,-y,z
x,1/2-y,1/2-z
1/2-x,1/2+y,1/2-z
-x,-y,-z
1/2+x,y,-z
-x,1/2+y,1/2+z
1/2+x,1/2-y,1/2+z
loop_
_atom_site_type_symbol
_atom_site_label
_atom_site_fract_x
_atom_site_fract_y
_atom_site_fract_z
Si Si1 0.255245 0.679113 0.018311
Si Si2 0.103024 0.694368 0.426284
Si Si3 0.704563 0.159855 0.770007
Si Si4 0.637989 0.199071 0.138086
Si Si5 0.467936 0.166635 0.811413
Si Si6 0.729251 0.587639 0.220117
O O1 0.325009 0.752531 0.976200
O O2 0.256227 0.626332 0.905047
O O3 0.144935 0.719639 0.057280
O O4 0.290380 0.633879 0.134235
O O5 0.192749 0.648975 0.352790
O O6 0.083120 0.669620 0.559631
O O7 0.988422 0.689537 0.365430
O O8 0.703358 0.250000 0.750000
O O9 0.589612 0.140014 0.820585
O O10 0.667739 0.250000 0.250000
O O11 0.701523 0.123902 0.172253
O O12 0.463686 0.250000 0.750000
O O13 0.393226 0.110731 0.739639
O O14 0.750000 0.500000 0.216001
#
# Coordination Sequence:
#
# PCOD9408964 Si02
#       6
#     8   8   8   8   8   8
#     4  10  19  36  59  90 114 151 194 248 300 345
#     4  11  18  33  62  92 115 143 191 255 296 343
#     4   9  20  32  57  95 116 140 188 249 303 343
#     4  10  19  34  59  87 114 146 196 247 296 347
#     4  11  19  36  61  85 116 151 196 242 293 348
#     4  11  23  39  58  84 119 162 199 236 294 362
#
# _framework density 18.944468000000001
#
# number of rings (size 3 to 8) (size 9 to 14) (size 15 to 20)
#    0.000    1.667    3.333    5.000    0.000    0.000 
#    0.000    1.667    0.000    0.000    0.000    0.000 
#    0.000    0.000    0.000    0.000    0.000    0.000 
#
# Total GULP energy -267316.807037 kJ/mol
# GULP energy per Si atom -5569.100147 kJ/mol
# Density = 1.890135 g / cm^3
# Si number density = 18.944468 Si / 1000 Ang^3
#
#
#
# Elastic Constant Matrix: (Units=GPa)
#
#
# Indices 1 2 3 4 5 6 
#
# 1 140.1455 40.8139 44.2824 0.0000 0.0000 0.0000
# 2 40.8139 64.1864 25.7719 0.0000 0.0000 0.0000
# 3 44.2824 25.7719 122.7783 0.0000 0.0000 0.0000
# 4 0.0000 0.0000 0.0000 11.4032 0.0000 0.0000
# 5 0.0000 0.0000 0.0000 0.0000 27.7885 0.0000
# 6 0.0000 0.0000 0.0000 0.0000 0.0000 0.9890
#
#
#
# Elastic Compliance Matrix: (Units=1/GPa)
#
#
# Indices 1 2 3 4 5 6 
#
# 1 0.009322 -0.004999 -0.002313 0.000000 0.000000 0.000000
# 2 -0.004999 0.019694 -0.002331 0.000000 0.000000 0.000000
# 3 -0.002313 -0.002331 0.009468 0.000000 0.000000 0.000000
# 4 0.000000 0.000000 0.000000 0.087695 0.000000 0.000000
# 5 0.000000 0.000000 0.000000 0.000000 0.035986 0.000000
# 6 0.000000 0.000000 0.000000 0.000000 0.000000 1.011100
#
#
# Mechanical properties :
#
#
# Convention : Reuss Voigt Hill
#
# Bulk Modulus (GPa) = 52.08619 60.98295 56.53457
# Shear Modulus (GPa) = 4.17032 22.45228 13.31130
#
# Velocity S-wave (km/s) = 1.48530 3.44635 2.65363
# Velocity P-wave (km/s) = 5.52226 6.93518 6.26865
#
# Compressibility (1/GPa) = 0.01919895
#
# Stress axis : x y z
#
# Youngs Moduli (GPa) = 107.27245 50.77640 105.61635
#
# Poissons Ratio (x) = 0.25383 0.24428
# Poissons Ratio (y) = 0.53625 0.24619
# Poissons Ratio (z) = 0.24811 0.11836
#
# Static dielectric constant tensor:
#      x y z
#    x 1.703720 0.000000 0.000000 
#    y 0.000000 1.638990 0.000000 
#    z 0.000000 0.000000 1.786050 
# 
# From -- ./inp_files/18205.got.cif
#   From: 2010.05.17/outbox.cif.g08.bks.cpg/sg52_10_cif.got.tgz:18205.got - 2010.06.03 12:15:38.
