data_PCOD9408829
_publ_section_title
;
Structure prediction by ZEFSAII (Michael W. Deem and Ramdas Pophale) SiO2 
 PCOD9408829
Probable space group: P N N A
;
_chemical_formula_sum "Si O2"
_cell_formula_units_Z 32
_cell_length_a 5.168303
_cell_length_b 7.009010
_cell_length_c 35.483458
_cell_angle_alpha 90.000000
_cell_angle_beta 90.000000
_cell_angle_gamma 90.000000
_cell_volume 1285.377174
_symmetry_space_group_name_H-M "P N N A"
_symmetry_group_IT_number 52
_symmetry_cell_setting 'orthorhombic'
loop_
_space_group_symop_operation_xyz
x,y,z
1/2-x,-y,z
x,1/2-y,1/2-z
1/2-x,1/2+y,1/2-z
-x,-y,-z
1/2+x,y,-z
-x,1/2+y,1/2+z
1/2+x,1/2-y,1/2+z
loop_
_atom_site_type_symbol
_atom_site_label
_atom_site_fract_x
_atom_site_fract_y
_atom_site_fract_z
Si Si1 0.336604 0.281251 0.515773
Si Si2 0.498348 0.135460 0.593070
Si Si3 0.799772 0.229070 0.328990
Si Si4 0.204462 0.724668 0.207308
O O1 0.250000 0.500000 0.508425
O O2 0.546685 0.195128 0.486583
O O3 0.481805 0.262110 0.555567
O O4 0.437903 0.255203 0.630791
O O5 0.750000 0.000000 0.596641
O O6 0.250000 0.000000 0.589663
O O7 0.511281 0.301517 0.321414
O O8 0.006090 0.300947 0.298451
O O9 0.750000 0.000000 0.325718
O O10 0.250000 0.500000 0.200333
O O11 0.113805 0.750000 0.250000
#
# Coordination Sequence:
#
# PCOD9408829 Si02
#       4
#     8   8   8   8
#     4  10  22  39  56  78 113 150 179 218 281 339
#     4  11  21  35  58  84 107 139 188 233 271 324
#     4   9  18  33  52  74 104 137 168 215 274 318
#     4  10  19  33  52  74 102 136 173 213 263 320
#
# _framework density 24.895416999999998
#
# number of rings (size 3 to 8) (size 9 to 14) (size 15 to 20)
#    0.000    2.000    0.000    6.000    0.000    3.000 
#    0.000    2.500    0.000    0.000    0.000    0.000 
#    0.000    0.000    0.000    0.000    0.000    0.000 
#
# Total GULP energy -178522.356820 kJ/mol
# GULP energy per Si atom -5578.823651 kJ/mol
# Density = 2.483875 g / cm^3
# Si number density = 24.895417 Si / 1000 Ang^3
#
#
#
# Elastic Constant Matrix: (Units=GPa)
#
#
# Indices 1 2 3 4 5 6 
#
# 1 212.5717 16.5329 73.4679 0.0000 0.0000 0.0000
# 2 16.5329 74.2282 -10.4418 0.0000 0.0000 0.0000
# 3 73.4679 -10.4418 130.1011 0.0000 0.0000 0.0000
# 4 0.0000 0.0000 0.0000 22.4754 0.0000 0.0000
# 5 0.0000 0.0000 0.0000 0.0000 37.8095 0.0000
# 6 0.0000 0.0000 0.0000 0.0000 0.0000 -2.1816
#
#
#
# Elastic Compliance Matrix: (Units=1/GPa)
#
#
# Indices 1 2 3 4 5 6 
#
# 1 0.006089 -0.001861 -0.003588 0.000000 0.000000 0.000000
# 2 -0.001861 0.014195 0.002190 0.000000 0.000000 0.000000
# 3 -0.003588 0.002190 0.009888 0.000000 0.000000 0.000000
# 4 0.000000 0.000000 0.000000 0.044493 0.000000 0.000000
# 5 0.000000 0.000000 0.000000 0.000000 0.026448 0.000000
# 6 0.000000 0.000000 0.000000 0.000000 0.000000 -0.458389
#
#
# Mechanical properties :
#
#
# Convention : Reuss Voigt Hill
#
# Bulk Modulus (GPa) = 42.27537 64.00210 53.13874
# Shear Modulus (GPa) = -14.58262 34.11013 9.76376
#
# Velocity S-wave (km/s) = -2.42286 3.70555 1.98253
# Velocity P-wave (km/s) = 3.03167 6.63870 5.16059
#
# Compressibility (1/GPa) = 0.02365443
#
# Stress axis : x y z
#
# Youngs Moduli (GPa) = 164.22970 70.44964 101.13119
#
# Poissons Ratio (x) = 0.13110 0.36284
# Poissons Ratio (y) = 0.30562 -0.22149
# Poissons Ratio (z) = 0.58923 -0.15429
#
# Static dielectric constant tensor:
#      x y z
#    x 2.017470 0.000000 0.000000 
#    y 0.000000 2.115980 0.000000 
#    z 0.000000 0.000000 2.060670 
# 
# From -- ./inp_files/43447.got.cif
#   From: 2010.05.17/outbox.cif.g08.bks.cpg/sg52_22_cif.got.tgz:43447.got - 2010.06.03 12:15:38.
