data_PCOD9408256
_publ_section_title
;
Structure prediction by ZEFSAII (Michael W. Deem and Ramdas Pophale) SiO2 
 PCOD9408256
Probable space group: P N N A
;
_chemical_formula_sum "Si O2"
_cell_formula_units_Z 64
_cell_length_a 8.997273
_cell_length_b 20.916094
_cell_length_c 19.638785
_cell_angle_alpha 90.000000
_cell_angle_beta 90.000000
_cell_angle_gamma 90.000000
_cell_volume 3695.779897
_symmetry_space_group_name_H-M "P N N A"
_symmetry_group_IT_number 52
_symmetry_cell_setting 'orthorhombic'
loop_
_space_group_symop_operation_xyz
x,y,z
1/2-x,-y,z
x,1/2-y,1/2-z
1/2-x,1/2+y,1/2-z
-x,-y,-z
1/2+x,y,-z
-x,1/2+y,1/2+z
1/2+x,1/2-y,1/2+z
loop_
_atom_site_type_symbol
_atom_site_label
_atom_site_fract_x
_atom_site_fract_y
_atom_site_fract_z
Si Si1 0.665580 0.186459 0.208248
Si Si2 0.974936 0.883112 0.420878
Si Si3 0.695741 0.430034 0.198271
Si Si4 0.483383 0.880716 0.339235
Si Si5 0.007997 0.248288 0.076834
Si Si6 0.295150 0.570737 0.050681
Si Si7 0.526313 0.313008 0.709736
Si Si8 0.150638 0.253976 0.571409
O O1 0.078805 0.250000 0.250000
O O2 0.634443 0.119156 0.244969
O O3 0.614088 0.194499 0.130289
O O4 0.846145 0.189359 0.208902
O O5 0.924114 0.931575 0.362062
O O6 0.892446 0.900424 0.490547
O O7 0.915972 0.813078 0.401468
O O8 0.149149 0.887485 0.435029
O O9 0.750000 0.500000 0.221869
O O10 0.843361 0.397970 0.165244
O O11 0.464344 0.815725 0.383948
O O12 0.390614 0.931910 0.380680
O O13 0.432074 0.869531 0.261300
O O14 0.064612 0.194816 0.130790
O O15 0.829667 0.247297 0.067139
O O16 0.084154 0.239696 0.004026
O O17 0.250000 0.500000 0.029284
O O18 0.116275 0.250000 0.750000
#
# Coordination Sequence:
#
# PCOD9408256 Si02
#       8
#     8   8   8   8   8   8   8   8
#     4   9  16  32  51  73 100 133 165 210 260 304
#     4  12  21  34  48  69 104 140 176 211 250 301
#     4  11  20  34  56  78  99 134 177 216 257 308
#     4  10  18  34  51  70  98 132 173 211 247 300
#     4  10  18  31  50  75  97 129 168 206 250 309
#     4  12  24  34  46  69 104 143 178 210 247 299
#     4   7  14  28  50  69  90 122 164 203 243 295
#     4  11  19  32  53  73 102 133 167 209 259 300
#
# _framework density 17.317049000000001
#
# number of rings (size 3 to 8) (size 9 to 14) (size 15 to 20)
#    0.000    1.750    3.750    4.500    0.000    0.000 
#    0.000    1.250    2.750    0.000    0.000    8.750 
#    0.000    0.000    0.000    0.000    0.000    0.000 
#
# Total GULP energy -356579.550280 kJ/mol
# GULP energy per Si atom -5571.555473 kJ/mol
# Density = 1.727763 g / cm^3
# Si number density = 17.317049 Si / 1000 Ang^3
#
#
#
# Elastic Constant Matrix: (Units=GPa)
#
#
# Indices 1 2 3 4 5 6 
#
# 1 47.0971 8.3669 28.6890 0.0000 0.0000 0.0000
# 2 8.3669 54.6029 44.1555 0.0000 0.0000 0.0000
# 3 28.6890 44.1555 116.2445 0.0000 0.0000 0.0000
# 4 0.0000 0.0000 0.0000 15.4007 0.0000 0.0000
# 5 0.0000 0.0000 0.0000 0.0000 16.2460 0.0000
# 6 0.0000 0.0000 0.0000 0.0000 0.0000 20.8695
#
#
#
# Elastic Compliance Matrix: (Units=1/GPa)
#
#
# Indices 1 2 3 4 5 6 
#
# 1 0.025096 0.001679 -0.006831 0.000000 0.000000 0.000000
# 2 0.001679 0.026546 -0.010498 0.000000 0.000000 0.000000
# 3 -0.006831 -0.010498 0.014276 0.000000 0.000000 0.000000
# 4 0.000000 0.000000 0.000000 0.064932 0.000000 0.000000
# 5 0.000000 0.000000 0.000000 0.000000 0.061554 0.000000
# 6 0.000000 0.000000 0.000000 0.000000 0.000000 0.047917
#
#
# Mechanical properties :
#
#
# Convention : Reuss Voigt Hill
#
# Bulk Modulus (GPa) = 28.88739 42.26304 35.57521
# Shear Modulus (GPa) = 17.65783 19.61876 18.63830
#
# Velocity S-wave (km/s) = 3.19671 3.36953 3.28426
# Velocity P-wave (km/s) = 5.50844 6.29260 5.91353
#
# Compressibility (1/GPa) = 0.03461718
#
# Stress axis : x y z
#
# Youngs Moduli (GPa) = 39.84735 37.67041 70.04712
#
# Poissons Ratio (x) = -0.06324 0.47851
# Poissons Ratio (y) = -0.06689 0.73534
# Poissons Ratio (z) = 0.27221 0.39546
#
# Static dielectric constant tensor:
#      x y z
#    x 1.598390 0.000000 0.000000 
#    y 0.000000 1.641110 0.000000 
#    z 0.000000 0.000000 1.619040 
# 
# From -- ./inp_files/36246.got.cif
#   From: 2010.05.17/outbox.cif.g08.bks.cpg/sg52_19_cif.got.tgz:36246.got - 2010.06.03 12:15:38.
