data_PCOD9408881
_publ_section_title
;
Structure prediction by ZEFSAII (Michael W. Deem and Ramdas Pophale) SiO2 
 PCOD9408881
Probable space group: P N N A
;
_chemical_formula_sum "Si O2"
_cell_formula_units_Z 40
_cell_length_a 20.679245
_cell_length_b 17.948508
_cell_length_c 6.364268
_cell_angle_alpha 90.000000
_cell_angle_beta 90.000000
_cell_angle_gamma 90.000000
_cell_volume 2362.171858
_symmetry_space_group_name_H-M "P N N A"
_symmetry_group_IT_number 52
_symmetry_cell_setting 'orthorhombic'
loop_
_space_group_symop_operation_xyz
x,y,z
1/2-x,-y,z
x,1/2-y,1/2-z
1/2-x,1/2+y,1/2-z
-x,-y,-z
1/2+x,y,-z
-x,1/2+y,1/2+z
1/2+x,1/2-y,1/2+z
loop_
_atom_site_type_symbol
_atom_site_label
_atom_site_fract_x
_atom_site_fract_y
_atom_site_fract_z
Si Si1 0.095333 0.936847 0.013746
Si Si2 0.819045 0.462078 0.899035
Si Si3 0.483835 0.168275 0.335397
Si Si4 0.939810 0.966026 0.366058
Si Si5 0.363537 0.328305 0.851549
O O1 0.124500 0.880548 0.846041
O O2 0.062439 0.000852 0.870768
O O3 0.152286 0.965051 0.164387
O O4 0.049536 0.886999 0.164213
O O5 0.750000 0.500000 0.917414
O O6 0.873434 0.505995 0.032187
O O7 0.819719 0.376750 0.987553
O O8 0.496715 0.250000 0.250000
O O9 0.548023 0.121866 0.387570
O O10 0.432023 0.178155 0.523784
O O11 0.000000 0.000000 0.500000
O O12 0.342336 0.250000 0.750000
#
# Coordination Sequence:
#
# PCOD9408881 Si02
#       5
#     8   8   8   8   8
#     4  10  19  33  58  81 115 148 189 234 292 338
#     4  10  23  38  56  83 119 157 204 233 280 350
#     4  11  20  31  54  90 120 142 186 241 303 346
#     4  11  20  35  59  88 114 146 191 245 288 350
#     4  10  19  34  59  88 112 146 193 244 288 344
#
# _framework density 16.93357
#
# number of rings (size 3 to 8) (size 9 to 14) (size 15 to 20)
#    0.000    1.600    8.000    0.600    0.000    3.200 
#    0.000    1.000    0.000    2.400    0.000    0.000 
#    0.000    0.000    0.000    0.000    0.000    0.000 
#
# Total GULP energy -222690.610116 kJ/mol
# GULP energy per Si atom -5567.265253 kJ/mol
# Density = 1.689503 g / cm^3
# Si number density = 16.933570 Si / 1000 Ang^3
#
#
#
# Elastic Constant Matrix: (Units=GPa)
#
#
# Indices 1 2 3 4 5 6 
#
# 1 96.2546 60.4208 37.3506 0.0000 0.0000 0.0000
# 2 60.4208 123.8573 37.0180 0.0000 0.0000 0.0000
# 3 37.3506 37.0180 98.9627 0.0000 0.0000 0.0000
# 4 0.0000 0.0000 0.0000 26.9308 0.0000 0.0000
# 5 0.0000 0.0000 0.0000 0.0000 13.7137 0.0000
# 6 0.0000 0.0000 0.0000 0.0000 0.0000 19.4866
#
#
#
# Elastic Compliance Matrix: (Units=1/GPa)
#
#
# Indices 1 2 3 4 5 6 
#
# 1 0.015988 -0.006751 -0.003509 0.000000 0.000000 0.000000
# 2 -0.006751 0.011940 -0.001919 0.000000 0.000000 0.000000
# 3 -0.003509 -0.001919 0.012147 0.000000 0.000000 0.000000
# 4 0.000000 0.000000 0.000000 0.037132 0.000000 0.000000
# 5 0.000000 0.000000 0.000000 0.000000 0.072920 0.000000
# 6 0.000000 0.000000 0.000000 0.000000 0.000000 0.051317
#
#
# Mechanical properties :
#
#
# Convention : Reuss Voigt Hill
#
# Bulk Modulus (GPa) = 63.61827 65.40595 64.51211
# Shear Modulus (GPa) = 21.64112 24.31189 22.97651
#
# Velocity S-wave (km/s) = 3.57879 3.79320 3.68756
# Velocity P-wave (km/s) = 7.39783 7.60877 7.50404
#
# Compressibility (1/GPa) = 0.01571875
#
# Stress axis : x y z
#
# Youngs Moduli (GPa) = 62.54544 83.74930 82.32551
#
# Poissons Ratio (x) = 0.56537 0.28889
# Poissons Ratio (y) = 0.42223 0.15795
# Poissons Ratio (z) = 0.21948 0.16068
#
# Static dielectric constant tensor:
#      x y z
#    x 1.565660 0.000000 0.000000 
#    y 0.000000 1.608130 0.000000 
#    z 0.000000 0.000000 1.633370 
# 
# From -- ./inp_files/3204.got.cif
#   From: 2010.05.17/outbox.cif.g08.bks.cpg/sg52_2_cif.got.tgz:3204.got - 2010.06.03 12:15:38.
