data_PCOD9408322
_publ_section_title
;
Structure prediction by ZEFSAII (Michael W. Deem and Ramdas Pophale) SiO2 
 PCOD9408322
Probable space group: P N N A
;
_chemical_formula_sum "Si O2"
_cell_formula_units_Z 64
_cell_length_a 24.627980
_cell_length_b 11.105406
_cell_length_c 12.320548
_cell_angle_alpha 90.000000
_cell_angle_beta 90.000000
_cell_angle_gamma 90.000000
_cell_volume 3369.715672
_symmetry_space_group_name_H-M "P N N A"
_symmetry_group_IT_number 52
_symmetry_cell_setting 'orthorhombic'
loop_
_space_group_symop_operation_xyz
x,y,z
1/2-x,-y,z
x,1/2-y,1/2-z
1/2-x,1/2+y,1/2-z
-x,-y,-z
1/2+x,y,-z
-x,1/2+y,1/2+z
1/2+x,1/2-y,1/2+z
loop_
_atom_site_type_symbol
_atom_site_label
_atom_site_fract_x
_atom_site_fract_y
_atom_site_fract_z
Si Si1 0.616763 0.620211 0.636945
Si Si2 0.597838 0.407933 0.989591
Si Si3 0.947136 0.959156 0.297583
Si Si4 0.715296 0.382928 0.883333
Si Si5 0.553242 0.549557 0.438849
Si Si6 0.938646 0.379362 0.847233
Si Si7 0.503812 0.289890 0.865246
Si Si8 0.256270 0.371436 0.361932
O O1 0.601615 0.553444 0.526230
O O2 0.589264 0.559922 0.741689
O O3 0.588253 0.750942 0.632789
O O4 0.679734 0.637837 0.660496
O O5 0.654892 0.391024 0.929860
O O6 0.573321 0.534165 0.946651
O O7 0.552328 0.313507 0.949230
O O8 0.599289 0.416833 0.119726
O O9 0.934942 0.975373 0.170761
O O10 0.971006 0.088389 0.337793
O O11 0.998299 0.872079 0.319285
O O12 0.750000 0.500000 0.919100
O O13 0.722403 0.382198 0.751353
O O14 0.738847 0.252674 0.917363
O O15 0.500000 0.500000 0.500000
O O16 0.536490 0.685226 0.404242
O O17 0.528668 0.250000 0.750000
O O18 0.250000 0.500000 0.420504
#
# Coordination Sequence:
#
# PCOD9408322 Si02
#       8
#     8   8   8   8   8   8   8   8
#     4  11  20  33  58  80 114 159 187 239 308 349
#     4  11  20  33  57  78 113 152 189 241 302 334
#     4  10  20  36  51  81 117 150 190 237 281 355
#     4  10  20  35  55  83 113 142 197 250 291 353
#     4  11  21  36  52  82 116 152 195 228 280 369
#     4  10  18  32  53  82 114 146 189 233 291 362
#     4   9  20  33  53  81 116 153 190 225 283 362
#     4  10  21  36  53  82 118 145 193 247 300 351
#
# _framework density 18.992699999999999
#
# number of rings (size 3 to 8) (size 9 to 14) (size 15 to 20)
#    0.000    1.750    1.250    6.750    1.750    1.000 
#    0.000    0.000    0.000    0.750    0.000    1.750 
#    0.000    0.000    0.000    0.000    0.000    0.000 
#
# Total GULP energy -356996.817415 kJ/mol
# GULP energy per Si atom -5578.075272 kJ/mol
# Density = 1.894947 g / cm^3
# Si number density = 18.992700 Si / 1000 Ang^3
#
#
#
# Elastic Constant Matrix: (Units=GPa)
#
#
# Indices 1 2 3 4 5 6 
#
# 1 75.6884 3.1488 47.2226 0.0000 0.0000 0.0000
# 2 3.1488 76.0557 6.7079 0.0000 0.0000 0.0000
# 3 47.2226 6.7079 137.8462 0.0000 0.0000 0.0000
# 4 0.0000 0.0000 0.0000 17.7544 0.0000 0.0000
# 5 0.0000 0.0000 0.0000 0.0000 16.1240 0.0000
# 6 0.0000 0.0000 0.0000 0.0000 0.0000 13.6535
#
#
#
# Elastic Compliance Matrix: (Units=1/GPa)
#
#
# Indices 1 2 3 4 5 6 
#
# 1 0.016806 -0.000189 -0.005748 0.000000 0.000000 0.000000
# 2 -0.000189 0.013207 -0.000578 0.000000 0.000000 0.000000
# 3 -0.005748 -0.000578 0.009252 0.000000 0.000000 0.000000
# 4 0.000000 0.000000 0.000000 0.056324 0.000000 0.000000
# 5 0.000000 0.000000 0.000000 0.000000 0.062019 0.000000
# 6 0.000000 0.000000 0.000000 0.000000 0.000000 0.073241
#
#
# Mechanical properties :
#
#
# Convention : Reuss Voigt Hill
#
# Bulk Modulus (GPa) = 38.11696 44.86098 41.48897
# Shear Modulus (GPa) = 19.79219 25.00711 22.39965
#
# Velocity S-wave (km/s) = 3.23165 3.63253 3.43794
# Velocity P-wave (km/s) = 5.83417 6.42379 6.13607
#
# Compressibility (1/GPa) = 0.02623504
#
# Stress axis : x y z
#
# Youngs Moduli (GPa) = 59.50158 75.71707 108.08735
#
# Poissons Ratio (x) = 0.01430 0.62131
# Poissons Ratio (y) = 0.01124 0.06247
# Poissons Ratio (z) = 0.34203 0.04376
#
# Static dielectric constant tensor:
#      x y z
#    x 1.638250 0.000000 0.000000 
#    y 0.000000 1.730750 0.000000 
#    z 0.000000 0.000000 1.703200 
# 
# From -- ./inp_files/22492.got.cif
#   From: 2010.05.17/outbox.cif.g08.bks.cpg/sg52_12_cif.got.tgz:22492.got - 2010.06.03 12:15:38.
