data_PCOD9408143
_publ_section_title
;
Structure prediction by ZEFSAII (Michael W. Deem and Ramdas Pophale) SiO2 
 PCOD9408143
Probable space group: P N N A
;
_chemical_formula_sum "Si O2"
_cell_formula_units_Z 48
_cell_length_a 13.856754
_cell_length_b 10.491146
_cell_length_c 15.757496
_cell_angle_alpha 90.000000
_cell_angle_beta 90.000000
_cell_angle_gamma 90.000000
_cell_volume 2290.718079
_symmetry_space_group_name_H-M "P N N A"
_symmetry_group_IT_number 52
_symmetry_cell_setting 'orthorhombic'
loop_
_space_group_symop_operation_xyz
x,y,z
1/2-x,-y,z
x,1/2-y,1/2-z
1/2-x,1/2+y,1/2-z
-x,-y,-z
1/2+x,y,-z
-x,1/2+y,1/2+z
1/2+x,1/2-y,1/2+z
loop_
_atom_site_type_symbol
_atom_site_label
_atom_site_fract_x
_atom_site_fract_y
_atom_site_fract_z
Si Si1 0.250000 0.500000 0.499736
Si Si2 0.825750 0.750000 0.750000
Si Si3 0.146505 0.438227 0.796982
Si Si4 0.442558 0.993485 0.255863
Si Si5 0.806895 0.384087 0.893197
Si Si6 0.633756 0.183578 0.109093
Si Si7 0.579810 0.858663 0.912756
O O1 0.280384 0.622368 0.555409
O O2 0.344466 0.460762 0.447629
O O3 0.893431 0.866108 0.779343
O O4 0.761761 0.696544 0.828105
O O5 0.250000 0.500000 0.810480
O O6 0.130489 0.333225 0.870274
O O7 0.146544 0.374985 0.703227
O O8 0.051824 0.525981 0.787140
O O9 0.380517 0.038583 0.334767
O O10 0.430392 0.107238 0.187416
O O11 0.750000 0.500000 0.939401
O O12 0.871541 0.276112 0.936333
O O13 0.533125 0.142978 0.064328
#
# Coordination Sequence:
#
# PCOD9408143 Si02
#       7
#     4   4   8   8   8   8   8
#     4  12  24  38  62  92 124 160 208 240 300 392
#     4  10  18  26  48  88 128 140 190 258 288 358
#     4  10  20  39  67  83 117 157 203 263 301 345
#     4  10  19  33  55  92 120 154 206 250 304 351
#     4  10  18  31  56  89 126 155 203 247 299 362
#     4  10  22  40  59  91 118 156 208 249 302 357
#     4  11  20  37  61  83 123 168 190 249 307 361
#
# _framework density 20.954128999999998
#
# number of rings (size 3 to 8) (size 9 to 14) (size 15 to 20)
#    0.000    1.667    4.167    1.500    1.167    1.333 
#    0.000    0.833    3.667    2.000    0.000    0.000 
#    0.000    0.000    0.000    0.000    0.000    0.000 
#
# Total GULP energy -267381.480344 kJ/mol
# GULP energy per Si atom -5570.447507 kJ/mol
# Density = 2.090644 g / cm^3
# Si number density = 20.954129 Si / 1000 Ang^3
#
#
#
# Elastic Constant Matrix: (Units=GPa)
#
#
# Indices 1 2 3 4 5 6 
#
# 1 154.5457 40.6928 25.8754 0.0000 0.0000 0.0000
# 2 40.6928 56.4634 0.9240 0.0000 0.0000 0.0000
# 3 25.8754 0.9240 25.8665 0.0000 0.0000 0.0000
# 4 0.0000 0.0000 0.0000 8.2957 0.0000 0.0000
# 5 0.0000 0.0000 0.0000 0.0000 19.2784 0.0000
# 6 0.0000 0.0000 0.0000 0.0000 0.0000 19.6098
#
#
#
# Elastic Compliance Matrix: (Units=1/GPa)
#
#
# Indices 1 2 3 4 5 6 
#
# 1 0.009937 -0.007003 -0.009690 0.000000 0.000000 0.000000
# 2 -0.007003 0.022656 0.006196 0.000000 0.000000 0.000000
# 3 -0.009690 0.006196 0.048132 0.000000 0.000000 0.000000
# 4 0.000000 0.000000 0.000000 0.120545 0.000000 0.000000
# 5 0.000000 0.000000 0.000000 0.000000 0.051871 0.000000
# 6 0.000000 0.000000 0.000000 0.000000 0.000000 0.050995
#
#
# Mechanical properties :
#
#
# Convention : Reuss Voigt Hill
#
# Bulk Modulus (GPa) = 16.74171 41.31778 29.02974
# Shear Modulus (GPa) = 14.49106 20.72903 17.61004
#
# Velocity S-wave (km/s) = 2.63261 3.14866 2.90213
# Velocity P-wave (km/s) = 4.15306 5.74280 5.01137
#
# Compressibility (1/GPa) = 0.05973106
#
# Stress axis : x y z
#
# Youngs Moduli (GPa) = 100.63518 44.13823 20.77612
#
# Poissons Ratio (x) = 0.30909 0.20132
# Poissons Ratio (y) = 0.70473 -0.12873
# Poissons Ratio (z) = 0.97517 -0.27348
#
# Static dielectric constant tensor:
#      x y z
#    x 1.774210 0.000000 0.000000 
#    y 0.000000 1.803130 0.000000 
#    z 0.000000 0.000000 1.743630 
# 
# From -- ./inp_files/33116.got.cif
#   From: 2010.05.17/outbox.cif.g08.bks.cpg/sg52_17_cif.got.tgz:33116.got - 2010.06.03 12:15:38.
