data_PCOD9408023
_publ_section_title
;
Structure prediction by ZEFSAII (Michael W. Deem and Ramdas Pophale) SiO2 
 PCOD9408023
Probable space group: P N N A
;
_chemical_formula_sum "Si O2"
_cell_formula_units_Z 64
_cell_length_a 18.607547
_cell_length_b 20.329124
_cell_length_c 9.751936
_cell_angle_alpha 90.000000
_cell_angle_beta 90.000000
_cell_angle_gamma 90.000000
_cell_volume 3688.914861
_symmetry_space_group_name_H-M "P N N A"
_symmetry_group_IT_number 52
_symmetry_cell_setting 'orthorhombic'
loop_
_space_group_symop_operation_xyz
x,y,z
1/2-x,-y,z
x,1/2-y,1/2-z
1/2-x,1/2+y,1/2-z
-x,-y,-z
1/2+x,y,-z
-x,1/2+y,1/2+z
1/2+x,1/2-y,1/2+z
loop_
_atom_site_type_symbol
_atom_site_label
_atom_site_fract_x
_atom_site_fract_y
_atom_site_fract_z
Si Si1 0.518869 0.646043 0.105626
Si Si2 0.833953 0.478732 0.664686
Si Si3 0.627788 0.088983 0.634484
Si Si4 0.384673 0.024731 0.579423
Si Si5 0.397571 0.264347 0.089717
Si Si6 0.294015 0.116689 0.395989
Si Si7 0.677241 0.958126 0.140522
Si Si8 0.138149 0.814406 0.828303
O O1 0.435611 0.641373 0.141155
O O2 0.548105 0.573717 0.062701
O O3 0.568306 0.667597 0.234984
O O4 0.538097 0.694798 0.981583
O O5 0.750000 0.500000 0.662657
O O6 0.874860 0.538414 0.737729
O O7 0.833263 0.415533 0.763569
O O8 0.856061 0.465107 0.510332
O O9 0.708752 0.116339 0.624634
O O10 0.614220 0.042283 0.503460
O O11 0.317497 0.067152 0.517891
O O12 0.372781 0.014747 0.739496
O O13 0.409272 0.250000 0.250000
O O14 0.328548 0.312761 0.079272
O O15 0.382324 0.205178 0.983610
O O16 0.686068 0.880046 0.168687
O O17 0.750000 0.000000 0.144734
O O18 0.169166 0.750000 0.750000
#
# Coordination Sequence:
#
# PCOD9408023 Si02
#       8
#     8   8   8   8   8   8   8   8
#     4   9  19  33  50  70  98 136 169 202 251 312
#     4   8  16  28  46  74 107 132 158 209 268 308
#     4  10  17  31  50  73 103 132 166 210 256 309
#     4   9  17  29  48  74 101 132 165 199 248 308
#     4  10  19  34  54  71  91 127 175 215 251 309
#     4   9  17  30  51  76  96 126 170 211 252 300
#     4  10  17  29  50  76 103 132 170 220 267 307
#     4   9  19  34  50  70  99 137 176 208 257 321
#
# _framework density 17.349274000000001
#
# number of rings (size 3 to 8) (size 9 to 14) (size 15 to 20)
#    0.000    2.750    0.000    3.750    0.000    0.000 
#    0.000    5.625    0.000    6.750    0.000    0.000 
#    0.000    0.000    0.000    0.000    0.000    0.000 
#
# Total GULP energy -356441.865962 kJ/mol
# GULP energy per Si atom -5569.404156 kJ/mol
# Density = 1.730979 g / cm^3
# Si number density = 17.349274 Si / 1000 Ang^3
#
#
#
# Elastic Constant Matrix: (Units=GPa)
#
#
# Indices 1 2 3 4 5 6 
#
# 1 75.7082 34.4177 15.1413 0.0000 0.0000 0.0000
# 2 34.4177 74.7795 36.8038 0.0000 0.0000 0.0000
# 3 15.1413 36.8038 130.8945 0.0000 0.0000 0.0000
# 4 0.0000 0.0000 0.0000 17.3776 0.0000 0.0000
# 5 0.0000 0.0000 0.0000 0.0000 7.6060 0.0000
# 6 0.0000 0.0000 0.0000 0.0000 0.0000 11.6324
#
#
#
# Elastic Compliance Matrix: (Units=1/GPa)
#
#
# Indices 1 2 3 4 5 6 
#
# 1 0.016712 -0.007823 0.000266 0.000000 0.000000 0.000000
# 2 -0.007823 0.019182 -0.004489 0.000000 0.000000 0.000000
# 3 0.000266 -0.004489 0.008871 0.000000 0.000000 0.000000
# 4 0.000000 0.000000 0.000000 0.057545 0.000000 0.000000
# 5 0.000000 0.000000 0.000000 0.000000 0.131475 0.000000
# 6 0.000000 0.000000 0.000000 0.000000 0.000000 0.085967
#
#
# Mechanical properties :
#
#
# Convention : Reuss Voigt Hill
#
# Bulk Modulus (GPa) = 48.36764 50.45643 49.41204
# Shear Modulus (GPa) = 14.25586 20.32450 17.29018
#
# Velocity S-wave (km/s) = 2.86964 3.42642 3.16031
# Velocity P-wave (km/s) = 6.23851 6.69325 6.46988
#
# Compressibility (1/GPa) = 0.02067498
#
# Stress axis : x y z
#
# Youngs Moduli (GPa) = 59.83857 52.13157 112.72706
#
# Poissons Ratio (x) = 0.40781 -0.03003
# Poissons Ratio (y) = 0.46810 0.50599
# Poissons Ratio (z) = -0.01594 0.23400
#
# Static dielectric constant tensor:
#      x y z
#    x 1.579680 0.000000 0.000000 
#    y 0.000000 1.612500 0.000000 
#    z 0.000000 0.000000 1.623410 
# 
# From -- ./inp_files/13672.got.cif
#   From: 2010.05.17/outbox.cif.g08.bks.cpg/sg52_7_cif.got.tgz:13672.got - 2010.06.03 12:15:38.
