data_PCOD9408504
_publ_section_title
;
Structure prediction by ZEFSAII (Michael W. Deem and Ramdas Pophale) SiO2 
 PCOD9408504
Probable space group: P N N A
;
_chemical_formula_sum "Si O2"
_cell_formula_units_Z 48
_cell_length_a 18.755252
_cell_length_b 9.340868
_cell_length_c 15.399032
_cell_angle_alpha 90.000000
_cell_angle_beta 90.000000
_cell_angle_gamma 90.000000
_cell_volume 2697.761548
_symmetry_space_group_name_H-M "P N N A"
_symmetry_group_IT_number 52
_symmetry_cell_setting 'orthorhombic'
loop_
_space_group_symop_operation_xyz
x,y,z
1/2-x,-y,z
x,1/2-y,1/2-z
1/2-x,1/2+y,1/2-z
-x,-y,-z
1/2+x,y,-z
-x,1/2+y,1/2+z
1/2+x,1/2-y,1/2+z
loop_
_atom_site_type_symbol
_atom_site_label
_atom_site_fract_x
_atom_site_fract_y
_atom_site_fract_z
Si Si1 0.963815 0.851765 0.165106
Si Si2 0.699561 0.137339 0.479525
Si Si3 0.295952 0.643151 0.667573
Si Si4 0.539958 0.424263 0.077396
Si Si5 0.469737 0.917432 0.265181
Si Si6 0.190828 0.377134 0.181749
O O1 0.970235 0.750000 0.250000
O O2 0.880448 0.892161 0.158897
O O3 0.984786 0.740442 0.090183
O O4 0.012930 0.988545 0.180240
O O5 0.724703 0.267722 0.418808
O O6 0.623311 0.089184 0.441568
O O7 0.692056 0.174740 0.581475
O O8 0.750000 0.000000 0.473222
O O9 0.250000 0.500000 0.678552
O O10 0.288156 0.750000 0.750000
O O11 0.522110 0.518123 0.162025
O O12 0.500000 0.500000 0.000000
O O13 0.481325 0.750000 0.250000
O O14 0.388484 0.935734 0.297292
O O15 0.250000 0.500000 0.190802
O O16 0.204324 0.250000 0.250000
#
# Coordination Sequence:
#
# PCOD9408504 Si02
#       6
#     8   8   8   8   8   8
#     4   8  18  33  52  79 108 142 185 223 272 337
#     4  10  21  38  57  84 113 147 193 229 277 343
#     4  10  20  34  56  84 119 151 180 228 281 340
#     4  10  18  35  58  77 109 148 181 231 284 330
#     4  10  20  36  57  83 112 144 187 239 279 337
#     4  10  22  39  59  80 110 149 191 240 285 330
#
# _framework density 17.792528000000001
#
# number of rings (size 3 to 8) (size 9 to 14) (size 15 to 20)
#    0.000    2.333    1.667    1.500    0.000    4.667 
#    0.000    0.833    0.000    0.000    0.000    0.000 
#    0.000    0.000    0.000    0.000    0.000    0.000 
#
# Total GULP energy -267548.767711 kJ/mol
# GULP energy per Si atom -5573.932661 kJ/mol
# Density = 1.775203 g / cm^3
# Si number density = 17.792528 Si / 1000 Ang^3
#
#
#
# Elastic Constant Matrix: (Units=GPa)
#
#
# Indices 1 2 3 4 5 6 
#
# 1 52.6780 62.4581 46.0274 0.0000 0.0000 0.0000
# 2 62.4581 125.4635 62.6581 0.0000 0.0000 0.0000
# 3 46.0274 62.6581 99.1839 0.0000 0.0000 0.0000
# 4 0.0000 0.0000 0.0000 37.2813 0.0000 0.0000
# 5 0.0000 0.0000 0.0000 0.0000 23.0405 0.0000
# 6 0.0000 0.0000 0.0000 0.0000 0.0000 25.4129
#
#
#
# Elastic Compliance Matrix: (Units=1/GPa)
#
#
# Indices 1 2 3 4 5 6 
#
# 1 0.054515 -0.021190 -0.011912 0.000000 0.000000 0.000000
# 2 -0.021190 0.019880 -0.002726 0.000000 0.000000 0.000000
# 3 -0.011912 -0.002726 0.017332 0.000000 0.000000 0.000000
# 4 0.000000 0.000000 0.000000 0.026823 0.000000 0.000000
# 5 0.000000 0.000000 0.000000 0.000000 0.043402 0.000000
# 6 0.000000 0.000000 0.000000 0.000000 0.000000 0.039350
#
#
# Mechanical properties :
#
#
# Convention : Reuss Voigt Hill
#
# Bulk Modulus (GPa) = 49.81922 68.84586 59.33254
# Shear Modulus (GPa) = 17.87956 24.22572 21.05264
#
# Velocity S-wave (km/s) = 3.17344 3.69394 3.44354
# Velocity P-wave (km/s) = 6.44116 7.54794 7.01640
#
# Compressibility (1/GPa) = 0.02007257
#
# Stress axis : x y z
#
# Youngs Moduli (GPa) = 18.34351 50.30079 57.69577
#
# Poissons Ratio (x) = 1.06586 0.68728
# Poissons Ratio (y) = 0.38869 0.15727
# Poissons Ratio (z) = 0.21851 0.13711
#
# Static dielectric constant tensor:
#      x y z
#    x 1.599940 0.000000 0.000000 
#    y 0.000000 1.594440 0.000000 
#    z 0.000000 0.000000 1.666310 
# 
# From -- ./inp_files/28066.got.cif
#   From: 2010.05.17/outbox.cif.g08.bks.cpg/sg52_15_cif.got.tgz:28066.got - 2010.06.03 12:15:38.
