data_PCOD9408517
_publ_section_title
;
Structure prediction by ZEFSAII (Michael W. Deem and Ramdas Pophale) SiO2 
 PCOD9408517
Probable space group: P N N A
;
_chemical_formula_sum "Si O2"
_cell_formula_units_Z 48
_cell_length_a 12.441189
_cell_length_b 8.971146
_cell_length_c 24.712477
_cell_angle_alpha 90.000000
_cell_angle_beta 90.000000
_cell_angle_gamma 90.000000
_cell_volume 2758.202136
_symmetry_space_group_name_H-M "P N N A"
_symmetry_group_IT_number 52
_symmetry_cell_setting 'orthorhombic'
loop_
_space_group_symop_operation_xyz
x,y,z
1/2-x,-y,z
x,1/2-y,1/2-z
1/2-x,1/2+y,1/2-z
-x,-y,-z
1/2+x,y,-z
-x,1/2+y,1/2+z
1/2+x,1/2-y,1/2+z
loop_
_atom_site_type_symbol
_atom_site_label
_atom_site_fract_x
_atom_site_fract_y
_atom_site_fract_z
Si Si1 0.058237 0.058594 0.614237
Si Si2 0.250000 0.500000 0.132080
Si Si3 0.424701 0.299243 0.019124
Si Si4 0.625058 0.537373 0.596951
Si Si5 0.419583 0.281071 0.186948
Si Si6 0.750000 0.500000 0.041955
Si Si7 0.436646 0.704009 0.086423
O O1 0.967795 0.112577 0.571125
O O2 0.033477 0.149020 0.667982
O O3 0.168196 0.082023 0.582772
O O4 0.027495 0.885283 0.620275
O O5 0.330228 0.402410 0.168818
O O6 0.323040 0.620426 0.098805
O O7 0.401107 0.136246 0.043511
O O8 0.322842 0.385437 0.992956
O O9 0.520119 0.303674 0.975151
O O10 0.750000 0.500000 0.595527
O O11 0.599438 0.636571 0.649550
O O12 0.568225 0.377857 0.599446
O O13 0.413627 0.250000 0.250000
#
# Coordination Sequence:
#
# PCOD9408517 Si02
#       7
#     8   4   8   8   8   4   8
#     4   9  21  34  56  80 105 144 182 225 253 326
#     4  10  20  33  56  76 106 138 180 213 264 334
#     4  10  22  32  54  79 112 149 173 217 258 319
#     4  11  22  33  52  79 112 141 175 218 264 319
#     4  10  22  38  55  77 104 138 179 231 275 311
#     4  10  18  35  60  78 110 148 190 201 268 322
#     4  10  19  35  49  78 114 140 173 209 267 317
#
# _framework density 17.402640999999999
#
# number of rings (size 3 to 8) (size 9 to 14) (size 15 to 20)
#    0.000    2.000    1.667    2.500    5.833    2.000 
#    0.000    2.500    0.000    4.000    0.000    0.000 
#    0.000    0.000    0.000    0.000    0.000    0.000 
#
# Total GULP energy -267481.705346 kJ/mol
# GULP energy per Si atom -5572.535528 kJ/mol
# Density = 1.736303 g / cm^3
# Si number density = 17.402641 Si / 1000 Ang^3
#
#
#
# Elastic Constant Matrix: (Units=GPa)
#
#
# Indices 1 2 3 4 5 6 
#
# 1 74.3457 29.9767 45.8158 0.0000 0.0000 0.0000
# 2 29.9767 129.5415 56.2309 0.0000 0.0000 0.0000
# 3 45.8158 56.2309 125.6571 0.0000 0.0000 0.0000
# 4 0.0000 0.0000 0.0000 17.7639 0.0000 0.0000
# 5 0.0000 0.0000 0.0000 0.0000 19.1646 0.0000
# 6 0.0000 0.0000 0.0000 0.0000 0.0000 20.2946
#
#
#
# Elastic Compliance Matrix: (Units=1/GPa)
#
#
# Indices 1 2 3 4 5 6 
#
# 1 0.017612 -0.001599 -0.005706 0.000000 0.000000 0.000000
# 2 -0.001599 0.009726 -0.003769 0.000000 0.000000 0.000000
# 3 -0.005706 -0.003769 0.011725 0.000000 0.000000 0.000000
# 4 0.000000 0.000000 0.000000 0.056294 0.000000 0.000000
# 5 0.000000 0.000000 0.000000 0.000000 0.052180 0.000000
# 6 0.000000 0.000000 0.000000 0.000000 0.000000 0.049274
#
#
# Mechanical properties :
#
#
# Convention : Reuss Voigt Hill
#
# Bulk Modulus (GPa) = 59.11984 65.95457 62.53721
# Shear Modulus (GPa) = 22.26217 24.61268 23.43743
#
# Velocity S-wave (km/s) = 3.58053 3.76481 3.67382
# Velocity P-wave (km/s) = 7.15116 7.54187 7.34911
#
# Compressibility (1/GPa) = 0.01691480
#
# Stress axis : x y z
#
# Youngs Moduli (GPa) = 56.78087 102.82112 85.28525
#
# Poissons Ratio (x) = 0.16437 0.48664
# Poissons Ratio (y) = 0.09077 0.32147
# Poissons Ratio (z) = 0.32399 0.38756
#
# Static dielectric constant tensor:
#      x y z
#    x 1.633640 0.000000 0.000000 
#    y 0.000000 1.675420 0.000000 
#    z 0.000000 0.000000 1.585540 
# 
# From -- ./inp_files/40213.got.cif
#   From: 2010.05.17/outbox.cif.g08.bks.cpg/sg52_21_cif.got.tgz:40213.got - 2010.06.03 12:15:38.
