data_PCOD9408415
_publ_section_title
;
Structure prediction by ZEFSAII (Michael W. Deem and Ramdas Pophale) SiO2 
 PCOD9408415
Probable space group: P N N A
;
_chemical_formula_sum "Si O2"
_cell_formula_units_Z 40
_cell_length_a 22.755091
_cell_length_b 13.925152
_cell_length_c 5.269092
_cell_angle_alpha 90.000000
_cell_angle_beta 90.000000
_cell_angle_gamma 90.000000
_cell_volume 1669.607176
_symmetry_space_group_name_H-M "P N N A"
_symmetry_group_IT_number 52
_symmetry_cell_setting 'orthorhombic'
loop_
_space_group_symop_operation_xyz
x,y,z
1/2-x,-y,z
x,1/2-y,1/2-z
1/2-x,1/2+y,1/2-z
-x,-y,-z
1/2+x,y,-z
-x,1/2+y,1/2+z
1/2+x,1/2-y,1/2+z
loop_
_atom_site_type_symbol
_atom_site_label
_atom_site_fract_x
_atom_site_fract_y
_atom_site_fract_z
Si Si1 0.348559 0.648838 0.988635
Si Si2 0.847846 0.140990 0.850427
Si Si3 0.470038 0.315859 0.500556
Si Si4 0.899714 0.634390 0.511021
Si Si5 0.777429 0.397378 0.141087
O O1 0.377047 0.593282 0.752999
O O2 0.279696 0.663543 0.944724
O O3 0.362995 0.597961 0.251724
O O4 0.381060 0.752169 0.999017
O O5 0.852376 0.250000 0.750000
O O6 0.914562 0.117492 0.933440
O O7 0.818368 0.092518 0.605990
O O8 0.809397 0.138491 0.106215
O O9 0.481027 0.250000 0.250000
O O10 0.531029 0.370206 0.549818
O O11 0.457249 0.250000 0.750000
O O12 0.750000 0.500000 0.205228
#
# Coordination Sequence:
#
# PCOD9408415 Si02
#       5
#     8   8   8   8   8
#     4  10  20  33  57  86 122 155 207 246 315 374
#     4  11  25  40  67  97 122 164 219 268 313 372
#     4  11  18  36  58  93 127 149 197 270 327 365
#     4  10  18  33  59  92 117 150 203 271 314 353
#     4  12  26  44  62  90 138 177 208 255 323 384
#
# _framework density 23.957732
#
# number of rings (size 3 to 8) (size 9 to 14) (size 15 to 20)
#    0.000    1.200    4.000    4.800    8.400    0.000 
#    0.000    0.000    0.000    7.200    0.000    0.000 
#    0.000    0.000    0.000    0.000    0.000    0.000 
#
# Total GULP energy -223693.753053 kJ/mol
# GULP energy per Si atom -5592.343826 kJ/mol
# Density = 2.390320 g / cm^3
# Si number density = 23.957732 Si / 1000 Ang^3
#
#
#
# Elastic Constant Matrix: (Units=GPa)
#
#
# Indices 1 2 3 4 5 6 
#
# 1 168.9716 36.6604 59.3122 0.0000 0.0000 0.0000
# 2 36.6604 32.9785 5.6741 0.0000 0.0000 0.0000
# 3 59.3122 5.6741 225.4897 0.0000 0.0000 0.0000
# 4 0.0000 0.0000 0.0000 15.5544 0.0000 0.0000
# 5 0.0000 0.0000 0.0000 0.0000 38.9431 0.0000
# 6 0.0000 0.0000 0.0000 0.0000 0.0000 11.9104
#
#
#
# Elastic Compliance Matrix: (Units=1/GPa)
#
#
# Indices 1 2 3 4 5 6 
#
# 1 0.008643 -0.009257 -0.002040 0.000000 0.000000 0.000000
# 2 -0.009257 0.040369 0.001419 0.000000 0.000000 0.000000
# 3 -0.002040 0.001419 0.004936 0.000000 0.000000 0.000000
# 4 0.000000 0.000000 0.000000 0.064291 0.000000 0.000000
# 5 0.000000 0.000000 0.000000 0.000000 0.025679 0.000000
# 6 0.000000 0.000000 0.000000 0.000000 0.000000 0.083960
#
#
# Mechanical properties :
#
#
# Convention : Reuss Voigt Hill
#
# Bulk Modulus (GPa) = 29.24728 70.08146 49.66437
# Shear Modulus (GPa) = 19.30285 35.00112 27.15199
#
# Velocity S-wave (km/s) = 2.84157 3.82639 3.37015
# Velocity P-wave (km/s) = 4.79587 6.98837 5.99323
#
# Compressibility (1/GPa) = 0.03419122
#
# Stress axis : x y z
#
# Youngs Moduli (GPa) = 115.70459 24.77168 202.60168
#
# Poissons Ratio (x) = 0.22930 0.41339
# Poissons Ratio (y) = 1.07103 -0.28749
# Poissons Ratio (z) = 0.23609 -0.03515
#
# Static dielectric constant tensor:
#      x y z
#    x 1.901040 0.000000 0.000000 
#    y 0.000000 2.070290 0.000000 
#    z 0.000000 0.000000 2.022220 
# 
# From -- ./inp_files/4222.got.cif
#   From: 2010.05.17/outbox.cif.g08.bks.cpg/sg52_3_cif.got.tgz:4222.got - 2010.06.03 12:15:38.
