data_PCOD9408159
_publ_section_title
;
Structure prediction by ZEFSAII (Michael W. Deem and Ramdas Pophale) SiO2 
 PCOD9408159
Probable space group: P N N A
;
_chemical_formula_sum "Si O2"
_cell_formula_units_Z 64
_cell_length_a 12.736720
_cell_length_b 12.494237
_cell_length_c 23.218793
_cell_angle_alpha 90.000000
_cell_angle_beta 90.000000
_cell_angle_gamma 90.000000
_cell_volume 3694.936515
_symmetry_space_group_name_H-M "P N N A"
_symmetry_group_IT_number 52
_symmetry_cell_setting 'orthorhombic'
loop_
_space_group_symop_operation_xyz
x,y,z
1/2-x,-y,z
x,1/2-y,1/2-z
1/2-x,1/2+y,1/2-z
-x,-y,-z
1/2+x,y,-z
-x,1/2+y,1/2+z
1/2+x,1/2-y,1/2+z
loop_
_atom_site_type_symbol
_atom_site_label
_atom_site_fract_x
_atom_site_fract_y
_atom_site_fract_z
Si Si1 0.961790 0.018764 0.563748
Si Si2 0.337729 0.072693 0.623470
Si Si3 0.989379 0.269430 0.182846
Si Si4 0.339712 0.237600 0.422582
Si Si5 0.752747 0.748504 0.453859
Si Si6 0.532674 0.133112 0.052129
Si Si7 0.312357 0.895055 0.356268
Si Si8 0.550433 0.885602 0.077555
O O1 0.914312 0.135885 0.566471
O O2 0.870209 0.939127 0.585691
O O3 0.000000 0.000000 0.500000
O O4 0.063900 0.997478 0.602400
O O5 0.388986 0.163034 0.662366
O O6 0.281043 0.135771 0.570861
O O7 0.250000 0.000000 0.652150
O O8 0.975955 0.250000 0.250000
O O9 0.092397 0.344266 0.178350
O O10 0.996527 0.172321 0.135093
O O11 0.265033 0.253537 0.477609
O O12 0.422526 0.333091 0.418802
O O13 0.268389 0.199802 0.370050
O O14 0.868874 0.711078 0.436947
O O15 0.665754 0.665547 0.430125
O O16 0.557473 0.014051 0.074816
O O17 0.511620 0.139288 0.982601
O O18 0.250000 0.000000 0.333470
#
# Coordination Sequence:
#
# PCOD9408159 Si02
#       8
#     8   8   8   8   8   8   8   8
#     4  10  18  28  47  75 112 147 168 202 271 347
#     4  10  20  31  50  80 109 134 178 221 275 330
#     4  10  21  41  60  74 102 147 192 232 268 322
#     4  10  19  28  47  76 110 145 174 211 267 335
#     4  10  18  28  48  73 107 144 171 206 265 334
#     4  10  19  32  50  75 111 139 173 220 276 332
#     4   9  20  34  51  78 108 133 173 221 273 322
#     4   9  20  35  50  74 103 140 181 223 268 326
#
# _framework density 17.321000999999999
#
# number of rings (size 3 to 8) (size 9 to 14) (size 15 to 20)
#    0.000    2.250    1.250    1.875    5.250    0.000 
#    0.000    5.625    0.000    0.000    0.000    7.000 
#    0.000    0.000    0.000    0.000    0.000    0.000 
#
# Total GULP energy -356354.166346 kJ/mol
# GULP energy per Si atom -5568.033849 kJ/mol
# Density = 1.728158 g / cm^3
# Si number density = 17.321001 Si / 1000 Ang^3
#
#
#
# Elastic Constant Matrix: (Units=GPa)
#
#
# Indices 1 2 3 4 5 6 
#
# 1 81.3911 27.7258 10.9053 0.0000 0.0000 0.0000
# 2 27.7258 54.9888 13.6029 0.0000 0.0000 0.0000
# 3 10.9053 13.6029 56.3661 0.0000 0.0000 0.0000
# 4 0.0000 0.0000 0.0000 10.5079 0.0000 0.0000
# 5 0.0000 0.0000 0.0000 0.0000 5.1703 0.0000
# 6 0.0000 0.0000 0.0000 0.0000 0.0000 25.6015
#
#
#
# Elastic Compliance Matrix: (Units=1/GPa)
#
#
# Indices 1 2 3 4 5 6 
#
# 1 0.014903 -0.007233 -0.001138 0.000000 0.000000 0.000000
# 2 -0.007233 0.022850 -0.004115 0.000000 0.000000 0.000000
# 3 -0.001138 -0.004115 0.018954 0.000000 0.000000 0.000000
# 4 0.000000 0.000000 0.000000 0.095166 0.000000 0.000000
# 5 0.000000 0.000000 0.000000 0.000000 0.193412 0.000000
# 6 0.000000 0.000000 0.000000 0.000000 0.000000 0.039060
#
#
# Mechanical properties :
#
#
# Convention : Reuss Voigt Hill
#
# Bulk Modulus (GPa) = 31.50979 33.02378 32.26678
# Shear Modulus (GPa) = 11.90773 17.62342 14.76557
#
# Velocity S-wave (km/s) = 2.62482 3.19322 2.92287
# Velocity P-wave (km/s) = 5.23616 5.71863 5.48270
#
# Compressibility (1/GPa) = 0.03173617
#
# Stress axis : x y z
#
# Youngs Moduli (GPa) = 67.10261 43.76333 52.75819
#
# Poissons Ratio (x) = 0.31652 0.06003
# Poissons Ratio (y) = 0.48532 0.21711
# Poissons Ratio (z) = 0.07635 0.18009
#
# Static dielectric constant tensor:
#      x y z
#    x 1.594140 0.000000 0.000000 
#    y 0.000000 1.617170 0.000000 
#    z 0.000000 0.000000 1.570970 
# 
# From -- ./inp_files/40322.got.cif
#   From: 2010.05.17/outbox.cif.g08.bks.cpg/sg52_21_cif.got.tgz:40322.got - 2010.06.03 12:15:38.
