data_PCOD9408916
_publ_section_title
;
Structure prediction by ZEFSAII (Michael W. Deem and Ramdas Pophale) SiO2 
 PCOD9408916
Probable space group: P N N A
;
_chemical_formula_sum "Si O2"
_cell_formula_units_Z 64
_cell_length_a 34.624794
_cell_length_b 8.551402
_cell_length_c 11.599903
_cell_angle_alpha 90.000000
_cell_angle_beta 90.000000
_cell_angle_gamma 90.000000
_cell_volume 3434.621458
_symmetry_space_group_name_H-M "P N N A"
_symmetry_group_IT_number 52
_symmetry_cell_setting 'orthorhombic'
loop_
_space_group_symop_operation_xyz
x,y,z
1/2-x,-y,z
x,1/2-y,1/2-z
1/2-x,1/2+y,1/2-z
-x,-y,-z
1/2+x,y,-z
-x,1/2+y,1/2+z
1/2+x,1/2-y,1/2+z
loop_
_atom_site_type_symbol
_atom_site_label
_atom_site_fract_x
_atom_site_fract_y
_atom_site_fract_z
Si Si1 0.267764 0.172653 0.879008
Si Si2 0.641834 0.704981 0.381564
Si Si3 0.918361 0.500000 0.500000
Si Si4 0.641834 0.295019 0.618436
Si Si5 0.043677 0.203186 0.617250
Si Si6 0.895621 0.000000 0.500000
Si Si7 0.956323 0.296814 0.882750
Si Si8 0.767764 0.672654 0.620992
O O1 0.261909 0.250000 0.750000
O O2 0.313652 0.162374 0.901011
O O3 0.250000 0.000000 0.869865
O O4 0.250000 0.243321 1.000000
O O5 0.638062 0.750000 0.250000
O O6 0.611361 0.568437 0.406407
O O7 0.629836 0.855707 0.456719
O O8 0.888639 0.568437 0.593593
O O9 0.943655 0.643923 0.454931
O O10 0.943655 0.356077 0.545069
O O11 0.638062 0.250000 0.750000
O O12 0.686348 0.337626 0.598989
O O13 0.629836 0.144293 0.543281
O O14 0.044184 0.250000 0.750000
O O15 1.000000 0.156506 0.586001
O O16 0.075033 0.068934 0.594918
O O17 0.924967 0.068934 0.594918
O O18 0.955816 0.250000 0.750000
O O19 0.750000 0.500000 0.630135
O O20 0.761909 0.750000 0.750000
#
# Coordination Sequence:
#
# PCOD9408916 Si02
#       8
#     8   8   8   8   8   8   8   8
#     4  10  22  39  58  83 113 145 183 227 276 330
#     4  10  21  37  56  80 109 141 180 222 268 322
#     4  10  19  34  55  78 108 142 178 220 267 314
#     4  10  21  37  56  80 109 141 180 222 268 322
#     4  10  20  34  53  78 107 140 178 219 265 316
#     4  10  21  36  55  78 106 140 178 220 267 316
#     4  10  20  34  53  78 107 140 178 219 265 316
#     4  10  22  39  58  83 113 145 183 227 276 330
#
# _framework density 18.633786000000001
#
# number of rings (size 3 to 8) (size 9 to 14) (size 15 to 20)
#    0.000    2.000    0.000    3.750    0.000    4.500 
#    0.000    6.250    0.000   12.000    0.000    0.000 
#    0.000    0.000    0.000    0.000    0.000    0.000 
#
# Total GULP energy -356681.934586 kJ/mol
# GULP energy per Si atom -5573.155228 kJ/mol
# Density = 1.859137 g / cm^3
# Si number density = 18.633786 Si / 1000 Ang^3
#
#
#
# Elastic Constant Matrix: (Units=GPa)
#
#
# Indices 1 2 3 4 5 6 
#
# 1 130.3591 35.8090 42.1269 0.0000 0.0000 0.0000
# 2 35.8090 54.9292 0.1508 0.0000 0.0000 0.0000
# 3 42.1269 0.1508 83.8657 0.0000 0.0000 0.0000
# 4 0.0000 0.0000 0.0000 21.7091 0.0000 0.0000
# 5 0.0000 0.0000 0.0000 0.0000 136.8625 0.0000
# 6 0.0000 0.0000 0.0000 0.0000 0.0000 124.8663
#
#
#
# Elastic Compliance Matrix: (Units=1/GPa)
#
#
# Indices 1 2 3 4 5 6 
#
# 1 0.011634 -0.007569 -0.005830 0.000000 0.000000 0.000000
# 2 -0.007569 0.023129 0.003760 0.000000 0.000000 0.000000
# 3 -0.005830 0.003760 0.014846 0.000000 0.000000 0.000000
# 4 0.000000 0.000000 0.000000 0.046064 0.000000 0.000000
# 5 0.000000 0.000000 0.000000 0.000000 0.007307 0.000000
# 6 0.000000 0.000000 0.000000 0.000000 0.000000 0.008009
#
#
# Mechanical properties :
#
#
# Convention : Reuss Voigt Hill
#
# Bulk Modulus (GPa) = 32.96911 47.25858 40.11385
# Shear Modulus (GPa) = 35.61862 69.42540 52.52201
#
# Velocity S-wave (km/s) = 4.37682 6.11054 5.31485
# Velocity P-wave (km/s) = 6.57827 8.67189 7.69660
#
# Compressibility (1/GPa) = 0.03033142
#
# Stress axis : x y z
#
# Youngs Moduli (GPa) = 85.95250 43.23589 67.35915
#
# Poissons Ratio (x) = 0.32723 0.39274
# Poissons Ratio (y) = 0.65054 -0.25328
# Poissons Ratio (z) = 0.50114 -0.16258
#
# Static dielectric constant tensor:
#      x y z
#    x 1.628380 0.000000 0.000000 
#    y 0.000000 1.630930 0.000000 
#    z 0.000000 0.000000 1.681090 
# 
# From -- ./inp_files/23192.got.cif
#   From: 2010.05.17/outbox.cif.g08.bks.cpg/sg52_12_cif.got.tgz:23192.got - 2010.06.03 12:15:38.
