data_PCOD9408038
_publ_section_title
;
Structure prediction by ZEFSAII (Michael W. Deem and Ramdas Pophale) SiO2 
 PCOD9408038
Probable space group: P N N A
;
_chemical_formula_sum "Si O2"
_cell_formula_units_Z 60
_cell_length_a 10.117759
_cell_length_b 9.805035
_cell_length_c 26.220350
_cell_angle_alpha 90.000000
_cell_angle_beta 90.000000
_cell_angle_gamma 90.000000
_cell_volume 2601.189327
_symmetry_space_group_name_H-M "P N N A"
_symmetry_group_IT_number 52
_symmetry_cell_setting 'orthorhombic'
loop_
_space_group_symop_operation_xyz
x,y,z
1/2-x,-y,z
x,1/2-y,1/2-z
1/2-x,1/2+y,1/2-z
-x,-y,-z
1/2+x,y,-z
-x,1/2+y,1/2+z
1/2+x,1/2-y,1/2+z
loop_
_atom_site_type_symbol
_atom_site_label
_atom_site_fract_x
_atom_site_fract_y
_atom_site_fract_z
Si Si1 0.133360 0.859840 0.543622
Si Si2 0.150044 0.708780 0.689897
Si Si3 0.830804 0.866834 0.048622
Si Si4 0.250000 0.000000 0.448684
Si Si5 0.130235 0.284724 0.435197
Si Si6 0.480619 0.488848 0.371287
Si Si7 0.098447 0.982467 0.644782
Si Si8 0.034965 0.253593 0.690033
O O1 0.260214 0.774695 0.563998
O O2 0.149194 0.930206 0.489230
O O3 0.017989 0.750722 0.546059
O O4 0.099291 0.975311 0.584251
O O5 0.138308 0.750000 0.750000
O O6 0.085784 0.574346 0.664344
O O7 0.308768 0.709429 0.679410
O O8 0.069467 0.830475 0.662682
O O9 0.964580 0.904221 0.078719
O O10 0.750000 0.000000 0.063627
O O11 0.816576 0.849850 0.987572
O O12 0.307280 0.863991 0.422070
O O13 0.119972 0.398463 0.392133
O O14 0.441099 0.365672 0.334731
O O15 0.014644 0.104490 0.666603
O O16 0.250000 0.000000 0.663640
O O17 0.020094 0.250000 0.750000
#
# Coordination Sequence:
#
# PCOD9408038 Si02
#       8
#     8   8   8   4   8   8   8   8
#     4  11  20  36  56  79 111 161 199 241 297 361
#     4  10  19  31  51  78 115 156 196 238 280 351
#     4  11  21  36  56  85 121 157 200 252 294 361
#     4  10  24  40  54  78 116 150 210 270 296 354
#     4  11  24  37  57  84 113 160 210 249 308 359
#     4  12  21  35  57  84 120 160 205 243 298 370
#     4  10  17  30  49  74 108 153 199 219 281 355
#     4  10  21  32  48  80 121 161 194 233 288 356
#
# _framework density 23.066372000000001
#
# number of rings (size 3 to 8) (size 9 to 14) (size 15 to 20)
#    0.000    1.333    3.333    4.400    1.867    2.133 
#    0.000    0.000    0.000    0.000    0.000    0.000 
#    2.000    1.067    0.267    0.000    0.000    0.000 
#
# Total GULP energy -334599.636765 kJ/mol
# GULP energy per Si atom -5576.660613 kJ/mol
# Density = 2.301387 g / cm^3
# Si number density = 23.066372 Si / 1000 Ang^3
#
#
#
# Elastic Constant Matrix: (Units=GPa)
#
#
# Indices 1 2 3 4 5 6 
#
# 1 19.2282 26.3980 14.7936 0.0000 0.0000 0.0000
# 2 26.3980 176.9336 51.4325 0.0000 0.0000 0.0000
# 3 14.7936 51.4325 82.9412 0.0000 0.0000 0.0000
# 4 0.0000 0.0000 0.0000 28.6100 0.0000 0.0000
# 5 0.0000 0.0000 0.0000 0.0000 32.5609 0.0000
# 6 0.0000 0.0000 0.0000 0.0000 0.0000 26.3569
#
#
#
# Elastic Compliance Matrix: (Units=1/GPa)
#
#
# Indices 1 2 3 4 5 6 
#
# 1 0.068756 -0.008165 -0.007200 0.000000 0.000000 0.000000
# 2 -0.008165 0.007864 -0.003420 0.000000 0.000000 0.000000
# 3 -0.007200 -0.003420 0.015462 0.000000 0.000000 0.000000
# 4 0.000000 0.000000 0.000000 0.034953 0.000000 0.000000
# 5 0.000000 0.000000 0.000000 0.000000 0.030712 0.000000
# 6 0.000000 0.000000 0.000000 0.000000 0.000000 0.037941
#
#
# Mechanical properties :
#
#
# Convention : Reuss Voigt Hill
#
# Bulk Modulus (GPa) = 18.34493 51.59460 34.96976
# Shear Modulus (GPa) = 19.88626 29.93749 24.91188
#
# Velocity S-wave (km/s) = 2.93939 3.60653 3.28991
# Velocity P-wave (km/s) = 4.41480 6.30549 5.44287
#
# Compressibility (1/GPa) = 0.05451098
#
# Stress axis : x y z
#
# Youngs Moduli (GPa) = 14.54411 127.15651 64.67485
#
# Poissons Ratio (x) = 1.03826 0.46567
# Poissons Ratio (y) = 0.11876 0.22121
# Poissons Ratio (z) = 0.10472 0.43492
#
# Static dielectric constant tensor:
#      x y z
#    x 1.955360 0.000000 0.000000 
#    y 0.000000 1.878460 0.000000 
#    z 0.000000 0.000000 1.934620 
# 
# From -- ./inp_files/44827.got.cif
#   From: 2010.05.17/outbox.cif.g08.bks.cpg/sg52_23_cif.got.tgz:44827.got - 2010.06.03 12:15:38.
