data_PCOD9408326
_publ_section_title
;
Structure prediction by ZEFSAII (Michael W. Deem and Ramdas Pophale) SiO2 
 PCOD9408326
Probable space group: P N N A
;
_chemical_formula_sum "Si O2"
_cell_formula_units_Z 52
_cell_length_a 21.341849
_cell_length_b 9.442496
_cell_length_c 14.868670
_cell_angle_alpha 90.000000
_cell_angle_beta 90.000000
_cell_angle_gamma 90.000000
_cell_volume 2996.339193
_symmetry_space_group_name_H-M "P N N A"
_symmetry_group_IT_number 52
_symmetry_cell_setting 'orthorhombic'
loop_
_space_group_symop_operation_xyz
x,y,z
1/2-x,-y,z
x,1/2-y,1/2-z
1/2-x,1/2+y,1/2-z
-x,-y,-z
1/2+x,y,-z
-x,1/2+y,1/2+z
1/2+x,1/2-y,1/2+z
loop_
_atom_site_type_symbol
_atom_site_label
_atom_site_fract_x
_atom_site_fract_y
_atom_site_fract_z
Si Si1 0.559096 0.176922 0.655476
Si Si2 0.548175 0.633457 0.919753
Si Si3 0.415584 0.261671 0.887575
Si Si4 0.093502 0.298535 0.964934
Si Si5 0.008131 0.750000 0.250000
Si Si6 0.096433 0.056749 0.817497
Si Si7 0.823974 0.994430 0.346906
O O1 0.578252 0.250000 0.750000
O O2 0.483851 0.193697 0.649321
O O3 0.591266 0.249400 0.568343
O O4 0.570948 0.011951 0.627313
O O5 0.474169 0.625774 0.947588
O O6 0.548343 0.745090 0.839099
O O7 0.582067 0.697205 0.006684
O O8 0.359484 0.354891 0.847915
O O9 0.408698 0.098812 0.859202
O O10 0.098307 0.165802 0.899267
O O11 0.146188 0.405515 0.929441
O O12 0.963204 0.887609 0.240897
O O13 0.153749 0.070398 0.748336
O O14 0.750000 0.000000 0.353811
#
# Coordination Sequence:
#
# PCOD9408326 Si02
#       7
#     8   8   8   8   4   8   8
#     4  11  19  32  59  81 110 143 185 223 280 341
#     4  10  18  33  54  77 117 145 174 226 284 335
#     4  11  21  34  53  83 112 145 185 225 273 337
#     4  10  20  37  52  78 117 148 173 232 283 320
#     4  10  18  32  54  78 116 150 174 228 284 340
#     4  11  21  34  52  78 118 144 181 222 275 333
#     4  12  22  38  58  77 108 158 190 223 272 326
#
# _framework density 17.354510999999999
#
# number of rings (size 3 to 8) (size 9 to 14) (size 15 to 20)
#    0.000    1.231    6.154    3.231    0.000    9.231 
#    0.000    0.000    0.000    0.000    2.000    1.077 
#    0.000    0.000    0.000    0.000    0.000    0.000 
#
# Total GULP energy -289734.854413 kJ/mol
# GULP energy per Si atom -5571.824123 kJ/mol
# Density = 1.731501 g / cm^3
# Si number density = 17.354511 Si / 1000 Ang^3
#
#
#
# Elastic Constant Matrix: (Units=GPa)
#
#
# Indices 1 2 3 4 5 6 
#
# 1 64.6515 29.6578 37.2172 0.0000 0.0000 0.0000
# 2 29.6578 105.3081 44.4750 0.0000 0.0000 0.0000
# 3 37.2172 44.4750 166.8864 0.0000 0.0000 0.0000
# 4 0.0000 0.0000 0.0000 31.4623 0.0000 0.0000
# 5 0.0000 0.0000 0.0000 0.0000 13.4426 0.0000
# 6 0.0000 0.0000 0.0000 0.0000 0.0000 9.3524
#
#
#
# Elastic Compliance Matrix: (Units=1/GPa)
#
#
# Indices 1 2 3 4 5 6 
#
# 1 0.019164 -0.004048 -0.003195 0.000000 0.000000 0.000000
# 2 -0.004048 0.011555 -0.002177 0.000000 0.000000 0.000000
# 3 -0.003195 -0.002177 0.007285 0.000000 0.000000 0.000000
# 4 0.000000 0.000000 0.000000 0.031784 0.000000 0.000000
# 5 0.000000 0.000000 0.000000 0.000000 0.074390 0.000000
# 6 0.000000 0.000000 0.000000 0.000000 0.000000 0.106924
#
#
# Mechanical properties :
#
#
# Convention : Reuss Voigt Hill
#
# Bulk Modulus (GPa) = 52.17939 62.17180 57.17560
# Shear Modulus (GPa) = 18.09437 25.88453 21.98945
#
# Velocity S-wave (km/s) = 3.23248 3.86620 3.56346
# Velocity P-wave (km/s) = 6.63807 7.47211 7.06740
#
# Compressibility (1/GPa) = 0.01916465
#
# Stress axis : x y z
#
# Youngs Moduli (GPa) = 52.18244 86.54101 137.27379
#
# Poissons Ratio (x) = 0.35029 0.43858
# Poissons Ratio (y) = 0.21122 0.29882
# Poissons Ratio (z) = 0.16672 0.18838
#
# Static dielectric constant tensor:
#      x y z
#    x 1.558560 0.000000 0.000000 
#    y 0.000000 1.657410 0.000000 
#    z 0.000000 0.000000 1.658030 
# 
# From -- ./inp_files/28703.got.cif
#   From: 2010.05.17/outbox.cif.g08.bks.cpg/sg52_15_cif.got.tgz:28703.got - 2010.06.03 12:15:38.
