data_PCOD9408154
_publ_section_title
;
Structure prediction by ZEFSAII (Michael W. Deem and Ramdas Pophale) SiO2 
 PCOD9408154
Probable space group: P N N A
;
_chemical_formula_sum "Si O2"
_cell_formula_units_Z 56
_cell_length_a 15.734184
_cell_length_b 14.703226
_cell_length_c 8.797416
_cell_angle_alpha 90.000000
_cell_angle_beta 90.000000
_cell_angle_gamma 90.000000
_cell_volume 2035.222926
_symmetry_space_group_name_H-M "P N N A"
_symmetry_group_IT_number 52
_symmetry_cell_setting 'orthorhombic'
loop_
_space_group_symop_operation_xyz
x,y,z
1/2-x,-y,z
x,1/2-y,1/2-z
1/2-x,1/2+y,1/2-z
-x,-y,-z
1/2+x,y,-z
-x,1/2+y,1/2+z
1/2+x,1/2-y,1/2+z
loop_
_atom_site_type_symbol
_atom_site_label
_atom_site_fract_x
_atom_site_fract_y
_atom_site_fract_z
Si Si1 0.296948 0.404129 0.274023
Si Si2 0.346531 0.152676 0.571009
Si Si3 0.668891 0.176502 0.408785
Si Si4 0.011037 0.694396 0.112602
Si Si5 0.343386 0.509271 0.681115
Si Si6 0.029993 0.531018 0.327022
Si Si7 0.875205 0.649900 0.757323
O O1 0.250000 0.500000 0.266961
O O2 0.327584 0.383757 0.101319
O O3 0.382976 0.414240 0.371989
O O4 0.217299 0.342995 0.326525
O O5 0.263747 0.214681 0.596802
O O6 0.435778 0.200432 0.540425
O O7 0.352715 0.074320 0.697991
O O8 0.583614 0.235768 0.401424
O O9 0.651785 0.128624 0.569849
O O10 0.668770 0.100600 0.279445
O O11 0.053107 0.750000 0.250000
O O12 0.004961 0.590390 0.173388
O O13 0.250000 0.500000 0.601923
O O14 0.435629 0.522280 0.599131
O O15 0.063358 0.430504 0.289973
O O16 0.912323 0.750000 0.750000
#
# Coordination Sequence:
#
# PCOD9408154 Si02
#       7
#     8   8   8   8   8   8   8
#     4   8  14  23  36  60  91 117 141 178 228 284
#     4   9  15  24  42  67  93 120 152 191 242 298
#     4   9  17  28  43  67  98 126 157 199 249 298
#     4  10  19  30  48  72  99 132 167 203 247 300
#     4   9  15  26  46  69  94 122 152 198 262 311
#     4   9  17  28  44  67  95 125 158 199 247 298
#     4  10  18  28  45  69  98 127 157 198 250 299
#
# _framework density 27.515412999999999
#
# number of rings (size 3 to 8) (size 9 to 14) (size 15 to 20)
#    0.000    2.857    0.000    4.714    0.000    9.143 
#    0.000    0.000    0.000   14.571    0.000    0.000 
#    0.000   29.714    0.000    0.000    0.000    1.429 
#
# Total GULP energy -312288.853324 kJ/mol
# GULP energy per Si atom -5576.586667 kJ/mol
# Density = 2.745279 g / cm^3
# Si number density = 27.515413 Si / 1000 Ang^3
#
#
#
# Elastic Constant Matrix: (Units=GPa)
#
#
# Indices 1 2 3 4 5 6 
#
# 1 250.9290 37.0127 36.8192 0.0000 0.0000 0.0000
# 2 37.0127 112.1614 29.1845 0.0000 0.0000 0.0000
# 3 36.8192 29.1845 85.4000 0.0000 0.0000 0.0000
# 4 0.0000 0.0000 0.0000 12.5345 0.0000 0.0000
# 5 0.0000 0.0000 0.0000 0.0000 -109.9765 0.0000
# 6 0.0000 0.0000 0.0000 0.0000 0.0000 -4.6896
#
#
#
# Elastic Compliance Matrix: (Units=1/GPa)
#
#
# Indices 1 2 3 4 5 6 
#
# 1 0.004363 -0.001043 -0.001525 0.000000 0.000000 0.000000
# 2 -0.001043 0.010035 -0.002980 0.000000 0.000000 0.000000
# 3 -0.001525 -0.002980 0.013385 0.000000 0.000000 0.000000
# 4 0.000000 0.000000 0.000000 0.079780 0.000000 0.000000
# 5 0.000000 0.000000 0.000000 0.000000 -0.009093 0.000000
# 6 0.000000 0.000000 0.000000 0.000000 0.000000 -0.213239
#
#
# Mechanical properties :
#
#
# Convention : Reuss Voigt Hill
#
# Bulk Modulus (GPa) = 59.92105 72.72479 66.32292
# Shear Modulus (GPa) = -50.96224 2.60528 -24.17848
#
# Velocity S-wave (km/s) = -4.30831 0.97411 -2.96755
# Velocity P-wave (km/s) = 1.71003 5.26813 3.52342
#
# Compressibility (1/GPa) = 0.01668863
#
# Stress axis : x y z
#
# Youngs Moduli (GPa) = 229.21430 99.64879 74.70956
#
# Poissons Ratio (x) = 0.10393 0.11390
# Poissons Ratio (y) = 0.23907 0.22262
# Poissons Ratio (z) = 0.34944 0.29693
#
# Static dielectric constant tensor:
#      x y z
#    x 2.367660 0.000000 0.000000 
#    y 0.000000 2.239760 0.000000 
#    z 0.000000 0.000000 2.244530 
# 
# From -- ./inp_files/27392.got.cif
#   From: 2010.05.17/outbox.cif.g08.bks.cpg/sg52_14_cif.got.tgz:27392.got - 2010.06.03 12:15:38.
