data_PCOD9408539
_publ_section_title
;
Structure prediction by ZEFSAII (Michael W. Deem and Ramdas Pophale) SiO2 
 PCOD9408539
Probable space group: P N N A
;
_chemical_formula_sum "Si O2"
_cell_formula_units_Z 60
_cell_length_a 13.856828
_cell_length_b 24.610199
_cell_length_c 8.867918
_cell_angle_alpha 90.000000
_cell_angle_beta 90.000000
_cell_angle_gamma 90.000000
_cell_volume 3024.131141
_symmetry_space_group_name_H-M "P N N A"
_symmetry_group_IT_number 52
_symmetry_cell_setting 'orthorhombic'
loop_
_space_group_symop_operation_xyz
x,y,z
1/2-x,-y,z
x,1/2-y,1/2-z
1/2-x,1/2+y,1/2-z
-x,-y,-z
1/2+x,y,-z
-x,1/2+y,1/2+z
1/2+x,1/2-y,1/2+z
loop_
_atom_site_type_symbol
_atom_site_label
_atom_site_fract_x
_atom_site_fract_y
_atom_site_fract_z
Si Si1 0.117155 0.250000 0.250000
Si Si2 0.842731 0.574061 0.764470
Si Si3 0.382750 0.449835 0.245226
Si Si4 0.212796 0.167763 0.045381
Si Si5 0.597265 0.186586 0.219272
Si Si6 0.007317 0.116414 0.516564
Si Si7 0.568638 0.810587 0.292020
Si Si8 0.925097 0.141092 0.970799
O O1 0.175255 0.223425 0.116244
O O2 0.043735 0.205649 0.312736
O O3 0.727436 0.567843 0.798931
O O4 0.878243 0.513759 0.723602
O O5 0.840493 0.617486 0.627573
O O6 0.915291 0.593611 0.895889
O O7 0.454431 0.430885 0.112332
O O8 0.419559 0.418080 0.395188
O O9 0.324580 0.166256 0.082726
O O10 0.192585 0.166387 0.867405
O O11 0.604301 0.250000 0.250000
O O12 0.566207 0.153110 0.364564
O O13 0.513369 0.174702 0.096981
O O14 0.920876 0.153209 0.441324
O O15 0.612358 0.750000 0.250000
O O16 0.575728 0.850169 0.149264
#
# Coordination Sequence:
#
# PCOD9408539 Si02
#       8
#     4   8   8   8   8   8   8   8
#     4  10  18  36  58  80 108 158 182 218 290 328
#     4  10  19  41  58  79 113 152 185 239 284 334
#     4   9  22  36  59  84 110 144 196 237 283 330
#     4  11  22  37  61  82 113 153 193 225 281 345
#     4  11  22  38  53  87 120 145 185 238 275 334
#     4  11  20  35  60  83 115 150 187 231 286 340
#     4  10  19  37  58  78 117 152 180 226 286 332
#     4  10  21  38  57  85 110 149 195 230 275 339
#
# _framework density 19.840409999999999
#
# number of rings (size 3 to 8) (size 9 to 14) (size 15 to 20)
#    0.400    1.333    2.667    2.000    0.933    1.600 
#    2.400    7.333    0.000    3.200    0.000    0.000 
#    0.000    0.000    0.000    0.000    0.000    0.000 
#
# Total GULP energy -334109.600286 kJ/mol
# GULP energy per Si atom -5568.493338 kJ/mol
# Density = 1.979525 g / cm^3
# Si number density = 19.840410 Si / 1000 Ang^3
#
#
#
# Elastic Constant Matrix: (Units=GPa)
#
#
# Indices 1 2 3 4 5 6 
#
# 1 40.4990 28.9094 6.9748 0.0000 0.0000 0.0000
# 2 28.9094 91.3031 35.0074 0.0000 0.0000 0.0000
# 3 6.9748 35.0074 82.5115 0.0000 0.0000 0.0000
# 4 0.0000 0.0000 0.0000 12.3418 0.0000 0.0000
# 5 0.0000 0.0000 0.0000 0.0000 13.5068 0.0000
# 6 0.0000 0.0000 0.0000 0.0000 0.0000 10.8246
#
#
#
# Elastic Compliance Matrix: (Units=1/GPa)
#
#
# Indices 1 2 3 4 5 6 
#
# 1 0.032153 -0.010914 0.001913 0.000000 0.000000 0.000000
# 2 -0.010914 0.016785 -0.006199 0.000000 0.000000 0.000000
# 3 0.001913 -0.006199 0.014588 0.000000 0.000000 0.000000
# 4 0.000000 0.000000 0.000000 0.081025 0.000000 0.000000
# 5 0.000000 0.000000 0.000000 0.000000 0.074037 0.000000
# 6 0.000000 0.000000 0.000000 0.000000 0.000000 0.092382
#
#
# Mechanical properties :
#
#
# Convention : Reuss Voigt Hill
#
# Bulk Modulus (GPa) = 30.18816 39.56632 34.87724
# Shear Modulus (GPa) = 14.18789 16.89611 15.54200
#
# Velocity S-wave (km/s) = 2.67704 2.92139 2.80188
# Velocity P-wave (km/s) = 4.98035 5.60044 5.29947
#
# Compressibility (1/GPa) = 0.03312557
#
# Stress axis : x y z
#
# Youngs Moduli (GPa) = 31.10086 59.57689 68.55020
#
# Poissons Ratio (x) = 0.65023 -0.13111
# Poissons Ratio (y) = 0.33944 0.42493
# Poissons Ratio (z) = -0.05948 0.36931
#
# Static dielectric constant tensor:
#      x y z
#    x 1.735400 0.000000 0.000000 
#    y 0.000000 1.707420 0.000000 
#    z 0.000000 0.000000 1.734600 
# 
# From -- ./inp_files/10951.got.cif
#   From: 2010.05.17/outbox.cif.g08.bks.cpg/sg52_6_cif.got.tgz:10951.got - 2010.06.03 12:15:38.
