data_PCOD9408366
_publ_section_title
;
Structure prediction by ZEFSAII (Michael W. Deem and Ramdas Pophale) SiO2 
 PCOD9408366
Probable space group: P N N A
;
_chemical_formula_sum "Si O2"
_cell_formula_units_Z 60
_cell_length_a 8.885533
_cell_length_b 26.122889
_cell_length_c 10.763815
_cell_angle_alpha 90.000000
_cell_angle_beta 90.000000
_cell_angle_gamma 90.000000
_cell_volume 2498.451447
_symmetry_space_group_name_H-M "P N N A"
_symmetry_group_IT_number 52
_symmetry_cell_setting 'orthorhombic'
loop_
_space_group_symop_operation_xyz
x,y,z
1/2-x,-y,z
x,1/2-y,1/2-z
1/2-x,1/2+y,1/2-z
-x,-y,-z
1/2+x,y,-z
-x,1/2+y,1/2+z
1/2+x,1/2-y,1/2+z
loop_
_atom_site_type_symbol
_atom_site_label
_atom_site_fract_x
_atom_site_fract_y
_atom_site_fract_z
Si Si1 0.744703 0.836972 0.894920
Si Si2 0.613398 0.432126 0.070708
Si Si3 0.690347 0.945512 0.210174
Si Si4 0.568732 0.134444 0.107733
Si Si5 0.117892 0.250000 0.250000
Si Si6 0.082860 0.315380 0.855791
Si Si7 0.125335 0.740271 0.964379
Si Si8 0.906254 0.519614 0.804772
O O1 0.609158 0.877213 0.875360
O O2 0.790631 0.801754 0.779319
O O3 0.892070 0.856663 0.964713
O O4 0.678256 0.796236 0.994771
O O5 0.771411 0.440442 0.142080
O O6 0.569813 0.373661 0.094740
O O7 0.500334 0.470654 0.142719
O O8 0.626374 0.446791 0.927585
O O9 0.798471 0.903704 0.150093
O O10 0.511004 0.949034 0.209677
O O11 0.750000 0.000000 0.164372
O O12 0.584807 0.181316 0.206198
O O13 0.010273 0.258262 0.132772
O O14 0.236968 0.291005 0.906005
O O15 0.944048 0.285508 0.913745
O O16 0.750000 0.500000 0.750950
#
# Coordination Sequence:
#
# PCOD9408366 Si02
#       8
#     8   8   8   8   4   8   8   8
#     4  12  24  47  70  96 129 176 232 282 347 392
#     4   9  19  34  56  91 139 182 222 269 336 403
#     4   9  20  41  61  91 135 174 215 282 348 393
#     4  11  25  45  70  95 131 177 229 283 333 415
#     4  12  24  44  72  98 136 176 230 288 336 412
#     4  11  25  39  64 100 140 179 220 275 338 412
#     4  12  24  43  65  99 136 177 220 280 341 406
#     4  10  18  32  61  94 133 182 225 273 332 405
#
# _framework density 24.014875
#
# number of rings (size 3 to 8) (size 9 to 14) (size 15 to 20)
#    0.000    1.333    2.667    3.600    5.600    1.067 
#    0.000    4.667    0.000    0.000    0.000    0.000 
#    0.000    0.000    0.000    0.000    0.000    0.000 
#
# Total GULP energy -335501.390529 kJ/mol
# GULP energy per Si atom -5591.689842 kJ/mol
# Density = 2.396022 g / cm^3
# Si number density = 24.014875 Si / 1000 Ang^3
#
#
#
# Elastic Constant Matrix: (Units=GPa)
#
#
# Indices 1 2 3 4 5 6 
#
# 1 88.9077 -6.5889 18.6480 0.0000 0.0000 0.0000
# 2 -6.5889 55.3040 12.1076 0.0000 0.0000 0.0000
# 3 18.6480 12.1076 61.6793 0.0000 0.0000 0.0000
# 4 0.0000 0.0000 0.0000 15.4323 0.0000 0.0000
# 5 0.0000 0.0000 0.0000 0.0000 47.4580 0.0000
# 6 0.0000 0.0000 0.0000 0.0000 0.0000 34.4577
#
#
#
# Elastic Compliance Matrix: (Units=1/GPa)
#
#
# Indices 1 2 3 4 5 6 
#
# 1 0.012302 0.002382 -0.004187 0.000000 0.000000 0.000000
# 2 0.002382 0.019355 -0.004520 0.000000 0.000000 0.000000
# 3 -0.004187 -0.004520 0.018366 0.000000 0.000000 0.000000
# 4 0.000000 0.000000 0.000000 0.064799 0.000000 0.000000
# 5 0.000000 0.000000 0.000000 0.000000 0.021071 0.000000
# 6 0.000000 0.000000 0.000000 0.000000 0.000000 0.029021
#
#
# Mechanical properties :
#
#
# Convention : Reuss Voigt Hill
#
# Bulk Modulus (GPa) = 26.75603 28.24714 27.50159
# Shear Modulus (GPa) = 26.31272 31.58456 28.94864
#
# Velocity S-wave (km/s) = 3.31370 3.63051 3.47572
# Velocity P-wave (km/s) = 5.08001 5.41868 5.25207
#
# Compressibility (1/GPa) = 0.03737475
#
# Stress axis : x y z
#
# Youngs Moduli (GPa) = 81.28492 51.66576 54.44837
#
# Poissons Ratio (x) = -0.12309 0.22798
# Poissons Ratio (y) = -0.19365 0.24609
# Poissons Ratio (z) = 0.34035 0.23351
#
# Static dielectric constant tensor:
#      x y z
#    x 1.985630 0.000000 0.000000 
#    y 0.000000 1.927930 0.000000 
#    z 0.000000 0.000000 1.942680 
# 
# From -- ./inp_files/17129.got.cif
#   From: 2010.05.17/outbox.cif.g08.bks.cpg/sg52_9_cif.got.tgz:17129.got - 2010.06.03 12:15:38.
