data_PCOD9408841
_publ_section_title
;
Structure prediction by ZEFSAII (Michael W. Deem and Ramdas Pophale) SiO2 
 PCOD9408841
Probable space group: P N N A
;
_chemical_formula_sum "Si O2"
_cell_formula_units_Z 48
_cell_length_a 17.084070
_cell_length_b 16.722460
_cell_length_c 8.949081
_cell_angle_alpha 90.000000
_cell_angle_beta 90.000000
_cell_angle_gamma 90.000000
_cell_volume 2556.642164
_symmetry_space_group_name_H-M "P N N A"
_symmetry_group_IT_number 52
_symmetry_cell_setting 'orthorhombic'
loop_
_space_group_symop_operation_xyz
x,y,z
1/2-x,-y,z
x,1/2-y,1/2-z
1/2-x,1/2+y,1/2-z
-x,-y,-z
1/2+x,y,-z
-x,1/2+y,1/2+z
1/2+x,1/2-y,1/2+z
loop_
_atom_site_type_symbol
_atom_site_label
_atom_site_fract_x
_atom_site_fract_y
_atom_site_fract_z
Si Si1 0.712330 0.415229 0.551569
Si Si2 0.964217 0.748054 0.573063
Si Si3 0.791072 0.748393 0.426635
Si Si4 0.218953 0.838171 0.325792
Si Si5 0.538654 0.838408 0.674378
Si Si6 0.966044 0.916732 0.054538
O O1 0.750000 0.500000 0.518782
O O2 0.747650 0.336858 0.470480
O O3 0.725120 0.394584 0.727120
O O4 0.624218 0.418465 0.492803
O O5 0.958607 0.750000 0.750000
O O6 0.877333 0.751049 0.501139
O O7 0.000303 0.661834 0.528562
O O8 0.011284 0.819777 0.493935
O O9 0.798316 0.750000 0.250000
O O10 0.744744 0.820696 0.504880
O O11 0.224562 0.750000 0.250000
O O12 0.128875 0.864789 0.316007
O O13 0.532327 0.750000 0.750000
O O14 0.484411 0.897169 0.771936
O O15 0.000000 0.000000 0.000000
#
# Coordination Sequence:
#
# PCOD9408841 Si02
#       6
#     8   8   8   8   8   8
#     4  10  19  33  54  79 108 145 185 226 275 330
#     4  10  19  34  56  80 107 145 190 230 276 333
#     4  10  19  34  56  81 108 142 188 233 277 335
#     4   9  18  33  53  77 105 140 183 228 275 326
#     4   9  18  33  53  78 108 141 179 227 276 326
#     4  10  19  33  54  79 108 145 184 224 276 332
#
# _framework density 18.774626000000001
#
# number of rings (size 3 to 8) (size 9 to 14) (size 15 to 20)
#    0.000    2.333    0.000    6.000    0.000    2.000 
#    0.000    1.667    0.000    2.000    0.000    0.000 
#    0.000    0.000    0.000    0.000    0.000    0.000 
#
# Total GULP energy -267377.961148 kJ/mol
# GULP energy per Si atom -5570.374191 kJ/mol
# Density = 1.873189 g / cm^3
# Si number density = 18.774626 Si / 1000 Ang^3
#
#
#
# Elastic Constant Matrix: (Units=GPa)
#
#
# Indices 1 2 3 4 5 6 
#
# 1 85.6278 28.5794 39.0003 0.0000 0.0000 0.0000
# 2 28.5794 77.0778 34.7562 0.0000 0.0000 0.0000
# 3 39.0003 34.7562 166.2534 0.0000 0.0000 0.0000
# 4 0.0000 0.0000 0.0000 14.4015 0.0000 0.0000
# 5 0.0000 0.0000 0.0000 0.0000 22.2214 0.0000
# 6 0.0000 0.0000 0.0000 0.0000 0.0000 -22.9417
#
#
#
# Elastic Compliance Matrix: (Units=1/GPa)
#
#
# Indices 1 2 3 4 5 6 
#
# 1 0.014184 -0.004150 -0.002460 0.000000 0.000000 0.000000
# 2 -0.004150 0.015538 -0.002275 0.000000 0.000000 0.000000
# 3 -0.002460 -0.002275 0.007067 0.000000 0.000000 0.000000
# 4 0.000000 0.000000 0.000000 0.069437 0.000000 0.000000
# 5 0.000000 0.000000 0.000000 0.000000 0.045002 0.000000
# 6 0.000000 0.000000 0.000000 0.000000 0.000000 -0.043589
#
#
# Mechanical properties :
#
#
# Convention : Reuss Voigt Hill
#
# Bulk Modulus (GPa) = 52.57459 59.29229 55.93344
# Shear Modulus (GPa) = 37.95079 17.84445 27.89762
#
# Velocity S-wave (km/s) = 4.50086 3.08629 3.85895
# Velocity P-wave (km/s) = 7.42119 6.65957 7.05067
#
# Compressibility (1/GPa) = 0.01902060
#
# Stress axis : x y z
#
# Youngs Moduli (GPa) = 70.50248 64.35640 141.49281
#
# Poissons Ratio (x) = 0.26708 0.34803
# Poissons Ratio (y) = 0.29259 0.32188
# Poissons Ratio (z) = 0.17342 0.14640
#
# Static dielectric constant tensor:
#      x y z
#    x 1.702790 0.000000 0.000000 
#    y 0.000000 1.664590 0.000000 
#    z 0.000000 0.000000 1.690010 
# 
# From -- ./inp_files/12267.got.cif
#   From: 2010.05.17/outbox.cif.g08.bks.cpg/sg52_7_cif.got.tgz:12267.got - 2010.06.03 12:15:38.
