data_PCOD9408524
_publ_section_title
;
Structure prediction by ZEFSAII (Michael W. Deem and Ramdas Pophale) SiO2 
 PCOD9408524
Probable space group: P N N A
;
_chemical_formula_sum "Si O2"
_cell_formula_units_Z 48
_cell_length_a 17.683043
_cell_length_b 7.795322
_cell_length_c 15.531444
_cell_angle_alpha 90.000000
_cell_angle_beta 90.000000
_cell_angle_gamma 90.000000
_cell_volume 2140.932118
_symmetry_space_group_name_H-M "P N N A"
_symmetry_group_IT_number 52
_symmetry_cell_setting 'orthorhombic'
loop_
_space_group_symop_operation_xyz
x,y,z
1/2-x,-y,z
x,1/2-y,1/2-z
1/2-x,1/2+y,1/2-z
-x,-y,-z
1/2+x,y,-z
-x,1/2+y,1/2+z
1/2+x,1/2-y,1/2+z
loop_
_atom_site_type_symbol
_atom_site_label
_atom_site_fract_x
_atom_site_fract_y
_atom_site_fract_z
Si Si1 0.988317 0.597959 0.320082
Si Si2 0.593288 0.823935 0.437290
Si Si3 0.139067 0.793188 0.104721
Si Si4 0.072117 0.224669 0.517174
Si Si5 0.169098 0.428390 0.108572
Si Si6 0.260286 0.750000 0.250000
Si Si7 0.425790 0.250000 0.750000
O O1 0.984189 0.750000 0.250000
O O2 0.071323 0.594385 0.361596
O O3 0.971951 0.420575 0.273331
O O4 0.934790 0.648669 0.401808
O O5 0.646326 0.712810 0.501941
O O6 0.507708 0.769628 0.465629
O O7 0.615390 0.787665 0.339615
O O8 0.589824 0.030961 0.448286
O O9 0.113394 0.591010 0.113202
O O10 0.209088 0.807656 0.169166
O O11 0.137465 0.230811 0.444725
O O12 0.250000 0.500000 0.072882
O O13 0.185756 0.386636 0.206671
#
# Coordination Sequence:
#
# PCOD9408524 Si02
#       7
#     8   8   8   8   8   4   4
#     4  11  21  38  60  89 129 163 207 263 322 374
#     4   9  19  35  57  86 123 162 212 251 320 380
#     4   9  19  36  59  83 128 168 198 261 321 374
#     4   9  18  36  56  83 126 172 195 262 327 369
#     4   9  19  33  56  92 123 169 212 250 322 384
#     4  10  18  35  62  98 124 165 216 250 316 392
#     4  12  24  33  58  98 116 169 218 250 322 390
#
# _framework density 22.42014
#
# number of rings (size 3 to 8) (size 9 to 14) (size 15 to 20)
#    0.000    2.333    2.500    1.000    0.000    3.333 
#    0.000    5.000    0.000    0.000   19.500    0.000 
#    0.000    0.000    0.000    0.000    0.000    0.000 
#
# Total GULP energy -267457.107057 kJ/mol
# GULP energy per Si atom -5572.023064 kJ/mol
# Density = 2.236911 g / cm^3
# Si number density = 22.420140 Si / 1000 Ang^3
#
#
#
# Elastic Constant Matrix: (Units=GPa)
#
#
# Indices 1 2 3 4 5 6 
#
# 1 35.6757 9.4033 26.1299 0.0000 0.0000 0.0000
# 2 9.4033 86.6461 40.0669 0.0000 0.0000 0.0000
# 3 26.1299 40.0669 183.0851 0.0000 0.0000 0.0000
# 4 0.0000 0.0000 0.0000 45.0753 0.0000 0.0000
# 5 0.0000 0.0000 0.0000 0.0000 25.6333 0.0000
# 6 0.0000 0.0000 0.0000 0.0000 0.0000 14.9516
#
#
#
# Elastic Compliance Matrix: (Units=1/GPa)
#
#
# Indices 1 2 3 4 5 6 
#
# 1 0.031474 -0.001489 -0.004166 0.000000 0.000000 0.000000
# 2 -0.001489 0.012911 -0.002613 0.000000 0.000000 0.000000
# 3 -0.004166 -0.002613 0.006628 0.000000 0.000000 0.000000
# 4 0.000000 0.000000 0.000000 0.022185 0.000000 0.000000
# 5 0.000000 0.000000 0.000000 0.000000 0.039012 0.000000
# 6 0.000000 0.000000 0.000000 0.000000 0.000000 0.066882
#
#
# Mechanical properties :
#
#
# Convention : Reuss Voigt Hill
#
# Bulk Modulus (GPa) = 29.00486 50.73414 39.86950
# Shear Modulus (GPa) = 24.14038 32.45249 28.29644
#
# Velocity S-wave (km/s) = 3.28491 3.80869 3.55646
# Velocity P-wave (km/s) = 5.22997 6.48224 5.88948
#
# Compressibility (1/GPa) = 0.03447698
#
# Stress axis : x y z
#
# Youngs Moduli (GPa) = 31.77213 77.45264 150.86708
#
# Poissons Ratio (x) = 0.11535 0.62852
# Poissons Ratio (y) = 0.04732 0.39421
# Poissons Ratio (z) = 0.13236 0.20238
#
# Static dielectric constant tensor:
#      x y z
#    x 1.855700 0.000000 0.000000 
#    y 0.000000 1.988920 0.000000 
#    z 0.000000 0.000000 1.948360 
# 
# From -- ./inp_files/28655.got.cif
#   From: 2010.05.17/outbox.cif.g08.bks.cpg/sg52_15_cif.got.tgz:28655.got - 2010.06.03 12:15:38.
