data_PCOD9408234
_publ_section_title
;
Structure prediction by ZEFSAII (Michael W. Deem and Ramdas Pophale) SiO2 
 PCOD9408234
Probable space group: P N N A
;
_chemical_formula_sum "Si O2"
_cell_formula_units_Z 52
_cell_length_a 5.677791
_cell_length_b 17.642513
_cell_length_c 27.004982
_cell_angle_alpha 90.000000
_cell_angle_beta 90.000000
_cell_angle_gamma 90.000000
_cell_volume 2705.102591
_symmetry_space_group_name_H-M "P N N A"
_symmetry_group_IT_number 52
_symmetry_cell_setting 'orthorhombic'
loop_
_space_group_symop_operation_xyz
x,y,z
1/2-x,-y,z
x,1/2-y,1/2-z
1/2-x,1/2+y,1/2-z
-x,-y,-z
1/2+x,y,-z
-x,1/2+y,1/2+z
1/2+x,1/2-y,1/2+z
loop_
_atom_site_type_symbol
_atom_site_label
_atom_site_fract_x
_atom_site_fract_y
_atom_site_fract_z
Si Si1 0.565712 0.934229 0.715428
Si Si2 0.028327 0.413217 0.981841
Si Si3 0.785351 0.750000 0.250000
Si Si4 0.545343 0.789916 0.846270
Si Si5 0.582007 0.185652 0.678529
Si Si6 0.310327 0.629648 0.874860
Si Si7 0.496358 0.542041 0.667958
O O1 0.713508 0.857542 0.706814
O O2 0.379066 0.922946 0.671783
O O3 0.486423 0.947195 0.771723
O O4 0.750000 0.000000 0.703399
O O5 0.094223 0.407695 0.924249
O O6 0.266205 0.379709 0.007789
O O7 0.000000 0.500000 0.000000
O O8 0.618318 0.804970 0.280740
O O9 0.936340 0.789203 0.208505
O O10 0.817105 0.765596 0.840120
O O11 0.422282 0.716002 0.871908
O O12 0.509502 0.876921 0.860650
O O13 0.468811 0.142222 0.632123
O O14 0.750000 0.500000 0.659553
O O15 0.250000 0.500000 0.654835
#
# Coordination Sequence:
#
# PCOD9408234 Si02
#       7
#     8   8   4   8   8   8   8
#     4  10  23  32  52  80 117 155 213 255 286 350
#     4  10  24  42  63  88 120 156 189 249 303 366
#     4  10  18  30  56  72 106 152 204 246 302 320
#     4  10  21  36  54  78 112 153 207 252 290 368
#     4  10  20  34  54  78 110 156 212 251 295 349
#     4  10  23  37  62  81 109 163 205 248 304 359
#     4  11  25  38  54  83 121 162 198 253 311 340
#
# _framework density 19.222929000000001
#
# number of rings (size 3 to 8) (size 9 to 14) (size 15 to 20)
#    0.000    1.846    0.000    4.154   19.385    1.231 
#    0.000    0.000    0.000    0.000    0.000    0.000 
#    0.000    3.692    0.000    0.000    0.000    0.000 
#
# Total GULP energy -289505.265765 kJ/mol
# GULP energy per Si atom -5567.408957 kJ/mol
# Density = 1.917918 g / cm^3
# Si number density = 19.222929 Si / 1000 Ang^3
#
#
#
# Elastic Constant Matrix: (Units=GPa)
#
#
# Indices 1 2 3 4 5 6 
#
# 1 100.5653 23.2697 15.7012 0.0000 0.0000 0.0000
# 2 23.2697 105.0244 13.2307 0.0000 0.0000 0.0000
# 3 15.7012 13.2307 39.8404 0.0000 0.0000 0.0000
# 4 0.0000 0.0000 0.0000 15.6213 0.0000 0.0000
# 5 0.0000 0.0000 0.0000 0.0000 9.4932 0.0000
# 6 0.0000 0.0000 0.0000 0.0000 0.0000 22.4030
#
#
#
# Elastic Compliance Matrix: (Units=1/GPa)
#
#
# Indices 1 2 3 4 5 6 
#
# 1 0.010972 -0.001969 -0.003670 0.000000 0.000000 0.000000
# 2 -0.001969 0.010291 -0.002642 0.000000 0.000000 0.000000
# 3 -0.003670 -0.002642 0.027424 0.000000 0.000000 0.000000
# 4 0.000000 0.000000 0.000000 0.064015 0.000000 0.000000
# 5 0.000000 0.000000 0.000000 0.000000 0.105339 0.000000
# 6 0.000000 0.000000 0.000000 0.000000 0.000000 0.044637
#
#
# Mechanical properties :
#
#
# Convention : Reuss Voigt Hill
#
# Bulk Modulus (GPa) = 31.12795 38.87037 34.99916
# Shear Modulus (GPa) = 17.24450 22.38540 19.81495
#
# Velocity S-wave (km/s) = 2.99838 3.41620 3.21409
# Velocity P-wave (km/s) = 5.31181 5.98543 5.65865
#
# Compressibility (1/GPa) = 0.03212547
#
# Stress axis : x y z
#
# Youngs Moduli (GPa) = 91.13783 97.17641 36.46455
#
# Poissons Ratio (x) = 0.19131 0.13384
# Poissons Ratio (y) = 0.17942 0.09632
# Poissons Ratio (z) = 0.33452 0.25670
#
# Static dielectric constant tensor:
#      x y z
#    x 1.734000 0.000000 0.000000 
#    y 0.000000 1.771950 0.000000 
#    z 0.000000 0.000000 1.655450 
# 
# From -- ./inp_files/41792.got.cif
#   From: 2010.05.17/outbox.cif.g08.bks.cpg/sg52_21_cif.got.tgz:41792.got - 2010.06.03 12:15:38.
