data_PCOD9408522
_publ_section_title
;
Structure prediction by ZEFSAII (Michael W. Deem and Ramdas Pophale) SiO2 
 PCOD9408522
Probable space group: P N N A
;
_chemical_formula_sum "Si O2"
_cell_formula_units_Z 64
_cell_length_a 8.863211
_cell_length_b 15.171402
_cell_length_c 24.771651
_cell_angle_alpha 90.000000
_cell_angle_beta 90.000000
_cell_angle_gamma 90.000000
_cell_volume 3330.977945
_symmetry_space_group_name_H-M "P N N A"
_symmetry_group_IT_number 52
_symmetry_cell_setting 'orthorhombic'
loop_
_space_group_symop_operation_xyz
x,y,z
1/2-x,-y,z
x,1/2-y,1/2-z
1/2-x,1/2+y,1/2-z
-x,-y,-z
1/2+x,y,-z
-x,1/2+y,1/2+z
1/2+x,1/2-y,1/2+z
loop_
_atom_site_type_symbol
_atom_site_label
_atom_site_fract_x
_atom_site_fract_y
_atom_site_fract_z
Si Si1 0.657467 0.275251 0.692733
Si Si2 0.624650 0.569600 0.733597
Si Si3 0.417682 0.150255 0.342041
Si Si4 0.331136 0.091195 0.454968
Si Si5 0.928065 0.478810 0.618105
Si Si6 0.911369 0.698400 0.401581
Si Si7 0.056752 0.205898 0.484561
Si Si8 0.431244 0.158381 0.898368
O O1 0.585875 0.250000 0.750000
O O2 0.782385 0.349518 0.706999
O O3 0.753786 0.193361 0.670178
O O4 0.536493 0.310462 0.651003
O O5 0.750000 0.500000 0.752914
O O6 0.537368 0.603091 0.786229
O O7 0.538998 0.526643 0.682813
O O8 0.402382 0.089565 0.394997
O O9 0.526316 0.230177 0.359170
O O10 0.206323 0.168900 0.456445
O O11 0.452961 0.122785 0.498781
O O12 0.250000 0.000000 0.467724
O O13 0.750000 0.500000 0.612703
O O14 0.975026 0.384111 0.595386
O O15 0.020466 0.557748 0.591157
O O16 0.905119 0.746316 0.459275
O O17 0.745441 0.665362 0.386612
O O18 0.972275 0.275627 0.446917
#
# Coordination Sequence:
#
# PCOD9408522 Si02
#       8
#     8   8   8   8   8   8   8   8
#     4  10  19  35  60  87 115 165 203 248 305 365
#     4  10  18  35  62  95 116 154 208 260 291 366
#     4  10  20  36  64  90 123 157 213 248 308 374
#     4  11  22  40  64  93 117 162 204 262 309 366
#     4  11  22  38  65  90 121 161 211 257 304 370
#     4  11  24  40  60  94 124 166 206 257 318 366
#     4  11  24  41  63  89 125 162 208 255 308 374
#     4  12  22  41  62  88 131 161 200 262 313 371
#
# _framework density 19.213576
#
# number of rings (size 3 to 8) (size 9 to 14) (size 15 to 20)
#    0.000    1.250    6.250    1.125    1.750    0.500 
#    2.250    0.000    0.000    0.000    0.000    0.000 
#    0.000    0.000    0.000    0.000    0.000    0.000 
#
# Total GULP energy -357284.871916 kJ/mol
# GULP energy per Si atom -5582.576124 kJ/mol
# Density = 1.916984 g / cm^3
# Si number density = 19.213576 Si / 1000 Ang^3
#
#
#
# Elastic Constant Matrix: (Units=GPa)
#
#
# Indices 1 2 3 4 5 6 
#
# 1 54.2450 -0.5232 14.9871 0.0000 0.0000 0.0000
# 2 -0.5232 57.8013 19.7887 0.0000 0.0000 0.0000
# 3 14.9871 19.7887 77.1799 0.0000 0.0000 0.0000
# 4 0.0000 0.0000 0.0000 23.1192 0.0000 0.0000
# 5 0.0000 0.0000 0.0000 0.0000 18.1320 0.0000
# 6 0.0000 0.0000 0.0000 0.0000 0.0000 26.9892
#
#
#
# Elastic Compliance Matrix: (Units=1/GPa)
#
#
# Indices 1 2 3 4 5 6 
#
# 1 0.019618 0.001624 -0.004226 0.000000 0.000000 0.000000
# 2 0.001624 0.019100 -0.005213 0.000000 0.000000 0.000000
# 3 -0.004226 -0.005213 0.015114 0.000000 0.000000 0.000000
# 4 0.000000 0.000000 0.000000 0.043254 0.000000 0.000000
# 5 0.000000 0.000000 0.000000 0.000000 0.055151 0.000000
# 6 0.000000 0.000000 0.000000 0.000000 0.000000 0.037052
#
#
# Mechanical properties :
#
#
# Convention : Reuss Voigt Hill
#
# Bulk Modulus (GPa) = 26.17564 28.63682 27.40623
# Shear Modulus (GPa) = 22.97245 23.97965 23.47605
#
# Velocity S-wave (km/s) = 3.46155 3.53662 3.49928
# Velocity P-wave (km/s) = 5.44330 5.62261 5.53368
#
# Compressibility (1/GPa) = 0.03820345
#
# Stress axis : x y z
#
# Youngs Moduli (GPa) = 50.97330 52.35627 66.16446
#
# Poissons Ratio (x) = -0.08505 0.27961
# Poissons Ratio (y) = -0.08280 0.34489
# Poissons Ratio (z) = 0.21541 0.27291
#
# Static dielectric constant tensor:
#      x y z
#    x 1.655750 0.000000 0.000000 
#    y 0.000000 1.700370 0.000000 
#    z 0.000000 0.000000 1.686040 
# 
# From -- ./inp_files/39659.got.cif
#   From: 2010.05.17/outbox.cif.g08.bks.cpg/sg52_20_cif.got.tgz:39659.got - 2010.06.03 12:15:38.
