data_PCOD9408287
_publ_section_title
;
Structure prediction by ZEFSAII (Michael W. Deem and Ramdas Pophale) SiO2 
 PCOD9408287
Probable space group: P N N A
;
_chemical_formula_sum "Si O2"
_cell_formula_units_Z 40
_cell_length_a 17.892209
_cell_length_b 5.322698
_cell_length_c 19.474466
_cell_angle_alpha 90.000000
_cell_angle_beta 90.000000
_cell_angle_gamma 90.000000
_cell_volume 1854.647363
_symmetry_space_group_name_H-M "P N N A"
_symmetry_group_IT_number 52
_symmetry_cell_setting 'orthorhombic'
loop_
_space_group_symop_operation_xyz
x,y,z
1/2-x,-y,z
x,1/2-y,1/2-z
1/2-x,1/2+y,1/2-z
-x,-y,-z
1/2+x,y,-z
-x,1/2+y,1/2+z
1/2+x,1/2-y,1/2+z
loop_
_atom_site_type_symbol
_atom_site_label
_atom_site_fract_x
_atom_site_fract_y
_atom_site_fract_z
Si Si1 0.169748 0.914488 0.974595
Si Si2 0.146064 0.499352 0.213710
Si Si3 0.987979 0.364708 0.426257
Si Si4 0.369064 0.917802 0.441372
Si Si5 0.517908 0.001953 0.226037
O O1 0.162373 0.648414 0.014203
O O2 0.250000 0.000000 0.945800
O O3 0.153396 0.147199 0.027210
O O4 0.101944 0.874540 0.921377
O O5 0.172778 0.750000 0.250000
O O6 0.160579 0.471278 0.134068
O O7 0.056556 0.502473 0.226682
O O8 0.172841 0.250000 0.250000
O O9 0.009465 0.491493 0.353359
O O10 0.000000 0.500000 0.500000
O O11 0.039954 0.115846 0.433663
O O12 0.560044 0.250000 0.250000
O O13 0.558614 0.750000 0.250000
#
# Coordination Sequence:
#
# PCOD9408287 Si02
#       5
#     8   8   8   8   8
#     4  11  25  41  61  87 132 170 208 263 326 381
#     4  10  18  31  57  87 123 149 191 255 327 358
#     4  10  22  38  64  99 119 161 220 267 310 384
#     4  11  21  39  64  92 119 162 218 264 311 385
#     4  10  20  33  56  90 130 148 191 259 336 358
#
# _framework density 21.567443000000001
#
# number of rings (size 3 to 8) (size 9 to 14) (size 15 to 20)
#    0.000    1.600    4.000    2.400    8.400    3.200 
#    0.000    0.000    0.000   13.200    0.000    0.000 
#    0.000    0.000    0.000    0.000    0.000    0.000 
#
# Total GULP energy -222715.244705 kJ/mol
# GULP energy per Si atom -5567.881118 kJ/mol
# Density = 2.151835 g / cm^3
# Si number density = 21.567443 Si / 1000 Ang^3
#
#
#
# Elastic Constant Matrix: (Units=GPa)
#
#
# Indices 1 2 3 4 5 6 
#
# 1 115.6597 5.6753 -9.9566 0.0000 0.0000 0.0000
# 2 5.6753 172.7311 16.4385 0.0000 0.0000 0.0000
# 3 -9.9566 16.4385 77.6514 0.0000 0.0000 0.0000
# 4 0.0000 0.0000 0.0000 24.6189 0.0000 0.0000
# 5 0.0000 0.0000 0.0000 0.0000 -26.0595 0.0000
# 6 0.0000 0.0000 0.0000 0.0000 0.0000 24.0651
#
#
#
# Elastic Compliance Matrix: (Units=1/GPa)
#
#
# Indices 1 2 3 4 5 6 
#
# 1 0.008770 -0.000403 0.001210 0.000000 0.000000 0.000000
# 2 -0.000403 0.005927 -0.001306 0.000000 0.000000 0.000000
# 3 0.001210 -0.001306 0.013310 0.000000 0.000000 0.000000
# 4 0.000000 0.000000 0.000000 0.040619 0.000000 0.000000
# 5 0.000000 0.000000 0.000000 0.000000 -0.038374 0.000000
# 6 0.000000 0.000000 0.000000 0.000000 0.000000 0.041554
#
#
# Mechanical properties :
#
#
# Convention : Reuss Voigt Hill
#
# Bulk Modulus (GPa) = 37.02741 43.37296 40.20019
# Shear Modulus (GPa) = 61.11868 28.11724 44.61796
#
# Velocity S-wave (km/s) = 5.32916 3.61458 4.55330
# Velocity P-wave (km/s) = 7.42105 6.12979 6.80611
#
# Compressibility (1/GPa) = 0.02700702
#
# Stress axis : x y z
#
# Youngs Moduli (GPa) = 114.02514 168.72154 75.13283
#
# Poissons Ratio (x) = 0.06804 -0.09090
# Poissons Ratio (y) = 0.04599 0.09815
# Poissons Ratio (z) = -0.13796 0.22042
#
# Static dielectric constant tensor:
#      x y z
#    x 1.933680 0.000000 0.000000 
#    y 0.000000 1.828740 0.000000 
#    z 0.000000 0.000000 1.763690 
# 
# From -- ./inp_files/33437.got.cif
#   From: 2010.05.17/outbox.cif.g08.bks.cpg/sg52_17_cif.got.tgz:33437.got - 2010.06.03 12:15:38.
