data_PCOD9408259
_publ_section_title
;
Structure prediction by ZEFSAII (Michael W. Deem and Ramdas Pophale) SiO2 
 PCOD9408259
Probable space group: P N N A
;
_chemical_formula_sum "Si O2"
_cell_formula_units_Z 40
_cell_length_a 8.684466
_cell_length_b 10.605613
_cell_length_c 23.262386
_cell_angle_alpha 90.000000
_cell_angle_beta 90.000000
_cell_angle_gamma 90.000000
_cell_volume 2142.560789
_symmetry_space_group_name_H-M "P N N A"
_symmetry_group_IT_number 52
_symmetry_cell_setting 'orthorhombic'
loop_
_space_group_symop_operation_xyz
x,y,z
1/2-x,-y,z
x,1/2-y,1/2-z
1/2-x,1/2+y,1/2-z
-x,-y,-z
1/2+x,y,-z
-x,1/2+y,1/2+z
1/2+x,1/2-y,1/2+z
loop_
_atom_site_type_symbol
_atom_site_label
_atom_site_fract_x
_atom_site_fract_y
_atom_site_fract_z
Si Si1 0.278909 0.213568 0.019779
Si Si2 0.538057 0.107916 0.453635
Si Si3 0.886761 0.248144 0.187474
Si Si4 0.750000 0.500000 0.143098
Si Si5 0.997838 0.386857 0.420236
Si Si6 0.750000 0.500000 0.351144
O O1 0.388267 0.306080 0.056299
O O2 0.169760 0.122145 0.056367
O O3 0.166955 0.302338 0.982066
O O4 0.389645 0.145137 0.974399
O O5 0.500000 0.000000 0.500000
O O6 0.611083 0.044301 0.398097
O O7 0.964578 0.250000 0.250000
O O8 0.802779 0.379641 0.178608
O O9 0.986149 0.219002 0.130250
O O10 0.770113 0.128385 0.184130
O O11 0.906131 0.502634 0.390213
#
# Coordination Sequence:
#
# PCOD9408259 Si02
#       6
#     8   8   8   4   8   4
#     4  10  18  31  50  80 119 143 180 227 284 347
#     4  11  17  28  48  82 118 143 175 230 277 350
#     4  10  20  36  55  78 106 144 194 244 284 336
#     4  12  19  32  56  84 108 146 195 230 300 324
#     4   9  19  34  53  81 108 153 182 231 287 344
#     4   8  19  36  50  78 110 142 199 230 282 348
#
# _framework density 18.669249000000001
#
# number of rings (size 3 to 8) (size 9 to 14) (size 15 to 20)
#    1.200    0.800    4.000    1.800    0.000    0.800 
#    0.000    0.000    0.000    1.200    0.000    8.400 
#    0.000    0.000    0.000    0.000    0.000    0.000 
#
# Total GULP energy -222691.453677 kJ/mol
# GULP energy per Si atom -5567.286342 kJ/mol
# Density = 1.862676 g / cm^3
# Si number density = 18.669249 Si / 1000 Ang^3
#
#
#
# Elastic Constant Matrix: (Units=GPa)
#
#
# Indices 1 2 3 4 5 6 
#
# 1 100.5770 32.5287 33.4096 0.0000 0.0000 0.0000
# 2 32.5287 87.0066 25.9911 0.0000 0.0000 0.0000
# 3 33.4096 25.9911 99.4898 0.0000 0.0000 0.0000
# 4 0.0000 0.0000 0.0000 929.2731 0.0000 0.0000
# 5 0.0000 0.0000 0.0000 0.0000 -2.6238 0.0000
# 6 0.0000 0.0000 0.0000 0.0000 0.0000 19.3698
#
#
#
# Elastic Compliance Matrix: (Units=1/GPa)
#
#
# Indices 1 2 3 4 5 6 
#
# 1 0.012151 -0.003605 -0.003139 0.000000 0.000000 0.000000
# 2 -0.003605 0.013536 -0.002325 0.000000 0.000000 0.000000
# 3 -0.003139 -0.002325 0.011713 0.000000 0.000000 0.000000
# 4 0.000000 0.000000 0.000000 0.001076 0.000000 0.000000
# 5 0.000000 0.000000 0.000000 0.000000 -0.381120 0.000000
# 6 0.000000 0.000000 0.000000 0.000000 0.000000 0.051627
#
#
# Mechanical properties :
#
#
# Convention : Reuss Voigt Hill
#
# Bulk Modulus (GPa) = 51.91811 52.32581 52.12196
# Shear Modulus (GPa) = -18.76471 202.21341 91.72435
#
# Velocity S-wave (km/s) = -3.17379 10.41867 7.01697
# Velocity P-wave (km/s) = 3.79989 13.14612 9.67625
#
# Compressibility (1/GPa) = 0.01926110
#
# Stress axis : x y z
#
# Youngs Moduli (GPa) = 82.29600 73.87730 85.37681
#
# Poissons Ratio (x) = 0.26635 0.26797
# Poissons Ratio (y) = 0.29670 0.19854
# Poissons Ratio (z) = 0.25830 0.17180
#
# Static dielectric constant tensor:
#      x y z
#    x 1.643280 0.000000 0.000000 
#    y 0.000000 1.691600 0.000000 
#    z 0.000000 0.000000 1.824860 
# 
# From -- ./inp_files/42197.got.cif
#   From: 2010.05.17/outbox.cif.g08.bks.cpg/sg52_22_cif.got.tgz:42197.got - 2010.06.03 12:15:38.
