data_PCOD9408417
_publ_section_title
;
Structure prediction by ZEFSAII (Michael W. Deem and Ramdas Pophale) SiO2 
 PCOD9408417
Probable space group: P N N A
;
_chemical_formula_sum "Si O2"
_cell_formula_units_Z 48
_cell_length_a 13.554065
_cell_length_b 15.118123
_cell_length_c 10.529314
_cell_angle_alpha 90.000000
_cell_angle_beta 90.000000
_cell_angle_gamma 90.000000
_cell_volume 2157.583020
_symmetry_space_group_name_H-M "P N N A"
_symmetry_group_IT_number 52
_symmetry_cell_setting 'orthorhombic'
loop_
_space_group_symop_operation_xyz
x,y,z
1/2-x,-y,z
x,1/2-y,1/2-z
1/2-x,1/2+y,1/2-z
-x,-y,-z
1/2+x,y,-z
-x,1/2+y,1/2+z
1/2+x,1/2-y,1/2+z
loop_
_atom_site_type_symbol
_atom_site_label
_atom_site_fract_x
_atom_site_fract_y
_atom_site_fract_z
Si Si1 0.144632 0.540399 0.247868
Si Si2 0.476507 0.919426 0.095398
Si Si3 0.140186 0.978045 0.554452
Si Si4 0.677658 0.233746 0.896693
Si Si5 0.512771 0.356317 0.997811
Si Si6 0.112182 0.697927 0.447103
O O1 0.250000 0.500000 0.290657
O O2 0.151500 0.546233 0.096264
O O3 0.124161 0.628291 0.330700
O O4 0.058145 0.471496 0.280558
O O5 0.381822 0.855938 0.071884
O O6 0.567631 0.853988 0.068776
O O7 0.500000 0.000000 0.000000
O O8 0.074394 0.893712 0.592708
O O9 0.250000 0.000000 0.603401
O O10 0.068261 0.062842 0.567529
O O11 0.704051 0.250000 0.750000
O O12 0.601923 0.311415 0.924407
O O13 0.779300 0.235313 0.971800
O O14 0.462719 0.278321 0.079589
#
# Coordination Sequence:
#
# PCOD9408417 Si02
#       6
#     8   8   8   8   8   8
#     4  10  18  33  60  90 115 147 202 249 285 343
#     4   9  19  34  51  88 120 151 181 240 303 347
#     4  10  21  37  59  86 117 156 202 247 291 350
#     4  11  21  35  60  90 114 146 201 252 290 345
#     4  10  22  35  51  92 119 154 186 250 303 353
#     4  10  21  33  56  90 120 148 188 252 302 346
#
# _framework density 22.247115999999998
#
# number of rings (size 3 to 8) (size 9 to 14) (size 15 to 20)
#    0.000    2.000    1.667    2.000    4.667    0.000 
#    0.000    0.000    0.000    0.000  247.000    0.000 
#    0.000    0.000    0.000    0.000    0.000    0.000 
#
# Total GULP energy -267526.756735 kJ/mol
# GULP energy per Si atom -5573.474099 kJ/mol
# Density = 2.219648 g / cm^3
# Si number density = 22.247116 Si / 1000 Ang^3
#
#
#
# Elastic Constant Matrix: (Units=GPa)
#
#
# Indices 1 2 3 4 5 6 
#
# 1 174.0493 60.4985 25.7038 0.0000 0.0000 0.0000
# 2 60.4985 124.6727 14.9010 0.0000 0.0000 0.0000
# 3 25.7038 14.9010 30.5082 0.0000 0.0000 0.0000
# 4 0.0000 0.0000 0.0000 14.8726 0.0000 0.0000
# 5 0.0000 0.0000 0.0000 0.0000 27.5648 0.0000
# 6 0.0000 0.0000 0.0000 0.0000 0.0000 50.8596
#
#
#
# Elastic Compliance Matrix: (Units=1/GPa)
#
#
# Indices 1 2 3 4 5 6 
#
# 1 0.007529 -0.003075 -0.004842 0.000000 0.000000 0.000000
# 2 -0.003075 0.009774 -0.002183 0.000000 0.000000 0.000000
# 3 -0.004842 -0.002183 0.037924 0.000000 0.000000 0.000000
# 4 0.000000 0.000000 0.000000 0.067238 0.000000 0.000000
# 5 0.000000 0.000000 0.000000 0.000000 0.036278 0.000000
# 6 0.000000 0.000000 0.000000 0.000000 0.000000 0.019662
#
#
# Mechanical properties :
#
#
# Convention : Reuss Voigt Hill
#
# Bulk Modulus (GPa) = 28.54916 59.04852 43.79884
# Shear Modulus (GPa) = 23.77774 33.86786 28.82280
#
# Velocity S-wave (km/s) = 3.27280 3.90596 3.60331
# Velocity P-wave (km/s) = 5.20982 6.85141 6.08621
#
# Compressibility (1/GPa) = 0.03502730
#
# Stress axis : x y z
#
# Youngs Moduli (GPa) = 132.81289 102.31107 26.36876
#
# Poissons Ratio (x) = 0.31461 0.12767
# Poissons Ratio (y) = 0.40840 0.05757
# Poissons Ratio (z) = 0.64305 0.22336
#
# Static dielectric constant tensor:
#      x y z
#    x 1.857270 0.000000 0.000000 
#    y 0.000000 2.041730 0.000000 
#    z 0.000000 0.000000 1.889680 
# 
# From -- ./inp_files/26056.got.cif
#   From: 2010.05.17/outbox.cif.g08.bks.cpg/sg52_14_cif.got.tgz:26056.got - 2010.06.03 12:15:38.
