data_PCOD9408308
_publ_section_title
;
Structure prediction by ZEFSAII (Michael W. Deem and Ramdas Pophale) SiO2 
 PCOD9408308
Probable space group: P N N A
;
_chemical_formula_sum "Si O2"
_cell_formula_units_Z 56
_cell_length_a 28.318917
_cell_length_b 16.420309
_cell_length_c 6.344137
_cell_angle_alpha 90.000000
_cell_angle_beta 90.000000
_cell_angle_gamma 90.000000
_cell_volume 2950.057758
_symmetry_space_group_name_H-M "P N N A"
_symmetry_group_IT_number 52
_symmetry_cell_setting 'orthorhombic'
loop_
_space_group_symop_operation_xyz
x,y,z
1/2-x,-y,z
x,1/2-y,1/2-z
1/2-x,1/2+y,1/2-z
-x,-y,-z
1/2+x,y,-z
-x,1/2+y,1/2+z
1/2+x,1/2-y,1/2+z
loop_
_atom_site_type_symbol
_atom_site_label
_atom_site_fract_x
_atom_site_fract_y
_atom_site_fract_z
Si Si1 0.665947 0.978854 0.757477
Si Si2 0.169873 0.135758 0.494958
Si Si3 0.067370 0.498823 0.424957
Si Si4 0.765758 0.338273 0.736717
Si Si5 0.932290 0.832884 0.638980
Si Si6 0.481026 0.941352 0.684321
Si Si7 0.721424 0.425856 0.373930
O O1 0.698678 0.906217 0.680384
O O2 0.658736 0.043077 0.572561
O O3 0.615855 0.958631 0.858852
O O4 0.693869 0.027733 0.939881
O O5 0.216016 0.162900 0.362697
O O6 0.121791 0.181534 0.439110
O O7 0.186694 0.127487 0.733480
O O8 0.066565 0.410685 0.301288
O O9 0.060735 0.478976 0.671714
O O10 0.024716 0.556866 0.347312
O O11 0.787388 0.250000 0.750000
O O12 0.755698 0.364562 0.496578
O O13 0.948852 0.750000 0.750000
O O14 0.962624 0.861729 0.436436
O O15 0.500000 0.000000 0.500000
O O16 0.750000 0.500000 0.261595
#
# Coordination Sequence:
#
# PCOD9408308 Si02
#       7
#     8   8   8   8   8   8   8
#     4   9  18  32  52  73  99 133 180 222 255 318
#     4  10  18  32  51  74 100 140 175 212 263 323
#     4   9  18  34  56  78 100 139 184 218 268 327
#     4  10  20  32  46  69 107 139 171 220 264 311
#     4  10  20  32  51  82 113 134 166 222 279 326
#     4   9  18  34  56  77 102 137 177 222 268 321
#     4   9  17  30  49  71  93 131 179 217 257 311
#
# _framework density 18.982679999999998
#
# number of rings (size 3 to 8) (size 9 to 14) (size 15 to 20)
#    0.000    2.571    0.000    3.429    0.000    1.143 
#    0.000    1.429    9.429    0.000    0.000    0.000 
#    0.000    0.000    0.000    0.000    0.000    0.000 
#
# Total GULP energy -311905.893991 kJ/mol
# GULP energy per Si atom -5569.748107 kJ/mol
# Density = 1.893947 g / cm^3
# Si number density = 18.982680 Si / 1000 Ang^3
#
#
#
# Elastic Constant Matrix: (Units=GPa)
#
#
# Indices 1 2 3 4 5 6 
#
# 1 61.5165 19.0180 2.4877 0.0000 0.0000 0.0000
# 2 19.0180 65.5334 23.6016 0.0000 0.0000 0.0000
# 3 2.4877 23.6016 57.8317 0.0000 0.0000 0.0000
# 4 0.0000 0.0000 0.0000 20.4629 0.0000 0.0000
# 5 0.0000 0.0000 0.0000 0.0000 20.6316 0.0000
# 6 0.0000 0.0000 0.0000 0.0000 0.0000 15.0222
#
#
#
# Elastic Compliance Matrix: (Units=1/GPa)
#
#
# Indices 1 2 3 4 5 6 
#
# 1 0.017982 -0.005791 0.001590 0.000000 0.000000 0.000000
# 2 -0.005791 0.019754 -0.007813 0.000000 0.000000 0.000000
# 3 0.001590 -0.007813 0.020412 0.000000 0.000000 0.000000
# 4 0.000000 0.000000 0.000000 0.048869 0.000000 0.000000
# 5 0.000000 0.000000 0.000000 0.000000 0.048469 0.000000
# 6 0.000000 0.000000 0.000000 0.000000 0.000000 0.066568
#
#
# Mechanical properties :
#
#
# Convention : Reuss Voigt Hill
#
# Bulk Modulus (GPa) = 29.30864 30.56626 29.93745
# Shear Modulus (GPa) = 19.42095 20.54162 19.98129
#
# Velocity S-wave (km/s) = 3.20204 3.29313 3.24791
# Velocity P-wave (km/s) = 5.39852 5.53144 5.46538
#
# Compressibility (1/GPa) = 0.03411963
#
# Stress axis : x y z
#
# Youngs Moduli (GPa) = 55.61185 50.62366 48.99192
#
# Poissons Ratio (x) = 0.29316 -0.07789
# Poissons Ratio (y) = 0.32204 0.38275
# Poissons Ratio (z) = -0.08841 0.39550
#
# Static dielectric constant tensor:
#      x y z
#    x 1.707750 0.000000 0.000000 
#    y 0.000000 1.743650 0.000000 
#    z 0.000000 0.000000 1.698670 
# 
# From -- ./inp_files/6417.got.cif
#   From: 2010.05.17/outbox.cif.g08.bks.cpg/sg52_4_cif.got.tgz:6417.got - 2010.06.03 12:15:38.
