data_PCOD9408158
_publ_section_title
;
Structure prediction by ZEFSAII (Michael W. Deem and Ramdas Pophale) SiO2 
 PCOD9408158
Probable space group: P N N A
;
_chemical_formula_sum "Si O2"
_cell_formula_units_Z 20
_cell_length_a 4.680592
_cell_length_b 6.905931
_cell_length_c 20.773297
_cell_angle_alpha 90.000000
_cell_angle_beta 90.000000
_cell_angle_gamma 90.000000
_cell_volume 671.472840
_symmetry_space_group_name_H-M "P N N A"
_symmetry_group_IT_number 52
_symmetry_cell_setting 'orthorhombic'
loop_
_space_group_symop_operation_xyz
x,y,z
1/2-x,-y,z
x,1/2-y,1/2-z
1/2-x,1/2+y,1/2-z
-x,-y,-z
1/2+x,y,-z
-x,1/2+y,1/2+z
1/2+x,1/2-y,1/2+z
loop_
_atom_site_type_symbol
_atom_site_label
_atom_site_fract_x
_atom_site_fract_y
_atom_site_fract_z
Si Si1 0.219271 0.265838 0.540166
Si Si2 0.851043 0.250000 0.250000
Si Si3 0.643150 0.793206 0.842763
O O1 0.250000 0.500000 0.544804
O O2 0.537586 0.208152 0.522868
O O3 0.048500 0.194860 0.602359
O O4 0.595547 0.145540 0.209476
O O5 0.084192 0.304056 0.193627
O O6 0.750000 0.000000 0.869095
#
# Coordination Sequence:
#
# PCOD9408158 Si02
#       3
#     8   4   8
#     4  10  18  28  47  74 102 134 160 185 247 323
#     4  10  22  32  48  72  98 138 180 196 236 302
#     4  11  20  34  50  71 107 136 162 208 246 285
#
# _framework density 29.785267999999999
#
# number of rings (size 3 to 8) (size 9 to 14) (size 15 to 20)
#    0.000    1.600    0.000    9.600    0.000    0.000 
#    0.000    0.000    0.000    0.000    0.000    0.000 
#    0.000  403.200    0.000    0.000    0.000    0.000 
#
# Total GULP energy -111339.808257 kJ/mol
# GULP energy per Si atom -5566.990413 kJ/mol
# Density = 2.971748 g / cm^3
# Si number density = 29.785268 Si / 1000 Ang^3
#
#
#
# Elastic Constant Matrix: (Units=GPa)
#
#
# Indices 1 2 3 4 5 6 
#
# 1 258.3755 16.4484 43.5973 0.0000 0.0000 0.0000
# 2 16.4484 83.6943 15.3005 0.0000 0.0000 0.0000
# 3 43.5973 15.3005 66.4713 0.0000 0.0000 0.0000
# 4 0.0000 0.0000 0.0000 25.4340 0.0000 0.0000
# 5 0.0000 0.0000 0.0000 0.0000 76.1149 0.0000
# 6 0.0000 0.0000 0.0000 0.0000 0.0000 6.6940
#
#
#
# Elastic Compliance Matrix: (Units=1/GPa)
#
#
# Indices 1 2 3 4 5 6 
#
# 1 0.004362 -0.000349 -0.002780 0.000000 0.000000 0.000000
# 2 -0.000349 0.012501 -0.002649 0.000000 0.000000 0.000000
# 3 -0.002780 -0.002649 0.017477 0.000000 0.000000 0.000000
# 4 0.000000 0.000000 0.000000 0.039317 0.000000 0.000000
# 5 0.000000 0.000000 0.000000 0.000000 0.013138 0.000000
# 6 0.000000 0.000000 0.000000 0.000000 0.000000 0.149388
#
#
# Mechanical properties :
#
#
# Convention : Reuss Voigt Hill
#
# Bulk Modulus (GPa) = 43.89028 62.13705 53.01367
# Shear Modulus (GPa) = 19.58214 43.86157 31.72186
#
# Velocity S-wave (km/s) = 2.56685 3.84160 3.26700
# Velocity P-wave (km/s) = 4.85309 6.37057 5.66289
#
# Compressibility (1/GPa) = 0.02278409
#
# Stress axis : x y z
#
# Youngs Moduli (GPa) = 229.26791 79.99338 57.21673
#
# Poissons Ratio (x) = 0.02791 0.15909
# Poissons Ratio (y) = 0.07999 0.15155
# Poissons Ratio (z) = 0.63747 0.21188
#
# Static dielectric constant tensor:
#      x y z
#    x 2.135600 0.000000 0.000000 
#    y 0.000000 2.677840 0.000000 
#    z 0.000000 0.000000 2.348450 
# 
# From -- ./inp_files/29886.got.cif
#   From: 2010.05.17/outbox.cif.g08.bks.cpg/sg52_15_cif.got.tgz:29886.got - 2010.06.03 12:15:38.
