data_PCOD9408891
_publ_section_title
;
Structure prediction by ZEFSAII (Michael W. Deem and Ramdas Pophale) SiO2 
 PCOD9408891
Probable space group: P N N A
;
_chemical_formula_sum "Si O2"
_cell_formula_units_Z 56
_cell_length_a 13.317299
_cell_length_b 8.934211
_cell_length_c 22.965850
_cell_angle_alpha 90.000000
_cell_angle_beta 90.000000
_cell_angle_gamma 90.000000
_cell_volume 2732.466710
_symmetry_space_group_name_H-M "P N N A"
_symmetry_group_IT_number 52
_symmetry_cell_setting 'orthorhombic'
loop_
_space_group_symop_operation_xyz
x,y,z
1/2-x,-y,z
x,1/2-y,1/2-z
1/2-x,1/2+y,1/2-z
-x,-y,-z
1/2+x,y,-z
-x,1/2+y,1/2+z
1/2+x,1/2-y,1/2+z
loop_
_atom_site_type_symbol
_atom_site_label
_atom_site_fract_x
_atom_site_fract_y
_atom_site_fract_z
Si Si1 0.270719 0.673469 0.580192
Si Si2 0.353265 0.083355 0.382394
Si Si3 0.895180 0.873775 0.974828
Si Si4 0.592131 0.773243 0.993369
Si Si5 0.293819 0.336776 0.810278
Si Si6 0.529470 0.181915 0.683913
Si Si7 0.216752 0.338541 0.364440
O O1 0.250000 0.500000 0.593328
O O2 0.369159 0.667063 0.541082
O O3 0.184799 0.738634 0.537673
O O4 0.271738 0.762388 0.639208
O O5 0.404967 0.155514 0.439995
O O6 0.302675 0.221658 0.347522
O O7 0.250000 0.000000 0.401922
O O8 0.418501 0.973627 0.340690
O O9 0.800511 0.836854 0.934237
O O10 0.909592 0.053333 0.969455
O O11 0.993486 0.774430 0.965369
O O12 0.250000 0.500000 0.801272
O O13 0.285689 0.250000 0.750000
O O14 0.411216 0.330553 0.829028
O O15 0.533022 0.250000 0.750000
O O16 0.604421 0.300643 0.654520
O O17 0.250000 0.500000 0.344528
#
# Coordination Sequence:
#
# PCOD9408891 Si02
#       7
#     8   8   8   8   8   8   8
#     4  10  20  38  62  94 130 168 217 264 330 406
#     4  10  21  38  63  92 132 173 218 277 344 404
#     4  10  19  33  60  96 133 170 217 265 322 410
#     4  10  19  34  59  94 133 174 212 265 333 397
#     4  11  25  47  68  91 127 175 228 288 343 396
#     4  10  25  45  63  92 132 175 231 284 339 406
#     4  11  19  39  67  95 138 177 214 277 344 399
#
# _framework density 20.494302999999999
#
# number of rings (size 3 to 8) (size 9 to 14) (size 15 to 20)
#    0.000    1.714    2.857    1.714    2.000    2.286 
#    0.000    6.429    0.000    0.857    0.000    0.000 
#    0.000    0.000    0.000    0.000    0.000    0.000 
#
# Total GULP energy -311789.566184 kJ/mol
# GULP energy per Si atom -5567.670825 kJ/mol
# Density = 2.044766 g / cm^3
# Si number density = 20.494303 Si / 1000 Ang^3
#
#
#
# Elastic Constant Matrix: (Units=GPa)
#
#
# Indices 1 2 3 4 5 6 
#
# 1 63.8788 31.9962 19.9664 0.0000 0.0000 0.0000
# 2 31.9962 98.8545 41.8294 0.0000 0.0000 0.0000
# 3 19.9664 41.8294 78.2992 0.0000 0.0000 0.0000
# 4 0.0000 0.0000 0.0000 38.7049 0.0000 0.0000
# 5 0.0000 0.0000 0.0000 0.0000 -23.8554 0.0000
# 6 0.0000 0.0000 0.0000 0.0000 0.0000 12.0115
#
#
#
# Elastic Compliance Matrix: (Units=1/GPa)
#
#
# Indices 1 2 3 4 5 6 
#
# 1 0.018925 -0.005276 -0.002007 0.000000 0.000000 0.000000
# 2 -0.005276 0.014541 -0.006423 0.000000 0.000000 0.000000
# 3 -0.002007 -0.006423 0.016715 0.000000 0.000000 0.000000
# 4 0.000000 0.000000 0.000000 0.025837 0.000000 0.000000
# 5 0.000000 0.000000 0.000000 0.000000 -0.041919 0.000000
# 6 0.000000 0.000000 0.000000 0.000000 0.000000 0.083254
#
#
# Mechanical properties :
#
#
# Convention : Reuss Voigt Hill
#
# Bulk Modulus (GPa) = 43.92068 47.62407 45.77237
# Shear Modulus (GPa) = 32.81832 15.18822 24.00327
#
# Velocity S-wave (km/s) = 4.00601 2.72526 3.42602
# Velocity P-wave (km/s) = 6.54788 5.76115 6.16707
#
# Compressibility (1/GPa) = 0.02276832
#
# Stress axis : x y z
#
# Youngs Moduli (GPa) = 52.84089 68.76925 59.82760
#
# Poissons Ratio (x) = 0.36283 0.12009
# Poissons Ratio (y) = 0.27879 0.38427
# Poissons Ratio (z) = 0.10607 0.44170
#
# Static dielectric constant tensor:
#      x y z
#    x 1.842210 0.000000 0.000000 
#    y 0.000000 1.991530 0.000000 
#    z 0.000000 0.000000 1.340430 
# 
# From -- ./inp_files/37353.got.cif
#   From: 2010.05.17/outbox.cif.g08.bks.cpg/sg52_19_cif.got.tgz:37353.got - 2010.06.03 12:15:38.
