data_PCOD9408758
_publ_section_title
;
Structure prediction by ZEFSAII (Michael W. Deem and Ramdas Pophale) SiO2 
 PCOD9408758
Probable space group: P N N A
;
_chemical_formula_sum "Si O2"
_cell_formula_units_Z 48
_cell_length_a 27.624677
_cell_length_b 5.338237
_cell_length_c 17.976312
_cell_angle_alpha 90.000000
_cell_angle_beta 90.000000
_cell_angle_gamma 90.000000
_cell_volume 2650.914112
_symmetry_space_group_name_H-M "P N N A"
_symmetry_group_IT_number 52
_symmetry_cell_setting 'orthorhombic'
loop_
_space_group_symop_operation_xyz
x,y,z
1/2-x,-y,z
x,1/2-y,1/2-z
1/2-x,1/2+y,1/2-z
-x,-y,-z
1/2+x,y,-z
-x,1/2+y,1/2+z
1/2+x,1/2-y,1/2+z
loop_
_atom_site_type_symbol
_atom_site_label
_atom_site_fract_x
_atom_site_fract_y
_atom_site_fract_z
Si Si1 0.830511 0.103684 0.681691
Si Si2 0.279822 0.739266 0.071432
Si Si3 0.626051 0.002745 0.934009
Si Si4 0.547302 0.961727 0.053173
Si Si5 0.486267 0.963625 0.587284
Si Si6 0.429933 0.633094 0.178201
O O1 0.807290 0.250000 0.750000
O O2 0.846899 0.289753 0.614653
O O3 0.798375 0.878522 0.649784
O O4 0.881630 0.996398 0.709063
O O5 0.250000 0.500000 0.039019
O O6 0.250000 0.000000 0.076854
O O7 0.331223 0.816502 0.035874
O O8 0.590228 0.164049 0.880985
O O9 0.592913 0.907726 0.000816
O O10 0.548538 0.227890 0.093822
O O11 0.537372 0.729339 0.106304
O O12 0.500000 0.000000 0.000000
O O13 0.500000 0.000000 0.500000
O O14 0.535221 0.944195 0.634611
O O15 0.455143 0.750000 0.250000
#
# Coordination Sequence:
#
# PCOD9408758 Si02
#       6
#     8   8   8   8   8   8
#     4  11  22  36  53  71  96 128 176 223 270 308
#     4  11  24  42  52  69  94 128 172 220 272 316
#     4  11  21  36  54  72  95 131 170 218 259 301
#     4  10  19  32  53  72  96 121 161 207 244 303
#     4  10  19  32  49  71 100 127 161 207 246 305
#     4  11  21  31  50  76 103 132 170 218 261 301
#
# _framework density 18.106960999999998
#
# number of rings (size 3 to 8) (size 9 to 14) (size 15 to 20)
#    0.000    1.333    6.667    2.000    2.333    0.000 
#    3.000    0.000    0.000    0.000    0.000    0.000 
#    0.000    0.000    0.000    0.000    0.000   16.667 
#
# Total GULP energy -267518.097976 kJ/mol
# GULP energy per Si atom -5573.293708 kJ/mol
# Density = 1.806575 g / cm^3
# Si number density = 18.106961 Si / 1000 Ang^3
#
#
#
# Elastic Constant Matrix: (Units=GPa)
#
#
# Indices 1 2 3 4 5 6 
#
# 1 68.7125 13.4516 17.6836 0.0000 0.0000 0.0000
# 2 13.4516 114.6514 -2.6094 0.0000 0.0000 0.0000
# 3 17.6836 -2.6094 14.2643 0.0000 0.0000 0.0000
# 4 0.0000 0.0000 0.0000 19.1968 0.0000 0.0000
# 5 0.0000 0.0000 0.0000 0.0000 8.8260 0.0000
# 6 0.0000 0.0000 0.0000 0.0000 0.0000 26.3829
#
#
#
# Elastic Compliance Matrix: (Units=1/GPa)
#
#
# Indices 1 2 3 4 5 6 
#
# 1 0.022547 -0.003295 -0.028555 0.000000 0.000000 0.000000
# 2 -0.003295 0.009240 0.005776 0.000000 0.000000 0.000000
# 3 -0.028555 0.005776 0.106561 0.000000 0.000000 0.000000
# 4 0.000000 0.000000 0.000000 0.052092 0.000000 0.000000
# 5 0.000000 0.000000 0.000000 0.000000 0.113301 0.000000
# 6 0.000000 0.000000 0.000000 0.000000 0.000000 0.037903
#
#
# Mechanical properties :
#
#
# Convention : Reuss Voigt Hill
#
# Bulk Modulus (GPa) = 11.60103 28.29775 19.94939
# Shear Modulus (GPa) = 11.83357 22.15465 16.99411
#
# Velocity S-wave (km/s) = 2.55921 3.50171 3.06688
# Velocity P-wave (km/s) = 3.89276 5.65786 4.85618
#
# Compressibility (1/GPa) = 0.08619923
#
# Stress axis : x y z
#
# Youngs Moduli (GPa) = 44.35135 108.22320 9.38432
#
# Poissons Ratio (x) = 0.35663 0.26797
# Poissons Ratio (y) = 0.14615 -0.05420
# Poissons Ratio (z) = 1.26644 -0.62504
#
# Static dielectric constant tensor:
#      x y z
#    x 1.689850 0.000000 0.000000 
#    y 0.000000 1.695870 0.000000 
#    z 0.000000 0.000000 1.583690 
# 
# From -- ./inp_files/38096.got.cif
#   From: 2010.05.17/outbox.cif.g08.bks.cpg/sg52_20_cif.got.tgz:38096.got - 2010.06.03 12:15:38.
