data_PCOD9408311
_publ_section_title
;
Structure prediction by ZEFSAII (Michael W. Deem and Ramdas Pophale) SiO2 
 PCOD9408311
Probable space group: P N N A
;
_chemical_formula_sum "Si O2"
_cell_formula_units_Z 48
_cell_length_a 19.341454
_cell_length_b 8.797696
_cell_length_c 15.380698
_cell_angle_alpha 90.000000
_cell_angle_beta 90.000000
_cell_angle_gamma 90.000000
_cell_volume 2617.183148
_symmetry_space_group_name_H-M "P N N A"
_symmetry_group_IT_number 52
_symmetry_cell_setting 'orthorhombic'
loop_
_space_group_symop_operation_xyz
x,y,z
1/2-x,-y,z
x,1/2-y,1/2-z
1/2-x,1/2+y,1/2-z
-x,-y,-z
1/2+x,y,-z
-x,1/2+y,1/2+z
1/2+x,1/2-y,1/2+z
loop_
_atom_site_type_symbol
_atom_site_label
_atom_site_fract_x
_atom_site_fract_y
_atom_site_fract_z
Si Si1 0.596698 0.024101 0.058203
Si Si2 0.282439 0.750000 0.750000
Si Si3 0.570431 0.449299 0.951532
Si Si4 0.397469 0.862223 0.628790
Si Si5 0.458283 0.418853 0.213848
Si Si6 0.250000 0.500000 0.619626
Si Si7 0.535000 0.381542 0.619708
O O1 0.580998 0.188327 0.103229
O O2 0.678724 0.008069 0.066937
O O3 0.547539 0.903586 0.106416
O O4 0.571581 0.025992 0.958740
O O5 0.333464 0.855912 0.693265
O O6 0.243121 0.645970 0.682144
O O7 0.587175 0.561370 0.873156
O O8 0.556884 0.289970 0.902086
O O9 0.500000 0.500000 0.000000
O O10 0.619827 0.432934 0.034681
O O11 0.462622 0.933482 0.678703
O O12 0.450404 0.250000 0.250000
O O13 0.445988 0.543961 0.288342
#
# Coordination Sequence:
#
# PCOD9408311 Si02
#       7
#     8   4   8   8   8   4   8
#     4   9  18  32  53  72 105 135 177 210 257 307
#     4  10  18  34  52  68 102 142 178 196 256 314
#     4   9  20  30  45  74 105 134 171 213 259 306
#     4   9  16  33  50  67 104 148 160 201 262 320
#     4  11  17  29  48  75 103 136 167 215 264 308
#     4  10  20  36  48  78 102 144 172 208 252 318
#     4  10  18  32  51  76 100 137 173 218 258 307
#
# _framework density 18.340328
#
# number of rings (size 3 to 8) (size 9 to 14) (size 15 to 20)
#    0.000    2.333    2.500    1.500    2.333    0.000 
#    9.000    0.000    0.000    0.000    0.000    8.167 
#    0.000    0.000    0.000    0.000    0.000    0.000 
#
# Total GULP energy -267354.166567 kJ/mol
# GULP energy per Si atom -5569.878470 kJ/mol
# Density = 1.829858 g / cm^3
# Si number density = 18.340328 Si / 1000 Ang^3
#
#
#
# Elastic Constant Matrix: (Units=GPa)
#
#
# Indices 1 2 3 4 5 6 
#
# 1 54.0006 0.6231 23.4852 0.0000 0.0000 0.0000
# 2 0.6231 30.8912 31.5952 0.0000 0.0000 0.0000
# 3 23.4852 31.5952 137.7091 0.0000 0.0000 0.0000
# 4 0.0000 0.0000 0.0000 32.2320 0.0000 0.0000
# 5 0.0000 0.0000 0.0000 0.0000 6.4433 0.0000
# 6 0.0000 0.0000 0.0000 0.0000 0.0000 7.8833
#
#
#
# Elastic Compliance Matrix: (Units=1/GPa)
#
#
# Indices 1 2 3 4 5 6 
#
# 1 0.020394 0.004110 -0.004421 0.000000 0.000000 0.000000
# 2 0.004110 0.043126 -0.010596 0.000000 0.000000 0.000000
# 3 -0.004421 -0.010596 0.010447 0.000000 0.000000 0.000000
# 4 0.000000 0.000000 0.000000 0.031025 0.000000 0.000000
# 5 0.000000 0.000000 0.000000 0.000000 0.155201 0.000000
# 6 0.000000 0.000000 0.000000 0.000000 0.000000 0.126850
#
#
# Mechanical properties :
#
#
# Convention : Reuss Voigt Hill
#
# Bulk Modulus (GPa) = 19.17408 37.11200 28.14304
# Shear Modulus (GPa) = 11.73050 20.43820 16.08435
#
# Velocity S-wave (km/s) = 2.53178 3.34186 2.96462
# Velocity P-wave (km/s) = 4.36163 5.93042 5.20546
#
# Compressibility (1/GPa) = 0.05215373
#
# Stress axis : x y z
#
# Youngs Moduli (GPa) = 49.03498 23.18795 95.72444
#
# Poissons Ratio (x) = -0.09531 0.42320
# Poissons Ratio (y) = -0.20155 1.01426
# Poissons Ratio (z) = 0.21679 0.24569
#
# Static dielectric constant tensor:
#      x y z
#    x 1.607850 0.000000 0.000000 
#    y 0.000000 1.731350 0.000000 
#    z 0.000000 0.000000 1.681080 
# 
# From -- ./inp_files/28121.got.cif
#   From: 2010.05.17/outbox.cif.g08.bks.cpg/sg52_15_cif.got.tgz:28121.got - 2010.06.03 12:15:38.
