data_PCOD9408917
_publ_section_title
;
Structure prediction by ZEFSAII (Michael W. Deem and Ramdas Pophale) SiO2 
 PCOD9408917
Probable space group: P N N A
;
_chemical_formula_sum "Si O2"
_cell_formula_units_Z 24
_cell_length_a 14.922268
_cell_length_b 5.242216
_cell_length_c 12.337083
_cell_angle_alpha 90.000000
_cell_angle_beta 90.000000
_cell_angle_gamma 90.000000
_cell_volume 965.077596
_symmetry_space_group_name_H-M "P N N A"
_symmetry_group_IT_number 52
_symmetry_cell_setting 'orthorhombic'
loop_
_space_group_symop_operation_xyz
x,y,z
1/2-x,-y,z
x,1/2-y,1/2-z
1/2-x,1/2+y,1/2-z
-x,-y,-z
1/2+x,y,-z
-x,1/2+y,1/2+z
1/2+x,1/2-y,1/2+z
loop_
_atom_site_type_symbol
_atom_site_label
_atom_site_fract_x
_atom_site_fract_y
_atom_site_fract_z
Si Si1 0.693238 0.744558 0.420591
Si Si2 0.651874 0.559655 0.664717
Si Si3 0.001258 0.249108 0.425481
O O1 0.750000 0.500000 0.383457
O O2 0.673420 0.697557 0.549448
O O3 0.595015 0.757493 0.368457
O O4 0.750000 0.000000 0.407035
O O5 0.750000 0.500000 0.710072
O O6 0.604790 0.750000 0.750000
O O7 0.591957 0.310340 0.639325
O O8 0.000000 0.500000 0.500000
O O9 0.000000 0.000000 0.500000
#
# Coordination Sequence:
#
# PCOD9408917 Si02
#       3
#     8   8   8
#     4  10  19  34  55  80 112 152 202 255 302 361
#     4  10  20  33  53  85 124 160 199 255 326 385
#     4  10  20  35  55  81 115 158 203 248 305 374
#
# _framework density 24.868463999999999
#
# number of rings (size 3 to 8) (size 9 to 14) (size 15 to 20)
#    0.000    2.000    0.000    7.000    0.000    2.667 
#    0.000    0.000    0.000    0.000    0.000   14.000 
#    0.000    0.000    0.000    0.000    0.000    0.000 
#
# Total GULP energy -134169.976845 kJ/mol
# GULP energy per Si atom -5590.415702 kJ/mol
# Density = 2.481186 g / cm^3
# Si number density = 24.868464 Si / 1000 Ang^3
#
#
#
# Elastic Constant Matrix: (Units=GPa)
#
#
# Indices 1 2 3 4 5 6 
#
# 1 243.9038 106.7821 16.7830 0.0000 0.0000 0.0000
# 2 106.7821 234.6636 40.2385 0.0000 0.0000 0.0000
# 3 16.7830 40.2385 91.6855 0.0000 0.0000 0.0000
# 4 0.0000 0.0000 0.0000 16.7027 0.0000 0.0000
# 5 0.0000 0.0000 0.0000 0.0000 -21.1439 0.0000
# 6 0.0000 0.0000 0.0000 0.0000 0.0000 58.4123
#
#
#
# Elastic Compliance Matrix: (Units=1/GPa)
#
#
# Indices 1 2 3 4 5 6 
#
# 1 0.005121 -0.002346 0.000092 0.000000 0.000000 0.000000
# 2 -0.002346 0.005683 -0.002065 0.000000 0.000000 0.000000
# 3 0.000092 -0.002065 0.011796 0.000000 0.000000 0.000000
# 4 0.000000 0.000000 0.000000 0.059871 0.000000 0.000000
# 5 0.000000 0.000000 0.000000 0.000000 -0.047295 0.000000
# 6 0.000000 0.000000 0.000000 0.000000 0.000000 0.017120
#
#
# Mechanical properties :
#
#
# Convention : Reuss Voigt Hill
#
# Bulk Modulus (GPa) = 71.61800 99.76221 85.69010
# Shear Modulus (GPa) = 76.23559 37.89083 57.06321
#
# Velocity S-wave (km/s) = 5.54275 3.90763 4.79540
# Velocity P-wave (km/s) = 8.35608 7.78219 8.07423
#
# Compressibility (1/GPa) = 0.01396297
#
# Stress axis : x y z
#
# Youngs Moduli (GPa) = 195.28582 175.96431 84.77372
#
# Poissons Ratio (x) = 0.41280 -0.00782
# Poissons Ratio (y) = 0.45813 0.17503
# Poissons Ratio (z) = -0.01801 0.36331
#
# Static dielectric constant tensor:
#      x y z
#    x 2.041430 0.000000 0.000000 
#    y 0.000000 1.969960 0.000000 
#    z 0.000000 0.000000 2.013240 
# 
# From -- ./inp_files/26531.got.cif
#   From: 2010.05.17/outbox.cif.g08.bks.cpg/sg52_14_cif.got.tgz:26531.got - 2010.06.03 12:15:38.
