data_PCOD9408835
_publ_section_title
;
Structure prediction by ZEFSAII (Michael W. Deem and Ramdas Pophale) SiO2 
 PCOD9408835
Probable space group: P N N A
;
_chemical_formula_sum "Si O2"
_cell_formula_units_Z 32
_cell_length_a 5.669492
_cell_length_b 13.371653
_cell_length_c 14.944799
_cell_angle_alpha 90.000000
_cell_angle_beta 90.000000
_cell_angle_gamma 90.000000
_cell_volume 1132.972381
_symmetry_space_group_name_H-M "P N N A"
_symmetry_group_IT_number 52
_symmetry_cell_setting 'orthorhombic'
loop_
_space_group_symop_operation_xyz
x,y,z
1/2-x,-y,z
x,1/2-y,1/2-z
1/2-x,1/2+y,1/2-z
-x,-y,-z
1/2+x,y,-z
-x,1/2+y,1/2+z
1/2+x,1/2-y,1/2+z
loop_
_atom_site_type_symbol
_atom_site_label
_atom_site_fract_x
_atom_site_fract_y
_atom_site_fract_z
Si Si1 0.224821 0.290424 0.995332
Si Si2 0.681472 0.368783 0.725930
Si Si3 0.750000 0.000000 0.548785
Si Si4 0.250000 0.000000 0.055434
Si Si5 0.676459 0.140832 0.293528
O O1 0.219455 0.343234 0.898175
O O2 0.475090 0.236290 0.998343
O O3 0.233118 0.378980 0.069591
O O4 0.674098 0.250000 0.750000
O O5 0.726427 0.405245 0.624317
O O6 0.417230 0.402812 0.753010
O O7 0.923823 0.408209 0.771779
O O8 0.500000 0.000000 0.500000
O O9 0.500000 0.000000 0.000000
O O10 0.656843 0.250000 0.250000
#
# Coordination Sequence:
#
# PCOD9408835 Si02
#       5
#     8   8   4   4   8
#     4  10  19  33  53  82 114 154 208 266 321 395
#     4  10  23  45  68 101 145 191 244 313 390 460
#     4   8  16  28  44  68 100 128 168 228 294 354
#     4  12  26  48  80 118 150 196 268 334 380 456
#     4  10  21  40  61  90 133 184 237 290 365 455
#
# _framework density 28.244288000000001
#
# number of rings (size 3 to 8) (size 9 to 14) (size 15 to 20)
#    0.000    2.000    0.000    3.000    0.000    2.000 
#    0.000   32.500    0.000    0.000    0.000   12.250 
#    0.000    0.000    0.000    0.000    0.000    0.000 
#
# Total GULP energy -178280.398662 kJ/mol
# GULP energy per Si atom -5571.262458 kJ/mol
# Density = 2.818000 g / cm^3
# Si number density = 28.244288 Si / 1000 Ang^3
#
#
#
# Elastic Constant Matrix: (Units=GPa)
#
#
# Indices 1 2 3 4 5 6 
#
# 1 395.3523 11.6052 108.2998 0.0000 0.0000 0.0000
# 2 11.6052 96.8161 26.9298 0.0000 0.0000 0.0000
# 3 108.2998 26.9298 181.2238 0.0000 0.0000 0.0000
# 4 0.0000 0.0000 0.0000 40.8842 0.0000 0.0000
# 5 0.0000 0.0000 0.0000 0.0000 68.1084 0.0000
# 6 0.0000 0.0000 0.0000 0.0000 0.0000 8.8404
#
#
#
# Elastic Compliance Matrix: (Units=1/GPa)
#
#
# Indices 1 2 3 4 5 6 
#
# 1 0.003026 0.000146 -0.001830 0.000000 0.000000 0.000000
# 2 0.000146 0.010781 -0.001690 0.000000 0.000000 0.000000
# 3 -0.001830 -0.001690 0.006863 0.000000 0.000000 0.000000
# 4 0.000000 0.000000 0.000000 0.024459 0.000000 0.000000
# 5 0.000000 0.000000 0.000000 0.000000 0.014682 0.000000
# 6 0.000000 0.000000 0.000000 0.000000 0.000000 0.113116
#
#
# Mechanical properties :
#
#
# Convention : Reuss Voigt Hill
#
# Bulk Modulus (GPa) = 71.82084 107.45131 89.63608
# Shear Modulus (GPa) = 27.12712 58.67043 42.89878
#
# Velocity S-wave (km/s) = 3.10247 4.56263 3.90147
# Velocity P-wave (km/s) = 6.19011 8.11683 7.21804
#
# Compressibility (1/GPa) = 0.01392353
#
# Stress axis : x y z
#
# Youngs Moduli (GPa) = 330.41496 92.75342 145.70984
#
# Poissons Ratio (x) = -0.01357 0.26671
# Poissons Ratio (y) = -0.04836 0.24618
# Poissons Ratio (z) = 0.60479 0.15671
#
# Static dielectric constant tensor:
#      x y z
#    x 2.179080 0.000000 0.000000 
#    y 0.000000 2.256660 0.000000 
#    z 0.000000 0.000000 2.314350 
# 
# From -- ./inp_files/23481.got.cif
#   From: 2010.05.17/outbox.cif.g08.bks.cpg/sg52_12_cif.got.tgz:23481.got - 2010.06.03 12:15:38.
