data_PCOD9408103
_publ_section_title
;
Structure prediction by ZEFSAII (Michael W. Deem and Ramdas Pophale) SiO2 
 PCOD9408103
Probable space group: P N N A
;
_chemical_formula_sum "Si O2"
_cell_formula_units_Z 56
_cell_length_a 21.764668
_cell_length_b 15.504486
_cell_length_c 8.711037
_cell_angle_alpha 90.000000
_cell_angle_beta 90.000000
_cell_angle_gamma 90.000000
_cell_volume 2939.539351
_symmetry_space_group_name_H-M "P N N A"
_symmetry_group_IT_number 52
_symmetry_cell_setting 'orthorhombic'
loop_
_space_group_symop_operation_xyz
x,y,z
1/2-x,-y,z
x,1/2-y,1/2-z
1/2-x,1/2+y,1/2-z
-x,-y,-z
1/2+x,y,-z
-x,1/2+y,1/2+z
1/2+x,1/2-y,1/2+z
loop_
_atom_site_type_symbol
_atom_site_label
_atom_site_fract_x
_atom_site_fract_y
_atom_site_fract_z
Si Si1 0.767047 0.145297 0.052958
Si Si2 0.861750 0.649820 0.268598
Si Si3 0.701625 0.064860 0.522265
Si Si4 0.432645 0.497520 0.570688
Si Si5 0.620776 0.648535 0.228112
Si Si6 0.664665 0.947774 0.811314
Si Si7 0.682548 0.824627 0.577223
O O1 0.777495 0.076770 0.919156
O O2 0.796166 0.232667 0.984430
O O3 0.699349 0.151549 0.122699
O O4 0.813899 0.128015 0.191393
O O5 0.880889 0.750000 0.250000
O O6 0.841726 0.608468 0.104013
O O7 0.910607 0.585523 0.346344
O O8 0.749800 0.132859 0.590269
O O9 0.750000 0.000000 0.440088
O O10 0.673416 0.013306 0.667923
O O11 0.500000 0.500000 0.500000
O O12 0.424873 0.418612 0.692087
O O13 0.386403 0.479294 0.429354
O O14 0.604587 0.750000 0.250000
O O15 0.636806 0.637130 0.050948
O O16 0.649821 0.854712 0.732769
#
# Coordination Sequence:
#
# PCOD9408103 Si02
#       7
#     8   8   8   8   8   8   8
#     4  10  19  34  60  97 126 157 195 249 326 406
#     4  12  23  41  63  91 128 175 210 256 323 391
#     4  10  20  34  56  93 130 157 192 240 321 400
#     4  11  26  45  62  88 125 173 233 268 300 364
#     4   9  18  38  68  92 122 163 212 258 315 383
#     4  10  23  35  58  90 124 161 191 262 324 359
#     4  10  17  34  56  96 132 148 192 244 321 403
#
# _framework density 19.050604
#
# number of rings (size 3 to 8) (size 9 to 14) (size 15 to 20)
#    0.000    1.714    2.857    2.571    8.000    0.000 
#    0.000    9.286    0.000    0.000    0.000    0.000 
#    0.000    0.000    0.000    0.000    0.000    0.000 
#
# Total GULP energy -311742.675620 kJ/mol
# GULP energy per Si atom -5566.833493 kJ/mol
# Density = 1.900724 g / cm^3
# Si number density = 19.050604 Si / 1000 Ang^3
#
#
#
# Elastic Constant Matrix: (Units=GPa)
#
#
# Indices 1 2 3 4 5 6 
#
# 1 61.4056 40.5010 29.0539 0.0000 0.0000 0.0000
# 2 40.5010 74.6044 52.0426 0.0000 0.0000 0.0000
# 3 29.0539 52.0426 111.1438 0.0000 0.0000 0.0000
# 4 0.0000 0.0000 0.0000 24.4367 0.0000 0.0000
# 5 0.0000 0.0000 0.0000 0.0000 20.4356 0.0000
# 6 0.0000 0.0000 0.0000 0.0000 0.0000 13.9987
#
#
#
# Elastic Compliance Matrix: (Units=1/GPa)
#
#
# Indices 1 2 3 4 5 6 
#
# 1 0.025374 -0.013586 -0.000272 0.000000 0.000000 0.000000
# 2 -0.013586 0.027180 -0.009176 0.000000 0.000000 0.000000
# 3 -0.000272 -0.009176 0.013365 0.000000 0.000000 0.000000
# 4 0.000000 0.000000 0.000000 0.040922 0.000000 0.000000
# 5 0.000000 0.000000 0.000000 0.000000 0.048934 0.000000
# 6 0.000000 0.000000 0.000000 0.000000 0.000000 0.071435
#
#
# Mechanical properties :
#
#
# Convention : Reuss Voigt Hill
#
# Bulk Modulus (GPa) = 50.36900 54.48321 52.42610
# Shear Modulus (GPa) = 17.86391 20.14464 19.00428
#
# Velocity S-wave (km/s) = 3.06552 3.25534 3.16186
# Velocity P-wave (km/s) = 6.24715 6.54148 6.39601
#
# Compressibility (1/GPa) = 0.01985348
#
# Stress axis : x y z
#
# Youngs Moduli (GPa) = 39.40997 36.79167 74.82358
#
# Poissons Ratio (x) = 0.49984 0.02032
# Poissons Ratio (y) = 0.53541 0.68655
# Poissons Ratio (z) = 0.01070 0.33758
#
# Static dielectric constant tensor:
#      x y z
#    x 1.624960 0.000000 0.000000 
#    y 0.000000 1.799890 0.000000 
#    z 0.000000 0.000000 1.733830 
# 
# From -- ./inp_files/13426.got.cif
#   From: 2010.05.17/outbox.cif.g08.bks.cpg/sg52_7_cif.got.tgz:13426.got - 2010.06.03 12:15:38.
