data_PCOD9408198
_publ_section_title
;
Structure prediction by ZEFSAII (Michael W. Deem and Ramdas Pophale) SiO2 
 PCOD9408198
Probable space group: P N N A
;
_chemical_formula_sum "Si O2"
_cell_formula_units_Z 48
_cell_length_a 5.420693
_cell_length_b 18.223177
_cell_length_c 21.172363
_cell_angle_alpha 90.000000
_cell_angle_beta 90.000000
_cell_angle_gamma 90.000000
_cell_volume 2091.453613
_symmetry_space_group_name_H-M "P N N A"
_symmetry_group_IT_number 52
_symmetry_cell_setting 'orthorhombic'
loop_
_space_group_symop_operation_xyz
x,y,z
1/2-x,-y,z
x,1/2-y,1/2-z
1/2-x,1/2+y,1/2-z
-x,-y,-z
1/2+x,y,-z
-x,1/2+y,1/2+z
1/2+x,1/2-y,1/2+z
loop_
_atom_site_type_symbol
_atom_site_label
_atom_site_fract_x
_atom_site_fract_y
_atom_site_fract_z
Si Si1 0.402062 0.163083 0.265742
Si Si2 0.910909 0.171506 0.337470
Si Si3 0.501641 0.968672 0.073428
Si Si4 0.927926 0.274517 0.530837
Si Si5 0.641526 0.172389 0.857385
Si Si6 0.113012 0.888212 0.520828
O O1 0.398671 0.250000 0.250000
O O2 0.677683 0.149838 0.292879
O O3 0.280457 0.133560 0.200750
O O4 0.182071 0.145779 0.314799
O O5 0.867973 0.138038 0.406735
O O6 0.953564 0.260818 0.340084
O O7 0.487288 0.884899 0.095627
O O8 0.250000 0.000000 0.100009
O O9 0.750000 0.000000 0.101568
O O10 0.500000 0.000000 0.000000
O O11 0.692176 0.303052 0.490896
O O12 0.860938 0.291007 0.602067
O O13 0.917793 0.187917 0.518974
O O14 0.356450 0.925863 0.495150
#
# Coordination Sequence:
#
# PCOD9408198 Si02
#       6
#     8   8   8   8   8   8
#     4  10  23  34  50  78 101 141 187 245 299 367
#     4  11  21  35  52  78 106 137 196 240 290 379
#     4  10  25  41  57  83 112 151 211 268 322 353
#     4  10  21  29  49  74  94 141 186 223 298 345
#     4  11  23  39  59  76 118 152 194 273 315 349
#     4  10  18  30  45  69 100 132 173 218 272 331
#
# _framework density 22.950545000000002
#
# number of rings (size 3 to 8) (size 9 to 14) (size 15 to 20)
#    0.000    1.667    3.333    2.500   11.667    5.333 
#    0.000    0.000    0.000    0.000    0.000    0.000 
#    0.000    0.000    0.000    0.000    0.000   58.333 
#
# Total GULP energy -267527.401782 kJ/mol
# GULP energy per Si atom -5573.487537 kJ/mol
# Density = 2.289831 g / cm^3
# Si number density = 22.950545 Si / 1000 Ang^3
#
#
#
# Elastic Constant Matrix: (Units=GPa)
#
#
# Indices 1 2 3 4 5 6 
#
# 1 225.7805 28.6670 53.5910 0.0000 0.0000 0.0000
# 2 28.6670 42.0717 37.3564 0.0000 0.0000 0.0000
# 3 53.5910 37.3564 103.5290 0.0000 0.0000 0.0000
# 4 0.0000 0.0000 0.0000 2.8631 0.0000 0.0000
# 5 0.0000 0.0000 0.0000 0.0000 19.3663 0.0000
# 6 0.0000 0.0000 0.0000 0.0000 0.0000 26.3973
#
#
#
# Elastic Compliance Matrix: (Units=1/GPa)
#
#
# Indices 1 2 3 4 5 6 
#
# 1 0.005128 -0.001673 -0.002051 0.000000 0.000000 0.000000
# 2 -0.001673 0.035520 -0.011951 0.000000 0.000000 0.000000
# 3 -0.002051 -0.011951 0.015033 0.000000 0.000000 0.000000
# 4 0.000000 0.000000 0.000000 0.349270 0.000000 0.000000
# 5 0.000000 0.000000 0.000000 0.000000 0.051636 0.000000
# 6 0.000000 0.000000 0.000000 0.000000 0.000000 0.037883
#
#
# Mechanical properties :
#
#
# Convention : Reuss Voigt Hill
#
# Bulk Modulus (GPa) = 41.09825 67.84557 54.47191
# Shear Modulus (GPa) = 9.36451 26.50978 17.93714
#
# Velocity S-wave (km/s) = 2.02217 3.40234 2.79867
# Velocity P-wave (km/s) = 4.83719 6.71270 5.85059
#
# Compressibility (1/GPa) = 0.02433194
#
# Stress axis : x y z
#
# Youngs Moduli (GPa) = 194.99519 28.15280 66.52089
#
# Poissons Ratio (x) = 0.04711 0.13642
# Poissons Ratio (y) = 0.32630 0.79497
# Poissons Ratio (z) = 0.39990 0.33644
#
# Static dielectric constant tensor:
#      x y z
#    x 1.964920 0.000000 0.000000 
#    y 0.000000 1.686490 0.000000 
#    z 0.000000 0.000000 1.915090 
# 
# From -- ./inp_files/35142.got.cif
#   From: 2010.05.17/outbox.cif.g08.bks.cpg/sg52_18_cif.got.tgz:35142.got - 2010.06.03 12:15:38.
