data_PCOD9408503
_publ_section_title
;
Structure prediction by ZEFSAII (Michael W. Deem and Ramdas Pophale) SiO2 
 PCOD9408503
Probable space group: P N N A
;
_chemical_formula_sum "Si O2"
_cell_formula_units_Z 60
_cell_length_a 10.977289
_cell_length_b 18.289521
_cell_length_c 12.126236
_cell_angle_alpha 90.000000
_cell_angle_beta 90.000000
_cell_angle_gamma 90.000000
_cell_volume 2434.576613
_symmetry_space_group_name_H-M "P N N A"
_symmetry_group_IT_number 52
_symmetry_cell_setting 'orthorhombic'
loop_
_space_group_symop_operation_xyz
x,y,z
1/2-x,-y,z
x,1/2-y,1/2-z
1/2-x,1/2+y,1/2-z
-x,-y,-z
1/2+x,y,-z
-x,1/2+y,1/2+z
1/2+x,1/2-y,1/2+z
loop_
_atom_site_type_symbol
_atom_site_label
_atom_site_fract_x
_atom_site_fract_y
_atom_site_fract_z
Si Si1 0.570911 0.776989 0.868594
Si Si2 0.828800 0.905392 0.065255
Si Si3 0.906308 0.866028 0.423408
Si Si4 0.584484 0.148909 0.669027
Si Si5 0.750000 0.000000 0.868786
Si Si6 0.831441 0.808650 0.891630
Si Si7 0.490844 0.060837 0.219387
Si Si8 0.184060 0.836359 0.732917
O O1 0.622096 0.750000 0.750000
O O2 0.486164 0.709379 0.908490
O O3 0.696438 0.787469 0.934589
O O4 0.520108 0.855625 0.827277
O O5 0.746100 0.869773 0.158598
O O6 0.907359 0.965625 0.131258
O O7 0.757252 0.935886 0.959974
O O8 0.903340 0.846156 0.991545
O O9 0.891900 0.888001 0.551007
O O10 0.967132 0.927516 0.344454
O O11 0.776153 0.850642 0.367699
O O12 0.667788 0.143853 0.778396
O O13 0.599304 0.234285 0.637143
O O14 0.448313 0.131878 0.708009
O O15 0.630885 0.984082 0.797434
O O16 0.173130 0.750000 0.750000
#
# Coordination Sequence:
#
# PCOD9408503 Si02
#       8
#     8   8   8   8   4   8   8   8
#     4  10  18  35  57  87 124 166 204 259 324 396
#     4  11  25  41  64  92 131 170 218 281 329 387
#     4  10  23  38  62  90 131 172 210 265 338 403
#     4  11  23  35  60  96 131 172 209 258 328 411
#     4  12  24  42  70  92 120 178 230 282 328 382
#     4  11  21  34  57  93 132 163 212 262 321 393
#     4  10  22  41  60  91 119 164 221 269 330 387
#     4  11  22  41  59  94 137 171 211 264 339 397
#
# _framework density 24.644942
#
# number of rings (size 3 to 8) (size 9 to 14) (size 15 to 20)
#    0.000    1.333    4.000    4.000    5.600    0.000 
#    0.000    0.000    0.000    1.600    0.000    0.000 
#    0.000    0.000    0.000    0.000    0.000    0.000 
#
# Total GULP energy -334927.915322 kJ/mol
# GULP energy per Si atom -5582.131922 kJ/mol
# Density = 2.458885 g / cm^3
# Si number density = 24.644942 Si / 1000 Ang^3
#
#
#
# Elastic Constant Matrix: (Units=GPa)
#
#
# Indices 1 2 3 4 5 6 
#
# 1 74.0829 -18.8170 17.6077 0.0000 0.0000 0.0000
# 2 -18.8170 27.8123 -4.0458 0.0000 0.0000 0.0000
# 3 17.6077 -4.0458 166.2273 0.0000 0.0000 0.0000
# 4 0.0000 0.0000 0.0000 13.4406 0.0000 0.0000
# 5 0.0000 0.0000 0.0000 0.0000 -1.8034 0.0000
# 6 0.0000 0.0000 0.0000 0.0000 0.0000 17.8697
#
#
#
# Elastic Compliance Matrix: (Units=1/GPa)
#
#
# Indices 1 2 3 4 5 6 
#
# 1 0.016662 0.011055 -0.001496 0.000000 0.000000 0.000000
# 2 0.011055 0.043418 -0.000114 0.000000 0.000000 0.000000
# 3 -0.001496 -0.000114 0.006172 0.000000 0.000000 0.000000
# 4 0.000000 0.000000 0.000000 0.074401 0.000000 0.000000
# 5 0.000000 0.000000 0.000000 0.000000 -0.554509 0.000000
# 6 0.000000 0.000000 0.000000 0.000000 0.000000 0.055961
#
#
# Mechanical properties :
#
#
# Convention : Reuss Voigt Hill
#
# Bulk Modulus (GPa) = 11.74501 28.62359 20.18430
# Shear Modulus (GPa) = -14.35113 24.12655 4.88771
#
# Velocity S-wave (km/s) = -2.41574 3.13224 1.40981
# Velocity P-wave (km/s) = 1.73350 4.97200 3.29513
#
# Compressibility (1/GPa) = 0.08514256
#
# Stress axis : x y z
#
# Youngs Moduli (GPa) = 60.01683 23.03167 162.03453
#
# Poissons Ratio (x) = -0.25462 0.24238
# Poissons Ratio (y) = -0.66351 0.01852
# Poissons Ratio (z) = 0.08978 0.00263
#
# Static dielectric constant tensor:
#      x y z
#    x 2.045290 0.000000 0.000000 
#    y 0.000000 2.330490 0.000000 
#    z 0.000000 0.000000 2.011280 
# 
# From -- ./inp_files/18406.got.cif
#   From: 2010.05.17/outbox.cif.g08.bks.cpg/sg52_10_cif.got.tgz:18406.got - 2010.06.03 12:15:38.
