data_PCOD9408379
_publ_section_title
;
Structure prediction by ZEFSAII (Michael W. Deem and Ramdas Pophale) SiO2 
 PCOD9408379
Probable space group: P N N A
;
_chemical_formula_sum "Si O2"
_cell_formula_units_Z 52
_cell_length_a 21.030528
_cell_length_b 12.648804
_cell_length_c 11.293113
_cell_angle_alpha 90.000000
_cell_angle_beta 90.000000
_cell_angle_gamma 90.000000
_cell_volume 3004.092584
_symmetry_space_group_name_H-M "P N N A"
_symmetry_group_IT_number 52
_symmetry_cell_setting 'orthorhombic'
loop_
_space_group_symop_operation_xyz
x,y,z
1/2-x,-y,z
x,1/2-y,1/2-z
1/2-x,1/2+y,1/2-z
-x,-y,-z
1/2+x,y,-z
-x,1/2+y,1/2+z
1/2+x,1/2-y,1/2+z
loop_
_atom_site_type_symbol
_atom_site_label
_atom_site_fract_x
_atom_site_fract_y
_atom_site_fract_z
Si Si1 0.916626 0.933321 0.099794
Si Si2 0.537827 0.657349 0.458124
Si Si3 0.518202 0.086671 0.330990
Si Si4 0.028309 0.354786 0.101561
Si Si5 0.859805 0.750000 0.750000
Si Si6 0.109336 0.850192 0.195236
Si Si7 0.181831 0.053349 0.103388
O O1 0.927491 0.892671 0.232687
O O2 0.971531 0.881395 0.017756
O O3 0.853122 0.925631 0.022422
O O4 0.934302 0.057060 0.108411
O O5 0.521622 0.759886 0.384722
O O6 0.585525 0.680766 0.564840
O O7 0.535867 0.131059 0.459546
O O8 0.453209 0.134073 0.276535
O O9 0.499984 0.963599 0.349314
O O10 0.092768 0.317007 0.164622
O O11 0.820531 0.836913 0.824128
O O12 0.146220 0.750000 0.250000
O O13 0.142512 0.963358 0.176364
O O14 0.250000 0.000000 0.086035
#
# Coordination Sequence:
#
# PCOD9408379 Si02
#       7
#     8   8   8   8   4   8   8
#     4   9  18  34  50  78 106 136 184 222 267 327
#     4   9  16  28  51  77 109 139 162 214 279 336
#     4  10  20  31  53  88 116 142 171 219 291 345
#     4  11  19  31  52  87 119 142 168 214 292 354
#     4  12  22  38  54  84 116 146 184 236 272 334
#     4  10  18  33  51  81 114 139 176 224 276 335
#     4  11  24  38  57  76 102 154 198 233 268 313
#
# _framework density 17.309721
#
# number of rings (size 3 to 8) (size 9 to 14) (size 15 to 20)
#    0.000    1.846    4.615    1.846    1.077    0.000 
#    0.000    0.000    0.000    0.923    8.000    0.000 
#    0.000    0.000    0.000    0.000    0.000    0.000 
#
# Total GULP energy -289801.647974 kJ/mol
# GULP energy per Si atom -5573.108615 kJ/mol
# Density = 1.727032 g / cm^3
# Si number density = 17.309721 Si / 1000 Ang^3
#
#
#
# Elastic Constant Matrix: (Units=GPa)
#
#
# Indices 1 2 3 4 5 6 
#
# 1 63.0023 14.0999 35.4522 0.0000 0.0000 0.0000
# 2 14.0999 96.9964 19.3651 0.0000 0.0000 0.0000
# 3 35.4522 19.3651 110.5965 0.0000 0.0000 0.0000
# 4 0.0000 0.0000 0.0000 23.0631 0.0000 0.0000
# 5 0.0000 0.0000 0.0000 0.0000 9.1074 0.0000
# 6 0.0000 0.0000 0.0000 0.0000 0.0000 15.2904
#
#
#
# Elastic Compliance Matrix: (Units=1/GPa)
#
#
# Indices 1 2 3 4 5 6 
#
# 1 0.019618 -0.001654 -0.005999 0.000000 0.000000 0.000000
# 2 -0.001654 0.010823 -0.001365 0.000000 0.000000 0.000000
# 3 -0.005999 -0.001365 0.011204 0.000000 0.000000 0.000000
# 4 0.000000 0.000000 0.000000 0.043359 0.000000 0.000000
# 5 0.000000 0.000000 0.000000 0.000000 0.109801 0.000000
# 6 0.000000 0.000000 0.000000 0.000000 0.000000 0.065401
#
#
# Mechanical properties :
#
#
# Convention : Reuss Voigt Hill
#
# Bulk Modulus (GPa) = 42.35701 45.38107 43.86904
# Shear Modulus (GPa) = 17.47570 22.93737 20.20654
#
# Velocity S-wave (km/s) = 3.18085 3.64416 3.42036
# Velocity P-wave (km/s) = 6.16552 6.63178 6.40290
#
# Compressibility (1/GPa) = 0.02360884
#
# Stress axis : x y z
#
# Youngs Moduli (GPa) = 50.97243 92.39941 89.25462
#
# Poissons Ratio (x) = 0.15284 0.53545
# Poissons Ratio (y) = 0.08431 0.12181
# Poissons Ratio (z) = 0.30579 0.12610
#
# Static dielectric constant tensor:
#      x y z
#    x 1.567320 0.000000 0.000000 
#    y 0.000000 1.658850 0.000000 
#    z 0.000000 0.000000 1.618420 
# 
# From -- ./inp_files/21817.got.cif
#   From: 2010.05.17/outbox.cif.g08.bks.cpg/sg52_11_cif.got.tgz:21817.got - 2010.06.03 12:15:38.
