data_PCOD9408741
_publ_section_title
;
Structure prediction by ZEFSAII (Michael W. Deem and Ramdas Pophale) SiO2 
 PCOD9408741
Probable space group: P N N A
;
_chemical_formula_sum "Si O2"
_cell_formula_units_Z 48
_cell_length_a 14.720523
_cell_length_b 14.609008
_cell_length_c 9.057798
_cell_angle_alpha 90.000000
_cell_angle_beta 90.000000
_cell_angle_gamma 90.000000
_cell_volume 1947.899734
_symmetry_space_group_name_H-M "P N N A"
_symmetry_group_IT_number 52
_symmetry_cell_setting 'orthorhombic'
loop_
_space_group_symop_operation_xyz
x,y,z
1/2-x,-y,z
x,1/2-y,1/2-z
1/2-x,1/2+y,1/2-z
-x,-y,-z
1/2+x,y,-z
-x,1/2+y,1/2+z
1/2+x,1/2-y,1/2+z
loop_
_atom_site_type_symbol
_atom_site_label
_atom_site_fract_x
_atom_site_fract_y
_atom_site_fract_z
Si Si1 0.656986 0.201267 0.911580
Si Si2 0.114822 0.826764 0.460610
Si Si3 0.342039 0.040257 0.709310
Si Si4 0.345352 0.373263 0.366071
Si Si5 0.909630 0.883888 0.502999
Si Si6 0.538357 0.447896 0.668827
O O1 0.659871 0.250000 0.750000
O O2 0.742706 0.134258 0.926613
O O3 0.646807 0.290255 0.012414
O O4 0.569049 0.138258 0.927718
O O5 0.157701 0.866039 0.612084
O O6 0.113239 0.717732 0.440843
O O7 0.164552 0.860176 0.311899
O O8 0.012288 0.864158 0.451740
O O9 0.430859 0.043432 0.811108
O O10 0.250000 0.000000 0.779087
O O11 0.364516 0.963780 0.587357
O O12 0.408885 0.461205 0.379000
O O13 0.922219 0.919591 0.669868
#
# Coordination Sequence:
#
# PCOD9408741 Si02
#       6
#     8   8   8   8   8   8
#     4  10  20  30  53  79 115 142 177 227 276 320
#     4  10  19  31  52  81 114 136 181 227 276 321
#     4  11  20  32  55  82 110 141 181 227 275 324
#     4  11  18  32  53  85 107 143 181 225 272 329
#     4  10  19  35  50  82 114 142 174 231 281 319
#     4  10  20  34  51  81 107 143 182 229 274 318
#
# _framework density 24.641926000000002
#
# number of rings (size 3 to 8) (size 9 to 14) (size 15 to 20)
#    0.000    1.667    5.000    2.500    2.333    0.000 
#    0.000    0.833    0.000   12.000    0.000    0.000 
#    0.000    0.000    0.000    0.000    0.000    0.000 
#
# Total GULP energy -268400.336107 kJ/mol
# GULP energy per Si atom -5591.673669 kJ/mol
# Density = 2.458584 g / cm^3
# Si number density = 24.641926 Si / 1000 Ang^3
#
#
#
# Elastic Constant Matrix: (Units=GPa)
#
#
# Indices 1 2 3 4 5 6 
#
# 1 151.9358 62.0424 27.7155 0.0000 0.0000 0.0000
# 2 62.0424 123.6407 48.6521 0.0000 0.0000 0.0000
# 3 27.7155 48.6521 63.4611 0.0000 0.0000 0.0000
# 4 0.0000 0.0000 0.0000 24.4561 0.0000 0.0000
# 5 0.0000 0.0000 0.0000 0.0000 5.5399 0.0000
# 6 0.0000 0.0000 0.0000 0.0000 0.0000 33.4544
#
#
#
# Elastic Compliance Matrix: (Units=1/GPa)
#
#
# Indices 1 2 3 4 5 6 
#
# 1 0.008295 -0.003919 -0.000618 0.000000 0.000000 0.000000
# 2 -0.003919 0.013434 -0.008587 0.000000 0.000000 0.000000
# 3 -0.000618 -0.008587 0.022611 0.000000 0.000000 0.000000
# 4 0.000000 0.000000 0.000000 0.040890 0.000000 0.000000
# 5 0.000000 0.000000 0.000000 0.000000 0.180508 0.000000
# 6 0.000000 0.000000 0.000000 0.000000 0.000000 0.029891
#
#
# Mechanical properties :
#
#
# Convention : Reuss Voigt Hill
#
# Bulk Modulus (GPa) = 55.27719 68.42862 61.85291
# Shear Modulus (GPa) = 15.24822 26.06525 20.65674
#
# Velocity S-wave (km/s) = 2.49025 3.25585 2.89844
# Velocity P-wave (km/s) = 5.54521 6.47793 6.02963
#
# Compressibility (1/GPa) = 0.01809065
#
# Stress axis : x y z
#
# Youngs Moduli (GPa) = 120.55713 74.44040 44.22638
#
# Poissons Ratio (x) = 0.29174 0.02733
# Poissons Ratio (y) = 0.47248 0.37978
# Poissons Ratio (z) = 0.07451 0.63923
#
# Static dielectric constant tensor:
#      x y z
#    x 1.980290 0.000000 0.000000 
#    y 0.000000 1.922360 0.000000 
#    z 0.000000 0.000000 1.986690 
# 
# From -- ./inp_files/19515.got.cif
#   From: 2010.05.17/outbox.cif.g08.bks.cpg/sg52_10_cif.got.tgz:19515.got - 2010.06.03 12:15:38.
