data_PCOD9408623
_publ_section_title
;
Structure prediction by ZEFSAII (Michael W. Deem and Ramdas Pophale) SiO2 
 PCOD9408623
Probable space group: P N N A
;
_chemical_formula_sum "Si O2"
_cell_formula_units_Z 36
_cell_length_a 9.236996
_cell_length_b 16.022267
_cell_length_c 10.715616
_cell_angle_alpha 90.000000
_cell_angle_beta 90.000000
_cell_angle_gamma 90.000000
_cell_volume 1585.885624
_symmetry_space_group_name_H-M "P N N A"
_symmetry_group_IT_number 52
_symmetry_cell_setting 'orthorhombic'
loop_
_space_group_symop_operation_xyz
x,y,z
1/2-x,-y,z
x,1/2-y,1/2-z
1/2-x,1/2+y,1/2-z
-x,-y,-z
1/2+x,y,-z
-x,1/2+y,1/2+z
1/2+x,1/2-y,1/2+z
loop_
_atom_site_type_symbol
_atom_site_label
_atom_site_fract_x
_atom_site_fract_y
_atom_site_fract_z
Si Si1 0.720712 0.250000 0.750000
Si Si2 0.521434 0.854270 0.668154
Si Si3 0.745595 0.591734 0.327839
Si Si4 0.346840 0.082168 0.565127
Si Si5 0.673278 0.245813 0.022751
O O1 0.635081 0.262389 0.622053
O O2 0.826244 0.169675 0.730115
O O3 0.399401 0.892313 0.757176
O O4 0.539128 0.913975 0.547414
O O5 0.463030 0.766793 0.609939
O O6 0.750000 0.500000 0.386336
O O7 0.627667 0.589529 0.214771
O O8 0.738599 0.667518 0.423966
O O9 0.264232 0.169441 0.538346
O O10 0.250000 0.000000 0.549370
#
# Coordination Sequence:
#
# PCOD9408623 Si02
#       5
#     4   8   8   8   8
#     4  10  20  38  62  84 120 166 210 254 308 370
#     4  10  18  38  62  82 128 164 198 266 314 342
#     4  10  20  36  59  89 125 163 205 250 308 373
#     4   9  19  33  60  89 118 157 208 253 301 369
#     4  10  20  37  58  87 118 162 207 248 310 367
#
# _framework density 22.70025
#
# number of rings (size 3 to 8) (size 9 to 14) (size 15 to 20)
#    0.000    2.222    2.222    2.000    0.000    8.000 
#    8.000    5.556    0.000    0.000    0.000    0.000 
#    0.000    0.000    0.000    0.000    0.000    0.000 
#
# Total GULP energy -200710.510464 kJ/mol
# GULP energy per Si atom -5575.291957 kJ/mol
# Density = 2.264858 g / cm^3
# Si number density = 22.700250 Si / 1000 Ang^3
#
#
#
# Elastic Constant Matrix: (Units=GPa)
#
#
# Indices 1 2 3 4 5 6 
#
# 1 24.8705 12.7340 6.3096 0.0000 0.0000 0.0000
# 2 12.7340 161.4008 49.3043 0.0000 0.0000 0.0000
# 3 6.3096 49.3043 94.9695 0.0000 0.0000 0.0000
# 4 0.0000 0.0000 0.0000 26.6054 0.0000 0.0000
# 5 0.0000 0.0000 0.0000 0.0000 15.3147 0.0000
# 6 0.0000 0.0000 0.0000 0.0000 0.0000 14.0884
#
#
#
# Elastic Compliance Matrix: (Units=1/GPa)
#
#
# Indices 1 2 3 4 5 6 
#
# 1 0.042030 -0.002927 -0.001273 0.000000 0.000000 0.000000
# 2 -0.002927 0.007567 -0.003734 0.000000 0.000000 0.000000
# 3 -0.001273 -0.003734 0.012553 0.000000 0.000000 0.000000
# 4 0.000000 0.000000 0.000000 0.037586 0.000000 0.000000
# 5 0.000000 0.000000 0.000000 0.000000 0.065297 0.000000
# 6 0.000000 0.000000 0.000000 0.000000 0.000000 0.070980
#
#
# Mechanical properties :
#
#
# Convention : Reuss Voigt Hill
#
# Bulk Modulus (GPa) = 21.60665 46.43739 34.02202
# Shear Modulus (GPa) = 18.70491 25.39455 22.04973
#
# Velocity S-wave (km/s) = 2.87365 3.34831 3.12002
# Velocity P-wave (km/s) = 4.53314 5.95394 5.29145
#
# Compressibility (1/GPa) = 0.04628204
#
# Stress axis : x y z
#
# Youngs Moduli (GPa) = 23.79252 132.14526 79.66282
#
# Poissons Ratio (x) = 0.38682 0.10138
# Poissons Ratio (y) = 0.06965 0.29748
# Poissons Ratio (z) = 0.03028 0.49346
#
# Static dielectric constant tensor:
#      x y z
#    x 1.940070 0.000000 0.000000 
#    y 0.000000 1.860400 0.000000 
#    z 0.000000 0.000000 1.919410 
# 
# From -- ./inp_files/17926.got.cif
#   From: 2010.05.17/outbox.cif.g08.bks.cpg/sg52_9_cif.got.tgz:17926.got - 2010.06.03 12:15:38.
