data_PCOD9408648
_publ_section_title
;
Structure prediction by ZEFSAII (Michael W. Deem and Ramdas Pophale) SiO2 
 PCOD9408648
Probable space group: P N N A
;
_chemical_formula_sum "Si O2"
_cell_formula_units_Z 56
_cell_length_a 10.867403
_cell_length_b 8.807589
_cell_length_c 22.946656
_cell_angle_alpha 90.000000
_cell_angle_beta 90.000000
_cell_angle_gamma 90.000000
_cell_volume 2196.353386
_symmetry_space_group_name_H-M "P N N A"
_symmetry_group_IT_number 52
_symmetry_cell_setting 'orthorhombic'
loop_
_space_group_symop_operation_xyz
x,y,z
1/2-x,-y,z
x,1/2-y,1/2-z
1/2-x,1/2+y,1/2-z
-x,-y,-z
1/2+x,y,-z
-x,1/2+y,1/2+z
1/2+x,1/2-y,1/2+z
loop_
_atom_site_type_symbol
_atom_site_label
_atom_site_fract_x
_atom_site_fract_y
_atom_site_fract_z
Si Si1 0.540647 0.439059 0.438635
Si Si2 0.422687 0.363149 0.047933
Si Si3 0.408785 0.509334 0.167878
Si Si4 0.795440 0.685838 0.043560
Si Si5 0.492084 0.750000 0.750000
Si Si6 0.068460 0.551131 0.685492
Si Si7 0.315754 0.355247 0.828912
Si Si8 0.131100 0.250000 0.250000
O O1 0.500000 0.500000 0.500000
O O2 0.444707 0.304222 0.423729
O O3 0.829746 0.639335 0.452072
O O4 0.550575 0.546141 0.383794
O O5 0.385856 0.472278 0.100541
O O6 0.568448 0.386301 0.028564
O O7 0.314846 0.346673 0.000500
O O8 0.433771 0.356583 0.205170
O O9 0.543760 0.589968 0.165980
O O10 0.321793 0.636670 0.198595
O O11 0.752796 0.651506 0.109060
O O12 0.424917 0.621012 0.710231
O O13 0.170742 0.682674 0.694444
O O14 0.948868 0.624822 0.715391
O O15 0.250000 0.500000 0.798413
#
# Coordination Sequence:
#
# PCOD9408648 Si02
#       8
#     8   8   8   8   4   8   8   4
#     4  10  21  39  65 101 144 193 241 302 385 461
#     4  10  21  40  66 101 144 193 243 304 372 459
#     4  10  19  39  63  95 141 186 241 303 378 450
#     4  10  23  41  66  98 148 195 240 300 379 450
#     4  10  18  40  63  98 135 188 242 305 375 446
#     4  10  20  36  68  92 144 189 241 308 380 458
#     4  11  21  39  58  91 141 190 234 291 371 443
#     4   8  20  36  65  98 137 194 238 309 381 466
#
# _framework density 25.496808999999999
#
# number of rings (size 3 to 8) (size 9 to 14) (size 15 to 20)
#    0.857    1.143    2.857    0.857    0.000    2.857 
#    0.000    4.286   15.714    0.000    0.000    1.000 
#    4.286    1.143    0.000    0.000    0.000    0.000 
#
# Total GULP energy -312302.453996 kJ/mol
# GULP energy per Si atom -5576.829536 kJ/mol
# Density = 2.543878 g / cm^3
# Si number density = 25.496809 Si / 1000 Ang^3
#
#
#
# Elastic Constant Matrix: (Units=GPa)
#
#
# Indices 1 2 3 4 5 6 
#
# 1 141.6528 52.1873 62.8812 0.0000 0.0000 0.0000
# 2 52.1873 189.0327 65.4508 0.0000 0.0000 0.0000
# 3 62.8812 65.4508 174.7808 0.0000 0.0000 0.0000
# 4 0.0000 0.0000 0.0000 41.6779 0.0000 0.0000
# 5 0.0000 0.0000 0.0000 0.0000 -516.4237 0.0000
# 6 0.0000 0.0000 0.0000 0.0000 0.0000 -0.1564
#
#
#
# Elastic Compliance Matrix: (Units=1/GPa)
#
#
# Indices 1 2 3 4 5 6 
#
# 1 0.008769 -0.001526 -0.002583 0.000000 0.000000 0.000000
# 2 -0.001526 0.006344 -0.001826 0.000000 0.000000 0.000000
# 3 -0.002583 -0.001826 0.007335 0.000000 0.000000 0.000000
# 4 0.000000 0.000000 0.000000 0.023994 0.000000 0.000000
# 5 0.000000 0.000000 0.000000 0.000000 -0.001936 0.000000
# 6 0.000000 0.000000 0.000000 0.000000 0.000000 -6.393627
#
#
# Mechanical properties :
#
#
# Convention : Reuss Voigt Hill
#
# Bulk Modulus (GPa) = 94.56028 96.27831 95.41930
# Shear Modulus (GPa) = -0.78942 -73.31731 -37.05337
#
# Velocity S-wave (km/s) = -0.55704 -5.36823 -3.81629
# Velocity P-wave (km/s) = 6.06250 0.76222 4.25282
#
# Compressibility (1/GPa) = 0.01057526
#
# Stress axis : x y z
#
# Youngs Moduli (GPa) = 114.04429 157.63200 136.33772
#
# Poissons Ratio (x) = 0.24061 0.35217
# Poissons Ratio (y) = 0.17408 0.24901
# Poissons Ratio (z) = 0.29458 0.28791
#
# Static dielectric constant tensor:
#      x y z
#    x 1.978680 0.000000 0.000000 
#    y 0.000000 2.101480 0.000000 
#    z 0.000000 0.000000 2.173340 
# 
# From -- ./inp_files/40895.got.cif
#   From: 2010.05.17/outbox.cif.g08.bks.cpg/sg52_21_cif.got.tgz:40895.got - 2010.06.03 12:15:38.
