data_PCOD9408170
_publ_section_title
;
Structure prediction by ZEFSAII (Michael W. Deem and Ramdas Pophale) SiO2 
 PCOD9408170
Probable space group: P N N A
;
_chemical_formula_sum "Si O2"
_cell_formula_units_Z 56
_cell_length_a 9.710303
_cell_length_b 18.797545
_cell_length_c 19.974476
_cell_angle_alpha 90.000000
_cell_angle_beta 90.000000
_cell_angle_gamma 90.000000
_cell_volume 3645.938260
_symmetry_space_group_name_H-M "P N N A"
_symmetry_group_IT_number 52
_symmetry_cell_setting 'orthorhombic'
loop_
_space_group_symop_operation_xyz
x,y,z
1/2-x,-y,z
x,1/2-y,1/2-z
1/2-x,1/2+y,1/2-z
-x,-y,-z
1/2+x,y,-z
-x,1/2+y,1/2+z
1/2+x,1/2-y,1/2+z
loop_
_atom_site_type_symbol
_atom_site_label
_atom_site_fract_x
_atom_site_fract_y
_atom_site_fract_z
Si Si1 0.663461 0.280387 0.676552
Si Si2 0.130638 0.082932 0.633063
Si Si3 0.188565 0.075366 0.241497
Si Si4 0.772810 0.657769 0.005841
Si Si5 0.846134 0.149490 0.637264
Si Si6 0.427431 0.425609 0.827196
Si Si7 0.520356 0.707659 0.077763
O O1 0.624387 0.250000 0.750000
O O2 0.705363 0.361371 0.688284
O O3 0.785774 0.228456 0.650947
O O4 0.537057 0.268677 0.625973
O O5 0.187911 0.096880 0.558550
O O6 0.264115 0.089688 0.681132
O O7 0.008530 0.138457 0.645945
O O8 0.069936 0.004008 0.640411
O O9 0.270388 0.099521 0.308669
O O10 0.028389 0.072512 0.263824
O O11 0.250000 0.000000 0.220281
O O12 0.696233 0.630939 0.938865
O O13 0.910070 0.695903 0.980726
O O14 0.670176 0.710368 0.045380
O O15 0.481235 0.364119 0.876825
#
# Coordination Sequence:
#
# PCOD9408170 Si02
#       7
#     8   8   8   8   8   8   8
#     4   9  18  32  52  67  93 122 170 207 226 287
#     4  10  20  30  42  67 107 131 160 191 234 280
#     4  11  19  33  55  68  91 129 167 205 243 280
#     4  10  18  29  44  71 101 129 163 193 227 293
#     4  10  18  32  49  70  96 130 162 199 235 279
#     4  10  19  31  42  68 101 136 163 189 230 279
#     4  10  18  31  46  67  97 130 160 198 237 272
#
# _framework density 15.359558
#
# number of rings (size 3 to 8) (size 9 to 14) (size 15 to 20)
#    0.000    2.000    7.143    0.000    0.000    0.571 
#   10.286    0.000   18.857    0.000    0.000    4.000 
#    0.000    0.000    0.000    0.000    0.000    0.000 
#
# Total GULP energy -311748.779595 kJ/mol
# GULP energy per Si atom -5566.942493 kJ/mol
# Density = 1.532460 g / cm^3
# Si number density = 15.359558 Si / 1000 Ang^3
#
#
#
# Elastic Constant Matrix: (Units=GPa)
#
#
# Indices 1 2 3 4 5 6 
#
# 1 75.0062 26.5387 13.3898 0.0000 0.0000 0.0000
# 2 26.5387 87.1333 18.2437 0.0000 0.0000 0.0000
# 3 13.3898 18.2437 18.8949 0.0000 0.0000 0.0000
# 4 0.0000 0.0000 0.0000 16.7229 0.0000 0.0000
# 5 0.0000 0.0000 0.0000 0.0000 7.7334 0.0000
# 6 0.0000 0.0000 0.0000 0.0000 0.0000 16.1448
#
#
#
# Elastic Compliance Matrix: (Units=1/GPa)
#
#
# Indices 1 2 3 4 5 6 
#
# 1 0.015910 -0.003115 -0.008267 0.000000 0.000000 0.000000
# 2 -0.003115 0.014995 -0.012270 0.000000 0.000000 0.000000
# 3 -0.008267 -0.012270 0.070630 0.000000 0.000000 0.000000
# 4 0.000000 0.000000 0.000000 0.059798 0.000000 0.000000
# 5 0.000000 0.000000 0.000000 0.000000 0.129310 0.000000
# 6 0.000000 0.000000 0.000000 0.000000 0.000000 0.061939
#
#
# Mechanical properties :
#
#
# Convention : Reuss Voigt Hill
#
# Bulk Modulus (GPa) = 18.43990 33.04207 25.74098
# Shear Modulus (GPa) = 11.96275 16.31102 14.13688
#
# Velocity S-wave (km/s) = 2.79381 3.26229 3.03709
# Velocity P-wave (km/s) = 4.73695 5.97905 5.39388
#
# Compressibility (1/GPa) = 0.05423023
#
# Stress axis : x y z
#
# Youngs Moduli (GPa) = 62.85290 66.69098 14.15821
#
# Poissons Ratio (x) = 0.20774 0.11705
# Poissons Ratio (y) = 0.19578 0.17373
# Poissons Ratio (z) = 0.51961 0.81833
#
# Static dielectric constant tensor:
#      x y z
#    x 1.558250 0.000000 0.000000 
#    y 0.000000 1.508790 0.000000 
#    z 0.000000 0.000000 1.507840 
# 
# From -- ./inp_files/36128.got.cif
#   From: 2010.05.17/outbox.cif.g08.bks.cpg/sg52_19_cif.got.tgz:36128.got - 2010.06.03 12:15:38.
