data_PCOD9408772
_publ_section_title
;
Structure prediction by ZEFSAII (Michael W. Deem and Ramdas Pophale) SiO2 
 PCOD9408772
Probable space group: P N N A
;
_chemical_formula_sum "Si O2"
_cell_formula_units_Z 44
_cell_length_a 32.646108
_cell_length_b 7.634016
_cell_length_c 7.798372
_cell_angle_alpha 90.000000
_cell_angle_beta 90.000000
_cell_angle_gamma 90.000000
_cell_volume 1943.517373
_symmetry_space_group_name_H-M "P N N A"
_symmetry_group_IT_number 52
_symmetry_cell_setting 'orthorhombic'
loop_
_space_group_symop_operation_xyz
x,y,z
1/2-x,-y,z
x,1/2-y,1/2-z
1/2-x,1/2+y,1/2-z
-x,-y,-z
1/2+x,y,-z
-x,1/2+y,1/2+z
1/2+x,1/2-y,1/2+z
loop_
_atom_site_type_symbol
_atom_site_label
_atom_site_fract_x
_atom_site_fract_y
_atom_site_fract_z
Si Si1 0.783788 0.250000 0.750000
Si Si2 0.839884 0.503011 0.153312
Si Si3 0.937126 0.136327 0.981912
Si Si4 0.569743 0.480759 0.132946
Si Si5 0.151857 0.615144 0.476557
Si Si6 0.496440 0.750000 0.750000
Si Si7 0.750000 0.000000 0.480596
O O1 0.813818 0.394339 0.667126
O O2 0.758348 0.333974 0.899812
O O3 0.883818 0.587595 0.101982
O O4 0.841448 0.504765 0.359432
O O5 0.845202 0.309205 0.065481
O O6 0.792691 0.544427 0.112668
O O7 0.937315 0.343866 0.025192
O O8 0.935253 0.041658 0.166782
O O9 0.893139 0.092650 0.900236
O O10 0.974422 0.114474 0.851895
O O11 0.533878 0.341166 0.113596
#
# Coordination Sequence:
#
# PCOD9408772 Si02
#       7
#     4   8   8   8   8   4   4
#     4  10  19  32  52  82 106 122 162 224 265 288
#     4   8  16  33  52  69  96 137 173 200 243 303
#     4   9  18  33  52  71  96 134 174 202 237 299
#     4   9  19  34  49  71 104 133 166 209 246 295
#     4   8  15  31  53  72  93 130 175 209 235 289
#     4  12  19  28  50  80 102 126 160 208 265 298
#     4  10  20  34  54  76 102 136 172 208 254 312
#
# _framework density 22.639365000000002
#
# number of rings (size 3 to 8) (size 9 to 14) (size 15 to 20)
#    0.000    2.909    0.000    3.818    0.000    0.727 
#    0.000    7.273    0.000    6.545    0.000    0.000 
#    0.000    0.000    0.000    0.000    0.000    0.000 
#
# Total GULP energy -245205.560811 kJ/mol
# GULP energy per Si atom -5572.853655 kJ/mol
# Density = 2.258784 g / cm^3
# Si number density = 22.639365 Si / 1000 Ang^3
#
#
#
# Elastic Constant Matrix: (Units=GPa)
#
#
# Indices 1 2 3 4 5 6 
#
# 1 225.9735 20.4649 45.4480 0.0000 0.0000 0.0000
# 2 20.4649 20.1700 -7.4545 0.0000 0.0000 0.0000
# 3 45.4480 -7.4545 49.6294 0.0000 0.0000 0.0000
# 4 0.0000 0.0000 0.0000 16.0649 0.0000 0.0000
# 5 0.0000 0.0000 0.0000 0.0000 28.6129 0.0000
# 6 0.0000 0.0000 0.0000 0.0000 0.0000 11.8519
#
#
#
# Elastic Compliance Matrix: (Units=1/GPa)
#
#
# Indices 1 2 3 4 5 6 
#
# 1 0.006884 -0.009862 -0.007786 0.000000 0.000000 0.000000
# 2 -0.009862 0.066621 0.019038 0.000000 0.000000 0.000000
# 3 -0.007786 0.019038 0.030139 0.000000 0.000000 0.000000
# 4 0.000000 0.000000 0.000000 0.062247 0.000000 0.000000
# 5 0.000000 0.000000 0.000000 0.000000 0.034949 0.000000
# 6 0.000000 0.000000 0.000000 0.000000 0.000000 0.084375
#
#
# Mechanical properties :
#
#
# Convention : Reuss Voigt Hill
#
# Bulk Modulus (GPa) = 9.39633 45.85442 27.62537
# Shear Modulus (GPa) = 15.72769 27.12691 21.42730
#
# Velocity S-wave (km/s) = 2.63859 3.46528 3.07980
# Velocity P-wave (km/s) = 3.66637 6.02571 4.98756
#
# Compressibility (1/GPa) = 0.10642456
#
# Stress axis : x y z
#
# Youngs Moduli (GPa) = 145.25734 15.01021 33.17997
#
# Poissons Ratio (x) = 0.14804 0.25833
# Poissons Ratio (y) = 1.43259 -0.63169
# Poissons Ratio (z) = 1.13093 -0.28577
#
# Static dielectric constant tensor:
#      x y z
#    x 1.884130 0.000000 0.000000 
#    y 0.000000 2.036460 0.000000 
#    z 0.000000 0.000000 1.839920 
# 
# From -- ./inp_files/15424.got.cif
#   From: 2010.05.17/outbox.cif.g08.bks.cpg/sg52_8_cif.got.tgz:15424.got - 2010.06.03 12:15:38.
