data_PCOD9408973
_publ_section_title
;
Structure prediction by ZEFSAII (Michael W. Deem and Ramdas Pophale) SiO2 
 PCOD9408973
Probable space group: P N N A
;
_chemical_formula_sum "Si O2"
_cell_formula_units_Z 48
_cell_length_a 11.202247
_cell_length_b 12.974475
_cell_length_c 16.558556
_cell_angle_alpha 90.000000
_cell_angle_beta 90.000000
_cell_angle_gamma 90.000000
_cell_volume 2406.674736
_symmetry_space_group_name_H-M "P N N A"
_symmetry_group_IT_number 52
_symmetry_cell_setting 'orthorhombic'
loop_
_space_group_symop_operation_xyz
x,y,z
1/2-x,-y,z
x,1/2-y,1/2-z
1/2-x,1/2+y,1/2-z
-x,-y,-z
1/2+x,y,-z
-x,1/2+y,1/2+z
1/2+x,1/2-y,1/2+z
loop_
_atom_site_type_symbol
_atom_site_label
_atom_site_fract_x
_atom_site_fract_y
_atom_site_fract_z
Si Si1 0.521291 0.974335 0.906980
Si Si2 0.217642 0.379638 0.610736
Si Si3 0.927121 0.175540 0.675711
Si Si4 0.411054 0.838543 0.189314
Si Si5 0.750000 0.000000 0.714588
Si Si6 0.710872 0.814770 0.933645
Si Si7 0.838631 0.750000 0.250000
O O1 0.426412 0.887643 0.884774
O O2 0.650513 0.921776 0.902972
O O3 0.504915 0.076688 0.853931
O O4 0.500000 0.000000 0.000000
O O5 0.250000 0.500000 0.609922
O O6 0.262639 0.329026 0.527987
O O7 0.243857 0.315196 0.690089
O O8 0.880607 0.250000 0.750000
O O9 0.884472 0.229467 0.593246
O O10 0.068502 0.178132 0.697410
O O11 0.858846 0.066660 0.676022
O O12 0.455351 0.750000 0.250000
O O13 0.332193 0.793513 0.115360
O O14 0.321416 0.911155 0.239040
#
# Coordination Sequence:
#
# PCOD9408973 Si02
#       7
#     8   8   8   8   4   8   4
#     4  12  21  36  58  92 123 153 201 257 319 370
#     4  12  24  38  66  88 118 167 208 261 309 374
#     4  10  19  34  61  87 121 167 195 250 314 374
#     4  12  20  32  55  89 126 152 192 257 312 366
#     4  12  16  30  56  90 118 152 198 246 300 376
#     4  12  19  36  61  94 117 153 208 252 312 362
#     4  10  22  44  58  86 128 172 202 250 334 378
#
# _framework density 19.944533
#
# number of rings (size 3 to 8) (size 9 to 14) (size 15 to 20)
#    0.500    0.000   10.000    1.000    0.000    0.000 
#    1.500    0.000    1.833    1.000    0.000    0.000 
#    0.000    0.000    0.000    0.000    0.000    0.000 
#
# Total GULP energy -267372.997166 kJ/mol
# GULP energy per Si atom -5570.270774 kJ/mol
# Density = 1.989914 g / cm^3
# Si number density = 19.944533 Si / 1000 Ang^3
#
#
#
# Elastic Constant Matrix: (Units=GPa)
#
#
# Indices 1 2 3 4 5 6 
#
# 1 38.3855 8.8336 19.4668 0.0000 0.0000 0.0000
# 2 8.8336 73.8018 61.8328 0.0000 0.0000 0.0000
# 3 19.4668 61.8328 130.9405 0.0000 0.0000 0.0000
# 4 0.0000 0.0000 0.0000 42.8779 0.0000 0.0000
# 5 0.0000 0.0000 0.0000 0.0000 25.8393 0.0000
# 6 0.0000 0.0000 0.0000 0.0000 0.0000 27.7963
#
#
#
# Elastic Compliance Matrix: (Units=1/GPa)
#
#
# Indices 1 2 3 4 5 6 
#
# 1 0.028178 0.000227 -0.004296 0.000000 0.000000 0.000000
# 2 0.000227 0.022422 -0.010622 0.000000 0.000000 0.000000
# 3 -0.004296 -0.010622 0.013292 0.000000 0.000000 0.000000
# 4 0.000000 0.000000 0.000000 0.023322 0.000000 0.000000
# 5 0.000000 0.000000 0.000000 0.000000 0.038701 0.000000
# 6 0.000000 0.000000 0.000000 0.000000 0.000000 0.035976
#
#
# Mechanical properties :
#
#
# Convention : Reuss Voigt Hill
#
# Bulk Modulus (GPa) = 28.97793 47.04380 38.01087
# Shear Modulus (GPa) = 24.65776 29.50233 27.08004
#
# Velocity S-wave (km/s) = 3.51994 3.85023 3.68879
# Velocity P-wave (km/s) = 5.57502 6.58819 6.10267
#
# Compressibility (1/GPa) = 0.03450902
#
# Stress axis : x y z
#
# Youngs Moduli (GPa) = 35.48846 44.59947 75.23554
#
# Poissons Ratio (x) = -0.01011 0.32324
# Poissons Ratio (y) = -0.00805 0.79913
# Poissons Ratio (z) = 0.15247 0.47372
#
# Static dielectric constant tensor:
#      x y z
#    x 2.098490 0.000000 0.000000 
#    y 0.000000 1.678620 0.000000 
#    z 0.000000 0.000000 1.763490 
# 
# From -- ./inp_files/27210.got.cif
#   From: 2010.05.17/outbox.cif.g08.bks.cpg/sg52_14_cif.got.tgz:27210.got - 2010.06.03 12:15:38.
