data_PCOD9408877
_publ_section_title
;
Structure prediction by ZEFSAII (Michael W. Deem and Ramdas Pophale) SiO2 
 PCOD9408877
Probable space group: P N N A
;
_chemical_formula_sum "Si O2"
_cell_formula_units_Z 48
_cell_length_a 14.547978
_cell_length_b 8.968778
_cell_length_c 18.237276
_cell_angle_alpha 90.000000
_cell_angle_beta 90.000000
_cell_angle_gamma 90.000000
_cell_volume 2379.555730
_symmetry_space_group_name_H-M "P N N A"
_symmetry_group_IT_number 52
_symmetry_cell_setting 'orthorhombic'
loop_
_space_group_symop_operation_xyz
x,y,z
1/2-x,-y,z
x,1/2-y,1/2-z
1/2-x,1/2+y,1/2-z
-x,-y,-z
1/2+x,y,-z
-x,1/2+y,1/2+z
1/2+x,1/2-y,1/2+z
loop_
_atom_site_type_symbol
_atom_site_label
_atom_site_fract_x
_atom_site_fract_y
_atom_site_fract_z
Si Si1 0.519274 0.256360 0.637944
Si Si2 0.140066 0.987456 0.386683
Si Si3 0.640314 0.504527 0.713021
Si Si4 0.868406 0.250000 0.250000
Si Si5 0.418297 0.326192 0.427156
Si Si6 0.901797 0.984076 0.058277
Si Si7 0.250000 0.500000 0.670358
O O1 0.579337 0.133665 0.595890
O O2 0.591972 0.352579 0.685753
O O3 0.439381 0.186735 0.689145
O O4 0.460816 0.379045 0.593272
O O5 0.122417 0.967426 0.298796
O O6 0.250000 0.000000 0.395114
O O7 0.110042 0.844033 0.432846
O O8 0.750000 0.500000 0.703807
O O9 0.601156 0.625782 0.656474
O O10 0.804014 0.378375 0.282502
O O11 0.524455 0.353232 0.446763
O O12 0.368382 0.444932 0.481600
O O13 0.824551 0.933724 0.114322
#
# Coordination Sequence:
#
# PCOD9408877 Si02
#       7
#     8   8   8   4   8   8   4
#     4  10  19  37  58  80 122 152 182 245 306 343
#     4  11  21  34  57  91 120 150 194 242 292 349
#     4  10  19  33  57  88 119 155 192 233 287 351
#     4  10  20  38  60  86 110 152 188 252 300 334
#     4  10  21  37  58  85 115 156 197 234 292 353
#     4   9  22  41  58  84 112 157 197 240 291 357
#     4  10  22  40  64  86 114 146 206 246 294 354
#
# _framework density 20.171832999999999
#
# number of rings (size 3 to 8) (size 9 to 14) (size 15 to 20)
#    0.000    2.000    1.667    1.500    1.167    4.667 
#    3.000    0.000    7.333    0.000    0.000    0.000 
#    0.000    0.000    0.000    0.000    0.000    0.000 
#
# Total GULP energy -267595.654093 kJ/mol
# GULP energy per Si atom -5574.909460 kJ/mol
# Density = 2.012592 g / cm^3
# Si number density = 20.171833 Si / 1000 Ang^3
#
#
#
# Elastic Constant Matrix: (Units=GPa)
#
#
# Indices 1 2 3 4 5 6 
#
# 1 114.0352 47.8661 28.3622 0.0000 0.0000 0.0000
# 2 47.8661 88.9189 5.6140 0.0000 0.0000 0.0000
# 3 28.3622 5.6140 41.2757 0.0000 0.0000 0.0000
# 4 0.0000 0.0000 0.0000 7.3428 0.0000 0.0000
# 5 0.0000 0.0000 0.0000 0.0000 31.4838 0.0000
# 6 0.0000 0.0000 0.0000 0.0000 0.0000 31.8098
#
#
#
# Elastic Compliance Matrix: (Units=1/GPa)
#
#
# Indices 1 2 3 4 5 6 
#
# 1 0.013779 -0.006878 -0.008532 0.000000 0.000000 0.000000
# 2 -0.006878 0.014777 0.002717 0.000000 0.000000 0.000000
# 3 -0.008532 0.002717 0.029721 0.000000 0.000000 0.000000
# 4 0.000000 0.000000 0.000000 0.136188 0.000000 0.000000
# 5 0.000000 0.000000 0.000000 0.000000 0.031762 0.000000
# 6 0.000000 0.000000 0.000000 0.000000 0.000000 0.031437
#
#
# Mechanical properties :
#
#
# Convention : Reuss Voigt Hill
#
# Bulk Modulus (GPa) = 30.40583 45.32381 37.86482
# Shear Modulus (GPa) = 17.00594 24.95313 20.97953
#
# Velocity S-wave (km/s) = 2.90669 3.52096 3.22847
# Velocity P-wave (km/s) = 5.13529 6.24877 5.71920
#
# Compressibility (1/GPa) = 0.03288842
#
# Stress axis : x y z
#
# Youngs Moduli (GPa) = 72.57663 67.67070 33.64655
#
# Poissons Ratio (x) = 0.46547 0.28708
# Poissons Ratio (y) = 0.49922 -0.09140
# Poissons Ratio (z) = 0.61924 -0.18383
#
# Static dielectric constant tensor:
#      x y z
#    x 1.710310 0.000000 0.000000 
#    y 0.000000 1.715460 0.000000 
#    z 0.000000 0.000000 1.788390 
# 
# From -- ./inp_files/33109.got.cif
#   From: 2010.05.17/outbox.cif.g08.bks.cpg/sg52_17_cif.got.tgz:33109.got - 2010.06.03 12:15:38.
