data_PCOD9408757
_publ_section_title
;
Structure prediction by ZEFSAII (Michael W. Deem and Ramdas Pophale) SiO2 
 PCOD9408757
Probable space group: P N N A
;
_chemical_formula_sum "Si O2"
_cell_formula_units_Z 64
_cell_length_a 5.132659
_cell_length_b 24.355161
_cell_length_c 23.746581
_cell_angle_alpha 90.000000
_cell_angle_beta 90.000000
_cell_angle_gamma 90.000000
_cell_volume 2968.482589
_symmetry_space_group_name_H-M "P N N A"
_symmetry_group_IT_number 52
_symmetry_cell_setting 'orthorhombic'
loop_
_space_group_symop_operation_xyz
x,y,z
1/2-x,-y,z
x,1/2-y,1/2-z
1/2-x,1/2+y,1/2-z
-x,-y,-z
1/2+x,y,-z
-x,1/2+y,1/2+z
1/2+x,1/2-y,1/2+z
loop_
_atom_site_type_symbol
_atom_site_label
_atom_site_fract_x
_atom_site_fract_y
_atom_site_fract_z
Si Si1 0.882070 0.195629 0.030096
Si Si2 0.294049 0.066518 0.468168
Si Si3 0.911456 0.437724 0.465847
Si Si4 0.998059 0.537330 0.147347
Si Si5 0.609792 0.421818 0.272663
Si Si6 0.650320 0.199026 0.858010
Si Si7 0.643847 0.292686 0.296233
Si Si8 0.887593 0.932676 0.843821
O O1 0.895802 0.129151 0.035335
O O2 0.017794 0.218811 0.085150
O O3 0.584423 0.210244 0.019325
O O4 0.509566 0.086565 0.513059
O O5 0.410327 0.074991 0.405382
O O6 0.250000 0.000000 0.470900
O O7 0.119114 0.452065 0.514849
O O8 0.017635 0.455394 0.404466
O O9 0.750000 0.500000 0.129107
O O10 0.926218 0.563590 0.207380
O O11 0.250000 0.500000 0.158655
O O12 0.604863 0.355696 0.277863
O O13 0.386932 0.446189 0.314219
O O14 0.886230 0.439775 0.297869
O O15 0.445211 0.216454 0.810445
O O16 0.641051 0.132640 0.856408
O O17 0.946086 0.215294 0.847967
O O18 0.558079 0.250000 0.250000
#
# Coordination Sequence:
#
# PCOD9408757 Si02
#       8
#     8   8   8   8   8   8   8   8
#     4   9  15  23  37  59  86 114 143 179 234 290
#     4   9  16  28  47  72 100 127 156 195 240 282
#     4   9  15  23  38  61  89 119 152 192 236 281
#     4  11  21  33  51  76 105 132 162 201 245 298
#     4  10  20  33  48  70 101 131 160 197 245 295
#     4   9  17  28  43  65  90 118 152 193 237 277
#     4  10  19  32  49  68  92 125 166 203 236 275
#     4   9  17  29  44  64  97 130 154 193 241 285
#
# _framework density 21.559837000000002
#
# number of rings (size 3 to 8) (size 9 to 14) (size 15 to 20)
#    0.000    2.500    0.000    4.500    0.000    6.000 
#    0.000    0.000    0.000    0.000    0.000    5.250 
#    0.000   37.000    0.000    0.000    0.000    0.000 
#
# Total GULP energy -357096.073177 kJ/mol
# GULP energy per Si atom -5579.626143 kJ/mol
# Density = 2.151077 g / cm^3
# Si number density = 21.559837 Si / 1000 Ang^3
#
#
#
# Elastic Constant Matrix: (Units=GPa)
#
#
# Indices 1 2 3 4 5 6 
#
# 1 112.8179 17.9442 22.9803 0.0000 0.0000 0.0000
# 2 17.9442 18.2599 17.8739 0.0000 0.0000 0.0000
# 3 22.9803 17.8739 128.1254 0.0000 0.0000 0.0000
# 4 0.0000 0.0000 0.0000 15.3965 0.0000 0.0000
# 5 0.0000 0.0000 0.0000 0.0000 23.5887 0.0000
# 6 0.0000 0.0000 0.0000 0.0000 0.0000 8.5853
#
#
#
# Elastic Compliance Matrix: (Units=1/GPa)
#
#
# Indices 1 2 3 4 5 6 
#
# 1 0.010535 -0.009848 -0.000516 0.000000 0.000000 0.000000
# 2 -0.009848 0.072632 -0.008366 0.000000 0.000000 0.000000
# 3 -0.000516 -0.008366 0.009064 0.000000 0.000000 0.000000
# 4 0.000000 0.000000 0.000000 0.064950 0.000000 0.000000
# 5 0.000000 0.000000 0.000000 0.000000 0.042393 0.000000
# 6 0.000000 0.000000 0.000000 0.000000 0.000000 0.116478
#
#
# Mechanical properties :
#
#
# Convention : Reuss Voigt Hill
#
# Bulk Modulus (GPa) = 18.25765 41.86665 30.06215
# Shear Modulus (GPa) = 13.44916 22.87442 18.16179
#
# Velocity S-wave (km/s) = 2.50032 3.26079 2.90554
# Velocity P-wave (km/s) = 4.10149 5.79983 5.02296
#
# Compressibility (1/GPa) = 0.05477155
#
# Stress axis : x y z
#
# Youngs Moduli (GPa) = 94.91878 13.76805 110.32131
#
# Poissons Ratio (x) = 0.13559 0.05689
# Poissons Ratio (y) = 0.93479 0.92295
# Poissons Ratio (z) = 0.04895 0.11518
#
# Static dielectric constant tensor:
#      x y z
#    x 1.779420 0.000000 0.000000 
#    y 0.000000 1.820630 0.000000 
#    z 0.000000 0.000000 1.836450 
# 
# From -- ./inp_files/35331.got.cif
#   From: 2010.05.17/outbox.cif.g08.bks.cpg/sg52_18_cif.got.tgz:35331.got - 2010.06.03 12:15:38.
