data_PCOD9408649
_publ_section_title
;
Structure prediction by ZEFSAII (Michael W. Deem and Ramdas Pophale) SiO2 
 PCOD9408649
Probable space group: P N N A
;
_chemical_formula_sum "Si O2"
_cell_formula_units_Z 52
_cell_length_a 18.551901
_cell_length_b 25.268481
_cell_length_c 4.973913
_cell_angle_alpha 90.000000
_cell_angle_beta 90.000000
_cell_angle_gamma 90.000000
_cell_volume 2331.662769
_symmetry_space_group_name_H-M "P N N A"
_symmetry_group_IT_number 52
_symmetry_cell_setting 'orthorhombic'
loop_
_space_group_symop_operation_xyz
x,y,z
1/2-x,-y,z
x,1/2-y,1/2-z
1/2-x,1/2+y,1/2-z
-x,-y,-z
1/2+x,y,-z
-x,1/2+y,1/2+z
1/2+x,1/2-y,1/2+z
loop_
_atom_site_type_symbol
_atom_site_label
_atom_site_fract_x
_atom_site_fract_y
_atom_site_fract_z
Si Si1 0.025820 0.750000 0.250000
Si Si2 0.911256 0.699060 0.842427
Si Si3 0.654387 0.092502 0.597564
Si Si4 0.105644 0.939360 0.712850
Si Si5 0.704575 0.946316 0.787340
Si Si6 0.021745 0.643794 0.475020
Si Si7 0.573587 0.050599 0.124188
O O1 0.062936 0.695639 0.358485
O O2 0.974361 0.776883 0.473970
O O3 0.866813 0.750000 0.750000
O O4 0.869196 0.651759 0.973944
O O5 0.950051 0.670790 0.592904
O O6 0.734900 0.095561 0.707854
O O7 0.640902 0.060674 0.325034
O O8 0.604030 0.064073 0.826377
O O9 0.137486 0.942999 0.416058
O O10 0.065207 0.885289 0.788454
O O11 0.056499 0.989621 0.802925
O O12 0.173403 0.942116 0.916095
O O13 0.750000 0.000000 0.753204
O O14 0.989121 0.593607 0.308087
#
# Coordination Sequence:
#
# PCOD9408649 Si02
#       7
#     4   8   8   8   8   8   8
#     4  10  18  40  64  82 120 154 200 252 316 364
#     4   9  20  38  62  89 112 153 197 261 308 351
#     4  11  21  37  62  87 119 154 206 243 293 351
#     4  12  24  38  61  90 127 165 195 244 300 377
#     4  12  23  40  60  84 125 169 203 233 292 361
#     4  10  23  36  61  93 121 154 202 249 316 360
#     4  11  20  37  60  91 125 152 191 256 297 362
#
# _framework density 22.301682
#
# number of rings (size 3 to 8) (size 9 to 14) (size 15 to 20)
#    0.000    1.231    4.615    1.846    2.154    0.000 
#    0.000    3.846    1.692    0.000    0.000    0.000 
#    0.000    0.000    0.000    0.000    0.000    0.000 
#
# Total GULP energy -290051.000640 kJ/mol
# GULP energy per Si atom -5577.903858 kJ/mol
# Density = 2.225092 g / cm^3
# Si number density = 22.301682 Si / 1000 Ang^3
#
#
#
# Elastic Constant Matrix: (Units=GPa)
#
#
# Indices 1 2 3 4 5 6 
#
# 1 52.6974 14.6396 -1.3462 0.0000 0.0000 0.0000
# 2 14.6396 156.0185 2.1621 0.0000 0.0000 0.0000
# 3 -1.3462 2.1621 64.2573 0.0000 0.0000 0.0000
# 4 0.0000 0.0000 0.0000 25.3797 0.0000 0.0000
# 5 0.0000 0.0000 0.0000 0.0000 30.5272 0.0000
# 6 0.0000 0.0000 0.0000 0.0000 0.0000 15.5289
#
#
#
# Elastic Compliance Matrix: (Units=1/GPa)
#
#
# Indices 1 2 3 4 5 6 
#
# 1 0.019498 -0.001836 0.000470 0.000000 0.000000 0.000000
# 2 -0.001836 0.006585 -0.000260 0.000000 0.000000 0.000000
# 3 0.000470 -0.000260 0.015581 0.000000 0.000000 0.000000
# 4 0.000000 0.000000 0.000000 0.039402 0.000000 0.000000
# 5 0.000000 0.000000 0.000000 0.000000 0.032758 0.000000
# 6 0.000000 0.000000 0.000000 0.000000 0.000000 0.064396
#
#
# Mechanical properties :
#
#
# Convention : Reuss Voigt Hill
#
# Bulk Modulus (GPa) = 26.03281 33.76491 29.89886
# Shear Modulus (GPa) = 25.73656 31.45500 28.59578
#
# Velocity S-wave (km/s) = 3.40077 3.75965 3.58470
# Velocity P-wave (km/s) = 5.20756 5.83263 5.52893
#
# Compressibility (1/GPa) = 0.03841306
#
# Stress axis : x y z
#
# Youngs Moduli (GPa) = 51.28638 151.85142 64.18056
#
# Poissons Ratio (x) = 0.27881 -0.03018
# Poissons Ratio (y) = 0.09417 0.01669
# Poissons Ratio (z) = -0.02412 0.03949
#
# Static dielectric constant tensor:
#      x y z
#    x 1.875850 0.000000 0.000000 
#    y 0.000000 1.987900 0.000000 
#    z 0.000000 0.000000 1.891080 
# 
# From -- ./inp_files/4442.got.cif
#   From: 2010.05.17/outbox.cif.g08.bks.cpg/sg52_3_cif.got.tgz:4442.got - 2010.06.03 12:15:38.
