data_PCOD9408548
_publ_section_title
;
Structure prediction by ZEFSAII (Michael W. Deem and Ramdas Pophale) SiO2 
 PCOD9408548
Probable space group: P N N A
;
_chemical_formula_sum "Si O2"
_cell_formula_units_Z 44
_cell_length_a 13.949861
_cell_length_b 15.032004
_cell_length_c 11.616700
_cell_angle_alpha 90.000000
_cell_angle_beta 90.000000
_cell_angle_gamma 90.000000
_cell_volume 2435.956546
_symmetry_space_group_name_H-M "P N N A"
_symmetry_group_IT_number 52
_symmetry_cell_setting 'orthorhombic'
loop_
_space_group_symop_operation_xyz
x,y,z
1/2-x,-y,z
x,1/2-y,1/2-z
1/2-x,1/2+y,1/2-z
-x,-y,-z
1/2+x,y,-z
-x,1/2+y,1/2+z
1/2+x,1/2-y,1/2+z
loop_
_atom_site_type_symbol
_atom_site_label
_atom_site_fract_x
_atom_site_fract_y
_atom_site_fract_z
Si Si1 0.557322 0.706773 0.374246
Si Si2 0.446817 0.250000 0.250000
Si Si3 0.167233 0.876394 0.073577
Si Si4 0.621528 0.427871 0.650200
Si Si5 0.506426 0.359436 0.049246
Si Si6 0.640716 0.020631 0.582165
O O1 0.579669 0.750000 0.250000
O O2 0.642509 0.659804 0.446457
O O3 0.470279 0.635144 0.367234
O O4 0.523110 0.788050 0.453927
O O5 0.381056 0.190245 0.166116
O O6 0.511983 0.311279 0.170556
O O7 0.279870 0.884540 0.102737
O O8 0.120032 0.974053 0.092422
O O9 0.630890 0.445414 0.786896
O O10 0.424094 0.433585 0.063967
O O11 0.601166 0.406867 0.005652
O O12 0.750000 0.000000 0.560649
#
# Coordination Sequence:
#
# PCOD9408548 Si02
#       6
#     8   4   8   8   8   8
#     4  11  23  38  62  90 130 164 198 253 315 370
#     4  10  18  36  58  94 126 154 202 258 300 364
#     4  10  22  37  65  93 121 159 209 256 300 371
#     4  11  20  39  64  92 118 165 211 250 311 369
#     4  10  22  36  62  92 122 160 203 257 313 365
#     4  11  20  38  65  92 118 157 213 259 309 364
#
# _framework density 18.062719000000001
#
# number of rings (size 3 to 8) (size 9 to 14) (size 15 to 20)
#    0.000    1.455    5.455    0.545    1.273    2.909 
#    0.000    0.000   22.000    0.000    0.000    0.000 
#    0.000    0.000    0.000    0.000    0.000    0.000 
#
# Total GULP energy -245552.902112 kJ/mol
# GULP energy per Si atom -5580.747775 kJ/mol
# Density = 1.802161 g / cm^3
# Si number density = 18.062719 Si / 1000 Ang^3
#
#
#
# Elastic Constant Matrix: (Units=GPa)
#
#
# Indices 1 2 3 4 5 6 
#
# 1 80.6817 44.9414 44.2187 0.0000 0.0000 0.0000
# 2 44.9414 93.8978 60.8061 0.0000 0.0000 0.0000
# 3 44.2187 60.8061 104.3496 0.0000 0.0000 0.0000
# 4 0.0000 0.0000 0.0000 214.4535 0.0000 0.0000
# 5 0.0000 0.0000 0.0000 0.0000 117.7673 0.0000
# 6 0.0000 0.0000 0.0000 0.0000 0.0000 9.7701
#
#
#
# Elastic Compliance Matrix: (Units=1/GPa)
#
#
# Indices 1 2 3 4 5 6 
#
# 1 0.017968 -0.005893 -0.004180 0.000000 0.000000 0.000000
# 2 -0.005893 0.019037 -0.008596 0.000000 0.000000 0.000000
# 3 -0.004180 -0.008596 0.016364 0.000000 0.000000 0.000000
# 4 0.000000 0.000000 0.000000 0.004663 0.000000 0.000000
# 5 0.000000 0.000000 0.000000 0.000000 0.008491 0.000000
# 6 0.000000 0.000000 0.000000 0.000000 0.000000 0.102353
#
#
# Mechanical properties :
#
#
# Convention : Reuss Voigt Hill
#
# Bulk Modulus (GPa) = 62.38151 64.31795 63.34973
# Shear Modulus (GPa) = 23.63435 76.99571 50.31503
#
# Velocity S-wave (km/s) = 3.62119 6.53601 5.28358
# Velocity P-wave (km/s) = 7.21769 9.62521 8.50705
#
# Compressibility (1/GPa) = 0.01603039
#
# Stress axis : x y z
#
# Youngs Moduli (GPa) = 55.65526 52.52979 61.11158
#
# Poissons Ratio (x) = 0.30955 0.25545
# Poissons Ratio (y) = 0.32796 0.52531
# Poissons Ratio (z) = 0.23265 0.45154
#
# Static dielectric constant tensor:
#      x y z
#    x 1.586840 0.000000 0.000000 
#    y 0.000000 1.605800 0.000000 
#    z 0.000000 0.000000 1.613680 
# 
# From -- ./inp_files/19421.got.cif
#   From: 2010.05.17/outbox.cif.g08.bks.cpg/sg52_10_cif.got.tgz:19421.got - 2010.06.03 12:15:38.
