data_PCOD9408357
_publ_section_title
;
Structure prediction by ZEFSAII (Michael W. Deem and Ramdas Pophale) SiO2 
 PCOD9408357
Probable space group: P N N A
;
_chemical_formula_sum "Si O2"
_cell_formula_units_Z 40
_cell_length_a 14.852756
_cell_length_b 5.377438
_cell_length_c 19.458398
_cell_angle_alpha 90.000000
_cell_angle_beta 90.000000
_cell_angle_gamma 90.000000
_cell_volume 1554.137861
_symmetry_space_group_name_H-M "P N N A"
_symmetry_group_IT_number 52
_symmetry_cell_setting 'orthorhombic'
loop_
_space_group_symop_operation_xyz
x,y,z
1/2-x,-y,z
x,1/2-y,1/2-z
1/2-x,1/2+y,1/2-z
-x,-y,-z
1/2+x,y,-z
-x,1/2+y,1/2+z
1/2+x,1/2-y,1/2+z
loop_
_atom_site_type_symbol
_atom_site_label
_atom_site_fract_x
_atom_site_fract_y
_atom_site_fract_z
Si Si1 0.250000 0.000000 0.454240
Si Si2 0.370990 0.744861 0.830704
Si Si3 0.400889 0.190450 0.009735
Si Si4 0.162573 0.416347 0.360369
Si Si5 0.521350 0.752156 0.128495
Si Si6 0.250000 0.000000 0.919017
O O1 0.338690 0.066339 0.495752
O O2 0.218803 0.229976 0.408524
O O3 0.356243 0.750000 0.750000
O O4 0.427748 0.503357 0.853535
O O5 0.424552 0.003951 0.846837
O O6 0.275510 0.775344 0.869077
O O7 0.483273 0.227720 0.956699
O O8 0.335130 0.006467 0.968871
O O9 0.392517 0.116061 0.090250
O O10 0.250000 0.500000 0.315138
O O11 0.076593 0.260530 0.335844
#
# Coordination Sequence:
#
# PCOD9408357 Si02
#       6
#     4   8   8   8   8   4
#     4  10  18  32  59  82 140 161 214 248 312 380
#     4  11  26  45  67  95 128 171 226 285 330 390
#     4  10  19  35  55  93 137 169 206 255 310 413
#     4  10  22  37  59  95 131 176 213 268 321 405
#     4  11  25  40  66  94 128 175 222 268 341 383
#     4  10  20  40  63  94 132 171 204 252 328 398
#
# _framework density 25.737742000000001
#
# number of rings (size 3 to 8) (size 9 to 14) (size 15 to 20)
#    0.000    1.600    3.000    2.400    8.400    6.400 
#    0.000    0.000    0.000    2.400    0.000    0.000 
#    0.000    0.000    0.000    0.000    0.000    0.000 
#
# Total GULP energy -222671.547394 kJ/mol
# GULP energy per Si atom -5566.788685 kJ/mol
# Density = 2.567916 g / cm^3
# Si number density = 25.737742 Si / 1000 Ang^3
#
#
#
# Elastic Constant Matrix: (Units=GPa)
#
#
# Indices 1 2 3 4 5 6 
#
# 1 119.6774 19.2066 -18.8929 0.0000 0.0000 0.0000
# 2 19.2066 128.9197 9.5710 0.0000 0.0000 0.0000
# 3 -18.8929 9.5710 49.9777 0.0000 0.0000 0.0000
# 4 0.0000 0.0000 0.0000 18.6650 0.0000 0.0000
# 5 0.0000 0.0000 0.0000 0.0000 -13.1204 0.0000
# 6 0.0000 0.0000 0.0000 0.0000 0.0000 34.2348
#
#
#
# Elastic Compliance Matrix: (Units=1/GPa)
#
#
# Indices 1 2 3 4 5 6 
#
# 1 0.009222 -0.001656 0.003803 0.000000 0.000000 0.000000
# 2 -0.001656 0.008166 -0.002190 0.000000 0.000000 0.000000
# 3 0.003803 -0.002190 0.021866 0.000000 0.000000 0.000000
# 4 0.000000 0.000000 0.000000 0.053576 0.000000 0.000000
# 5 0.000000 0.000000 0.000000 0.000000 -0.076217 0.000000
# 6 0.000000 0.000000 0.000000 0.000000 0.000000 0.029210
#
#
# Mechanical properties :
#
#
# Convention : Reuss Voigt Hill
#
# Bulk Modulus (GPa) = 25.53075 35.37157 30.45116
# Shear Modulus (GPa) = 84.79577 27.20190 55.99883
#
# Velocity S-wave (km/s) = 5.74609 3.25451 4.66955
# Velocity P-wave (km/s) = 7.34606 5.28160 6.39765
#
# Compressibility (1/GPa) = 0.03916845
#
# Stress axis : x y z
#
# Youngs Moduli (GPa) = 108.43601 122.45745 45.73295
#
# Poissons Ratio (x) = 0.20282 -0.17394
# Poissons Ratio (y) = 0.17960 0.10015
# Poissons Ratio (z) = -0.41242 0.26818
#
# Static dielectric constant tensor:
#      x y z
#    x 2.202480 0.000000 0.000000 
#    y 0.000000 0.858920 0.000000 
#    z 0.000000 0.000000 2.086750 
# 
# From -- ./inp_files/40522.got.cif
#   From: 2010.05.17/outbox.cif.g08.bks.cpg/sg52_21_cif.got.tgz:40522.got - 2010.06.03 12:15:38.
