data_PCOD9408096
_publ_section_title
;
Structure prediction by ZEFSAII (Michael W. Deem and Ramdas Pophale) SiO2 
 PCOD9408096
Probable space group: P N N A
;
_chemical_formula_sum "Si O2"
_cell_formula_units_Z 56
_cell_length_a 9.645282
_cell_length_b 16.389142
_cell_length_c 16.170877
_cell_angle_alpha 90.000000
_cell_angle_beta 90.000000
_cell_angle_gamma 90.000000
_cell_volume 2556.258218
_symmetry_space_group_name_H-M "P N N A"
_symmetry_group_IT_number 52
_symmetry_cell_setting 'orthorhombic'
loop_
_space_group_symop_operation_xyz
x,y,z
1/2-x,-y,z
x,1/2-y,1/2-z
1/2-x,1/2+y,1/2-z
-x,-y,-z
1/2+x,y,-z
-x,1/2+y,1/2+z
1/2+x,1/2-y,1/2+z
loop_
_atom_site_type_symbol
_atom_site_label
_atom_site_fract_x
_atom_site_fract_y
_atom_site_fract_z
Si Si1 0.224635 0.172451 0.479068
Si Si2 0.816043 0.332842 0.791203
Si Si3 0.377487 0.436169 0.342753
Si Si4 0.557620 0.929241 0.092405
Si Si5 0.489505 0.153320 0.737586
Si Si6 0.223751 0.356026 0.480031
Si Si7 0.044617 0.921182 0.557278
O O1 0.299507 0.168929 0.389258
O O2 0.231434 0.264084 0.512080
O O3 0.302321 0.105377 0.532243
O O4 0.065525 0.148047 0.469821
O O5 0.869201 0.250000 0.750000
O O6 0.902290 0.406278 0.750213
O O7 0.657405 0.345179 0.760162
O O8 0.250000 0.500000 0.342037
O O9 0.502397 0.480060 0.389451
O O10 0.318165 0.362494 0.397415
O O11 0.569972 0.889965 0.182222
O O12 0.696501 0.915583 0.041822
O O13 0.569656 0.117592 0.953926
O O14 0.449946 0.250000 0.750000
O O15 0.458816 0.096204 0.657013
O O16 0.000000 0.000000 0.500000
#
# Coordination Sequence:
#
# PCOD9408096 Si02
#       7
#     8   8   8   8   8   8   8
#     4  11  22  38  65  89 126 171 208 269 329 384
#     4  10  17  33  60  89 119 157 223 265 308 376
#     4  10  19  32  54  89 122 153 201 267 310 370
#     4  11  22  36  64  91 129 164 211 267 323 387
#     4  10  19  37  61  88 120 171 223 260 317 407
#     4  11  20  38  59  95 126 165 212 260 321 394
#     4  11  25  40  64  95 129 166 221 275 328 385
#
# _framework density 21.907018999999998
#
# number of rings (size 3 to 8) (size 9 to 14) (size 15 to 20)
#    0.000    1.429    4.286    4.286    2.000    0.000 
#    0.000    0.000    3.143    4.286    0.000    0.000 
#    0.000    0.000    0.000    0.000    0.000    0.000 
#
# Total GULP energy -312250.628645 kJ/mol
# GULP energy per Si atom -5575.904083 kJ/mol
# Density = 2.185716 g / cm^3
# Si number density = 21.907019 Si / 1000 Ang^3
#
#
#
# Elastic Constant Matrix: (Units=GPa)
#
#
# Indices 1 2 3 4 5 6 
#
# 1 42.9343 -1.6507 16.6379 0.0000 0.0000 0.0000
# 2 -1.6507 75.3619 26.0805 0.0000 0.0000 0.0000
# 3 16.6379 26.0805 102.9358 0.0000 0.0000 0.0000
# 4 0.0000 0.0000 0.0000 30.2085 0.0000 0.0000
# 5 0.0000 0.0000 0.0000 0.0000 27.4482 0.0000
# 6 0.0000 0.0000 0.0000 0.0000 0.0000 18.9177
#
#
#
# Elastic Compliance Matrix: (Units=1/GPa)
#
#
# Indices 1 2 3 4 5 6 
#
# 1 0.025161 0.002147 -0.004611 0.000000 0.000000 0.000000
# 2 0.002147 0.014728 -0.004079 0.000000 0.000000 0.000000
# 3 -0.004611 -0.004079 0.011493 0.000000 0.000000 0.000000
# 4 0.000000 0.000000 0.000000 0.033103 0.000000 0.000000
# 5 0.000000 0.000000 0.000000 0.000000 0.036432 0.000000
# 6 0.000000 0.000000 0.000000 0.000000 0.000000 0.052861
#
#
# Mechanical properties :
#
#
# Convention : Reuss Voigt Hill
#
# Bulk Modulus (GPa) = 26.11179 33.70749 29.90964
# Shear Modulus (GPa) = 25.04650 27.32582 26.18616
#
# Velocity S-wave (km/s) = 3.38495 3.53562 3.46111
# Velocity P-wave (km/s) = 5.21752 5.66458 5.44564
#
# Compressibility (1/GPa) = 0.03829687
#
# Stress axis : x y z
#
# Youngs Moduli (GPa) = 39.74455 67.89886 87.00645
#
# Poissons Ratio (x) = -0.14576 0.40116
# Poissons Ratio (y) = -0.08532 0.35486
# Poissons Ratio (z) = 0.18325 0.27693
#
# Static dielectric constant tensor:
#      x y z
#    x 1.746880 0.000000 0.000000 
#    y 0.000000 1.871260 0.000000 
#    z 0.000000 0.000000 1.858760 
# 
# From -- ./inp_files/26135.got.cif
#   From: 2010.05.17/outbox.cif.g08.bks.cpg/sg52_14_cif.got.tgz:26135.got - 2010.06.03 12:15:38.
