data_PCOD9408381
_publ_section_title
;
Structure prediction by ZEFSAII (Michael W. Deem and Ramdas Pophale) SiO2 
 PCOD9408381
Probable space group: P N N A
;
_chemical_formula_sum "Si O2"
_cell_formula_units_Z 56
_cell_length_a 16.037812
_cell_length_b 19.731510
_cell_length_c 7.322277
_cell_angle_alpha 90.000000
_cell_angle_beta 90.000000
_cell_angle_gamma 90.000000
_cell_volume 2317.136372
_symmetry_space_group_name_H-M "P N N A"
_symmetry_group_IT_number 52
_symmetry_cell_setting 'orthorhombic'
loop_
_space_group_symop_operation_xyz
x,y,z
1/2-x,-y,z
x,1/2-y,1/2-z
1/2-x,1/2+y,1/2-z
-x,-y,-z
1/2+x,y,-z
-x,1/2+y,1/2+z
1/2+x,1/2-y,1/2+z
loop_
_atom_site_type_symbol
_atom_site_label
_atom_site_fract_x
_atom_site_fract_y
_atom_site_fract_z
Si Si1 0.118251 0.581282 0.736086
Si Si2 0.045825 0.325595 0.716630
Si Si3 0.827529 0.049204 0.822350
Si Si4 0.998265 0.026014 0.785012
Si Si5 0.959776 0.672183 0.716647
Si Si6 0.271977 0.671905 0.284837
Si Si7 0.235307 0.326035 0.722255
O O1 0.136625 0.574953 0.517611
O O2 0.081954 0.508361 0.792406
O O3 0.037385 0.627331 0.776362
O O4 0.202491 0.617603 0.800797
O O5 0.010411 0.250000 0.750000
O O6 0.001328 0.394915 0.770538
O O7 0.140345 0.325950 0.792551
O O8 0.047703 0.335657 0.499876
O O9 0.792991 0.115463 0.720761
O O10 0.903569 0.008221 0.731507
O O11 0.750000 0.000000 0.856157
O O12 0.000000 0.000000 0.000000
O O13 0.980277 0.750000 0.750000
O O14 0.865930 0.660215 0.787435
O O15 0.249053 0.750000 0.250000
O O16 0.273362 0.663720 0.504578
O O17 0.269837 0.250000 0.750000
#
# Coordination Sequence:
#
# PCOD9408381 Si02
#       7
#     8   8   8   8   8   8   8
#     4  10  19  29  52  77 103 133 174 215 260 301
#     4  10  20  35  52  79 109 137 172 220 268 309
#     4  10  19  29  48  76 106 131 168 223 261 296
#     4  10  19  31  50  77 105 132 175 222 262 301
#     4  10  18  33  52  77 106 139 171 212 259 322
#     4   9  19  32  51  77 103 134 172 211 258 308
#     4   9  19  33  51  78 107 136 171 212 262 314
#
# _framework density 24.167762
#
# number of rings (size 3 to 8) (size 9 to 14) (size 15 to 20)
#    0.000    2.286    2.857    1.286   10.000    0.571 
#    0.000    0.000    0.000    0.857   14.857    0.000 
#    0.000    0.000    0.000    0.000    0.000    0.000 
#
# Total GULP energy -312105.758241 kJ/mol
# GULP energy per Si atom -5573.317111 kJ/mol
# Density = 2.411275 g / cm^3
# Si number density = 24.167762 Si / 1000 Ang^3
#
#
#
# Elastic Constant Matrix: (Units=GPa)
#
#
# Indices 1 2 3 4 5 6 
#
# 1 104.4993 54.7011 2.9793 0.0000 0.0000 0.0000
# 2 54.7011 130.0495 -8.8559 0.0000 0.0000 0.0000
# 3 2.9793 -8.8559 78.3195 0.0000 0.0000 0.0000
# 4 0.0000 0.0000 0.0000 16.4323 0.0000 0.0000
# 5 0.0000 0.0000 0.0000 0.0000 9.3436 0.0000
# 6 0.0000 0.0000 0.0000 0.0000 0.0000 250.0544
#
#
#
# Elastic Compliance Matrix: (Units=1/GPa)
#
#
# Indices 1 2 3 4 5 6 
#
# 1 0.012359 -0.005271 -0.001066 0.000000 0.000000 0.000000
# 2 -0.005271 0.009997 0.001331 0.000000 0.000000 0.000000
# 3 -0.001066 0.001331 0.012959 0.000000 0.000000 0.000000
# 4 0.000000 0.000000 0.000000 0.060856 0.000000 0.000000
# 5 0.000000 0.000000 0.000000 0.000000 0.107026 0.000000
# 6 0.000000 0.000000 0.000000 0.000000 0.000000 0.003999
#
#
# Mechanical properties :
#
#
# Convention : Reuss Voigt Hill
#
# Bulk Modulus (GPa) = 39.52123 45.61304 42.56714
# Shear Modulus (GPa) = 22.15893 72.76897 47.46395
#
# Velocity S-wave (km/s) = 3.03129 5.49320 4.43644
# Velocity P-wave (km/s) = 5.35163 7.69079 6.62526
#
# Compressibility (1/GPa) = 0.02530286
#
# Stress axis : x y z
#
# Youngs Moduli (GPa) = 80.91271 100.02915 77.16487
#
# Poissons Ratio (x) = 0.52725 0.08227
# Poissons Ratio (y) = 0.42649 -0.10270
# Poissons Ratio (z) = 0.08627 -0.13313
#
# Static dielectric constant tensor:
#      x y z
#    x 1.941600 0.000000 0.000000 
#    y 0.000000 2.016850 0.000000 
#    z 0.000000 0.000000 1.816080 
# 
# From -- ./inp_files/10831.got.cif
#   From: 2010.05.17/outbox.cif.g08.bks.cpg/sg52_6_cif.got.tgz:10831.got - 2010.06.03 12:15:38.
