data_PCOD9408850
_publ_section_title
;
Structure prediction by ZEFSAII (Michael W. Deem and Ramdas Pophale) SiO2 
 PCOD9408850
Probable space group: P N N A
;
_chemical_formula_sum "Si O2"
_cell_formula_units_Z 64
_cell_length_a 22.165773
_cell_length_b 26.160380
_cell_length_c 5.668854
_cell_angle_alpha 90.000000
_cell_angle_beta 90.000000
_cell_angle_gamma 90.000000
_cell_volume 3287.170278
_symmetry_space_group_name_H-M "P N N A"
_symmetry_group_IT_number 52
_symmetry_cell_setting 'orthorhombic'
loop_
_space_group_symop_operation_xyz
x,y,z
1/2-x,-y,z
x,1/2-y,1/2-z
1/2-x,1/2+y,1/2-z
-x,-y,-z
1/2+x,y,-z
-x,1/2+y,1/2+z
1/2+x,1/2-y,1/2+z
loop_
_atom_site_type_symbol
_atom_site_label
_atom_site_fract_x
_atom_site_fract_y
_atom_site_fract_z
Si Si1 0.568990 0.462066 0.746615
Si Si2 0.955233 0.758045 0.997260
Si Si3 0.996557 0.128643 0.999746
Si Si4 0.091484 0.721961 0.999618
Si Si5 0.710428 0.052036 0.732861
Si Si6 0.255294 0.437299 0.731804
Si Si7 0.615197 0.888118 0.321944
Si Si8 0.476800 0.056903 0.370638
O O1 0.539320 0.413999 0.618528
O O2 0.639986 0.460120 0.750805
O O3 0.546322 0.518214 0.669317
O O4 0.537954 0.461096 0.004903
O O5 0.921502 0.750000 0.750000
O O6 0.976764 0.816056 0.982252
O O7 0.017628 0.724657 0.998986
O O8 0.924393 0.750000 0.250000
O O9 0.930005 0.126750 0.110350
O O10 0.991905 0.111773 0.732208
O O11 0.108691 0.750000 0.750000
O O12 0.117484 0.664325 0.975749
O O13 0.108212 0.750000 0.250000
O O14 0.723483 0.077985 0.479414
O O15 0.750000 0.000000 0.728263
O O16 0.727935 0.079217 0.979126
O O17 0.250000 0.500000 0.728147
O O18 0.321949 0.413184 0.747319
O O19 0.578850 0.932426 0.458569
#
# Coordination Sequence:
#
# PCOD9408850 Si02
#       8
#     8   8   8   8   8   8   8   8
#     4  10  23  37  56  87 123 167 212 251 305 374
#     4  10  19  35  54  85 123 151 194 236 303 385
#     4  11  22  34  60  90 126 165 191 256 319 386
#     4  10  19  33  54  86 123 152 192 249 308 380
#     4  10  22  41  58  80 114 164 213 256 286 343
#     4  10  23  37  59  85 115 165 214 258 296 359
#     4  11  22  35  59  92 124 164 205 253 324 383
#     4  10  21  36  56  86 128 165 198 247 319 382
#
# _framework density 19.469632000000001
#
# number of rings (size 3 to 8) (size 9 to 14) (size 15 to 20)
#    0.000    1.750    2.500    3.375    8.750    0.000 
#    0.000    0.000    0.000    0.000    0.000    5.250 
#    0.000    0.000    0.000    0.000    0.000    0.000 
#
# Total GULP energy -356378.718705 kJ/mol
# GULP energy per Si atom -5568.417480 kJ/mol
# Density = 1.942532 g / cm^3
# Si number density = 19.469632 Si / 1000 Ang^3
#
#
#
# Elastic Constant Matrix: (Units=GPa)
#
#
# Indices 1 2 3 4 5 6 
#
# 1 105.0253 26.6690 30.3925 0.0000 0.0000 0.0000
# 2 26.6690 85.2060 17.9585 0.0000 0.0000 0.0000
# 3 30.3925 17.9585 132.3076 0.0000 0.0000 0.0000
# 4 0.0000 0.0000 0.0000 27.3495 0.0000 0.0000
# 5 0.0000 0.0000 0.0000 0.0000 10.9861 0.0000
# 6 0.0000 0.0000 0.0000 0.0000 0.0000 6.7015
#
#
#
# Elastic Compliance Matrix: (Units=1/GPa)
#
#
# Indices 1 2 3 4 5 6 
#
# 1 0.010881 -0.002964 -0.002097 0.000000 0.000000 0.000000
# 2 -0.002964 0.012889 -0.001069 0.000000 0.000000 0.000000
# 3 -0.002097 -0.001069 0.008185 0.000000 0.000000 0.000000
# 4 0.000000 0.000000 0.000000 0.036564 0.000000 0.000000
# 5 0.000000 0.000000 0.000000 0.000000 0.091024 0.000000
# 6 0.000000 0.000000 0.000000 0.000000 0.000000 0.149221
#
#
# Mechanical properties :
#
#
# Convention : Reuss Voigt Hill
#
# Bulk Modulus (GPa) = 50.77196 52.50876 51.64036
# Shear Modulus (GPa) = 15.26306 25.50867 20.38587
#
# Velocity S-wave (km/s) = 2.80293 3.62356 3.23934
# Velocity P-wave (km/s) = 6.05057 6.67346 6.36963
#
# Compressibility (1/GPa) = 0.01969591
#
# Stress axis : x y z
#
# Youngs Moduli (GPa) = 91.90354 77.58486 122.17538
#
# Poissons Ratio (x) = 0.22994 0.25623
# Poissons Ratio (y) = 0.27237 0.13057
# Poissons Ratio (z) = 0.19274 0.08291
#
# Static dielectric constant tensor:
#      x y z
#    x 1.627790 0.000000 0.000000 
#    y 0.000000 1.779370 0.000000 
#    z 0.000000 0.000000 1.815340 
# 
# From -- ./inp_files/4630.got.cif
#   From: 2010.05.17/outbox.cif.g08.bks.cpg/sg52_3_cif.got.tgz:4630.got - 2010.06.03 12:15:38.
