data_PCOD9408591
_publ_section_title
;
Structure prediction by ZEFSAII (Michael W. Deem and Ramdas Pophale) SiO2 
 PCOD9408591
Probable space group: P N N A
;
_chemical_formula_sum "Si O2"
_cell_formula_units_Z 36
_cell_length_a 12.540847
_cell_length_b 14.312254
_cell_length_c 7.825087
_cell_angle_alpha 90.000000
_cell_angle_beta 90.000000
_cell_angle_gamma 90.000000
_cell_volume 1404.507554
_symmetry_space_group_name_H-M "P N N A"
_symmetry_group_IT_number 52
_symmetry_cell_setting 'orthorhombic'
loop_
_space_group_symop_operation_xyz
x,y,z
1/2-x,-y,z
x,1/2-y,1/2-z
1/2-x,1/2+y,1/2-z
-x,-y,-z
1/2+x,y,-z
-x,1/2+y,1/2+z
1/2+x,1/2-y,1/2+z
loop_
_atom_site_type_symbol
_atom_site_label
_atom_site_fract_x
_atom_site_fract_y
_atom_site_fract_z
Si Si1 0.156134 0.936110 0.838316
Si Si2 0.403458 0.750000 0.750000
Si Si3 0.078736 0.754379 0.010453
Si Si4 0.241255 0.372321 0.004946
Si Si5 0.531422 0.073016 0.646541
O O1 0.147619 0.833842 0.919261
O O2 0.191612 0.926789 0.639134
O O3 0.031704 0.962907 0.813120
O O4 0.250000 0.000000 0.915967
O O5 0.488242 0.698636 0.626946
O O6 0.333630 0.686770 0.873772
O O7 0.168522 0.688757 0.096558
O O8 0.012642 0.678529 0.895048
O O9 0.159343 0.419201 0.136276
O O10 0.500000 0.000000 0.500000
#
# Coordination Sequence:
#
# PCOD9408591 Si02
#       5
#     8   4   8   8   8
#     4  11  20  37  63  91 127 168 222 268 335 401
#     4  10  20  40  62  84 126 164 212 272 334 384
#     4  10  22  37  62  89 121 173 216 262 338 401
#     4  10  18  37  61  84 126 160 204 273 325 378
#     4  10  19  33  61  94 120 163 215 266 318 397
#
# _framework density 25.63176
#
# number of rings (size 3 to 8) (size 9 to 14) (size 15 to 20)
#    0.000    1.778    4.444    2.000    0.000    0.000 
#    8.000    1.111    9.778    0.000    0.000    0.000 
#    0.000    0.000    0.000    0.000    0.000    0.000 
#
# Total GULP energy -200442.278113 kJ/mol
# GULP energy per Si atom -5567.841059 kJ/mol
# Density = 2.557342 g / cm^3
# Si number density = 25.631760 Si / 1000 Ang^3
#
#
#
# Elastic Constant Matrix: (Units=GPa)
#
#
# Indices 1 2 3 4 5 6 
#
# 1 128.1307 14.4396 20.1068 0.0000 0.0000 0.0000
# 2 14.4396 86.2215 16.7260 0.0000 0.0000 0.0000
# 3 20.1068 16.7260 33.9406 0.0000 0.0000 0.0000
# 4 0.0000 0.0000 0.0000 25.5603 0.0000 0.0000
# 5 0.0000 0.0000 0.0000 0.0000 17.0403 0.0000
# 6 0.0000 0.0000 0.0000 0.0000 0.0000 46.2652
#
#
#
# Elastic Compliance Matrix: (Units=1/GPa)
#
#
# Indices 1 2 3 4 5 6 
#
# 1 0.008624 -0.000501 -0.004862 0.000000 0.000000 0.000000
# 2 -0.000501 0.012853 -0.006037 0.000000 0.000000 0.000000
# 3 -0.004862 -0.006037 0.035319 0.000000 0.000000 0.000000
# 4 0.000000 0.000000 0.000000 0.039123 0.000000 0.000000
# 5 0.000000 0.000000 0.000000 0.000000 0.058684 0.000000
# 6 0.000000 0.000000 0.000000 0.000000 0.000000 0.021615
#
#
# Mechanical properties :
#
#
# Convention : Reuss Voigt Hill
#
# Bulk Modulus (GPa) = 29.41594 38.98195 34.19894
# Shear Modulus (GPa) = 23.76991 30.90786 27.33888
#
# Velocity S-wave (km/s) = 3.04856 3.47629 3.26943
# Velocity P-wave (km/s) = 4.88804 5.59949 5.25582
#
# Compressibility (1/GPa) = 0.03399518
#
# Stress axis : x y z
#
# Youngs Moduli (GPa) = 115.95591 77.80222 28.31365
#
# Poissons Ratio (x) = 0.03899 0.13766
# Poissons Ratio (y) = 0.05810 0.17093
# Poissons Ratio (z) = 0.56378 0.46971
#
# Static dielectric constant tensor:
#      x y z
#    x 2.115970 0.000000 0.000000 
#    y 0.000000 2.159260 0.000000 
#    z 0.000000 0.000000 2.061800 
# 
# From -- ./inp_files/17930.got.cif
#   From: 2010.05.17/outbox.cif.g08.bks.cpg/sg52_9_cif.got.tgz:17930.got - 2010.06.03 12:15:38.
