data_PCOD9408282
_publ_section_title
;
Structure prediction by ZEFSAII (Michael W. Deem and Ramdas Pophale) SiO2 
 PCOD9408282
Probable space group: P N N A
;
_chemical_formula_sum "Si O2"
_cell_formula_units_Z 44
_cell_length_a 10.221986
_cell_length_b 15.007325
_cell_length_c 16.306670
_cell_angle_alpha 90.000000
_cell_angle_beta 90.000000
_cell_angle_gamma 90.000000
_cell_volume 2501.519266
_symmetry_space_group_name_H-M "P N N A"
_symmetry_group_IT_number 52
_symmetry_cell_setting 'orthorhombic'
loop_
_space_group_symop_operation_xyz
x,y,z
1/2-x,-y,z
x,1/2-y,1/2-z
1/2-x,1/2+y,1/2-z
-x,-y,-z
1/2+x,y,-z
-x,1/2+y,1/2+z
1/2+x,1/2-y,1/2+z
loop_
_atom_site_type_symbol
_atom_site_label
_atom_site_fract_x
_atom_site_fract_y
_atom_site_fract_z
Si Si1 0.878951 0.599809 0.528119
Si Si2 0.750000 0.000000 0.261460
Si Si3 0.482866 0.525689 0.635347
Si Si4 0.548012 0.769162 0.838425
Si Si5 0.751224 0.696672 0.169568
Si Si6 0.632557 0.779106 0.007459
O O1 0.902292 0.537389 0.449244
O O2 0.742260 0.647051 0.512474
O O3 0.904048 0.543596 0.610502
O O4 0.994279 0.673553 0.525635
O O5 0.879719 0.001883 0.204431
O O6 0.750999 0.908291 0.312142
O O7 0.536488 0.623917 0.654437
O O8 0.609032 0.750000 0.750000
O O9 0.400669 0.730690 0.838828
O O10 0.616479 0.731108 0.919571
O O11 0.698766 0.750000 0.250000
O O12 0.677523 0.723817 0.086368
#
# Coordination Sequence:
#
# PCOD9408282 Si02
#       6
#     8   4   8   8   8   8
#     4  10  20  31  58  89 122 149 188 255 324 356
#     4  12  20  34  64  86 120 158 222 254 288 366
#     4  10  18  31  55  89 116 147 197 252 307 359
#     4  10  20  38  58  78 124 163 197 244 319 359
#     4  11  20  38  60  90 119 163 208 248 304 367
#     4  11  20  38  58  88 123 157 196 249 305 373
#
# _framework density 17.589310999999999
#
# number of rings (size 3 to 8) (size 9 to 14) (size 15 to 20)
#    0.000    1.455    7.273    2.182    0.000    5.818 
#    0.000    3.636    0.000    0.000    0.000    0.000 
#    0.000    0.000    0.000    0.000    0.000    0.000 
#
# Total GULP energy -245344.217120 kJ/mol
# GULP energy per Si atom -5576.004935 kJ/mol
# Density = 1.754928 g / cm^3
# Si number density = 17.589311 Si / 1000 Ang^3
#
#
#
# Elastic Constant Matrix: (Units=GPa)
#
#
# Indices 1 2 3 4 5 6 
#
# 1 37.7104 8.4010 26.1296 0.0000 0.0000 0.0000
# 2 8.4010 88.4602 52.2447 0.0000 0.0000 0.0000
# 3 26.1296 52.2447 152.7675 0.0000 0.0000 0.0000
# 4 0.0000 0.0000 0.0000 36.8361 0.0000 0.0000
# 5 0.0000 0.0000 0.0000 0.0000 28.1615 0.0000
# 6 0.0000 0.0000 0.0000 0.0000 0.0000 17.1240
#
#
#
# Elastic Compliance Matrix: (Units=1/GPa)
#
#
# Indices 1 2 3 4 5 6 
#
# 1 0.030087 0.000228 -0.005224 0.000000 0.000000 0.000000
# 2 0.000228 0.014167 -0.004884 0.000000 0.000000 0.000000
# 3 -0.005224 -0.004884 0.009110 0.000000 0.000000 0.000000
# 4 0.000000 0.000000 0.000000 0.027147 0.000000 0.000000
# 5 0.000000 0.000000 0.000000 0.000000 0.035509 0.000000
# 6 0.000000 0.000000 0.000000 0.000000 0.000000 0.058398
#
#
# Mechanical properties :
#
#
# Convention : Reuss Voigt Hill
#
# Bulk Modulus (GPa) = 29.75863 50.27652 40.01758
# Shear Modulus (GPa) = 24.34512 29.23517 26.79014
#
# Velocity S-wave (km/s) = 3.72437 4.08131 3.90692
# Velocity P-wave (km/s) = 5.95398 7.13127 6.56905
#
# Compressibility (1/GPa) = 0.03360370
#
# Stress axis : x y z
#
# Youngs Moduli (GPa) = 33.23707 70.58455 109.77275
#
# Poissons Ratio (x) = -0.01609 0.57346
# Poissons Ratio (y) = -0.00758 0.53614
# Poissons Ratio (z) = 0.17363 0.34474
#
# Static dielectric constant tensor:
#      x y z
#    x 1.632170 0.000000 0.000000 
#    y 0.000000 1.611150 0.000000 
#    z 0.000000 0.000000 1.641970 
# 
# From -- ./inp_files/31177.got.cif
#   From: 2010.05.17/outbox.cif.g08.bks.cpg/sg52_16_cif.got.tgz:31177.got - 2010.06.03 12:15:38.
