data_PCOD9408899
_publ_section_title
;
Structure prediction by ZEFSAII (Michael W. Deem and Ramdas Pophale) SiO2 
 PCOD9408899
Probable space group: P N N A
;
_chemical_formula_sum "Si O2"
_cell_formula_units_Z 64
_cell_length_a 25.536953
_cell_length_b 9.862494
_cell_length_c 15.356691
_cell_angle_alpha 90.000000
_cell_angle_beta 90.000000
_cell_angle_gamma 90.000000
_cell_volume 3867.706184
_symmetry_space_group_name_H-M "P N N A"
_symmetry_group_IT_number 52
_symmetry_cell_setting 'orthorhombic'
loop_
_space_group_symop_operation_xyz
x,y,z
1/2-x,-y,z
x,1/2-y,1/2-z
1/2-x,1/2+y,1/2-z
-x,-y,-z
1/2+x,y,-z
-x,1/2+y,1/2+z
1/2+x,1/2-y,1/2+z
loop_
_atom_site_type_symbol
_atom_site_label
_atom_site_fract_x
_atom_site_fract_y
_atom_site_fract_z
Si Si1 0.947247 0.299148 0.567988
Si Si2 0.300093 0.095606 0.643217
Si Si3 0.015482 0.652709 0.829705
Si Si4 0.592766 0.476481 0.434637
Si Si5 0.511879 0.104520 0.215353
Si Si6 0.196808 0.915983 0.844602
Si Si7 0.555130 0.285641 0.982424
Si Si8 0.100925 0.576471 0.972773
O O1 0.933957 0.416585 0.499497
O O2 0.958894 0.363499 0.661512
O O3 0.904801 0.182028 0.552347
O O4 0.003127 0.233947 0.541332
O O5 0.318989 0.068901 0.742608
O O6 0.290959 0.257508 0.639234
O O7 0.342980 0.063588 0.570832
O O8 0.250000 0.000000 0.630891
O O9 0.029385 0.750000 0.750000
O O10 0.063366 0.636406 0.896659
O O11 0.003385 0.504559 0.790922
O O12 0.967391 0.715854 0.884421
O O13 0.554640 0.455794 0.351675
O O14 0.648693 0.530626 0.402475
O O15 0.593077 0.334659 0.487149
O O16 0.531149 0.250000 0.250000
O O17 0.250000 0.000000 0.858402
O O18 0.579115 0.431531 0.000059
#
# Coordination Sequence:
#
# PCOD9408899 Si02
#       8
#     8   8   8   8   8   8   8   8
#     4  10  19  34  49  70 102 139 177 210 246 300
#     4  10  22  37  53  75 102 134 173 217 252 289
#     4  11  20  31  50  75 104 142 175 210 246 304
#     4  11  20  35  52  72 102 146 176 203 250 308
#     4  11  20  31  48  76 106 137 175 212 248 300
#     4  10  22  37  53  75 102 133 175 217 249 291
#     4  10  21  32  48  74 106 136 173 212 252 298
#     4  11  20  34  52  72 104 145 174 205 255 305
#
# _framework density 16.547276
#
# number of rings (size 3 to 8) (size 9 to 14) (size 15 to 20)
#    0.000    1.500    1.250    8.250    3.500    0.000 
#    2.250    0.000    0.000    0.000    0.000    0.000 
#    0.000   15.000    0.000    0.000    0.000    0.000 
#
# Total GULP energy -357186.767909 kJ/mol
# GULP energy per Si atom -5581.043249 kJ/mol
# Density = 1.650961 g / cm^3
# Si number density = 16.547276 Si / 1000 Ang^3
#
#
#
# Elastic Constant Matrix: (Units=GPa)
#
#
# Indices 1 2 3 4 5 6 
#
# 1 51.2873 10.6373 11.4861 0.0000 0.0000 0.0000
# 2 10.6373 70.7024 10.4065 0.0000 0.0000 0.0000
# 3 11.4861 10.4065 33.7882 0.0000 0.0000 0.0000
# 4 0.0000 0.0000 0.0000 31.8466 0.0000 0.0000
# 5 0.0000 0.0000 0.0000 0.0000 30.6707 0.0000
# 6 0.0000 0.0000 0.0000 0.0000 0.0000 22.2106
#
#
#
# Elastic Compliance Matrix: (Units=1/GPa)
#
#
# Indices 1 2 3 4 5 6 
#
# 1 0.021443 -0.002255 -0.006595 0.000000 0.000000 0.000000
# 2 -0.002255 0.015053 -0.003869 0.000000 0.000000 0.000000
# 3 -0.006595 -0.003869 0.033030 0.000000 0.000000 0.000000
# 4 0.000000 0.000000 0.000000 0.031401 0.000000 0.000000
# 5 0.000000 0.000000 0.000000 0.000000 0.032604 0.000000
# 6 0.000000 0.000000 0.000000 0.000000 0.000000 0.045024
#
#
# Mechanical properties :
#
#
# Convention : Reuss Voigt Hill
#
# Bulk Modulus (GPa) = 22.68289 24.53751 23.61020
# Shear Modulus (GPa) = 22.86363 25.16210 24.01286
#
# Velocity S-wave (km/s) = 3.72118 3.90374 3.81355
# Velocity P-wave (km/s) = 5.67455 5.93126 5.80433
#
# Compressibility (1/GPa) = 0.04408608
#
# Stress axis : x y z
#
# Youngs Moduli (GPa) = 46.63591 66.43344 30.27582
#
# Poissons Ratio (x) = 0.14984 0.19966
# Poissons Ratio (y) = 0.10518 0.11715
# Poissons Ratio (z) = 0.30755 0.25706
#
# Static dielectric constant tensor:
#      x y z
#    x 1.532130 0.000000 0.000000 
#    y 0.000000 1.599690 0.000000 
#    z 0.000000 0.000000 1.587820 
# 
# From -- ./inp_files/29227.got.cif
#   From: 2010.05.17/outbox.cif.g08.bks.cpg/sg52_15_cif.got.tgz:29227.got - 2010.06.03 12:15:38.
