data_PCOD9408182
_publ_section_title
;
Structure prediction by ZEFSAII (Michael W. Deem and Ramdas Pophale) SiO2 
 PCOD9408182
Probable space group: P N N A
;
_chemical_formula_sum "Si O2"
_cell_formula_units_Z 40
_cell_length_a 21.172050
_cell_length_b 9.637043
_cell_length_c 7.759600
_cell_angle_alpha 90.000000
_cell_angle_beta 90.000000
_cell_angle_gamma 90.000000
_cell_volume 1583.237406
_symmetry_space_group_name_H-M "P N N A"
_symmetry_group_IT_number 52
_symmetry_cell_setting 'orthorhombic'
loop_
_space_group_symop_operation_xyz
x,y,z
1/2-x,-y,z
x,1/2-y,1/2-z
1/2-x,1/2+y,1/2-z
-x,-y,-z
1/2+x,y,-z
-x,1/2+y,1/2+z
1/2+x,1/2-y,1/2+z
loop_
_atom_site_type_symbol
_atom_site_label
_atom_site_fract_x
_atom_site_fract_y
_atom_site_fract_z
Si Si1 0.981757 0.917093 0.255412
Si Si2 0.816229 0.723986 0.456159
Si Si3 0.136159 0.945524 0.900487
Si Si4 0.676960 0.660487 0.022021
Si Si5 0.404334 0.935577 0.389310
O O1 0.992834 0.750000 0.250000
O O2 0.944843 0.945947 0.434152
O O3 0.930628 0.978879 0.123464
O O4 0.044369 0.012209 0.253098
O O5 0.829899 0.750000 0.250000
O O6 0.818716 0.560229 0.481737
O O7 0.748890 0.792464 0.492938
O O8 0.869363 0.791262 0.576322
O O9 0.134064 0.797734 0.991648
O O10 0.165896 0.905258 0.712595
O O11 0.652007 0.546951 0.891780
#
# Coordination Sequence:
#
# PCOD9408182 Si02
#       5
#     8   8   8   8   8
#     4  10  18  34  51  67 106 145 188 216 257 339
#     4  12  17  29  49  76 110 138 173 223 290 336
#     4  10  18  29  48  75 105 142 161 220 290 326
#     4  10  20  27  48  80 109 128 177 225 285 342
#     4  10  20  31  50  75 103 143 182 221 270 339
#
# _framework density 25.264688
#
# number of rings (size 3 to 8) (size 9 to 14) (size 15 to 20)
#    0.000    1.600    8.000    1.200    0.000    0.000 
#    0.000    1.000    8.800    0.000    0.000    5.600 
#   30.000    0.000    0.000    0.000    0.000    0.000 
#
# Total GULP energy -223672.266471 kJ/mol
# GULP energy per Si atom -5591.806662 kJ/mol
# Density = 2.520718 g / cm^3
# Si number density = 25.264688 Si / 1000 Ang^3
#
#
#
# Elastic Constant Matrix: (Units=GPa)
#
#
# Indices 1 2 3 4 5 6 
#
# 1 148.5126 74.1216 37.3531 0.0000 0.0000 0.0000
# 2 74.1216 167.7737 11.2666 0.0000 0.0000 0.0000
# 3 37.3531 11.2666 80.2777 0.0000 0.0000 0.0000
# 4 0.0000 0.0000 0.0000 0.2362 0.0000 0.0000
# 5 0.0000 0.0000 0.0000 0.0000 -4.2848 0.0000
# 6 0.0000 0.0000 0.0000 0.0000 0.0000 35.6148
#
#
#
# Elastic Compliance Matrix: (Units=1/GPa)
#
#
# Indices 1 2 3 4 5 6 
#
# 1 0.009748 -0.004040 -0.003969 0.000000 0.000000 0.000000
# 2 -0.004040 0.007692 0.000800 0.000000 0.000000 0.000000
# 3 -0.003969 0.000800 0.014191 0.000000 0.000000 0.000000
# 4 0.000000 0.000000 0.000000 4.233622 0.000000 0.000000
# 5 0.000000 0.000000 0.000000 0.000000 -0.233383 0.000000
# 6 0.000000 0.000000 0.000000 0.000000 0.000000 0.028078
#
#
# Mechanical properties :
#
#
# Convention : Reuss Voigt Hill
#
# Bulk Modulus (GPa) = 58.09315 71.33852 64.71584
# Shear Modulus (GPa) = 1.22546 24.56809 12.89677
#
# Velocity S-wave (km/s) = 0.69721 3.12176 2.26180
# Velocity P-wave (km/s) = 4.86743 6.42585 5.70015
#
# Compressibility (1/GPa) = 0.01721373
#
# Stress axis : x y z
#
# Youngs Moduli (GPa) = 102.58499 130.01262 70.46687
#
# Poissons Ratio (x) = 0.52527 0.27966
# Poissons Ratio (y) = 0.41445 -0.05640
# Poissons Ratio (z) = 0.40713 -0.10406
#
# Static dielectric constant tensor:
#      x y z
#    x 1.997830 0.000000 0.000000 
#    y 0.000000 2.009550 0.000000 
#    z 0.000000 0.000000 2.050780 
# 
# From -- ./inp_files/21471.got.cif
#   From: 2010.05.17/outbox.cif.g08.bks.cpg/sg52_11_cif.got.tgz:21471.got - 2010.06.03 12:15:38.
