data_PCOD9408754
_publ_section_title
;
Structure prediction by ZEFSAII (Michael W. Deem and Ramdas Pophale) SiO2 
 PCOD9408754
Probable space group: P N N A
;
_chemical_formula_sum "Si O2"
_cell_formula_units_Z 44
_cell_length_a 18.142891
_cell_length_b 4.939963
_cell_length_c 25.031728
_cell_angle_alpha 90.000000
_cell_angle_beta 90.000000
_cell_angle_gamma 90.000000
_cell_volume 2243.473885
_symmetry_space_group_name_H-M "P N N A"
_symmetry_group_IT_number 52
_symmetry_cell_setting 'orthorhombic'
loop_
_space_group_symop_operation_xyz
x,y,z
1/2-x,-y,z
x,1/2-y,1/2-z
1/2-x,1/2+y,1/2-z
-x,-y,-z
1/2+x,y,-z
-x,1/2+y,1/2+z
1/2+x,1/2-y,1/2+z
loop_
_atom_site_type_symbol
_atom_site_label
_atom_site_fract_x
_atom_site_fract_y
_atom_site_fract_z
Si Si1 0.019113 0.358734 0.363559
Si Si2 0.636476 0.681196 0.413945
Si Si3 0.556519 0.657279 0.929315
Si Si4 0.750000 0.500000 0.333601
Si Si5 0.637076 0.250000 0.250000
Si Si6 0.900196 0.805883 0.478404
Si Si7 0.531027 0.750000 0.250000
O O1 0.935396 0.423940 0.381891
O O2 0.017319 0.353289 0.299804
O O3 0.070896 0.568335 0.396173
O O4 0.032589 0.058014 0.384819
O O5 0.703530 0.682108 0.373789
O O6 0.639839 0.475518 0.464770
O O7 0.623970 0.981691 0.433865
O O8 0.488267 0.733861 0.968921
O O9 0.609438 0.474939 0.966864
O O10 0.691603 0.344213 0.296919
O O11 0.584895 0.501623 0.233892
#
# Coordination Sequence:
#
# PCOD9408754 Si02
#       7
#     8   8   8   4   4   8   4
#     4  10  19  32  48  69  91 121 155 201 243 294
#     4  10  21  32  48  66  91 118 164 206 249 283
#     4   9  17  31  51  68  89 111 147 196 259 300
#     4  12  26  38  50  68  92 138 180 218 252 274
#     4  12  27  38  50  62  92 140 182 218 243 280
#     4   9  18  32  49  70  86 111 148 205 254 303
#     4  12  23  38  50  70  96 130 172 212 247 282
#
# _framework density 19.612442000000001
#
# number of rings (size 3 to 8) (size 9 to 14) (size 15 to 20)
#    0.000    1.818    1.818    2.727    5.091    6.545 
#    0.000    0.000    0.000    0.000    0.000    0.000 
#    0.000    0.000    0.000    0.000    0.000   50.909 
#
# Total GULP energy -245363.088666 kJ/mol
# GULP energy per Si atom -5576.433833 kJ/mol
# Density = 1.956780 g / cm^3
# Si number density = 19.612442 Si / 1000 Ang^3
#
#
#
# Elastic Constant Matrix: (Units=GPa)
#
#
# Indices 1 2 3 4 5 6 
#
# 1 5.2703 0.4382 7.0417 0.0000 0.0000 0.0000
# 2 0.4382 111.9705 9.6809 0.0000 0.0000 0.0000
# 3 7.0417 9.6809 73.2961 0.0000 0.0000 0.0000
# 4 0.0000 0.0000 0.0000 15.6700 0.0000 0.0000
# 5 0.0000 0.0000 0.0000 0.0000 -6.2873 0.0000
# 6 0.0000 0.0000 0.0000 0.0000 0.0000 8.8167
#
#
#
# Elastic Compliance Matrix: (Units=1/GPa)
#
#
# Indices 1 2 3 4 5 6 
#
# 1 0.217791 0.000968 -0.021051 0.000000 0.000000 0.000000
# 2 0.000968 0.009038 -0.001287 0.000000 0.000000 0.000000
# 3 -0.021051 -0.001287 0.015836 0.000000 0.000000 0.000000
# 4 0.000000 0.000000 0.000000 0.063816 0.000000 0.000000
# 5 0.000000 0.000000 0.000000 0.000000 -0.159052 0.000000
# 6 0.000000 0.000000 0.000000 0.000000 0.000000 0.113420
#
#
# Mechanical properties :
#
#
# Convention : Reuss Voigt Hill
#
# Bulk Modulus (GPa) = 5.00190 24.98427 14.99309
# Shear Modulus (GPa) = 13.50505 15.19830 14.35167
#
# Velocity S-wave (km/s) = 2.62696 2.78678 2.70805
# Velocity P-wave (km/s) = 3.42887 4.80848 4.17604
#
# Compressibility (1/GPa) = 0.19992396
#
# Stress axis : x y z
#
# Youngs Moduli (GPa) = 4.59156 110.63918 63.14846
#
# Poissons Ratio (x) = -0.10707 1.32936
# Poissons Ratio (y) = -0.00444 0.08126
# Poissons Ratio (z) = 0.09666 0.14237
#
# Static dielectric constant tensor:
#      x y z
#    x 1.702630 0.000000 0.000000 
#    y 0.000000 1.715460 0.000000 
#    z 0.000000 0.000000 1.704380 
# 
# From -- ./inp_files/37803.got.cif
#   From: 2010.05.17/outbox.cif.g08.bks.cpg/sg52_19_cif.got.tgz:37803.got - 2010.06.03 12:15:38.
