data_PCOD9408692
_publ_section_title
;
Structure prediction by ZEFSAII (Michael W. Deem and Ramdas Pophale) SiO2 
 PCOD9408692
Probable space group: P N N A
;
_chemical_formula_sum "Si O2"
_cell_formula_units_Z 48
_cell_length_a 5.323147
_cell_length_b 21.566606
_cell_length_c 17.349499
_cell_angle_alpha 90.000000
_cell_angle_beta 90.000000
_cell_angle_gamma 90.000000
_cell_volume 1991.760897
_symmetry_space_group_name_H-M "P N N A"
_symmetry_group_IT_number 52
_symmetry_cell_setting 'orthorhombic'
loop_
_space_group_symop_operation_xyz
x,y,z
1/2-x,-y,z
x,1/2-y,1/2-z
1/2-x,1/2+y,1/2-z
-x,-y,-z
1/2+x,y,-z
-x,1/2+y,1/2+z
1/2+x,1/2-y,1/2+z
loop_
_atom_site_type_symbol
_atom_site_label
_atom_site_fract_x
_atom_site_fract_y
_atom_site_fract_z
Si Si1 0.827508 0.389545 0.525347
Si Si2 0.671370 0.765188 0.082039
Si Si3 0.250000 0.500000 0.927057
Si Si4 0.284550 0.633805 0.182847
Si Si5 0.713832 0.365229 0.080599
Si Si6 0.671571 0.802531 0.837939
Si Si7 0.250000 0.000000 0.323227
O O1 0.577378 0.422928 0.500212
O O2 0.826906 0.324604 0.474303
O O3 0.827770 0.366652 0.612648
O O4 0.733274 0.700424 0.040008
O O5 0.403982 0.765249 0.124569
O O6 0.898513 0.774558 0.142976
O O7 0.256724 0.569031 0.963990
O O8 0.501221 0.500265 0.876129
O O9 0.561374 0.635593 0.144758
O O10 0.228824 0.682183 0.250022
O O11 0.258424 0.564953 0.219687
O O12 0.058594 0.637050 0.120695
#
# Coordination Sequence:
#
# PCOD9408692 Si02
#       7
#     8   8   4   8   8   8   4
#     4   8  16  30  44  60  82 114 152 180 214 258
#     4  10  19  30  45  66  90 119 149 183 223 266
#     4   8  16  30  44  60  86 120 152 178 212 258
#     4  10  19  30  45  66  93 121 148 182 221 264
#     4  10  19  30  45  66  93 121 148 182 221 264
#     4  10  19  30  45  66  90 119 149 183 223 266
#     4   8  16  30  44  60  86 120 152 178 212 258
#
# _framework density 24.099277000000001
#
# number of rings (size 3 to 8) (size 9 to 14) (size 15 to 20)
#    0.000    2.667    0.000    2.000    0.000    4.000 
#    0.000    0.000    0.000    0.000    0.000   21.000 
#    0.000    0.000    0.000    0.000    0.000    0.000 
#
# Total GULP energy -268090.616691 kJ/mol
# GULP energy per Si atom -5585.221181 kJ/mol
# Density = 2.404443 g / cm^3
# Si number density = 24.099277 Si / 1000 Ang^3
#
#
#
# Elastic Constant Matrix: (Units=GPa)
#
#
# Indices 1 2 3 4 5 6 
#
# 1 201.3988 2.5983 42.8954 0.0000 0.0000 0.0000
# 2 2.5983 88.1039 16.6347 0.0000 0.0000 0.0000
# 3 42.8954 16.6347 88.2826 0.0000 0.0000 0.0000
# 4 0.0000 0.0000 0.0000 -2.4624 0.0000 0.0000
# 5 0.0000 0.0000 0.0000 0.0000 25.7124 0.0000
# 6 0.0000 0.0000 0.0000 0.0000 0.0000 18.1689
#
#
#
# Elastic Compliance Matrix: (Units=1/GPa)
#
#
# Indices 1 2 3 4 5 6 
#
# 1 0.005549 0.000358 -0.002764 0.000000 0.000000 0.000000
# 2 0.000358 0.011792 -0.002396 0.000000 0.000000 0.000000
# 3 -0.002764 -0.002396 0.013122 0.000000 0.000000 0.000000
# 4 0.000000 0.000000 0.000000 -0.406105 0.000000 0.000000
# 5 0.000000 0.000000 0.000000 0.000000 0.038892 0.000000
# 6 0.000000 0.000000 0.000000 0.000000 0.000000 0.055039
#
#
# Mechanical properties :
#
#
# Convention : Reuss Voigt Hill
#
# Bulk Modulus (GPa) = 47.93917 55.78245 51.86081
# Shear Modulus (GPa) = -18.85689 29.32758 5.23534
#
# Velocity S-wave (km/s) = -2.80030 3.49226 1.47551
# Velocity P-wave (km/s) = 3.07896 6.28159 4.94664
#
# Compressibility (1/GPa) = 0.02085977
#
# Stress axis : x y z
#
# Youngs Moduli (GPa) = 180.20246 84.80292 76.21003
#
# Poissons Ratio (x) = -0.03037 0.21063
# Poissons Ratio (y) = -0.06454 0.18260
# Poissons Ratio (z) = 0.49805 0.20318
#
# Static dielectric constant tensor:
#      x y z
#    x 1.964280 0.000000 0.000000 
#    y 0.000000 1.998390 0.000000 
#    z 0.000000 0.000000 1.874690 
# 
# From -- ./inp_files/30292.got.cif
#   From: 2010.05.17/outbox.cif.g08.bks.cpg/sg52_16_cif.got.tgz:30292.got - 2010.06.03 12:15:38.
