data_PCOD9408931
_publ_section_title
;
Structure prediction by ZEFSAII (Michael W. Deem and Ramdas Pophale) SiO2 
 PCOD9408931
Probable space group: P N N A
;
_chemical_formula_sum "Si O2"
_cell_formula_units_Z 52
_cell_length_a 9.935333
_cell_length_b 13.603427
_cell_length_c 20.872861
_cell_angle_alpha 90.000000
_cell_angle_beta 90.000000
_cell_angle_gamma 90.000000
_cell_volume 2821.062703
_symmetry_space_group_name_H-M "P N N A"
_symmetry_group_IT_number 52
_symmetry_cell_setting 'orthorhombic'
loop_
_space_group_symop_operation_xyz
x,y,z
1/2-x,-y,z
x,1/2-y,1/2-z
1/2-x,1/2+y,1/2-z
-x,-y,-z
1/2+x,y,-z
-x,1/2+y,1/2+z
1/2+x,1/2-y,1/2+z
loop_
_atom_site_type_symbol
_atom_site_label
_atom_site_fract_x
_atom_site_fract_y
_atom_site_fract_z
Si Si1 0.878600 0.569521 0.520573
Si Si2 0.484013 0.172627 0.861027
Si Si3 0.300688 0.818942 0.310956
Si Si4 0.675034 0.321206 0.390820
Si Si5 0.250000 0.500000 0.266003
Si Si6 0.470927 0.970584 0.794245
Si Si7 0.496242 0.676685 0.811701
O O1 0.750000 0.500000 0.528421
O O2 0.855190 0.646575 0.463206
O O3 0.000000 0.500000 0.500000
O O4 0.924819 0.620749 0.585397
O O5 0.571373 0.268546 0.843590
O O6 0.334194 0.194292 0.884331
O O7 0.459224 0.087123 0.807370
O O8 0.280344 0.750000 0.250000
O O9 0.149059 0.826310 0.339272
O O10 0.324413 0.925166 0.280960
O O11 0.620337 0.410822 0.345054
O O12 0.599007 0.225143 0.364444
O O13 0.368439 0.449029 0.305885
O O14 0.449956 0.924556 0.723250
O O15 0.492639 0.750000 0.750000
#
# Coordination Sequence:
#
# PCOD9408931 Si02
#       7
#     8   8   8   8   4   8   8
#     4  12  24  37  56  83 120 159 195 254 315 367
#     4  12  24  35  57  88 120 156 207 248 302 376
#     4  10  20  35  58  87 115 156 199 248 293 365
#     4  11  22  39  50  82 124 157 199 241 303 376
#     4  10  20  38  58  90 120 152 208 248 298 366
#     4  10  19  34  56  80 116 158 192 248 296 356
#     4   8  19  34  54  73 112 156 195 230 298 347
#
# _framework density 18.432770999999999
#
# number of rings (size 3 to 8) (size 9 to 14) (size 15 to 20)
#    0.000    1.538    4.615    1.385    3.231    1.846 
#    2.769    0.000    0.000    0.000    0.000    9.692 
#    0.000    0.000    0.000    0.000    0.000    0.000 
#
# Total GULP energy -289555.035417 kJ/mol
# GULP energy per Si atom -5568.366066 kJ/mol
# Density = 1.839082 g / cm^3
# Si number density = 18.432771 Si / 1000 Ang^3
#
#
#
# Elastic Constant Matrix: (Units=GPa)
#
#
# Indices 1 2 3 4 5 6 
#
# 1 127.0157 24.1089 44.5571 0.0000 0.0000 0.0000
# 2 24.1089 76.4535 32.4522 0.0000 0.0000 0.0000
# 3 44.5571 32.4522 51.4461 0.0000 0.0000 0.0000
# 4 0.0000 0.0000 0.0000 30.3029 0.0000 0.0000
# 5 0.0000 0.0000 0.0000 0.0000 28.3879 0.0000
# 6 0.0000 0.0000 0.0000 0.0000 0.0000 34.9730
#
#
#
# Elastic Compliance Matrix: (Units=1/GPa)
#
#
# Indices 1 2 3 4 5 6 
#
# 1 0.011346 0.000810 -0.010337 0.000000 0.000000 0.000000
# 2 0.000810 0.017921 -0.012006 0.000000 0.000000 0.000000
# 3 -0.010337 -0.012006 0.035964 0.000000 0.000000 0.000000
# 4 0.000000 0.000000 0.000000 0.033000 0.000000 0.000000
# 5 0.000000 0.000000 0.000000 0.000000 0.035226 0.000000
# 6 0.000000 0.000000 0.000000 0.000000 0.000000 0.028593
#
#
# Mechanical properties :
#
#
# Convention : Reuss Voigt Hill
#
# Bulk Modulus (GPa) = 45.11801 50.79462 47.95631
# Shear Modulus (GPa) = 23.52888 28.98589 26.25738
#
# Velocity S-wave (km/s) = 3.57665 3.96980 3.77834
# Velocity P-wave (km/s) = 6.44878 6.97345 6.71624
#
# Compressibility (1/GPa) = 0.02216410
#
# Stress axis : x y z
#
# Youngs Moduli (GPa) = 88.13967 55.80197 27.80535
#
# Poissons Ratio (x) = -0.04521 0.28744
# Poissons Ratio (y) = -0.07141 0.33383
# Poissons Ratio (z) = 0.91114 0.66995
#
# Static dielectric constant tensor:
#      x y z
#    x 1.690380 0.000000 0.000000 
#    y 0.000000 1.581070 0.000000 
#    z 0.000000 0.000000 1.661120 
# 
# From -- ./inp_files/35946.got.cif
#   From: 2010.05.17/outbox.cif.g08.bks.cpg/sg52_18_cif.got.tgz:35946.got - 2010.06.03 12:15:38.
