data_PCOD9408972
_publ_section_title
;
Structure prediction by ZEFSAII (Michael W. Deem and Ramdas Pophale) SiO2 
 PCOD9408972
Probable space group: P N N A
;
_chemical_formula_sum "Si O2"
_cell_formula_units_Z 64
_cell_length_a 13.418313
_cell_length_b 16.643461
_cell_length_c 13.836006
_cell_angle_alpha 90.000000
_cell_angle_beta 90.000000
_cell_angle_gamma 90.000000
_cell_volume 3089.956052
_symmetry_space_group_name_H-M "P N N A"
_symmetry_group_IT_number 52
_symmetry_cell_setting 'orthorhombic'
loop_
_space_group_symop_operation_xyz
x,y,z
1/2-x,-y,z
x,1/2-y,1/2-z
1/2-x,1/2+y,1/2-z
-x,-y,-z
1/2+x,y,-z
-x,1/2+y,1/2+z
1/2+x,1/2-y,1/2+z
loop_
_atom_site_type_symbol
_atom_site_label
_atom_site_fract_x
_atom_site_fract_y
_atom_site_fract_z
Si Si1 0.530415 0.860931 0.493440
Si Si2 0.125512 0.393364 0.868350
Si Si3 0.231734 0.584145 0.054038
Si Si4 0.705232 0.657425 0.271791
Si Si5 0.980823 0.444422 0.190960
Si Si6 0.788933 0.261268 0.642676
Si Si7 0.073817 0.172714 0.177863
Si Si8 0.893072 0.306891 0.458000
O O1 0.453301 0.835707 0.576173
O O2 0.614374 0.920190 0.530852
O O3 0.476604 0.905567 0.407011
O O4 0.594360 0.789185 0.448481
O O5 0.190260 0.362437 0.778635
O O6 0.057235 0.466749 0.831142
O O7 0.204263 0.415063 0.954103
O O8 0.250000 0.500000 0.107886
O O9 0.240013 0.671178 0.105095
O O10 0.683381 0.750000 0.250000
O O11 0.620875 0.601056 0.225008
O O12 0.689954 0.654556 0.387804
O O13 0.058954 0.412467 0.269192
O O14 0.831626 0.250000 0.750000
O O15 0.685907 0.309110 0.649306
O O16 0.861004 0.308751 0.569422
O O17 0.047404 0.250000 0.250000
O O18 0.999208 0.167965 0.086534
#
# Coordination Sequence:
#
# PCOD9408972 Si02
#       8
#     8   8   8   8   8   8   8   8
#     4  11  20  34  54  91 128 161 190 248 313 384
#     4  12  23  33  60  99 131 157 197 258 328 385
#     4  11  21  35  55  86 128 161 193 245 321 380
#     4  11  19  37  58  83 122 165 208 252 301 370
#     4  11  19  35  56  91 133 153 199 252 312 382
#     4  10  23  38  57  86 118 159 212 251 307 377
#     4  10  19  34  61  86 116 158 203 246 299 374
#     4  10  19  37  58  79 115 159 206 252 299 351
#
# _framework density 20.712268000000002
#
# number of rings (size 3 to 8) (size 9 to 14) (size 15 to 20)
#    0.000    1.250    5.000    3.000    1.750    0.000 
#    0.000    5.000    0.000    3.750    0.000    3.500 
#    0.000    0.000    0.000    0.000    0.000    0.000 
#
# Total GULP energy -356399.322586 kJ/mol
# GULP energy per Si atom -5568.739415 kJ/mol
# Density = 2.066513 g / cm^3
# Si number density = 20.712268 Si / 1000 Ang^3
#
#
#
# Elastic Constant Matrix: (Units=GPa)
#
#
# Indices 1 2 3 4 5 6 
#
# 1 59.1648 0.3159 48.6452 0.0000 0.0000 0.0000
# 2 0.3159 44.9807 9.4112 0.0000 0.0000 0.0000
# 3 48.6452 9.4112 121.0953 0.0000 0.0000 0.0000
# 4 0.0000 0.0000 0.0000 18.5199 0.0000 0.0000
# 5 0.0000 0.0000 0.0000 0.0000 33.2201 0.0000
# 6 0.0000 0.0000 0.0000 0.0000 0.0000 27.3423
#
#
#
# Elastic Compliance Matrix: (Units=1/GPa)
#
#
# Indices 1 2 3 4 5 6 
#
# 1 0.025412 0.001990 -0.010363 0.000000 0.000000 0.000000
# 2 0.001990 0.022755 -0.002568 0.000000 0.000000 0.000000
# 3 -0.010363 -0.002568 0.012620 0.000000 0.000000 0.000000
# 4 0.000000 0.000000 0.000000 0.053996 0.000000 0.000000
# 5 0.000000 0.000000 0.000000 0.000000 0.030102 0.000000
# 6 0.000000 0.000000 0.000000 0.000000 0.000000 0.036573
#
#
# Mechanical properties :
#
#
# Convention : Reuss Voigt Hill
#
# Bulk Modulus (GPa) = 25.70340 37.99839 31.85089
# Shear Modulus (GPa) = 23.11515 26.94104 25.02809
#
# Velocity S-wave (km/s) = 3.34430 3.61047 3.47993
# Velocity P-wave (km/s) = 5.22964 5.98050 5.61763
#
# Compressibility (1/GPa) = 0.03890536
#
# Stress axis : x y z
#
# Youngs Moduli (GPa) = 39.35220 43.94635 79.23729
#
# Poissons Ratio (x) = -0.08744 0.82111
# Poissons Ratio (y) = -0.07830 0.20346
# Poissons Ratio (z) = 0.40780 0.11284
#
# Static dielectric constant tensor:
#      x y z
#    x 1.785070 0.000000 0.000000 
#    y 0.000000 1.757970 0.000000 
#    z 0.000000 0.000000 1.838210 
# 
# From -- ./inp_files/19887.got.cif
#   From: 2010.05.17/outbox.cif.g08.bks.cpg/sg52_10_cif.got.tgz:19887.got - 2010.06.03 12:15:38.
