data_PCOD9408339
_publ_section_title
;
Structure prediction by ZEFSAII (Michael W. Deem and Ramdas Pophale) SiO2 
 PCOD9408339
Probable space group: P N N A
;
_chemical_formula_sum "Si O2"
_cell_formula_units_Z 32
_cell_length_a 8.109896
_cell_length_b 7.352773
_cell_length_c 20.462767
_cell_angle_alpha 90.000000
_cell_angle_beta 90.000000
_cell_angle_gamma 90.000000
_cell_volume 1220.199387
_symmetry_space_group_name_H-M "P N N A"
_symmetry_group_IT_number 52
_symmetry_cell_setting 'orthorhombic'
loop_
_space_group_symop_operation_xyz
x,y,z
1/2-x,-y,z
x,1/2-y,1/2-z
1/2-x,1/2+y,1/2-z
-x,-y,-z
1/2+x,y,-z
-x,1/2+y,1/2+z
1/2+x,1/2-y,1/2+z
loop_
_atom_site_type_symbol
_atom_site_label
_atom_site_fract_x
_atom_site_fract_y
_atom_site_fract_z
Si Si1 0.979121 0.669862 0.404687
Si Si2 0.559742 0.444777 0.862616
Si Si3 0.170105 0.703475 0.971749
Si Si4 0.054378 0.461049 0.729920
O O1 0.805198 0.668927 0.439967
O O2 0.010839 0.532092 0.345150
O O3 0.961852 0.868640 0.372559
O O4 0.110464 0.701572 0.461843
O O5 0.750000 0.500000 0.869706
O O6 0.481545 0.322761 0.920292
O O7 0.523994 0.411880 0.786146
O O8 0.250000 0.500000 0.983325
O O9 0.250000 0.500000 0.727599
O O10 0.024563 0.250000 0.750000
#
# Coordination Sequence:
#
# PCOD9408339 Si02
#       4
#     8   8   8   8
#     4  10  19  33  54  83 115 149 194 247 291 344
#     4  10  18  32  56  84 112 148 200 249 287 343
#     4  10  18  32  57  83 113 153 198 243 289 350
#     4  10  21  39  59  84 119 158 197 243 297 353
#
# _framework density 26.225224999999998
#
# number of rings (size 3 to 8) (size 9 to 14) (size 15 to 20)
#    0.000    2.000    0.000    9.000    0.000    0.000 
#    0.000   15.000    0.000    0.000    0.000    0.000 
#    0.000    0.000    0.000    0.000    0.000    0.000 
#
# Total GULP energy -178656.779560 kJ/mol
# GULP energy per Si atom -5583.024361 kJ/mol
# Density = 2.616554 g / cm^3
# Si number density = 26.225225 Si / 1000 Ang^3
#
#
#
# Elastic Constant Matrix: (Units=GPa)
#
#
# Indices 1 2 3 4 5 6 
#
# 1 113.0474 -3.3379 82.7281 0.0000 0.0000 0.0000
# 2 -3.3379 50.5024 32.6708 0.0000 0.0000 0.0000
# 3 82.7281 32.6708 277.4498 0.0000 0.0000 0.0000
# 4 0.0000 0.0000 0.0000 58.4996 0.0000 0.0000
# 5 0.0000 0.0000 0.0000 0.0000 30.7119 0.0000
# 6 0.0000 0.0000 0.0000 0.0000 0.0000 -3.0507
#
#
#
# Elastic Compliance Matrix: (Units=1/GPa)
#
#
# Indices 1 2 3 4 5 6 
#
# 1 0.011805 0.003309 -0.003909 0.000000 0.000000 0.000000
# 2 0.003309 0.022362 -0.003620 0.000000 0.000000 0.000000
# 3 -0.003909 -0.003620 0.005196 0.000000 0.000000 0.000000
# 4 0.000000 0.000000 0.000000 0.017094 0.000000 0.000000
# 5 0.000000 0.000000 0.000000 0.000000 0.032561 0.000000
# 6 0.000000 0.000000 0.000000 0.000000 0.000000 -0.327792
#
#
# Mechanical properties :
#
#
# Convention : Reuss Voigt Hill
#
# Bulk Modulus (GPa) = 32.33934 73.90240 53.12087
# Shear Modulus (GPa) = -22.72442 39.16139 8.21849
#
# Velocity S-wave (km/s) = -2.94685 3.86848 1.77218
# Velocity P-wave (km/s) = 0.88295 6.94223 4.94844
#
# Compressibility (1/GPa) = 0.03092209
#
# Stress axis : x y z
#
# Youngs Moduli (GPa) = 84.71344 44.71968 192.44790
#
# Poissons Ratio (x) = -0.14799 0.75237
# Poissons Ratio (y) = -0.28034 0.69664
# Poissons Ratio (z) = 0.33118 0.16188
#
# Static dielectric constant tensor:
#      x y z
#    x 2.077260 0.000000 0.000000 
#    y 0.000000 2.064740 0.000000 
#    z 0.000000 0.000000 2.213450 
# 
# From -- ./inp_files/24064.got.cif
#   From: 2010.05.17/outbox.cif.g08.bks.cpg/sg52_13_cif.got.tgz:24064.got - 2010.06.03 12:15:38.
