data_PCOD9408069
_publ_section_title
;
Structure prediction by ZEFSAII (Michael W. Deem and Ramdas Pophale) SiO2 
 PCOD9408069
Probable space group: P N N A
;
_chemical_formula_sum "Si O2"
_cell_formula_units_Z 52
_cell_length_a 13.966327
_cell_length_b 9.431849
_cell_length_c 18.728146
_cell_angle_alpha 90.000000
_cell_angle_beta 90.000000
_cell_angle_gamma 90.000000
_cell_volume 2467.026598
_symmetry_space_group_name_H-M "P N N A"
_symmetry_group_IT_number 52
_symmetry_cell_setting 'orthorhombic'
loop_
_space_group_symop_operation_xyz
x,y,z
1/2-x,-y,z
x,1/2-y,1/2-z
1/2-x,1/2+y,1/2-z
-x,-y,-z
1/2+x,y,-z
-x,1/2+y,1/2+z
1/2+x,1/2-y,1/2+z
loop_
_atom_site_type_symbol
_atom_site_label
_atom_site_fract_x
_atom_site_fract_y
_atom_site_fract_z
Si Si1 0.250000 0.000000 0.504522
Si Si2 0.922795 0.305511 0.045950
Si Si3 0.621726 0.750000 0.750000
Si Si4 0.638516 0.481776 0.420165
Si Si5 0.013544 0.717277 0.388282
Si Si6 0.642585 0.448621 0.583583
Si Si7 0.116791 0.139962 0.385792
Si Si8 0.750000 0.500000 0.769439
O O1 0.175686 0.895827 0.544946
O O2 0.317223 0.904582 0.453228
O O3 0.904428 0.143216 0.073945
O O4 0.005886 0.379225 0.092784
O O5 0.961833 0.295800 0.963254
O O6 0.556886 0.790149 0.681855
O O7 0.693214 0.622786 0.729479
O O8 0.750000 0.500000 0.403840
O O9 0.590520 0.352833 0.376293
O O10 0.624630 0.420855 0.500073
O O11 0.072895 0.572528 0.395814
O O12 0.750000 0.500000 0.586988
O O13 0.626409 0.307176 0.626467
O O14 0.167685 0.065829 0.319766
#
# Coordination Sequence:
#
# PCOD9408069 Si02
#       8
#     4   8   4   8   8   8   8   4
#     4  11  22  30  48  88 132 160 192 253 318 401
#     4  11  21  37  61  93 129 169 208 267 342 375
#     4  12  28  44  64  92 134 184 212 256 312 400
#     4  10  19  35  61  97 121 157 211 272 326 380
#     4  11  21  38  61  92 125 169 218 255 315 394
#     4  10  17  31  61  91 124 157 198 265 325 373
#     4  11  20  39  58  88 130 161 209 268 327 379
#     4  11  28  44  62  96 130 172 220 257 326 393
#
# _framework density 21.078005000000001
#
# number of rings (size 3 to 8) (size 9 to 14) (size 15 to 20)
#    0.000    1.231    3.077    6.923    3.231    0.000 
#    0.000    0.000    0.000    1.846    4.000    0.000 
#    0.000    0.000    0.000    0.000    0.000    0.000 
#
# Total GULP energy -290196.163627 kJ/mol
# GULP energy per Si atom -5580.695454 kJ/mol
# Density = 2.103003 g / cm^3
# Si number density = 21.078005 Si / 1000 Ang^3
#
#
#
# Elastic Constant Matrix: (Units=GPa)
#
#
# Indices 1 2 3 4 5 6 
#
# 1 122.6966 9.9437 18.0947 0.0000 0.0000 0.0000
# 2 9.9437 47.4267 0.4072 0.0000 0.0000 0.0000
# 3 18.0947 0.4072 40.6697 0.0000 0.0000 0.0000
# 4 0.0000 0.0000 0.0000 12.1482 0.0000 0.0000
# 5 0.0000 0.0000 0.0000 0.0000 -26.2249 0.0000
# 6 0.0000 0.0000 0.0000 0.0000 0.0000 49.1495
#
#
#
# Elastic Compliance Matrix: (Units=1/GPa)
#
#
# Indices 1 2 3 4 5 6 
#
# 1 0.008878 -0.001828 -0.003932 0.000000 0.000000 0.000000
# 2 -0.001828 0.021463 0.000598 0.000000 0.000000 0.000000
# 3 -0.003932 0.000598 0.026332 0.000000 0.000000 0.000000
# 4 0.000000 0.000000 0.000000 0.082317 0.000000 0.000000
# 5 0.000000 0.000000 0.000000 0.000000 -0.038132 0.000000
# 6 0.000000 0.000000 0.000000 0.000000 0.000000 0.020346
#
#
# Mechanical properties :
#
#
# Convention : Reuss Voigt Hill
#
# Bulk Modulus (GPa) = 21.57464 29.74269 25.65866
# Shear Modulus (GPa) = 34.01898 19.17106 26.59502
#
# Velocity S-wave (km/s) = 4.02177 3.01911 3.55596
# Velocity P-wave (km/s) = 5.64127 5.12784 5.39068
#
# Compressibility (1/GPa) = 0.04635072
#
# Stress axis : x y z
#
# Youngs Moduli (GPa) = 112.63625 46.59135 37.97709
#
# Poissons Ratio (x) = 0.08515 0.14932
# Poissons Ratio (y) = 0.20586 -0.02272
# Poissons Ratio (z) = 0.44286 -0.02787
#
# Static dielectric constant tensor:
#      x y z
#    x -1.178850 0.000000 0.000000 
#    y 0.000000 1.632090 0.000000 
#    z 0.000000 0.000000 1.782640 
# 
# From -- ./inp_files/37292.got.cif
#   From: 2010.05.17/outbox.cif.g08.bks.cpg/sg52_19_cif.got.tgz:37292.got - 2010.06.03 12:15:38.
