data_PCOD9408810
_publ_section_title
;
Structure prediction by ZEFSAII (Michael W. Deem and Ramdas Pophale) SiO2 
 PCOD9408810
Probable space group: P N N A
;
_chemical_formula_sum "Si O2"
_cell_formula_units_Z 64
_cell_length_a 30.503664
_cell_length_b 11.593329
_cell_length_c 8.189252
_cell_angle_alpha 90.000000
_cell_angle_beta 90.000000
_cell_angle_gamma 90.000000
_cell_volume 2896.038990
_symmetry_space_group_name_H-M "P N N A"
_symmetry_group_IT_number 52
_symmetry_cell_setting 'orthorhombic'
loop_
_space_group_symop_operation_xyz
x,y,z
1/2-x,-y,z
x,1/2-y,1/2-z
1/2-x,1/2+y,1/2-z
-x,-y,-z
1/2+x,y,-z
-x,1/2+y,1/2+z
1/2+x,1/2-y,1/2+z
loop_
_atom_site_type_symbol
_atom_site_label
_atom_site_fract_x
_atom_site_fract_y
_atom_site_fract_z
Si Si1 0.159924 0.632624 0.641366
Si Si2 0.074849 0.231108 0.052226
Si Si3 0.596697 0.637200 0.862659
Si Si4 0.020052 0.750596 0.554595
Si Si5 0.763501 0.244630 0.946427
Si Si6 0.925610 0.036232 0.959002
Si Si7 0.670885 0.286137 0.938706
Si Si8 0.682262 0.957924 0.464023
O O1 0.153171 0.750000 0.750000
O O2 0.199622 0.659913 0.518131
O O3 0.116094 0.593495 0.550395
O O4 0.173699 0.536066 0.771371
O O5 0.075230 0.250000 0.250000
O O6 0.122279 0.271557 0.988701
O O7 0.028641 0.285477 0.997252
O O8 0.070237 0.097276 0.002389
O O9 0.603977 0.750000 0.750000
O O10 0.583765 0.539620 0.734578
O O11 0.556967 0.666099 0.982242
O O12 0.640255 0.604991 0.956185
O O13 0.021571 0.750000 0.750000
O O14 0.034211 0.622098 0.496229
O O15 0.764983 0.250000 0.750000
O O16 0.713804 0.218260 0.002711
O O17 0.777768 0.371145 0.008780
O O18 0.667156 0.250000 0.750000
O O19 0.684094 0.419084 0.952969
#
# Coordination Sequence:
#
# PCOD9408810 Si02
#       8
#     8   8   8   8   8   8   8   8
#     4  10  21  38  63  94 122 150 196 252 307 356
#     4  10  22  40  58  82 118 157 197 243 290 349
#     4  10  19  32  59  90 116 147 198 250 295 352
#     4  10  20  37  60  87 118 149 191 246 303 354
#     4  10  20  37  63  91 119 155 204 254 299 356
#     4  11  20  38  62  87 116 156 198 241 295 356
#     4  10  22  40  60  85 119 159 203 245 289 353
#     4  11  20  38  63  90 122 159 197 247 306 358
#
# _framework density 22.099150000000002
#
# number of rings (size 3 to 8) (size 9 to 14) (size 15 to 20)
#    0.000    1.750    0.000    7.500    0.000    0.000 
#    0.000   19.375    0.000    1.500    0.000    0.875 
#    0.000    0.000    0.000    0.000    0.000    0.000 
#
# Total GULP energy -357476.526921 kJ/mol
# GULP energy per Si atom -5585.570733 kJ/mol
# Density = 2.204885 g / cm^3
# Si number density = 22.099150 Si / 1000 Ang^3
#
#
#
# Elastic Constant Matrix: (Units=GPa)
#
#
# Indices 1 2 3 4 5 6 
#
# 1 196.8981 16.2864 33.9111 0.0000 0.0000 0.0000
# 2 16.2864 28.9078 1.6186 0.0000 0.0000 0.0000
# 3 33.9111 1.6186 72.5218 0.0000 0.0000 0.0000
# 4 0.0000 0.0000 0.0000 23.6772 0.0000 0.0000
# 5 0.0000 0.0000 0.0000 0.0000 8.8669 0.0000
# 6 0.0000 0.0000 0.0000 0.0000 0.0000 -2.4940
#
#
#
# Elastic Compliance Matrix: (Units=1/GPa)
#
#
# Indices 1 2 3 4 5 6 
#
# 1 0.005791 -0.003115 -0.002638 0.000000 0.000000 0.000000
# 2 -0.003115 0.036311 0.000646 0.000000 0.000000 0.000000
# 3 -0.002638 0.000646 0.015008 0.000000 0.000000 0.000000
# 4 0.000000 0.000000 0.000000 0.042235 0.000000 0.000000
# 5 0.000000 0.000000 0.000000 0.000000 0.112779 0.000000
# 6 0.000000 0.000000 0.000000 0.000000 0.000000 -0.400970
#
#
# Mechanical properties :
#
#
# Convention : Reuss Voigt Hill
#
# Bulk Modulus (GPa) = 21.32361 44.66221 32.99291
# Shear Modulus (GPa) = -30.67486 22.44415 -4.11536
#
# Velocity S-wave (km/s) = -3.72970 3.19032 -1.36611
# Velocity P-wave (km/s) = 2.97953 5.81590 3.53179
#
# Compressibility (1/GPa) = 0.04689638
#
# Stress axis : x y z
#
# Youngs Moduli (GPa) = 172.68820 27.53961 66.63031
#
# Poissons Ratio (x) = 0.08578 0.17579
# Poissons Ratio (y) = 0.53788 -0.04305
# Poissons Ratio (z) = 0.45559 -0.01779
#
# Static dielectric constant tensor:
#      x y z
#    x 1.838970 0.000000 0.000000 
#    y 0.000000 1.833190 0.000000 
#    z 0.000000 0.000000 1.842580 
# 
# From -- ./inp_files/15710.got.cif
#   From: 2010.05.17/outbox.cif.g08.bks.cpg/sg52_8_cif.got.tgz:15710.got - 2010.06.03 12:15:38.
