data_PCOD9408602
_publ_section_title
;
Structure prediction by ZEFSAII (Michael W. Deem and Ramdas Pophale) SiO2 
 PCOD9408602
Probable space group: P N N A
;
_chemical_formula_sum "Si O2"
_cell_formula_units_Z 24
_cell_length_a 8.041303
_cell_length_b 7.703283
_cell_length_c 14.278946
_cell_angle_alpha 90.000000
_cell_angle_beta 90.000000
_cell_angle_gamma 90.000000
_cell_volume 884.501209
_symmetry_space_group_name_H-M "P N N A"
_symmetry_group_IT_number 52
_symmetry_cell_setting 'orthorhombic'
loop_
_space_group_symop_operation_xyz
x,y,z
1/2-x,-y,z
x,1/2-y,1/2-z
1/2-x,1/2+y,1/2-z
-x,-y,-z
1/2+x,y,-z
-x,1/2+y,1/2+z
1/2+x,1/2-y,1/2+z
loop_
_atom_site_type_symbol
_atom_site_label
_atom_site_fract_x
_atom_site_fract_y
_atom_site_fract_z
Si Si1 0.953971 0.328856 0.934973
Si Si2 0.085629 0.201732 0.110139
Si Si3 0.563338 0.499956 0.240161
O O1 0.763943 0.292646 0.906155
O O2 0.045087 0.346263 0.835752
O O3 0.000000 0.500000 0.000000
O O4 0.012378 0.183811 0.007001
O O5 0.974948 0.338683 0.169598
O O6 0.066559 0.032454 0.175763
O O7 0.750000 0.500000 0.276918
#
# Coordination Sequence:
#
# PCOD9408602 Si02
#       3
#     8   8   8
#     4  10  18  37  65  96 132 174 221 280 343 408
#     4  10  21  37  63 101 131 173 228 276 340 416
#     4  10  20  38  63  95 131 174 226 281 337 404
#
# _framework density 27.133935000000001
#
# number of rings (size 3 to 8) (size 9 to 14) (size 15 to 20)
#    0.000    2.000    0.000    8.000    0.000    0.000 
#    0.000   25.000    0.000    0.000    0.000   18.667 
#    0.000    0.000    0.000    0.000    0.000    0.000 
#
# Total GULP energy -134057.484775 kJ/mol
# GULP energy per Si atom -5585.728532 kJ/mol
# Density = 2.707218 g / cm^3
# Si number density = 27.133935 Si / 1000 Ang^3
#
#
#
# Elastic Constant Matrix: (Units=GPa)
#
#
# Indices 1 2 3 4 5 6 
#
# 1 215.0255 34.2189 59.6652 0.0000 0.0000 0.0000
# 2 34.2189 119.5276 55.4383 0.0000 0.0000 0.0000
# 3 59.6652 55.4383 249.5939 0.0000 0.0000 0.0000
# 4 0.0000 0.0000 0.0000 61.2381 0.0000 0.0000
# 5 0.0000 0.0000 0.0000 0.0000 59.1793 0.0000
# 6 0.0000 0.0000 0.0000 0.0000 0.0000 23.6790
#
#
#
# Elastic Compliance Matrix: (Units=1/GPa)
#
#
# Indices 1 2 3 4 5 6 
#
# 1 0.005085 -0.000994 -0.000995 0.000000 0.000000 0.000000
# 2 -0.000994 0.009522 -0.001877 0.000000 0.000000 0.000000
# 3 -0.000995 -0.001877 0.004661 0.000000 0.000000 0.000000
# 4 0.000000 0.000000 0.000000 0.016330 0.000000 0.000000
# 5 0.000000 0.000000 0.000000 0.000000 0.016898 0.000000
# 6 0.000000 0.000000 0.000000 0.000000 0.000000 0.042232
#
#
# Mechanical properties :
#
#
# Convention : Reuss Voigt Hill
#
# Bulk Modulus (GPa) = 86.69083 98.08799 92.38941
# Shear Modulus (GPa) = 47.03481 57.80760 52.42120
#
# Velocity S-wave (km/s) = 4.16797 4.62069 4.40016
# Velocity P-wave (km/s) = 7.42840 8.04337 7.74199
#
# Compressibility (1/GPa) = 0.01153525
#
# Stress axis : x y z
#
# Youngs Moduli (GPa) = 196.66252 105.02442 214.53572
#
# Poissons Ratio (x) = 0.10443 0.21339
# Poissons Ratio (y) = 0.19556 0.40272
# Poissons Ratio (z) = 0.19561 0.19715
#
# Static dielectric constant tensor:
#      x y z
#    x 2.007520 0.000000 0.000000 
#    y 0.000000 -6.626560 0.000000 
#    z 0.000000 0.000000 2.073440 
# 
# From -- ./inp_files/23892.got.cif
#   From: 2010.05.17/outbox.cif.g08.bks.cpg/sg52_12_cif.got.tgz:23892.got - 2010.06.03 12:15:38.
