data_PCOD9408080
_publ_section_title
;
Structure prediction by ZEFSAII (Michael W. Deem and Ramdas Pophale) SiO2 
 PCOD9408080
Probable space group: P N N A
;
_chemical_formula_sum "Si O2"
_cell_formula_units_Z 64
_cell_length_a 16.796698
_cell_length_b 11.660840
_cell_length_c 17.381081
_cell_angle_alpha 90.000000
_cell_angle_beta 90.000000
_cell_angle_gamma 90.000000
_cell_volume 3404.321234
_symmetry_space_group_name_H-M "P N N A"
_symmetry_group_IT_number 52
_symmetry_cell_setting 'orthorhombic'
loop_
_space_group_symop_operation_xyz
x,y,z
1/2-x,-y,z
x,1/2-y,1/2-z
1/2-x,1/2+y,1/2-z
-x,-y,-z
1/2+x,y,-z
-x,1/2+y,1/2+z
1/2+x,1/2-y,1/2+z
loop_
_atom_site_type_symbol
_atom_site_label
_atom_site_fract_x
_atom_site_fract_y
_atom_site_fract_z
Si Si1 0.844642 0.977400 0.651745
Si Si2 0.334524 0.350142 0.451930
Si Si3 0.662367 0.254139 0.935199
Si Si4 0.091699 0.395857 0.942443
Si Si5 0.407567 0.129248 0.214833
Si Si6 0.586116 0.443157 0.480970
Si Si7 0.082436 0.202631 0.825049
Si Si8 0.083955 0.882625 0.493977
O O1 0.855118 0.842475 0.633516
O O2 0.750000 0.000000 0.650259
O O3 0.880650 0.026326 0.730455
O O4 0.885420 0.051716 0.583305
O O5 0.246275 0.309494 0.431283
O O6 0.376021 0.380916 0.371294
O O7 0.347856 0.459344 0.505566
O O8 0.379191 0.242165 0.490286
O O9 0.662756 0.336926 0.010523
O O10 0.598940 0.156875 0.955972
O O11 0.070577 0.323252 0.868611
O O12 0.011469 0.378823 0.992828
O O13 0.106852 0.530850 0.937461
O O14 0.375955 0.250000 0.250000
O O15 0.502116 0.146320 0.208290
O O16 0.500000 0.500000 0.500000
O O17 0.600376 0.383169 0.397312
O O18 0.130907 0.250000 0.750000
#
# Coordination Sequence:
#
# PCOD9408080 Si02
#       8
#     8   8   8   8   8   8   8   8
#     4  11  20  35  55  87 128 162 201 240 284 362
#     4  12  20  36  58  85 123 162 204 246 318 363
#     4  10  22  36  56  87 120 158 205 249 303 357
#     4   9  18  32  56  87 112 147 211 253 287 345
#     4  11  19  32  55  83 124 170 198 226 291 365
#     4  11  22  40  59  85 117 155 206 260 298 365
#     4  10  19  37  60  84 111 154 208 245 302 364
#     4  10  17  32  57  84 117 157 197 253 293 344
#
# _framework density 18.799634999999999
#
# number of rings (size 3 to 8) (size 9 to 14) (size 15 to 20)
#    0.000    1.500    5.000    1.875    0.000    1.000 
#    0.000    1.875    0.000    2.250   26.000    0.000 
#    0.000    0.000    0.000    0.000    0.000    0.000 
#
# Total GULP energy -356297.973892 kJ/mol
# GULP energy per Si atom -5567.155842 kJ/mol
# Density = 1.875685 g / cm^3
# Si number density = 18.799635 Si / 1000 Ang^3
#
#
#
# Elastic Constant Matrix: (Units=GPa)
#
#
# Indices 1 2 3 4 5 6 
#
# 1 29.3361 25.5728 17.3234 0.0000 0.0000 0.0000
# 2 25.5728 156.7067 63.0869 0.0000 0.0000 0.0000
# 3 17.3234 63.0869 69.5835 0.0000 0.0000 0.0000
# 4 0.0000 0.0000 0.0000 41.6572 0.0000 0.0000
# 5 0.0000 0.0000 0.0000 0.0000 16.4850 0.0000
# 6 0.0000 0.0000 0.0000 0.0000 0.0000 -27.0611
#
#
#
# Elastic Compliance Matrix: (Units=1/GPa)
#
#
# Indices 1 2 3 4 5 6 
#
# 1 0.041589 -0.004124 -0.006615 0.000000 0.000000 0.000000
# 2 -0.004124 0.010458 -0.008455 0.000000 0.000000 0.000000
# 3 -0.006615 -0.008455 0.023684 0.000000 0.000000 0.000000
# 4 0.000000 0.000000 0.000000 0.024005 0.000000 0.000000
# 5 0.000000 0.000000 0.000000 0.000000 0.060661 0.000000
# 6 0.000000 0.000000 0.000000 0.000000 0.000000 -0.036953
#
#
# Mechanical properties :
#
#
# Convention : Reuss Voigt Hill
#
# Bulk Modulus (GPa) = 26.77893 51.95471 39.36682
# Shear Modulus (GPa) = 28.68955 16.19243 22.44099
#
# Velocity S-wave (km/s) = 3.91073 2.93800 3.45873
# Velocity P-wave (km/s) = 5.88788 6.26140 6.07751
#
# Compressibility (1/GPa) = 0.03734279
#
# Stress axis : x y z
#
# Youngs Moduli (GPa) = 24.04496 95.61937 42.22298
#
# Poissons Ratio (x) = 0.39431 0.27931
# Poissons Ratio (y) = 0.09915 0.35700
# Poissons Ratio (z) = 0.15906 0.80847
#
# Static dielectric constant tensor:
#      x y z
#    x 1.674680 0.000000 0.000000 
#    y 0.000000 1.703170 0.000000 
#    z 0.000000 0.000000 1.693730 
# 
# From -- ./inp_files/28313.got.cif
#   From: 2010.05.17/outbox.cif.g08.bks.cpg/sg52_15_cif.got.tgz:28313.got - 2010.06.03 12:15:38.
