data_PCOD9408668
_publ_section_title
;
Structure prediction by ZEFSAII (Michael W. Deem and Ramdas Pophale) SiO2 
 PCOD9408668
Probable space group: P N N A
;
_chemical_formula_sum "Si O2"
_cell_formula_units_Z 40
_cell_length_a 13.140423
_cell_length_b 10.405742
_cell_length_c 12.212468
_cell_angle_alpha 90.000000
_cell_angle_beta 90.000000
_cell_angle_gamma 90.000000
_cell_volume 1669.882211
_symmetry_space_group_name_H-M "P N N A"
_symmetry_group_IT_number 52
_symmetry_cell_setting 'orthorhombic'
loop_
_space_group_symop_operation_xyz
x,y,z
1/2-x,-y,z
x,1/2-y,1/2-z
1/2-x,1/2+y,1/2-z
-x,-y,-z
1/2+x,y,-z
-x,1/2+y,1/2+z
1/2+x,1/2-y,1/2+z
loop_
_atom_site_type_symbol
_atom_site_label
_atom_site_fract_x
_atom_site_fract_y
_atom_site_fract_z
Si Si1 0.202509 0.363103 0.085745
Si Si2 0.750000 0.000000 0.993493
Si Si3 0.004988 0.716777 0.580105
Si Si4 0.728937 0.738406 0.123223
Si Si5 0.145873 0.750000 0.250000
Si Si6 0.956553 0.449524 0.632136
O O1 0.250000 0.500000 0.121966
O O2 0.090436 0.306471 0.110445
O O3 0.280894 0.264819 0.145470
O O4 0.209378 0.357264 0.954328
O O5 0.850269 0.001702 0.919776
O O6 0.749873 0.123638 0.069453
O O7 0.015477 0.582044 0.647494
O O8 0.109968 0.789688 0.600256
O O9 0.000502 0.654186 0.456511
O O10 0.752627 0.750000 0.250000
O O11 0.073289 0.627936 0.261224
#
# Coordination Sequence:
#
# PCOD9408668 Si02
#       6
#     8   4   8   8   4   8
#     4  12  28  44  67 102 143 181 225 296 354 408
#     4  10  18  44  70  88 134 176 232 270 340 416
#     4  10  22  46  68  97 136 184 232 280 352 410
#     4  11  25  45  68 100 134 184 236 280 342 423
#     4  12  24  44  70 106 132 174 236 286 350 412
#     4  10  20  41  73 100 130 179 233 286 337 424
#
# _framework density 23.953783999999999
#
# number of rings (size 3 to 8) (size 9 to 14) (size 15 to 20)
#    0.000    1.200    6.000    0.000    7.000    0.800 
#    5.400    0.000    0.000    0.000    0.000    0.000 
#    0.000    0.000    0.000    0.000    0.000    0.000 
#
# Total GULP energy -223441.803068 kJ/mol
# GULP energy per Si atom -5586.045077 kJ/mol
# Density = 2.389926 g / cm^3
# Si number density = 23.953784 Si / 1000 Ang^3
#
#
#
# Elastic Constant Matrix: (Units=GPa)
#
#
# Indices 1 2 3 4 5 6 
#
# 1 55.8973 14.7698 -5.2666 0.0000 0.0000 0.0000
# 2 14.7698 77.8219 -0.7732 0.0000 0.0000 0.0000
# 3 -5.2666 -0.7732 76.9949 0.0000 0.0000 0.0000
# 4 0.0000 0.0000 0.0000 26.2333 0.0000 0.0000
# 5 0.0000 0.0000 0.0000 0.0000 21.3824 0.0000
# 6 0.0000 0.0000 0.0000 0.0000 0.0000 37.6471
#
#
#
# Elastic Compliance Matrix: (Units=1/GPa)
#
#
# Indices 1 2 3 4 5 6 
#
# 1 0.018956 -0.003585 0.001261 0.000000 0.000000 0.000000
# 2 -0.003585 0.013529 -0.000109 0.000000 0.000000 0.000000
# 3 0.001261 -0.000109 0.013073 0.000000 0.000000 0.000000
# 4 0.000000 0.000000 0.000000 0.038120 0.000000 0.000000
# 5 0.000000 0.000000 0.000000 0.000000 0.046767 0.000000
# 6 0.000000 0.000000 0.000000 0.000000 0.000000 0.026563
#
#
# Mechanical properties :
#
#
# Convention : Reuss Voigt Hill
#
# Bulk Modulus (GPa) = 24.57580 25.35270 24.96425
# Shear Modulus (GPa) = 28.49996 30.51816 29.50906
#
# Velocity S-wave (km/s) = 3.45307 3.57325 3.51367
# Velocity P-wave (km/s) = 5.11666 5.25653 5.18707
#
# Compressibility (1/GPa) = 0.04069044
#
# Stress axis : x y z
#
# Youngs Moduli (GPa) = 52.75367 73.91431 76.49356
#
# Poissons Ratio (x) = 0.26499 -0.09643
# Poissons Ratio (y) = 0.18913 0.00837
# Poissons Ratio (z) = -0.06650 0.00808
#
# Static dielectric constant tensor:
#      x y z
#    x 1.939560 0.000000 0.000000 
#    y 0.000000 1.977500 0.000000 
#    z 0.000000 0.000000 1.954530 
# 
# From -- ./inp_files/19310.got.cif
#   From: 2010.05.17/outbox.cif.g08.bks.cpg/sg52_10_cif.got.tgz:19310.got - 2010.06.03 12:15:38.
