data_PCOD9408422
_publ_section_title
;
Structure prediction by ZEFSAII (Michael W. Deem and Ramdas Pophale) SiO2 
 PCOD9408422
Probable space group: P N N A
;
_chemical_formula_sum "Si O2"
_cell_formula_units_Z 40
_cell_length_a 7.652866
_cell_length_b 14.952834
_cell_length_c 13.778081
_cell_angle_alpha 90.000000
_cell_angle_beta 90.000000
_cell_angle_gamma 90.000000
_cell_volume 1576.653846
_symmetry_space_group_name_H-M "P N N A"
_symmetry_group_IT_number 52
_symmetry_cell_setting 'orthorhombic'
loop_
_space_group_symop_operation_xyz
x,y,z
1/2-x,-y,z
x,1/2-y,1/2-z
1/2-x,1/2+y,1/2-z
-x,-y,-z
1/2+x,y,-z
-x,1/2+y,1/2+z
1/2+x,1/2-y,1/2+z
loop_
_atom_site_type_symbol
_atom_site_label
_atom_site_fract_x
_atom_site_fract_y
_atom_site_fract_z
Si Si1 0.819719 0.096450 0.412749
Si Si2 0.737514 0.379523 0.425666
Si Si3 0.988241 0.788045 0.423227
Si Si4 0.377451 0.389018 0.367277
Si Si5 0.962279 0.643812 0.733001
O O1 0.649071 0.147844 0.370992
O O2 0.904307 0.152355 0.501406
O O3 0.961233 0.096825 0.328358
O O4 0.750000 0.000000 0.444212
O O5 0.641148 0.289034 0.465508
O O6 0.577261 0.424817 0.366110
O O7 0.817115 0.415413 0.524550
O O8 0.894457 0.361824 0.352728
O O9 0.602533 0.719970 0.638584
O O10 0.217235 0.404195 0.296545
O O11 0.943691 0.750000 0.750000
#
# Coordination Sequence:
#
# PCOD9408422 Si02
#       5
#     8   8   8   8   8
#     4  12  25  40  61  91 138 181 205 254 326 403
#     4  10  18  34  60  95 116 150 205 268 312 359
#     4  10  19  40  58  86 123 167 217 249 311 384
#     4  10  18  33  63  91 119 149 205 264 320 349
#     4  12  21  36  61  91 125 157 214 272 308 360
#
# _framework density 25.370184999999999
#
# number of rings (size 3 to 8) (size 9 to 14) (size 15 to 20)
#    1.200    0.000    6.000    1.800    0.000    2.400 
#    0.000    0.000    0.000    1.200    0.000    0.000 
#    0.000    0.000    0.000    0.000    0.000    0.000 
#
# Total GULP energy -223331.728276 kJ/mol
# GULP energy per Si atom -5583.293207 kJ/mol
# Density = 2.531244 g / cm^3
# Si number density = 25.370185 Si / 1000 Ang^3
#
#
#
# Elastic Constant Matrix: (Units=GPa)
#
#
# Indices 1 2 3 4 5 6 
#
# 1 157.7163 32.9677 37.7088 0.0000 0.0000 0.0000
# 2 32.9677 99.2607 4.6705 0.0000 0.0000 0.0000
# 3 37.7088 4.6705 65.0312 0.0000 0.0000 0.0000
# 4 0.0000 0.0000 0.0000 -163.1878 0.0000 0.0000
# 5 0.0000 0.0000 0.0000 0.0000 66.6629 0.0000
# 6 0.0000 0.0000 0.0000 0.0000 0.0000 14.5580
#
#
#
# Elastic Compliance Matrix: (Units=1/GPa)
#
#
# Indices 1 2 3 4 5 6 
#
# 1 0.007899 -0.002416 -0.004407 0.000000 0.000000 0.000000
# 2 -0.002416 0.010848 0.000622 0.000000 0.000000 0.000000
# 3 -0.004407 0.000622 0.017888 0.000000 0.000000 0.000000
# 4 0.000000 0.000000 0.000000 -0.006128 0.000000 0.000000
# 5 0.000000 0.000000 0.000000 0.000000 0.015001 0.000000
# 6 0.000000 0.000000 0.000000 0.000000 0.000000 0.068691
#
#
# Mechanical properties :
#
#
# Convention : Reuss Voigt Hill
#
# Bulk Modulus (GPa) = 41.26666 52.52245 46.89456
# Shear Modulus (GPa) = 37.12555 0.05070 18.58812
#
# Velocity S-wave (km/s) = 3.82953 0.14152 2.70974
# Velocity P-wave (km/s) = 5.98789 4.55786 5.32113
#
# Compressibility (1/GPa) = 0.02423263
#
# Stress axis : x y z
#
# Youngs Moduli (GPa) = 126.59471 92.18519 55.90361
#
# Poissons Ratio (x) = 0.22274 0.24636
# Poissons Ratio (y) = 0.30588 -0.03477
# Poissons Ratio (z) = 0.55789 -0.05734
#
# Static dielectric constant tensor:
#      x y z
#    x 2.067490 0.000000 0.000000 
#    y 0.000000 2.260690 0.000000 
#    z 0.000000 0.000000 1.972130 
# 
# From -- ./inp_files/24579.got.cif
#   From: 2010.05.17/outbox.cif.g08.bks.cpg/sg52_13_cif.got.tgz:24579.got - 2010.06.03 12:15:38.
