data_PCOD9408306
_publ_section_title
;
Structure prediction by ZEFSAII (Michael W. Deem and Ramdas Pophale) SiO2 
 PCOD9408306
Probable space group: P N N A
;
_chemical_formula_sum "Si O2"
_cell_formula_units_Z 52
_cell_length_a 19.291650
_cell_length_b 19.299569
_cell_length_c 5.403698
_cell_angle_alpha 90.000000
_cell_angle_beta 90.000000
_cell_angle_gamma 90.000000
_cell_volume 2011.907705
_symmetry_space_group_name_H-M "P N N A"
_symmetry_group_IT_number 52
_symmetry_cell_setting 'orthorhombic'
loop_
_space_group_symop_operation_xyz
x,y,z
1/2-x,-y,z
x,1/2-y,1/2-z
1/2-x,1/2+y,1/2-z
-x,-y,-z
1/2+x,y,-z
-x,1/2+y,1/2+z
1/2+x,1/2-y,1/2+z
loop_
_atom_site_type_symbol
_atom_site_label
_atom_site_fract_x
_atom_site_fract_y
_atom_site_fract_z
Si Si1 0.335617 0.250000 0.750000
Si Si2 0.124930 0.250000 0.250000
Si Si3 0.922795 0.250000 0.750000
Si Si4 0.140509 0.111272 0.442396
Si Si5 0.988107 0.847844 0.977230
Si Si6 0.008768 0.576466 0.110884
Si Si7 0.327460 0.972201 0.939009
Si Si8 0.377023 0.110783 0.705003
O O1 0.375233 0.246930 0.487638
O O2 0.315452 0.167132 0.742671
O O3 0.165138 0.191062 0.401868
O O4 0.074536 0.297001 0.420410
O O5 0.974868 0.186032 0.777902
O O6 0.167024 0.076655 0.694223
O O7 0.056442 0.113788 0.464049
O O8 0.156035 0.067882 0.194004
O O9 0.979793 0.921750 0.105089
O O10 0.052550 0.850444 0.794124
O O11 0.092676 0.587489 0.061427
O O12 0.000000 0.500000 0.000000
O O13 0.250000 0.000000 0.964928
O O14 0.367342 0.042858 0.867496
#
# Coordination Sequence:
#
# PCOD9408306 Si02
#       8
#     4   4   4   8   8   8   8   8
#     4  10  21  36  58  94 131 181 228 279 360 426
#     4  12  25  42  70 113 158 187 234 297 398 484
#     4  10  18  32  50  83 131 182 212 248 332 440
#     4  12  27  47  74 111 144 196 237 317 380 453
#     4  11  21  37  59 102 156 192 219 288 380 472
#     4  12  22  36  65 106 152 184 237 305 385 464
#     4  12  29  53  76  98 143 204 269 312 361 426
#     4  11  23  40  66 104 145 188 240 301 374 455
#
# _framework density 25.846117
#
# number of rings (size 3 to 8) (size 9 to 14) (size 15 to 20)
#    0.000    0.615    4.615    5.077    0.000    3.077 
#    0.000    1.538    0.000    0.923    0.000    0.000 
#    0.000    0.000    0.000    0.000    0.000    0.000 
#
# Total GULP energy -289520.634553 kJ/mol
# GULP energy per Si atom -5567.704511 kJ/mol
# Density = 2.578729 g / cm^3
# Si number density = 25.846117 Si / 1000 Ang^3
#
#
#
# Elastic Constant Matrix: (Units=GPa)
#
#
# Indices 1 2 3 4 5 6 
#
# 1 45.4719 1.0207 27.3888 0.0000 0.0000 0.0000
# 2 1.0207 120.9591 35.0691 0.0000 0.0000 0.0000
# 3 27.3888 35.0691 150.5648 0.0000 0.0000 0.0000
# 4 0.0000 0.0000 0.0000 53.6001 0.0000 0.0000
# 5 0.0000 0.0000 0.0000 0.0000 4.2802 0.0000
# 6 0.0000 0.0000 0.0000 0.0000 0.0000 18.3446
#
#
#
# Elastic Compliance Matrix: (Units=1/GPa)
#
#
# Indices 1 2 3 4 5 6 
#
# 1 0.024854 0.001181 -0.004796 0.000000 0.000000 0.000000
# 2 0.001181 0.008922 -0.002293 0.000000 0.000000 0.000000
# 3 -0.004796 -0.002293 0.008048 0.000000 0.000000 0.000000
# 4 0.000000 0.000000 0.000000 0.018657 0.000000 0.000000
# 5 0.000000 0.000000 0.000000 0.000000 0.233634 0.000000
# 6 0.000000 0.000000 0.000000 0.000000 0.000000 0.054512
#
#
# Mechanical properties :
#
#
# Convention : Reuss Voigt Hill
#
# Bulk Modulus (GPa) = 33.32482 49.32812 41.32647
# Shear Modulus (GPa) = 13.49724 32.14614 22.82169
#
# Velocity S-wave (km/s) = 2.28768 3.53051 2.97473
# Velocity P-wave (km/s) = 4.46089 5.97880 5.27473
#
# Compressibility (1/GPa) = 0.03000767
#
# Stress axis : x y z
#
# Youngs Moduli (GPa) = 40.23513 112.08173 124.25205
#
# Poissons Ratio (x) = -0.13234 0.59593
# Poissons Ratio (y) = -0.04751 0.28490
# Poissons Ratio (z) = 0.19297 0.25699
#
# Static dielectric constant tensor:
#      x y z
#    x 2.166850 0.000000 0.000000 
#    y 0.000000 1.862170 0.000000 
#    z 0.000000 0.000000 2.280780 
# 
# From -- ./inp_files/4461.got.cif
#   From: 2010.05.17/outbox.cif.g08.bks.cpg/sg52_3_cif.got.tgz:4461.got - 2010.06.03 12:15:38.
