data_PCOD9408370
_publ_section_title
;
Structure prediction by ZEFSAII (Michael W. Deem and Ramdas Pophale) SiO2 
 PCOD9408370
Probable space group: P N N A
;
_chemical_formula_sum "Si O2"
_cell_formula_units_Z 48
_cell_length_a 9.092057
_cell_length_b 14.585636
_cell_length_c 17.362802
_cell_angle_alpha 90.000000
_cell_angle_beta 90.000000
_cell_angle_gamma 90.000000
_cell_volume 2302.540795
_symmetry_space_group_name_H-M "P N N A"
_symmetry_group_IT_number 52
_symmetry_cell_setting 'orthorhombic'
loop_
_space_group_symop_operation_xyz
x,y,z
1/2-x,-y,z
x,1/2-y,1/2-z
1/2-x,1/2+y,1/2-z
-x,-y,-z
1/2+x,y,-z
-x,1/2+y,1/2+z
1/2+x,1/2-y,1/2+z
loop_
_atom_site_type_symbol
_atom_site_label
_atom_site_fract_x
_atom_site_fract_y
_atom_site_fract_z
Si Si1 0.634286 0.068266 0.995409
Si Si2 0.581376 0.236947 0.883681
Si Si3 0.787595 0.348472 0.975158
Si Si4 0.736010 0.710538 0.398669
Si Si5 0.472182 0.638848 0.844644
Si Si6 0.182581 0.750000 0.250000
Si Si7 0.750000 0.000000 0.394635
O O1 0.698593 0.112342 0.075349
O O2 0.750000 0.000000 0.957742
O O3 0.593244 0.152936 0.942253
O O4 0.500000 0.000000 0.000000
O O5 0.633145 0.329587 0.930055
O O6 0.415262 0.226513 0.851764
O O7 0.708961 0.228126 0.820309
O O8 0.914278 0.370945 0.915333
O O9 0.814941 0.253196 0.018853
O O10 0.788404 0.420204 0.044490
O O11 0.863793 0.775272 0.363985
O O12 0.574084 0.667084 0.773363
O O13 0.375829 0.546706 0.842853
#
# Coordination Sequence:
#
# PCOD9408370 Si02
#       7
#     8   8   8   8   8   4   4
#     4  11  21  34  63  96 123 145 192 261 312 352
#     4  10  21  38  59  85 119 163 198 238 298 367
#     4   9  18  33  59  94 123 143 184 248 313 355
#     4  10  19  34  59  92 118 149 194 249 308 347
#     4  10  21  36  61  85 120 157 194 244 293 371
#     4  10  24  42  60  74 118 176 212 232 292 374
#     4  10  18  32  64  96 118 142 194 254 314 344
#
# _framework density 20.846534999999999
#
# number of rings (size 3 to 8) (size 9 to 14) (size 15 to 20)
#    0.000    2.000    1.667    3.500    4.667    2.000 
#    0.000    0.000   20.167    0.000    0.000    0.000 
#    0.000    0.000    0.000    0.000    0.000    0.000 
#
# Total GULP energy -267225.395889 kJ/mol
# GULP energy per Si atom -5567.195748 kJ/mol
# Density = 2.079909 g / cm^3
# Si number density = 20.846535 Si / 1000 Ang^3
#
#
#
# Elastic Constant Matrix: (Units=GPa)
#
#
# Indices 1 2 3 4 5 6 
#
# 1 133.8511 43.9639 25.6810 0.0000 0.0000 0.0000
# 2 43.9639 91.8754 14.3194 0.0000 0.0000 0.0000
# 3 25.6810 14.3194 46.5676 0.0000 0.0000 0.0000
# 4 0.0000 0.0000 0.0000 16.3775 0.0000 0.0000
# 5 0.0000 0.0000 0.0000 0.0000 17.4752 0.0000
# 6 0.0000 0.0000 0.0000 0.0000 0.0000 37.6577
#
#
#
# Elastic Compliance Matrix: (Units=1/GPa)
#
#
# Indices 1 2 3 4 5 6 
#
# 1 0.009540 -0.003934 -0.004052 0.000000 0.000000 0.000000
# 2 -0.003934 0.013054 -0.001845 0.000000 0.000000 0.000000
# 3 -0.004052 -0.001845 0.024276 0.000000 0.000000 0.000000
# 4 0.000000 0.000000 0.000000 0.061059 0.000000 0.000000
# 5 0.000000 0.000000 0.000000 0.000000 0.057224 0.000000
# 6 0.000000 0.000000 0.000000 0.000000 0.000000 0.026555
#
#
# Mechanical properties :
#
#
# Convention : Reuss Voigt Hill
#
# Bulk Modulus (GPa) = 36.75120 48.91366 42.83243
# Shear Modulus (GPa) = 22.68199 26.85740 24.76969
#
# Velocity S-wave (km/s) = 3.30213 3.59324 3.45076
# Velocity P-wave (km/s) = 5.67507 6.38199 6.03888
#
# Compressibility (1/GPa) = 0.02721000
#
# Stress axis : x y z
#
# Youngs Moduli (GPa) = 104.81717 76.60375 41.19326
#
# Poissons Ratio (x) = 0.30134 0.16690
# Poissons Ratio (y) = 0.41233 0.07599
# Poissons Ratio (z) = 0.42469 0.14131
#
# Static dielectric constant tensor:
#      x y z
#    x 1.825870 0.000000 0.000000 
#    y 0.000000 1.773310 0.000000 
#    z 0.000000 0.000000 1.817580 
# 
# From -- ./inp_files/31297.got.cif
#   From: 2010.05.17/outbox.cif.g08.bks.cpg/sg52_16_cif.got.tgz:31297.got - 2010.06.03 12:15:38.
