data_PCOD9408426
_publ_section_title
;
Structure prediction by ZEFSAII (Michael W. Deem and Ramdas Pophale) SiO2 
 PCOD9408426
Probable space group: P N N A
;
_chemical_formula_sum "Si O2"
_cell_formula_units_Z 32
_cell_length_a 17.915003
_cell_length_b 8.898929
_cell_length_c 7.355789
_cell_angle_alpha 90.000000
_cell_angle_beta 90.000000
_cell_angle_gamma 90.000000
_cell_volume 1172.691805
_symmetry_space_group_name_H-M "P N N A"
_symmetry_group_IT_number 52
_symmetry_cell_setting 'orthorhombic'
loop_
_space_group_symop_operation_xyz
x,y,z
1/2-x,-y,z
x,1/2-y,1/2-z
1/2-x,1/2+y,1/2-z
-x,-y,-z
1/2+x,y,-z
-x,1/2+y,1/2+z
1/2+x,1/2-y,1/2+z
loop_
_atom_site_type_symbol
_atom_site_label
_atom_site_fract_x
_atom_site_fract_y
_atom_site_fract_z
Si Si1 0.091929 0.473354 0.091049
Si Si2 0.267552 0.750000 0.750000
Si Si3 0.750000 0.500000 0.962122
Si Si4 0.023725 0.739537 0.525378
Si Si5 0.604830 0.457256 0.342032
O O1 0.176783 0.459144 0.155024
O O2 0.181582 0.133678 0.869407
O O3 0.025981 0.361037 0.146160
O O4 0.063469 0.641680 0.108237
O O5 0.230803 0.639577 0.900244
O O6 0.400636 0.553620 0.875077
O O7 0.088952 0.628295 0.597798
O O8 0.960363 0.636862 0.436988
#
# Coordination Sequence:
#
# PCOD9408426 Si02
#       5
#     8   4   4   8   8
#     4  10  20  34  50  81 106 135 168 218 261 318
#     4  10  20  32  50  76 112 140 164 214 284 320
#     4  10  20  32  48  74 112 136 160 212 274 330
#     4  10  19  31  53  72 104 141 176 203 262 308
#     4  10  18  34  48  75 108 133 172 216 249 316
#
# _framework density 27.287647
#
# number of rings (size 3 to 8) (size 9 to 14) (size 15 to 20)
#    0.000    2.000    5.000    0.750    7.000    0.000 
#    0.000    0.000    0.000    0.000    0.000   28.000 
#    0.000    0.000    0.000    0.000    0.000    0.000 
#
# Total GULP energy -178698.134813 kJ/mol
# GULP energy per Si atom -5584.316713 kJ/mol
# Density = 2.722554 g / cm^3
# Si number density = 27.287647 Si / 1000 Ang^3
#
#
#
# Elastic Constant Matrix: (Units=GPa)
#
#
# Indices 1 2 3 4 5 6 
#
# 1 129.6454 45.7331 -17.1417 0.0000 0.0000 0.0000
# 2 45.7331 229.8648 18.7596 0.0000 0.0000 0.0000
# 3 -17.1417 18.7596 35.2797 0.0000 0.0000 0.0000
# 4 0.0000 0.0000 0.0000 40.3920 0.0000 0.0000
# 5 0.0000 0.0000 0.0000 0.0000 18.8299 0.0000
# 6 0.0000 0.0000 0.0000 0.0000 0.0000 53.0755
#
#
#
# Elastic Compliance Matrix: (Units=1/GPa)
#
#
# Indices 1 2 3 4 5 6 
#
# 1 0.009291 -0.002317 0.005746 0.000000 0.000000 0.000000
# 2 -0.002317 0.005126 -0.003852 0.000000 0.000000 0.000000
# 3 0.005746 -0.003852 0.033185 0.000000 0.000000 0.000000
# 4 0.000000 0.000000 0.000000 0.024757 0.000000 0.000000
# 5 0.000000 0.000000 0.000000 0.000000 0.053107 0.000000
# 6 0.000000 0.000000 0.000000 0.000000 0.000000 0.018841
#
#
# Mechanical properties :
#
#
# Convention : Reuss Voigt Hill
#
# Bulk Modulus (GPa) = 21.38753 54.38798 37.88775
# Shear Modulus (GPa) = 31.10664 45.62208 38.36436
#
# Velocity S-wave (km/s) = 3.37998 4.09332 3.75363
# Velocity P-wave (km/s) = 4.80491 6.50499 5.71849
#
# Compressibility (1/GPa) = 0.04675623
#
# Stress axis : x y z
#
# Youngs Moduli (GPa) = 107.63563 195.09253 30.13410
#
# Poissons Ratio (x) = 0.45211 -0.17316
# Poissons Ratio (y) = 0.24943 0.11606
# Poissons Ratio (z) = -0.61851 0.75141
#
# Static dielectric constant tensor:
#      x y z
#    x 2.199040 0.000000 0.000000 
#    y 0.000000 2.150240 0.000000 
#    z 0.000000 0.000000 2.173630 
# 
# From -- ./inp_files/21346.got.cif
#   From: 2010.05.17/outbox.cif.g08.bks.cpg/sg52_11_cif.got.tgz:21346.got - 2010.06.03 12:15:38.
