data_PCOD9408114
_publ_section_title
;
Structure prediction by ZEFSAII (Michael W. Deem and Ramdas Pophale) SiO2 
 PCOD9408114
Probable space group: P N N A
;
_chemical_formula_sum "Si O2"
_cell_formula_units_Z 44
_cell_length_a 21.515833
_cell_length_b 11.391539
_cell_length_c 10.425797
_cell_angle_alpha 90.000000
_cell_angle_beta 90.000000
_cell_angle_gamma 90.000000
_cell_volume 2555.346692
_symmetry_space_group_name_H-M "P N N A"
_symmetry_group_IT_number 52
_symmetry_cell_setting 'orthorhombic'
loop_
_space_group_symop_operation_xyz
x,y,z
1/2-x,-y,z
x,1/2-y,1/2-z
1/2-x,1/2+y,1/2-z
-x,-y,-z
1/2+x,y,-z
-x,1/2+y,1/2+z
1/2+x,1/2-y,1/2+z
loop_
_atom_site_type_symbol
_atom_site_label
_atom_site_fract_x
_atom_site_fract_y
_atom_site_fract_z
Si Si1 0.977116 0.433934 0.374754
Si Si2 0.790743 0.326652 0.878724
Si Si3 0.943731 0.013476 0.399671
Si Si4 0.569106 0.250000 0.750000
Si Si5 0.654281 0.422003 0.916448
Si Si6 0.370802 0.257112 0.607610
O O1 0.967987 0.509620 0.244267
O O2 0.910992 0.374107 0.402549
O O3 0.000000 0.500000 0.500000
O O4 0.025134 0.330008 0.338908
O O5 0.788486 0.250000 0.750000
O O6 0.721777 0.362970 0.923570
O O7 0.830764 0.447034 0.862470
O O8 0.823068 0.256286 0.993229
O O9 0.918760 0.147369 0.398996
O O10 0.885001 0.940035 0.452756
O O11 0.000000 0.000000 0.500000
O O12 0.611749 0.341228 0.827001
O O13 0.342052 0.250000 0.750000
#
# Coordination Sequence:
#
# PCOD9408114 Si02
#       6
#     8   8   8   4   8   8
#     4  11  22  35  59  91 119 157 196 247 310 364
#     4  10  21  36  59  88 111 156 210 241 286 367
#     4  10  17  35  58  79 113 154 188 237 305 356
#     4  12  20  40  58  86 128 150 192 262 308 342
#     4  10  21  36  60  82 121 158 192 246 309 348
#     4   9  19  36  53  79 116 152 190 236 295 349
#
# _framework density 17.218799000000001
#
# number of rings (size 3 to 8) (size 9 to 14) (size 15 to 20)
#    0.000    1.818    5.455    0.000    2.545    0.000 
#    0.000    4.545    0.000    4.364    0.000    0.000 
#    0.000    0.000    0.000    0.000    0.000    0.000 
#
# Total GULP energy -245235.516201 kJ/mol
# GULP energy per Si atom -5573.534459 kJ/mol
# Density = 1.717961 g / cm^3
# Si number density = 17.218799 Si / 1000 Ang^3
#
#
#
# Elastic Constant Matrix: (Units=GPa)
#
#
# Indices 1 2 3 4 5 6 
#
# 1 98.2220 44.5267 77.3503 0.0000 0.0000 0.0000
# 2 44.5267 61.7143 66.0132 0.0000 0.0000 0.0000
# 3 77.3503 66.0132 170.0685 0.0000 0.0000 0.0000
# 4 0.0000 0.0000 0.0000 35.9643 0.0000 0.0000
# 5 0.0000 0.0000 0.0000 0.0000 22.9925 0.0000
# 6 0.0000 0.0000 0.0000 0.0000 0.0000 24.2334
#
#
#
# Elastic Compliance Matrix: (Units=1/GPa)
#
#
# Indices 1 2 3 4 5 6 
#
# 1 0.017478 -0.007023 -0.005223 0.000000 0.000000 0.000000
# 2 -0.007023 0.030530 -0.008656 0.000000 0.000000 0.000000
# 3 -0.005223 -0.008656 0.011616 0.000000 0.000000 0.000000
# 4 0.000000 0.000000 0.000000 0.027805 0.000000 0.000000
# 5 0.000000 0.000000 0.000000 0.000000 0.043492 0.000000
# 6 0.000000 0.000000 0.000000 0.000000 0.000000 0.041265
#
#
# Mechanical properties :
#
#
# Convention : Reuss Voigt Hill
#
# Bulk Modulus (GPa) = 56.12173 78.42058 67.27115
# Shear Modulus (GPa) = 22.73427 26.11233 24.42330
#
# Velocity S-wave (km/s) = 3.63756 3.89845 3.77026
# Velocity P-wave (km/s) = 7.09271 8.11827 7.62276
#
# Compressibility (1/GPa) = 0.01781841
#
# Stress axis : x y z
#
# Youngs Moduli (GPa) = 57.21390 32.75447 86.09164
#
# Poissons Ratio (x) = 0.23005 0.44968
# Poissons Ratio (y) = 0.40184 0.74522
# Poissons Ratio (z) = 0.29884 0.28353
#
# Static dielectric constant tensor:
#      x y z
#    x 1.592620 0.000000 0.000000 
#    y 0.000000 1.588860 0.000000 
#    z 0.000000 0.000000 1.575060 
# 
# From -- ./inp_files/14175.got.cif
#   From: 2010.05.17/outbox.cif.g08.bks.cpg/sg52_8_cif.got.tgz:14175.got - 2010.06.03 12:15:38.
