data_PCOD9408667
_publ_section_title
;
Structure prediction by ZEFSAII (Michael W. Deem and Ramdas Pophale) SiO2 
 PCOD9408667
Probable space group: P N N A
;
_chemical_formula_sum "Si O2"
_cell_formula_units_Z 32
_cell_length_a 13.623786
_cell_length_b 17.062052
_cell_length_c 4.331432
_cell_angle_alpha 90.000000
_cell_angle_beta 90.000000
_cell_angle_gamma 90.000000
_cell_volume 1006.840265
_symmetry_space_group_name_H-M "P N N A"
_symmetry_group_IT_number 52
_symmetry_cell_setting 'orthorhombic'
loop_
_space_group_symop_operation_xyz
x,y,z
1/2-x,-y,z
x,1/2-y,1/2-z
1/2-x,1/2+y,1/2-z
-x,-y,-z
1/2+x,y,-z
-x,1/2+y,1/2+z
1/2+x,1/2-y,1/2+z
loop_
_atom_site_type_symbol
_atom_site_label
_atom_site_fract_x
_atom_site_fract_y
_atom_site_fract_z
Si Si1 0.824115 0.250000 0.750000
Si Si2 0.175886 0.250000 0.750000
Si Si3 0.390922 0.593045 0.050360
Si Si4 0.750000 0.500000 0.499999
Si Si5 0.609077 0.906955 0.449640
Si Si6 0.000000 0.000000 0.000000
O O1 0.750000 0.284662 0.500000
O O2 0.881988 0.181572 0.574276
O O3 0.118013 0.318428 0.925723
O O4 0.500000 0.586525 0.234060
O O5 0.414333 0.542584 0.743605
O O6 0.300578 0.564807 0.257726
O O7 0.914334 0.457416 0.743604
O O8 0.699422 0.564807 0.257724
#
# Coordination Sequence:
#
# PCOD9408667 Si02
#       6
#     4   4   8   4   8   4
#     4  12  29  52  89 130 206 270 329 402 505 614
#     4  12  29  52  89 130 206 270 329 402 505 614
#     4   9  20  47  91 147 193 265 334 419 499 602
#     4  10  18  44 106 146 198 240 352 420 508 578
#     4   9  20  47  91 147 193 265 334 419 499 602
#     4   6  16  40  94 142 174 248 334 410 482 576
#
# _framework density 31.782599000000001
#
# number of rings (size 3 to 8) (size 9 to 14) (size 15 to 20)
#    1.500    1.000    0.000    0.750    3.500    0.000 
#    0.000    7.500    0.000   21.000    0.000    0.000 
#    0.000    0.000    0.000    0.000    0.000    0.000 
#
# Total GULP energy -178461.050189 kJ/mol
# GULP energy per Si atom -5576.907818 kJ/mol
# Density = 3.171026 g / cm^3
# Si number density = 31.782599 Si / 1000 Ang^3
#
#
#
# Elastic Constant Matrix: (Units=GPa)
#
#
# Indices 1 2 3 4 5 6 
#
# 1 208.1574 165.3483 158.0896 0.0000 0.0000 0.0000
# 2 165.3483 310.9555 125.7435 0.0000 0.0000 0.0000
# 3 158.0896 125.7435 367.1942 0.0000 0.0000 0.0000
# 4 0.0000 0.0000 0.0000 50.8824 0.0000 0.0000
# 5 0.0000 0.0000 0.0000 0.0000 98.6266 0.0000
# 6 0.0000 0.0000 0.0000 0.0000 0.0000 40.2572
#
#
#
# Elastic Compliance Matrix: (Units=1/GPa)
#
#
# Indices 1 2 3 4 5 6 
#
# 1 0.010647 -0.004420 -0.003070 0.000000 0.000000 0.000000
# 2 -0.004420 0.005568 -0.000004 0.000000 0.000000 0.000000
# 3 -0.003070 -0.000004 0.004046 0.000000 0.000000 0.000000
# 4 0.000000 0.000000 0.000000 0.019653 0.000000 0.000000
# 5 0.000000 0.000000 0.000000 0.000000 0.010139 0.000000
# 6 0.000000 0.000000 0.000000 0.000000 0.000000 0.024840
#
#
# Mechanical properties :
#
#
# Convention : Reuss Voigt Hill
#
# Bulk Modulus (GPa) = 189.63566 198.29666 193.96616
# Shear Modulus (GPa) = 54.56234 67.09494 60.82864
#
# Velocity S-wave (km/s) = 4.14785 4.59961 4.37956
# Velocity P-wave (km/s) = 9.09591 9.52552 9.31319
#
# Compressibility (1/GPa) = 0.00527327
#
# Stress axis : x y z
#
# Youngs Moduli (GPa) = 93.92722 179.61217 247.12950
#
# Poissons Ratio (x) = 0.79383 0.75874
# Poissons Ratio (y) = 0.41513 0.00093
# Poissons Ratio (z) = 0.28838 0.00067
#
# Static dielectric constant tensor:
#      x y z
#    x 6.847110 0.000000 0.000000 
#    y 0.000000 2.737750 0.000000 
#    z 0.000000 0.000000 2.814570 
# 
# From -- ./inp_files/1123.got.cif
#   From: 2010.05.17/outbox.cif.g08.bks.cpg/sg52_1_cif.got.tgz:1123.got - 2010.06.03 12:15:38.
