data_PCOD9408967
_publ_section_title
;
Structure prediction by ZEFSAII (Michael W. Deem and Ramdas Pophale) SiO2 
 PCOD9408967
Probable space group: P N N A
;
_chemical_formula_sum "Si O2"
_cell_formula_units_Z 52
_cell_length_a 9.327852
_cell_length_b 14.035218
_cell_length_c 20.584434
_cell_angle_alpha 90.000000
_cell_angle_beta 90.000000
_cell_angle_gamma 90.000000
_cell_volume 2694.881911
_symmetry_space_group_name_H-M "P N N A"
_symmetry_group_IT_number 52
_symmetry_cell_setting 'orthorhombic'
loop_
_space_group_symop_operation_xyz
x,y,z
1/2-x,-y,z
x,1/2-y,1/2-z
1/2-x,1/2+y,1/2-z
-x,-y,-z
1/2+x,y,-z
-x,1/2+y,1/2+z
1/2+x,1/2-y,1/2+z
loop_
_atom_site_type_symbol
_atom_site_label
_atom_site_fract_x
_atom_site_fract_y
_atom_site_fract_z
Si Si1 0.250000 0.000000 0.672894
Si Si2 0.382736 0.849606 0.876913
Si Si3 0.410124 0.521392 0.350695
Si Si4 0.109064 0.157171 0.030358
Si Si5 0.125174 0.855506 0.776661
Si Si6 0.409152 0.639477 0.912599
Si Si7 0.349096 0.208927 0.497029
O O1 0.186735 0.918669 0.718516
O O2 0.373500 0.951678 0.629692
O O3 0.237946 0.860345 0.836200
O O4 0.426683 0.738393 0.872528
O O5 0.495737 0.925883 0.851198
O O6 0.367946 0.868491 0.954365
O O7 0.250000 0.500000 0.330559
O O8 0.405588 0.568286 0.422586
O O9 0.481929 0.598055 0.303861
O O10 0.248577 0.221731 0.046670
O O11 0.965983 0.222692 0.032257
O O12 0.107652 0.750000 0.750000
O O13 0.550649 0.636817 0.957061
O O14 0.265561 0.659420 0.955689
#
# Coordination Sequence:
#
# PCOD9408967 Si02
#       7
#     4   8   8   8   8   8   8
#     4  12  24  40  70  86 110 166 228 242 296 366
#     4  10  20  38  63  92 126 161 208 249 298 370
#     4  12  23  37  60  95 129 161 200 254 317 369
#     4  10  19  34  60  96 129 161 192 247 317 369
#     4  12  25  45  65  87 120 166 215 256 292 368
#     4  10  20  37  63  92 122 157 201 260 307 359
#     4   8  18  36  58  92 128 157 198 252 314 357
#
# _framework density 19.295836999999999
#
# number of rings (size 3 to 8) (size 9 to 14) (size 15 to 20)
#    0.000    1.846    3.077    4.154    0.000    1.846 
#    0.000    3.846    0.000    0.000    0.000    0.000 
#    0.000    0.000    0.000    0.000    0.000    0.000 
#
# Total GULP energy -290335.414141 kJ/mol
# GULP energy per Si atom -5583.373349 kJ/mol
# Density = 1.925192 g / cm^3
# Si number density = 19.295837 Si / 1000 Ang^3
#
#
#
# Elastic Constant Matrix: (Units=GPa)
#
#
# Indices 1 2 3 4 5 6 
#
# 1 100.8928 15.5860 34.8544 0.0000 0.0000 0.0000
# 2 15.5860 85.5974 36.6826 0.0000 0.0000 0.0000
# 3 34.8544 36.6826 50.5786 0.0000 0.0000 0.0000
# 4 0.0000 0.0000 0.0000 9.9426 0.0000 0.0000
# 5 0.0000 0.0000 0.0000 0.0000 -5.4283 0.0000
# 6 0.0000 0.0000 0.0000 0.0000 0.0000 24.3439
#
#
#
# Elastic Compliance Matrix: (Units=1/GPa)
#
#
# Indices 1 2 3 4 5 6 
#
# 1 0.013283 0.002182 -0.010737 0.000000 0.000000 0.000000
# 2 0.002182 0.017310 -0.014058 0.000000 0.000000 0.000000
# 3 -0.010737 -0.014058 0.037366 0.000000 0.000000 0.000000
# 4 0.000000 0.000000 0.000000 0.100578 0.000000 0.000000
# 5 0.000000 0.000000 0.000000 0.000000 -0.184219 0.000000
# 6 0.000000 0.000000 0.000000 0.000000 0.000000 0.041078
#
#
# Mechanical properties :
#
#
# Convention : Reuss Voigt Hill
#
# Bulk Modulus (GPa) = 43.98609 45.70165 44.84387
# Shear Modulus (GPa) = 63.94058 15.76803 39.85430
#
# Velocity S-wave (km/s) = 5.76272 2.86172 4.54964
# Velocity P-wave (km/s) = 8.19290 5.88689 7.13369
#
# Compressibility (1/GPa) = 0.02273446
#
# Stress axis : x y z
#
# Youngs Moduli (GPa) = 75.28172 57.77096 26.76253
#
# Poissons Ratio (x) = -0.12608 0.28734
# Poissons Ratio (y) = -0.16430 0.37623
# Poissons Ratio (z) = 0.80827 0.81214
#
# Static dielectric constant tensor:
#      x y z
#    x 1.682820 0.000000 0.000000 
#    y 0.000000 1.687280 0.000000 
#    z 0.000000 0.000000 1.699030 
# 
# From -- ./inp_files/35988.got.cif
#   From: 2010.05.17/outbox.cif.g08.bks.cpg/sg52_18_cif.got.tgz:35988.got - 2010.06.03 12:15:38.
