data_PCOD9408340
_publ_section_title
;
Structure prediction by ZEFSAII (Michael W. Deem and Ramdas Pophale) SiO2 
 PCOD9408340
Probable space group: P N N A
;
_chemical_formula_sum "Si O2"
_cell_formula_units_Z 20
_cell_length_a 8.477824
_cell_length_b 9.272077
_cell_length_c 9.519057
_cell_angle_alpha 90.000000
_cell_angle_beta 90.000000
_cell_angle_gamma 90.000000
_cell_volume 748.264865
_symmetry_space_group_name_H-M "P N N A"
_symmetry_group_IT_number 52
_symmetry_cell_setting 'orthorhombic'
loop_
_space_group_symop_operation_xyz
x,y,z
1/2-x,-y,z
x,1/2-y,1/2-z
1/2-x,1/2+y,1/2-z
-x,-y,-z
1/2+x,y,-z
-x,1/2+y,1/2+z
1/2+x,1/2-y,1/2+z
loop_
_atom_site_type_symbol
_atom_site_label
_atom_site_fract_x
_atom_site_fract_y
_atom_site_fract_z
Si Si1 0.967223 0.966955 0.681634
Si Si2 0.813775 0.315243 0.992796
Si Si3 0.250000 0.500000 0.439355
O O1 0.838003 0.874483 0.591805
O O2 0.899909 0.968188 0.837368
O O3 0.128795 0.893008 0.635080
O O4 0.946881 0.128936 0.619847
O O5 0.789816 0.147348 0.016163
#
# Coordination Sequence:
#
# PCOD9408340 Si02
#       3
#     8   8   4
#     4   9  17  33  53  75 109 150 188 232 288 340
#     4   9  18  31  54  78 107 149 190 233 285 340
#     4  10  18  32  56  84 114 150 194 238 284 340
#
# _framework density 26.728504999999998
#
# number of rings (size 3 to 8) (size 9 to 14) (size 15 to 20)
#    0.000    3.200    0.000    4.800    0.000    1.600 
#    0.000    0.000    0.000   57.600    0.000    0.000 
#    0.000    0.000    0.000    4.800    0.000    7.200 
#
# Total GULP energy -111610.178787 kJ/mol
# GULP energy per Si atom -5580.508939 kJ/mol
# Density = 2.666767 g / cm^3
# Si number density = 26.728505 Si / 1000 Ang^3
#
#
#
# Elastic Constant Matrix: (Units=GPa)
#
#
# Indices 1 2 3 4 5 6 
#
# 1 61.2707 49.5794 22.4112 0.0000 0.0000 0.0000
# 2 49.5794 213.9473 20.4155 0.0000 0.0000 0.0000
# 3 22.4112 20.4155 54.9353 0.0000 0.0000 0.0000
# 4 0.0000 0.0000 0.0000 30.0849 0.0000 0.0000
# 5 0.0000 0.0000 0.0000 0.0000 35.1352 0.0000
# 6 0.0000 0.0000 0.0000 0.0000 0.0000 22.5817
#
#
#
# Elastic Compliance Matrix: (Units=1/GPa)
#
#
# Indices 1 2 3 4 5 6 
#
# 1 0.022788 -0.004555 -0.007604 0.000000 0.000000 0.000000
# 2 -0.004555 0.005756 -0.000281 0.000000 0.000000 0.000000
# 3 -0.007604 -0.000281 0.021410 0.000000 0.000000 0.000000
# 4 0.000000 0.000000 0.000000 0.033239 0.000000 0.000000
# 5 0.000000 0.000000 0.000000 0.000000 0.028462 0.000000
# 6 0.000000 0.000000 0.000000 0.000000 0.000000 0.044284
#
#
# Mechanical properties :
#
#
# Convention : Reuss Voigt Hill
#
# Bulk Modulus (GPa) = 39.88118 57.21839 48.54978
# Shear Modulus (GPa) = 26.43026 33.41017 29.92021
#
# Velocity S-wave (km/s) = 3.14800 3.53934 3.34939
# Velocity P-wave (km/s) = 5.30720 6.17708 5.75859
#
# Compressibility (1/GPa) = 0.02507449
#
# Stress axis : x y z
#
# Youngs Moduli (GPa) = 43.88198 173.71704 46.70796
#
# Poissons Ratio (x) = 0.79134 0.35516
# Poissons Ratio (y) = 0.19990 0.01312
# Poissons Ratio (z) = 0.33367 0.04880
#
# Static dielectric constant tensor:
#      x y z
#    x 2.256020 0.000000 0.000000 
#    y 0.000000 2.154990 0.000000 
#    z 0.000000 0.000000 2.080800 
# 
# From -- ./inp_files/17354.got.cif
#   From: 2010.05.17/outbox.cif.g08.bks.cpg/sg52_9_cif.got.tgz:17354.got - 2010.06.03 12:15:38.
