data_PCOD9408135
_publ_section_title
;
Structure prediction by ZEFSAII (Michael W. Deem and Ramdas Pophale) SiO2 
 PCOD9408135
Probable space group: P N N A
;
_chemical_formula_sum "Si O2"
_cell_formula_units_Z 36
_cell_length_a 18.626027
_cell_length_b 5.507149
_cell_length_c 18.266633
_cell_angle_alpha 90.000000
_cell_angle_beta 90.000000
_cell_angle_gamma 90.000000
_cell_volume 1873.723736
_symmetry_space_group_name_H-M "P N N A"
_symmetry_group_IT_number 52
_symmetry_cell_setting 'orthorhombic'
loop_
_space_group_symop_operation_xyz
x,y,z
1/2-x,-y,z
x,1/2-y,1/2-z
1/2-x,1/2+y,1/2-z
-x,-y,-z
1/2+x,y,-z
-x,1/2+y,1/2+z
1/2+x,1/2-y,1/2+z
loop_
_atom_site_type_symbol
_atom_site_label
_atom_site_fract_x
_atom_site_fract_y
_atom_site_fract_z
Si Si1 0.296232 0.250000 0.250000
Si Si2 0.470639 0.750352 0.905232
Si Si3 0.498108 0.250365 0.836260
Si Si4 0.126368 0.249646 0.450709
Si Si5 0.358357 0.250355 0.410336
O O1 0.250000 0.500000 0.249951
O O2 0.343027 0.250198 0.323857
O O3 0.459728 0.499867 0.861064
O O4 0.555502 0.750410 0.925455
O O5 0.459678 0.001099 0.861214
O O6 0.423485 0.749897 0.977965
O O7 0.509670 0.250000 0.750000
O O8 0.573942 0.250429 0.879353
O O9 0.168625 0.499682 0.444524
O O10 0.168594 0.999526 0.444605
#
# Coordination Sequence:
#
# PCOD9408135 Si02
#       5
#     4   8   8   8   8
#     4  12  26  40  50  72 104 138 194 240 252 278
#     4  10  19  31  46  72  97 121 168 218 255 319
#     4  10  18  25  41  63  96 126 159 197 234 295
#     4  10  19  31  50  72  95 119 172 214 261 323
#     4  10  20  32  53  64  91 130 169 218 270 284
#
# _framework density 19.213076999999998
#
# number of rings (size 3 to 8) (size 9 to 14) (size 15 to 20)
#    0.000    1.778    0.000    8.667   12.444    0.000 
#    0.000    0.000    0.000    0.000    0.000    0.000 
#    0.000    0.000    0.000    0.000    0.000  753.333 
#
# Total GULP energy -200964.841638 kJ/mol
# GULP energy per Si atom -5582.356712 kJ/mol
# Density = 1.916935 g / cm^3
# Si number density = 19.213077 Si / 1000 Ang^3
#
#
#
# Elastic Constant Matrix: (Units=GPa)
#
#
# Indices 1 2 3 4 5 6 
#
# 1 56.5655 28.3936 43.1585 0.0000 0.0000 0.0000
# 2 28.3936 236.8196 55.8530 0.0000 0.0000 0.0000
# 3 43.1585 55.8530 125.5013 0.0000 0.0000 0.0000
# 4 0.0000 0.0000 0.0000 36.4392 0.0000 0.0000
# 5 0.0000 0.0000 0.0000 0.0000 -80.8668 0.0000
# 6 0.0000 0.0000 0.0000 0.0000 0.0000 0.2024
#
#
#
# Elastic Compliance Matrix: (Units=1/GPa)
#
#
# Indices 1 2 3 4 5 6 
#
# 1 0.024198 -0.001049 -0.007855 0.000000 0.000000 0.000000
# 2 -0.001049 0.004763 -0.001759 0.000000 0.000000 0.000000
# 3 -0.007855 -0.001759 0.011452 0.000000 0.000000 0.000000
# 4 0.000000 0.000000 0.000000 0.027443 0.000000 0.000000
# 5 0.000000 0.000000 0.000000 0.000000 -0.012366 0.000000
# 6 0.000000 0.000000 0.000000 0.000000 0.000000 4.940989
#
#
# Mechanical properties :
#
#
# Convention : Reuss Voigt Hill
#
# Bulk Modulus (GPa) = 52.38857 74.85519 63.62188
# Shear Modulus (GPa) = 0.99519 10.58705 5.79112
#
# Velocity S-wave (km/s) = 0.72049 2.34996 1.73802
# Velocity P-wave (km/s) = 5.29325 6.81236 6.10027
#
# Compressibility (1/GPa) = 0.01908813
#
# Stress axis : x y z
#
# Youngs Moduli (GPa) = 41.32567 209.94025 87.32023
#
# Poissons Ratio (x) = 0.22017 0.68587
# Poissons Ratio (y) = 0.04334 0.15361
# Poissons Ratio (z) = 0.32460 0.36932
#
# Static dielectric constant tensor:
#      x y z
#    x 1.633110 0.000000 0.000000 
#    y 0.000000 1.835460 0.000000 
#    z 0.000000 0.000000 1.625600 
# 
# From -- ./inp_files/29284.got.cif
#   From: 2010.05.17/outbox.cif.g08.bks.cpg/sg52_15_cif.got.tgz:29284.got - 2010.06.03 12:15:38.
