data_PCOD9408312
_publ_section_title
;
Structure prediction by ZEFSAII (Michael W. Deem and Ramdas Pophale) SiO2 
 PCOD9408312
Probable space group: P N N A
;
_chemical_formula_sum "Si O2"
_cell_formula_units_Z 48
_cell_length_a 9.786473
_cell_length_b 11.349830
_cell_length_c 15.839547
_cell_angle_alpha 90.000000
_cell_angle_beta 90.000000
_cell_angle_gamma 90.000000
_cell_volume 1759.374592
_symmetry_space_group_name_H-M "P N N A"
_symmetry_group_IT_number 52
_symmetry_cell_setting 'orthorhombic'
loop_
_space_group_symop_operation_xyz
x,y,z
1/2-x,-y,z
x,1/2-y,1/2-z
1/2-x,1/2+y,1/2-z
-x,-y,-z
1/2+x,y,-z
-x,1/2+y,1/2+z
1/2+x,1/2-y,1/2+z
loop_
_atom_site_type_symbol
_atom_site_label
_atom_site_fract_x
_atom_site_fract_y
_atom_site_fract_z
Si Si1 0.040436 0.585227 0.172662
Si Si2 0.121378 0.427653 0.039934
Si Si3 0.492216 0.573048 0.632761
Si Si4 0.780140 0.727309 0.148341
Si Si5 0.494013 0.190478 0.840695
Si Si6 0.774549 0.285363 0.582833
O O1 0.092933 0.458878 0.139138
O O2 0.049922 0.598212 0.272649
O O3 0.133247 0.683517 0.126514
O O4 0.883532 0.615895 0.146493
O O5 0.250000 0.500000 0.011667
O O6 0.170008 0.294652 0.025130
O O7 0.000000 0.500000 0.000000
O O8 0.366659 0.660162 0.618231
O O9 0.439263 0.440759 0.642103
O O10 0.614195 0.611432 0.568336
O O11 0.765968 0.750000 0.250000
O O12 0.624303 0.729227 0.113144
O O13 0.499564 0.250000 0.750000
O O14 0.652964 0.166441 0.860363
#
# Coordination Sequence:
#
# PCOD9408312 Si02
#       6
#     8   8   8   8   8   8
#     4   9  18  34  53  75 110 152 190 237 304 371
#     4  10  22  39  58  82 111 150 200 252 302 360
#     4  10  18  32  51  76 117 157 185 233 306 383
#     4   8  17  30  45  71 109 150 187 229 293 368
#     4  11  19  27  45  78 113 147 189 236 291 367
#     4  10  20  32  50  78 109 144 189 241 303 367
#
# _framework density 27.282422
#
# number of rings (size 3 to 8) (size 9 to 14) (size 15 to 20)
#    0.000    2.333    0.000    4.500    0.000    4.000 
#    0.000    3.333    0.000    0.000    0.000   44.333 
#    0.000    0.000    0.000    0.000    0.000    0.000 
#
# Total GULP energy -267608.990778 kJ/mol
# GULP energy per Si atom -5575.187308 kJ/mol
# Density = 2.722033 g / cm^3
# Si number density = 27.282422 Si / 1000 Ang^3
#
#
#
# Elastic Constant Matrix: (Units=GPa)
#
#
# Indices 1 2 3 4 5 6 
#
# 1 178.7449 30.5111 -1.4008 0.0000 0.0000 0.0000
# 2 30.5111 122.9522 37.3170 0.0000 0.0000 0.0000
# 3 -1.4008 37.3170 54.6839 0.0000 0.0000 0.0000
# 4 0.0000 0.0000 0.0000 24.8186 0.0000 0.0000
# 5 0.0000 0.0000 0.0000 0.0000 23.1915 0.0000
# 6 0.0000 0.0000 0.0000 0.0000 0.0000 37.4037
#
#
#
# Elastic Compliance Matrix: (Units=1/GPa)
#
#
# Indices 1 2 3 4 5 6 
#
# 1 0.005933 -0.001915 0.001459 0.000000 0.000000 0.000000
# 2 -0.001915 0.010876 -0.007471 0.000000 0.000000 0.000000
# 3 0.001459 -0.007471 0.023423 0.000000 0.000000 0.000000
# 4 0.000000 0.000000 0.000000 0.040292 0.000000 0.000000
# 5 0.000000 0.000000 0.000000 0.000000 0.043119 0.000000
# 6 0.000000 0.000000 0.000000 0.000000 0.000000 0.026735
#
#
# Mechanical properties :
#
#
# Convention : Reuss Voigt Hill
#
# Bulk Modulus (GPa) = 41.02217 54.35953 47.69085
# Shear Modulus (GPa) = 28.67660 36.41303 32.54481
#
# Velocity S-wave (km/s) = 3.24559 3.65728 3.45756
# Velocity P-wave (km/s) = 5.39573 6.14835 5.78429
#
# Compressibility (1/GPa) = 0.02437706
#
# Stress axis : x y z
#
# Youngs Moduli (GPa) = 168.55199 91.94587 42.69390
#
# Poissons Ratio (x) = 0.17608 -0.06228
# Poissons Ratio (y) = 0.32278 0.31896
# Poissons Ratio (z) = -0.24589 0.68692
#
# Static dielectric constant tensor:
#      x y z
#    x 2.314800 0.000000 0.000000 
#    y 0.000000 2.323290 0.000000 
#    z 0.000000 0.000000 2.533880 
# 
# From -- ./inp_files/39451.got.cif
#   From: 2010.05.17/outbox.cif.g08.bks.cpg/sg52_20_cif.got.tgz:39451.got - 2010.06.03 12:15:38.
