data_PCOD9408846
_publ_section_title
;
Structure prediction by ZEFSAII (Michael W. Deem and Ramdas Pophale) SiO2 
 PCOD9408846
Probable space group: P N N A
;
_chemical_formula_sum "Si O2"
_cell_formula_units_Z 56
_cell_length_a 9.344340
_cell_length_b 21.109209
_cell_length_c 14.297810
_cell_angle_alpha 90.000000
_cell_angle_beta 90.000000
_cell_angle_gamma 90.000000
_cell_volume 2820.266271
_symmetry_space_group_name_H-M "P N N A"
_symmetry_group_IT_number 52
_symmetry_cell_setting 'orthorhombic'
loop_
_space_group_symop_operation_xyz
x,y,z
1/2-x,-y,z
x,1/2-y,1/2-z
1/2-x,1/2+y,1/2-z
-x,-y,-z
1/2+x,y,-z
-x,1/2+y,1/2+z
1/2+x,1/2-y,1/2+z
loop_
_atom_site_type_symbol
_atom_site_label
_atom_site_fract_x
_atom_site_fract_y
_atom_site_fract_z
Si Si1 0.886465 0.540907 0.940584
Si Si2 0.467372 0.641337 0.420902
Si Si3 0.744485 0.069711 0.048180
Si Si4 0.113555 0.346935 0.920305
Si Si5 0.700559 0.429219 0.241667
Si Si6 0.088045 0.780026 0.555894
Si Si7 0.003950 0.130837 0.286036
O O1 0.750000 0.500000 0.919257
O O2 0.945704 0.570710 0.845684
O O3 0.840808 0.599103 0.006140
O O4 0.000000 0.500000 0.000000
O O5 0.592628 0.589776 0.433581
O O6 0.337053 0.620754 0.485860
O O7 0.542750 0.707415 0.446895
O O8 0.421089 0.642687 0.312197
O O9 0.663895 0.064323 0.149007
O O10 0.750000 0.000000 0.004093
O O11 0.096240 0.388666 0.825514
O O12 0.245579 0.296722 0.923053
O O13 0.971556 0.314705 0.962506
O O14 0.750000 0.500000 0.208333
O O15 0.840228 0.384939 0.238365
O O16 0.000169 0.811036 0.642251
#
# Coordination Sequence:
#
# PCOD9408846 Si02
#       7
#     8   8   8   8   8   8   8
#     4  11  20  33  55  86 119 149 181 226 282 336
#     4  11  21  39  58  76 107 145 183 230 279 325
#     4  10  22  38  58  82 105 137 183 229 275 329
#     4  10  19  33  54  81 112 143 182 225 269 327
#     4   9  17  33  55  79 108 142 179 224 276 324
#     4  10  20  35  54  79 107 145 186 225 271 333
#     4   9  20  33  53  79 107 145 184 219 269 336
#
# _framework density 19.856282
#
# number of rings (size 3 to 8) (size 9 to 14) (size 15 to 20)
#    0.000    2.000    0.000    5.571    0.000    0.571 
#    0.000    6.429    0.000    0.000    0.000    0.000 
#    0.000    0.000    0.000    0.000    0.000    0.000 
#
# Total GULP energy -312185.817413 kJ/mol
# GULP energy per Si atom -5574.746740 kJ/mol
# Density = 1.981109 g / cm^3
# Si number density = 19.856282 Si / 1000 Ang^3
#
#
#
# Elastic Constant Matrix: (Units=GPa)
#
#
# Indices 1 2 3 4 5 6 
#
# 1 34.4971 -2.6801 6.6844 0.0000 0.0000 0.0000
# 2 -2.6801 77.5910 5.0608 0.0000 0.0000 0.0000
# 3 6.6844 5.0608 71.6659 0.0000 0.0000 0.0000
# 4 0.0000 0.0000 0.0000 17.8785 0.0000 0.0000
# 5 0.0000 0.0000 0.0000 0.0000 22.2512 0.0000
# 6 0.0000 0.0000 0.0000 0.0000 0.0000 32.9709
#
#
#
# Elastic Compliance Matrix: (Units=1/GPa)
#
#
# Indices 1 2 3 4 5 6 
#
# 1 0.029634 0.001209 -0.002849 0.000000 0.000000 0.000000
# 2 0.001209 0.012997 -0.001031 0.000000 0.000000 0.000000
# 3 -0.002849 -0.001031 0.014292 0.000000 0.000000 0.000000
# 4 0.000000 0.000000 0.000000 0.055933 0.000000 0.000000
# 5 0.000000 0.000000 0.000000 0.000000 0.044941 0.000000
# 6 0.000000 0.000000 0.000000 0.000000 0.000000 0.030330
#
#
# Mechanical properties :
#
#
# Convention : Reuss Voigt Hill
#
# Bulk Modulus (GPa) = 19.38655 22.43156 20.90906
# Shear Modulus (GPa) = 23.73465 26.26607 25.00036
#
# Velocity S-wave (km/s) = 3.46109 3.64099 3.55218
# Velocity P-wave (km/s) = 5.07512 5.38491 5.23231
#
# Compressibility (1/GPa) = 0.05158215
#
# Stress axis : x y z
#
# Youngs Moduli (GPa) = 33.74502 76.94027 69.96837
#
# Poissons Ratio (x) = -0.09306 0.19937
# Poissons Ratio (y) = -0.04081 0.07211
# Poissons Ratio (z) = 0.09615 0.07930
#
# Static dielectric constant tensor:
#      x y z
#    x 1.700580 0.000000 0.000000 
#    y 0.000000 1.776310 0.000000 
#    z 0.000000 0.000000 1.772970 
# 
# From -- ./inp_files/24947.got.cif
#   From: 2010.05.17/outbox.cif.g08.bks.cpg/sg52_13_cif.got.tgz:24947.got - 2010.06.03 12:15:38.
