data_PCOD9408197
_publ_section_title
;
Structure prediction by ZEFSAII (Michael W. Deem and Ramdas Pophale) SiO2 
 PCOD9408197
Probable space group: P N N A
;
_chemical_formula_sum "Si O2"
_cell_formula_units_Z 60
_cell_length_a 29.568708
_cell_length_b 5.460092
_cell_length_c 22.526341
_cell_angle_alpha 90.000000
_cell_angle_beta 90.000000
_cell_angle_gamma 90.000000
_cell_volume 3636.829683
_symmetry_space_group_name_H-M "P N N A"
_symmetry_group_IT_number 52
_symmetry_cell_setting 'orthorhombic'
loop_
_space_group_symop_operation_xyz
x,y,z
1/2-x,-y,z
x,1/2-y,1/2-z
1/2-x,1/2+y,1/2-z
-x,-y,-z
1/2+x,y,-z
-x,1/2+y,1/2+z
1/2+x,1/2-y,1/2+z
loop_
_atom_site_type_symbol
_atom_site_label
_atom_site_fract_x
_atom_site_fract_y
_atom_site_fract_z
Si Si1 0.477242 0.006897 0.236759
Si Si2 0.935047 0.920305 0.321183
Si Si3 0.362923 0.547641 0.642191
Si Si4 0.366824 0.250000 0.750000
Si Si5 0.922592 0.248905 0.435975
Si Si6 0.277184 0.749784 0.821494
Si Si7 0.513308 0.473434 0.597851
Si Si8 0.543114 0.978779 0.543509
O O1 0.454367 0.750000 0.250000
O O2 0.493438 0.982184 0.168825
O O3 0.448943 0.250000 0.250000
O O4 0.519082 0.044279 0.283553
O O5 0.910651 0.663957 0.335868
O O6 0.898274 0.051921 0.280724
O O7 0.937342 0.064103 0.383148
O O8 0.343275 0.374015 0.694485
O O9 0.378128 0.391518 0.585728
O O10 0.323925 0.748819 0.640750
O O11 0.918176 0.097315 0.496536
O O12 0.965491 0.436415 0.436875
O O13 0.250000 0.500000 0.833266
O O14 0.286416 0.750000 0.750000
O O15 0.250000 0.000000 0.835850
O O16 0.534413 0.736582 0.582439
O O17 0.543129 0.235631 0.578805
O O18 0.500000 0.000000 0.500000
#
# Coordination Sequence:
#
# PCOD9408197 Si02
#       8
#     8   8   8   4   8   8   8   8
#     4  12  21  32  46  67  90 115 146 189 241 286
#     4  11  20  30  45  67  92 109 143 195 245 281
#     4  11  23  32  52  68  89 114 152 195 241 291
#     4  10  18  30  40  68  84 106 138 180 228 282
#     4  10  21  32  49  66  88 116 151 196 236 289
#     4  10  23  38  51  65  90 120 146 178 233 304
#     4  11  21  35  48  65  90 124 149 188 238 300
#     4  10  22  35  48  62  90 121 156 179 234 300
#
# _framework density 16.497883999999999
#
# number of rings (size 3 to 8) (size 9 to 14) (size 15 to 20)
#    0.000    1.333    2.000    6.000   14.000    0.000 
#    0.000    0.000    0.000    0.000    0.000    0.000 
#    0.000    0.000    0.000    0.000    0.000    0.000 
#
# Total GULP energy -334457.434195 kJ/mol
# GULP energy per Si atom -5574.290570 kJ/mol
# Density = 1.646033 g / cm^3
# Si number density = 16.497884 Si / 1000 Ang^3
#
#
#
# Elastic Constant Matrix: (Units=GPa)
#
#
# Indices 1 2 3 4 5 6 
#
# 1 39.2354 24.6642 24.6532 0.0000 0.0000 0.0000
# 2 24.6642 122.3161 35.8959 0.0000 0.0000 0.0000
# 3 24.6532 35.8959 62.2236 0.0000 0.0000 0.0000
# 4 0.0000 0.0000 0.0000 31.0755 0.0000 0.0000
# 5 0.0000 0.0000 0.0000 0.0000 9.0097 0.0000
# 6 0.0000 0.0000 0.0000 0.0000 0.0000 14.4201
#
#
#
# Elastic Compliance Matrix: (Units=1/GPa)
#
#
# Indices 1 2 3 4 5 6 
#
# 1 0.035218 -0.003619 -0.011866 0.000000 0.000000 0.000000
# 2 -0.003619 0.010214 -0.004458 0.000000 0.000000 0.000000
# 3 -0.011866 -0.004458 0.023344 0.000000 0.000000 0.000000
# 4 0.000000 0.000000 0.000000 0.032180 0.000000 0.000000
# 5 0.000000 0.000000 0.000000 0.000000 0.110991 0.000000
# 6 0.000000 0.000000 0.000000 0.000000 0.000000 0.069348
#
#
# Mechanical properties :
#
#
# Convention : Reuss Voigt Hill
#
# Bulk Modulus (GPa) = 34.61438 43.80021 39.20729
# Shear Modulus (GPa) = 15.11440 20.13850 17.62645
#
# Velocity S-wave (km/s) = 3.03007 3.49760 3.27220
# Velocity P-wave (km/s) = 5.76788 6.55115 6.17195
#
# Compressibility (1/GPa) = 0.02888973
#
# Stress axis : x y z
#
# Youngs Moduli (GPa) = 28.39457 97.90794 42.83739
#
# Poissons Ratio (x) = 0.35436 0.50829
# Poissons Ratio (y) = 0.10277 0.19098
# Poissons Ratio (z) = 0.33692 0.43649
#
# Static dielectric constant tensor:
#      x y z
#    x 1.593720 0.000000 0.000000 
#    y 0.000000 1.725030 0.000000 
#    z 0.000000 0.000000 1.642440 
# 
# From -- ./inp_files/38340.got.cif
#   From: 2010.05.17/outbox.cif.g08.bks.cpg/sg52_20_cif.got.tgz:38340.got - 2010.06.03 12:15:38.
