data_PCOD9408872
_publ_section_title
;
Structure prediction by ZEFSAII (Michael W. Deem and Ramdas Pophale) SiO2 
 PCOD9408872
Probable space group: P N N A
;
_chemical_formula_sum "Si O2"
_cell_formula_units_Z 32
_cell_length_a 15.185924
_cell_length_b 5.331580
_cell_length_c 16.862905
_cell_angle_alpha 90.000000
_cell_angle_beta 90.000000
_cell_angle_gamma 90.000000
_cell_volume 1365.304575
_symmetry_space_group_name_H-M "P N N A"
_symmetry_group_IT_number 52
_symmetry_cell_setting 'orthorhombic'
loop_
_space_group_symop_operation_xyz
x,y,z
1/2-x,-y,z
x,1/2-y,1/2-z
1/2-x,1/2+y,1/2-z
-x,-y,-z
1/2+x,y,-z
-x,1/2+y,1/2+z
1/2+x,1/2-y,1/2+z
loop_
_atom_site_type_symbol
_atom_site_label
_atom_site_fract_x
_atom_site_fract_y
_atom_site_fract_z
Si Si1 0.849381 0.453966 0.111922
Si Si2 0.611199 0.999397 0.722875
Si Si3 0.923666 0.355913 0.952925
Si Si4 0.538045 0.039006 0.146181
O O1 0.750000 0.500000 0.140357
O O2 0.902423 0.709389 0.135240
O O3 0.901355 0.206701 0.141995
O O4 0.847132 0.382831 0.017454
O O5 0.655186 0.250000 0.750000
O O6 0.658443 0.750000 0.750000
O O7 0.596517 0.991635 0.629562
O O8 0.520499 0.987391 0.774870
O O9 0.963297 0.088995 0.922560
O O10 0.000000 0.500000 0.000000
#
# Coordination Sequence:
#
# PCOD9408872 Si02
#       4
#     8   8   8   8
#     4  11  22  37  59  88 122 154 187 238 306 362
#     4  10  19  33  57  83 107 138 188 245 281 324
#     4   9  19  35  60  84 108 149 199 244 281 335
#     4  10  20  37  58  83 112 153 198 237 284 349
#
# _framework density 23.437992999999999
#
# number of rings (size 3 to 8) (size 9 to 14) (size 15 to 20)
#    0.000    2.000    0.000    6.000    0.000    6.000 
#    0.000    0.000    0.000  103.500    0.000    0.000 
#    0.000    0.000    0.000    0.000    0.000    0.000 
#
# Total GULP energy -178366.483995 kJ/mol
# GULP energy per Si atom -5573.952625 kJ/mol
# Density = 2.338465 g / cm^3
# Si number density = 23.437993 Si / 1000 Ang^3
#
#
#
# Elastic Constant Matrix: (Units=GPa)
#
#
# Indices 1 2 3 4 5 6 
#
# 1 125.6657 64.4188 30.5403 0.0000 0.0000 0.0000
# 2 64.4188 219.0181 35.5413 0.0000 0.0000 0.0000
# 3 30.5403 35.5413 134.4571 0.0000 0.0000 0.0000
# 4 0.0000 0.0000 0.0000 36.7744 0.0000 0.0000
# 5 0.0000 0.0000 0.0000 0.0000 -18.8949 0.0000
# 6 0.0000 0.0000 0.0000 0.0000 0.0000 -51.9970
#
#
#
# Elastic Compliance Matrix: (Units=1/GPa)
#
#
# Indices 1 2 3 4 5 6 
#
# 1 0.009654 -0.002595 -0.001507 0.000000 0.000000 0.000000
# 2 -0.002595 0.005468 -0.000856 0.000000 0.000000 0.000000
# 3 -0.001507 -0.000856 0.008006 0.000000 0.000000 0.000000
# 4 0.000000 0.000000 0.000000 0.027193 0.000000 0.000000
# 5 0.000000 0.000000 0.000000 0.000000 -0.052924 0.000000
# 6 0.000000 0.000000 0.000000 0.000000 0.000000 -0.019232
#
#
# Mechanical properties :
#
#
# Convention : Reuss Voigt Hill
#
# Bulk Modulus (GPa) = 75.68699 82.23794 78.96246
# Shear Modulus (GPa) = -665.27277 16.41919 -324.42679
#
# Velocity S-wave (km/s) = -16.86594 2.64964 -11.77793
# Velocity P-wave (km/s) = 18.62572 6.67266 12.29620
#
# Compressibility (1/GPa) = 0.01321231
#
# Stress axis : x y z
#
# Youngs Moduli (GPa) = 103.58321 182.88284 124.90884
#
# Poissons Ratio (x) = 0.47458 0.18822
# Poissons Ratio (y) = 0.26880 0.10691
# Poissons Ratio (z) = 0.15609 0.15654
#
# Static dielectric constant tensor:
#      x y z
#    x 1.886080 0.000000 0.000000 
#    y 0.000000 1.991720 0.000000 
#    z 0.000000 0.000000 1.969070 
# 
# From -- ./inp_files/33388.got.cif
#   From: 2010.05.17/outbox.cif.g08.bks.cpg/sg52_17_cif.got.tgz:33388.got - 2010.06.03 12:15:38.
