data_PCOD9408743
_publ_section_title
;
Structure prediction by ZEFSAII (Michael W. Deem and Ramdas Pophale) SiO2 
 PCOD9408743
Probable space group: P N N A
;
_chemical_formula_sum "Si O2"
_cell_formula_units_Z 48
_cell_length_a 22.780988
_cell_length_b 8.157854
_cell_length_c 11.635273
_cell_angle_alpha 90.000000
_cell_angle_beta 90.000000
_cell_angle_gamma 90.000000
_cell_volume 2162.345374
_symmetry_space_group_name_H-M "P N N A"
_symmetry_group_IT_number 52
_symmetry_cell_setting 'orthorhombic'
loop_
_space_group_symop_operation_xyz
x,y,z
1/2-x,-y,z
x,1/2-y,1/2-z
1/2-x,1/2+y,1/2-z
-x,-y,-z
1/2+x,y,-z
-x,1/2+y,1/2+z
1/2+x,1/2-y,1/2+z
loop_
_atom_site_type_symbol
_atom_site_label
_atom_site_fract_x
_atom_site_fract_y
_atom_site_fract_z
Si Si1 0.207177 0.865318 0.414434
Si Si2 0.055841 0.333909 0.373479
Si Si3 0.396378 0.953070 0.521171
Si Si4 0.660843 0.960209 0.959463
Si Si5 0.209368 0.239375 0.615323
Si Si6 0.070970 0.777115 0.880770
O O1 0.196585 0.673818 0.383199
O O2 0.238204 0.835922 0.539571
O O3 0.250000 0.000000 0.355834
O O4 0.145406 0.957703 0.427419
O O5 0.057040 0.250000 0.250000
O O6 0.069121 0.196531 0.467960
O O7 0.110023 0.457070 0.383369
O O8 0.988050 0.385055 0.389839
O O9 0.348766 0.874492 0.608156
O O10 0.437253 0.093398 0.571713
O O11 0.623974 0.855656 0.051145
O O12 0.693084 0.097552 0.038741
O O13 0.224901 0.250000 0.750000
O O14 0.087326 0.750000 0.750000
#
# Coordination Sequence:
#
# PCOD9408743 Si02
#       6
#     8   8   8   8   8   8
#     4   9  19  33  51  75 106 140 176 220 277 338
#     4  10  21  37  56  77 106 148 196 238 276 325
#     4   9  19  34  52  76 111 143 179 227 274 327
#     4  10  20  34  54  80 114 147 182 228 278 337
#     4  10  19  31  52  83 114 144 177 218 280 353
#     4  10  19  33  55  83 113 146 182 225 283 342
#
# _framework density 22.198118999999998
#
# number of rings (size 3 to 8) (size 9 to 14) (size 15 to 20)
#    0.000    2.333    0.000    2.500    0.000    6.667 
#    0.000    3.333    0.000   44.000    0.000    0.000 
#    0.000    0.000    0.000    0.000    0.000    0.000 
#
# Total GULP energy -267466.498714 kJ/mol
# GULP energy per Si atom -5572.218723 kJ/mol
# Density = 2.214759 g / cm^3
# Si number density = 22.198119 Si / 1000 Ang^3
#
#
#
# Elastic Constant Matrix: (Units=GPa)
#
#
# Indices 1 2 3 4 5 6 
#
# 1 75.1053 21.9767 7.6919 0.0000 0.0000 0.0000
# 2 21.9767 108.4703 -4.2527 0.0000 0.0000 0.0000
# 3 7.6919 -4.2527 26.7141 0.0000 0.0000 0.0000
# 4 0.0000 0.0000 0.0000 13.6183 0.0000 0.0000
# 5 0.0000 0.0000 0.0000 0.0000 125.7908 0.0000
# 6 0.0000 0.0000 0.0000 0.0000 0.0000 47.9473
#
#
#
# Elastic Compliance Matrix: (Units=1/GPa)
#
#
# Indices 1 2 3 4 5 6 
#
# 1 0.014728 -0.003170 -0.004745 0.000000 0.000000 0.000000
# 2 -0.003170 0.009959 0.002498 0.000000 0.000000 0.000000
# 3 -0.004745 0.002498 0.039197 0.000000 0.000000 0.000000
# 4 0.000000 0.000000 0.000000 0.073431 0.000000 0.000000
# 5 0.000000 0.000000 0.000000 0.000000 0.007950 0.000000
# 6 0.000000 0.000000 0.000000 0.000000 0.000000 0.020856
#
#
# Mechanical properties :
#
#
# Convention : Reuss Voigt Hill
#
# Bulk Modulus (GPa) = 18.84997 29.01351 23.93174
# Shear Modulus (GPa) = 25.68848 49.79621 37.74234
#
# Velocity S-wave (km/s) = 3.40551 4.74145 4.12788
# Velocity P-wave (km/s) = 4.89627 6.56306 5.78996
#
# Compressibility (1/GPa) = 0.05305047
#
# Stress axis : x y z
#
# Youngs Moduli (GPa) = 67.89676 100.40831 25.51188
#
# Poissons Ratio (x) = 0.31830 0.12106
# Poissons Ratio (y) = 0.21524 -0.06373
# Poissons Ratio (z) = 0.32220 -0.25084
#
# Static dielectric constant tensor:
#      x y z
#    x 1.869850 0.000000 0.000000 
#    y 0.000000 1.914910 0.000000 
#    z 0.000000 0.000000 1.902790 
# 
# From -- ./inp_files/22284.got.cif
#   From: 2010.05.17/outbox.cif.g08.bks.cpg/sg52_12_cif.got.tgz:22284.got - 2010.06.03 12:15:38.
