data_PCOD9408288
_publ_section_title
;
Structure prediction by ZEFSAII (Michael W. Deem and Ramdas Pophale) SiO2 
 PCOD9408288
Probable space group: P N N A
;
_chemical_formula_sum "Si O2"
_cell_formula_units_Z 40
_cell_length_a 17.803400
_cell_length_b 20.232891
_cell_length_c 5.372333
_cell_angle_alpha 90.000000
_cell_angle_beta 90.000000
_cell_angle_gamma 90.000000
_cell_volume 1935.190911
_symmetry_space_group_name_H-M "P N N A"
_symmetry_group_IT_number 52
_symmetry_cell_setting 'orthorhombic'
loop_
_space_group_symop_operation_xyz
x,y,z
1/2-x,-y,z
x,1/2-y,1/2-z
1/2-x,1/2+y,1/2-z
-x,-y,-z
1/2+x,y,-z
-x,1/2+y,1/2+z
1/2+x,1/2-y,1/2+z
loop_
_atom_site_type_symbol
_atom_site_label
_atom_site_fract_x
_atom_site_fract_y
_atom_site_fract_z
Si Si1 0.027486 0.069206 0.377307
Si Si2 0.390950 0.417261 0.559879
Si Si3 0.173570 0.730290 0.502851
Si Si4 0.838242 0.009021 0.565090
Si Si5 0.992385 0.285561 0.995948
O O1 0.007170 0.136927 0.513212
O O2 0.980558 0.078171 0.119733
O O3 0.116551 0.059447 0.395688
O O4 0.000000 0.000000 0.500000
O O5 0.358096 0.343611 0.533116
O O6 0.368778 0.450556 0.301986
O O7 0.356518 0.454547 0.802615
O O8 0.217360 0.750000 0.750000
O O9 0.098014 0.775517 0.496347
O O10 0.214434 0.750000 0.250000
O O11 0.750000 0.000000 0.582674
O O12 0.021646 0.250000 0.750000
O O13 0.019052 0.250000 0.250000
#
# Coordination Sequence:
#
# PCOD9408288 Si02
#       5
#     8   8   8   8   8
#     4  10  22  38  64  98 121 161 216 268 307 376
#     4  11  21  39  64  93 119 165 218 262 309 375
#     4  10  18  31  57  88 122 149 197 260 322 355
#     4  11  25  41  61  89 134 171 209 260 325 374
#     4  10  20  33  56  89 127 152 192 258 329 357
#
# _framework density 20.669794
#
# number of rings (size 3 to 8) (size 9 to 14) (size 15 to 20)
#    0.000    1.600    4.000    2.400    8.400    3.200 
#    0.000    0.000    0.000    7.200    0.000    0.000 
#    0.000    0.000    0.000    0.000    0.000    0.000 
#
# Total GULP energy -222991.045934 kJ/mol
# GULP energy per Si atom -5574.776148 kJ/mol
# Density = 2.062275 g / cm^3
# Si number density = 20.669794 Si / 1000 Ang^3
#
#
#
# Elastic Constant Matrix: (Units=GPa)
#
#
# Indices 1 2 3 4 5 6 
#
# 1 77.1390 5.3798 13.7506 0.0000 0.0000 0.0000
# 2 5.3798 120.6019 49.8140 0.0000 0.0000 0.0000
# 3 13.7506 49.8140 181.3253 0.0000 0.0000 0.0000
# 4 0.0000 0.0000 0.0000 34.8630 0.0000 0.0000
# 5 0.0000 0.0000 0.0000 0.0000 9.9500 0.0000
# 6 0.0000 0.0000 0.0000 0.0000 0.0000 3.8392
#
#
#
# Elastic Compliance Matrix: (Units=1/GPa)
#
#
# Indices 1 2 3 4 5 6 
#
# 1 0.013145 -0.000197 -0.000943 0.000000 0.000000 0.000000
# 2 -0.000197 0.009356 -0.002555 0.000000 0.000000 0.000000
# 3 -0.000943 -0.002555 0.006288 0.000000 0.000000 0.000000
# 4 0.000000 0.000000 0.000000 0.028684 0.000000 0.000000
# 5 0.000000 0.000000 0.000000 0.000000 0.100502 0.000000
# 6 0.000000 0.000000 0.000000 0.000000 0.000000 0.260472
#
#
# Mechanical properties :
#
#
# Convention : Reuss Voigt Hill
#
# Bulk Modulus (GPa) = 46.72973 57.43945 52.08459
# Shear Modulus (GPa) = 11.54811 30.40523 20.97667
#
# Velocity S-wave (km/s) = 2.36624 3.83952 3.18912
# Velocity P-wave (km/s) = 5.48837 6.89241 6.23007
#
# Compressibility (1/GPa) = 0.02139965
#
# Stress axis : x y z
#
# Youngs Moduli (GPa) = 76.07227 106.88318 159.02157
#
# Poissons Ratio (x) = 0.02106 0.14992
# Poissons Ratio (y) = 0.01499 0.40636
# Poissons Ratio (z) = 0.07172 0.27312
#
# Static dielectric constant tensor:
#      x y z
#    x 1.768870 0.000000 0.000000 
#    y 0.000000 1.762640 0.000000 
#    z 0.000000 0.000000 1.882960 
# 
# From -- ./inp_files/4214.got.cif
#   From: 2010.05.17/outbox.cif.g08.bks.cpg/sg52_3_cif.got.tgz:4214.got - 2010.06.03 12:15:38.
