data_PCOD9408544
_publ_section_title
;
Structure prediction by ZEFSAII (Michael W. Deem and Ramdas Pophale) SiO2 
 PCOD9408544
Probable space group: P N N A
;
_chemical_formula_sum "Si O2"
_cell_formula_units_Z 44
_cell_length_a 19.482753
_cell_length_b 14.153759
_cell_length_c 8.266836
_cell_angle_alpha 90.000000
_cell_angle_beta 90.000000
_cell_angle_gamma 90.000000
_cell_volume 2279.614670
_symmetry_space_group_name_H-M "P N N A"
_symmetry_group_IT_number 52
_symmetry_cell_setting 'orthorhombic'
loop_
_space_group_symop_operation_xyz
x,y,z
1/2-x,-y,z
x,1/2-y,1/2-z
1/2-x,1/2+y,1/2-z
-x,-y,-z
1/2+x,y,-z
-x,1/2+y,1/2+z
1/2+x,1/2-y,1/2+z
loop_
_atom_site_type_symbol
_atom_site_label
_atom_site_fract_x
_atom_site_fract_y
_atom_site_fract_z
Si Si1 0.129762 0.033718 0.246044
Si Si2 0.840529 0.706626 0.931141
Si Si3 0.289476 0.298303 0.590483
Si Si4 0.088808 0.664244 0.351934
Si Si5 0.250000 0.500000 0.511691
Si Si6 0.026169 0.316848 0.395827
O O1 0.155305 0.094112 0.400145
O O2 0.066448 0.095182 0.180710
O O3 0.106752 0.925604 0.258498
O O4 0.188567 0.031574 0.108185
O O5 0.828169 0.750000 0.750000
O O6 0.913756 0.752763 0.979380
O O7 0.778927 0.741192 0.041755
O O8 0.319029 0.250000 0.750000
O O9 0.342445 0.300254 0.441894
O O10 0.271106 0.408604 0.613324
O O11 0.060137 0.750000 0.250000
O O12 0.032976 0.645022 0.489686
O O13 0.999606 0.250000 0.250000
#
# Coordination Sequence:
#
# PCOD9408544 Si02
#       6
#     8   8   8   8   4   8
#     4   9  19  35  63  82 112 152 201 231 293 354
#     4   9  17  37  62  85 106 153 198 242 283 351
#     4  11  22  37  57  85 119 150 194 247 298 348
#     4  11  23  36  56  87 119 156 194 246 295 352
#     4  10  18  36  58  86 108 156 188 234 298 356
#     4   9  18  37  60  81 113 156 193 235 292 350
#
# _framework density 19.301506
#
# number of rings (size 3 to 8) (size 9 to 14) (size 15 to 20)
#    0.000    2.545    3.636    1.636    2.545    0.727 
#    3.273    3.636    0.000    0.000    0.000    0.000 
#    0.000    0.000    0.000    0.000    0.000    0.000 
#
# Total GULP energy -245230.482390 kJ/mol
# GULP energy per Si atom -5573.420054 kJ/mol
# Density = 1.925758 g / cm^3
# Si number density = 19.301506 Si / 1000 Ang^3
#
#
#
# Elastic Constant Matrix: (Units=GPa)
#
#
# Indices 1 2 3 4 5 6 
#
# 1 51.7964 8.5389 1.6022 0.0000 0.0000 0.0000
# 2 8.5389 107.1724 18.2114 0.0000 0.0000 0.0000
# 3 1.6022 18.2114 11.7920 0.0000 0.0000 0.0000
# 4 0.0000 0.0000 0.0000 26.4863 0.0000 0.0000
# 5 0.0000 0.0000 0.0000 0.0000 -1.0105 0.0000
# 6 0.0000 0.0000 0.0000 0.0000 0.0000 20.7651
#
#
#
# Elastic Compliance Matrix: (Units=1/GPa)
#
#
# Indices 1 2 3 4 5 6 
#
# 1 0.019564 -0.001501 -0.000340 0.000000 0.000000 0.000000
# 2 -0.001501 0.012766 -0.019511 0.000000 0.000000 0.000000
# 3 -0.000340 -0.019511 0.114983 0.000000 0.000000 0.000000
# 4 0.000000 0.000000 0.000000 0.037755 0.000000 0.000000
# 5 0.000000 0.000000 0.000000 0.000000 -0.989599 0.000000
# 6 0.000000 0.000000 0.000000 0.000000 0.000000 0.048158
#
#
# Mechanical properties :
#
#
# Convention : Reuss Voigt Hill
#
# Bulk Modulus (GPa) = 9.55951 25.27398 17.41674
# Shear Modulus (GPa) = -7.36596 18.74206 5.68805
#
# Velocity S-wave (km/s) = -1.95564 3.11949 1.71853
# Velocity P-wave (km/s) = 0.36867 5.10859 3.60290
#
# Compressibility (1/GPa) = 0.10460787
#
# Stress axis : x y z
#
# Youngs Moduli (GPa) = 51.11345 78.33396 8.69693
#
# Poissons Ratio (x) = 0.11758 0.00296
# Poissons Ratio (y) = 0.07672 0.16969
# Poissons Ratio (z) = 0.01739 1.52841
#
# Static dielectric constant tensor:
#      x y z
#    x 1.686500 0.000000 0.000000 
#    y 0.000000 1.710510 0.000000 
#    z 0.000000 0.000000 1.662100 
# 
# From -- ./inp_files/11945.got.cif
#   From: 2010.05.17/outbox.cif.g08.bks.cpg/sg52_6_cif.got.tgz:11945.got - 2010.06.03 12:15:38.
