data_PCOD9408261
_publ_section_title
;
Structure prediction by ZEFSAII (Michael W. Deem and Ramdas Pophale) SiO2 
 PCOD9408261
Probable space group: P N N A
;
_chemical_formula_sum "Si O2"
_cell_formula_units_Z 64
_cell_length_a 13.439622
_cell_length_b 17.135901
_cell_length_c 14.864164
_cell_angle_alpha 90.000000
_cell_angle_beta 90.000000
_cell_angle_gamma 90.000000
_cell_volume 3423.217446
_symmetry_space_group_name_H-M "P N N A"
_symmetry_group_IT_number 52
_symmetry_cell_setting 'orthorhombic'
loop_
_space_group_symop_operation_xyz
x,y,z
1/2-x,-y,z
x,1/2-y,1/2-z
1/2-x,1/2+y,1/2-z
-x,-y,-z
1/2+x,y,-z
-x,1/2+y,1/2+z
1/2+x,1/2-y,1/2+z
loop_
_atom_site_type_symbol
_atom_site_label
_atom_site_fract_x
_atom_site_fract_y
_atom_site_fract_z
Si Si1 0.658984 0.056826 0.442984
Si Si2 0.759707 0.769588 0.467550
Si Si3 0.849985 0.776480 0.651103
Si Si4 0.635680 0.323584 0.313513
Si Si5 0.075831 0.723222 0.645107
Si Si6 0.963829 0.957084 0.270166
Si Si7 0.184185 0.929886 0.825759
Si Si8 0.357858 0.536973 0.143440
O O1 0.702562 0.142444 0.458886
O O2 0.576698 0.067620 0.367305
O O3 0.616774 0.025144 0.537688
O O4 0.750000 0.000000 0.415862
O O5 0.773716 0.751787 0.572811
O O6 0.829956 0.710790 0.409449
O O7 0.650910 0.766856 0.422450
O O8 0.819416 0.750000 0.750000
O O9 0.859950 0.870099 0.655886
O O10 0.959920 0.741328 0.629658
O O11 0.620130 0.250000 0.250000
O O12 0.547174 0.385517 0.299758
O O13 0.731871 0.374322 0.282157
O O14 0.094352 0.750000 0.750000
O O15 0.110280 0.633272 0.629512
O O16 0.887485 0.023996 0.239966
O O17 0.069580 0.994759 0.287387
O O18 0.250000 0.000000 0.872466
O O19 0.250000 0.500000 0.154719
#
# Coordination Sequence:
#
# PCOD9408261 Si02
#       8
#     8   8   8   8   8   8   8   8
#     4  10  20  30  51  82 116 148 181 228 297 369
#     4  10  20  35  54  89 124 143 190 252 294 346
#     4  10  22  42  64  83 111 165 212 243 294 367
#     4  10  18  31  50  85 123 142 173 232 303 351
#     4  10  20  34  61  88 116 155 196 243 293 357
#     4  11  19  31  55  79 113 158 182 227 303 363
#     4   9  18  28  53  87 114 141 181 238 288 346
#     4  10  23  40  51  78 112 153 205 251 282 353
#
# _framework density 18.695862000000002
#
# number of rings (size 3 to 8) (size 9 to 14) (size 15 to 20)
#    0.000    2.000    1.250    4.500    5.250    0.000 
#    6.750    1.875    0.000   18.750    0.000    0.000 
#    0.000    0.000    0.000    0.000    0.000    0.000 
#
# Total GULP energy -356369.324429 kJ/mol
# GULP energy per Si atom -5568.270694 kJ/mol
# Density = 1.865331 g / cm^3
# Si number density = 18.695862 Si / 1000 Ang^3
#
#
#
# Elastic Constant Matrix: (Units=GPa)
#
#
# Indices 1 2 3 4 5 6 
#
# 1 42.1034 21.0545 29.6757 0.0000 0.0000 0.0000
# 2 21.0545 87.2922 8.9792 0.0000 0.0000 0.0000
# 3 29.6757 8.9792 79.8334 0.0000 0.0000 0.0000
# 4 0.0000 0.0000 0.0000 23.4751 0.0000 0.0000
# 5 0.0000 0.0000 0.0000 0.0000 26.8254 0.0000
# 6 0.0000 0.0000 0.0000 0.0000 0.0000 20.7754
#
#
#
# Elastic Compliance Matrix: (Units=1/GPa)
#
#
# Indices 1 2 3 4 5 6 
#
# 1 0.036451 -0.007485 -0.012708 0.000000 0.000000 0.000000
# 2 -0.007485 0.013127 0.001306 0.000000 0.000000 0.000000
# 3 -0.012708 0.001306 0.017103 0.000000 0.000000 0.000000
# 4 0.000000 0.000000 0.000000 0.042598 0.000000 0.000000
# 5 0.000000 0.000000 0.000000 0.000000 0.037278 0.000000
# 6 0.000000 0.000000 0.000000 0.000000 0.000000 0.048134
#
#
# Mechanical properties :
#
#
# Convention : Reuss Voigt Hill
#
# Bulk Modulus (GPa) = 34.59330 36.51642 35.55486
# Shear Modulus (GPa) = 20.65272 24.18316 22.41794
#
# Velocity S-wave (km/s) = 3.32726 3.60043 3.46654
# Velocity P-wave (km/s) = 5.77098 6.07111 5.92295
#
# Compressibility (1/GPa) = 0.02890733
#
# Stress axis : x y z
#
# Youngs Moduli (GPa) = 27.43446 76.18057 58.46964
#
# Poissons Ratio (x) = 0.57018 0.74301
# Poissons Ratio (y) = 0.20533 -0.07635
# Poissons Ratio (z) = 0.34863 -0.09947
#
# Static dielectric constant tensor:
#      x y z
#    x 1.661700 0.000000 0.000000 
#    y 0.000000 1.666270 0.000000 
#    z 0.000000 0.000000 1.683720 
# 
# From -- ./inp_files/26354.got.cif
#   From: 2010.05.17/outbox.cif.g08.bks.cpg/sg52_14_cif.got.tgz:26354.got - 2010.06.03 12:15:38.
