data_PCOD9408514
_publ_section_title
;
Structure prediction by ZEFSAII (Michael W. Deem and Ramdas Pophale) SiO2 
 PCOD9408514
Probable space group: P N N A
;
_chemical_formula_sum "Si O2"
_cell_formula_units_Z 48
_cell_length_a 9.763850
_cell_length_b 24.313286
_cell_length_c 7.782272
_cell_angle_alpha 90.000000
_cell_angle_beta 90.000000
_cell_angle_gamma 90.000000
_cell_volume 1847.443492
_symmetry_space_group_name_H-M "P N N A"
_symmetry_group_IT_number 52
_symmetry_cell_setting 'orthorhombic'
loop_
_space_group_symop_operation_xyz
x,y,z
1/2-x,-y,z
x,1/2-y,1/2-z
1/2-x,1/2+y,1/2-z
-x,-y,-z
1/2+x,y,-z
-x,1/2+y,1/2+z
1/2+x,1/2-y,1/2+z
loop_
_atom_site_type_symbol
_atom_site_label
_atom_site_fract_x
_atom_site_fract_y
_atom_site_fract_z
Si Si1 0.894991 0.758678 0.458314
Si Si2 0.944892 0.074051 0.943551
Si Si3 0.799150 0.442883 0.885190
Si Si4 0.642634 0.810401 0.021338
Si Si5 0.061352 0.385843 0.019526
Si Si6 0.729458 0.408540 0.315682
O O1 0.909774 0.750000 0.250000
O O2 0.746104 0.738597 0.520589
O O3 0.933049 0.820661 0.504452
O O4 0.999429 0.717982 0.553839
O O5 0.884321 0.040906 0.785294
O O6 0.895455 0.137600 0.900481
O O7 0.107238 0.076965 0.948166
O O8 0.863793 0.059726 0.117787
O O9 0.750000 0.500000 0.964541
O O10 0.909466 0.409845 0.002359
O O11 0.664936 0.407225 0.835814
O O12 0.718568 0.845072 0.169830
O O13 0.147222 0.410900 0.859290
#
# Coordination Sequence:
#
# PCOD9408514 Si02
#       6
#     8   8   8   8   8   8
#     4  12  20  36  59  89 127 163 193 240 304 371
#     4   9  18  38  61  88 118 159 199 253 299 357
#     4  11  24  44  64  86 120 164 212 264 314 357
#     4  10  18  35  59  85 122 162 192 235 297 362
#     4  11  23  41  60  91 123 163 202 257 303 371
#     4   9  18  37  61  82 124 155 197 242 299 353
#
# _framework density 25.981847999999999
#
# number of rings (size 3 to 8) (size 9 to 14) (size 15 to 20)
#    1.000    0.667    3.333    2.500    0.000    1.333 
#    0.000    5.000    0.000    0.000    0.000    0.000 
#    0.000    0.000    0.000    0.000    0.000    0.000 
#
# Total GULP energy -267904.345485 kJ/mol
# GULP energy per Si atom -5581.340531 kJ/mol
# Density = 2.592271 g / cm^3
# Si number density = 25.981848 Si / 1000 Ang^3
#
#
#
# Elastic Constant Matrix: (Units=GPa)
#
#
# Indices 1 2 3 4 5 6 
#
# 1 105.7862 17.5501 6.7052 0.0000 0.0000 0.0000
# 2 17.5501 135.9364 -3.6325 0.0000 0.0000 0.0000
# 3 6.7052 -3.6325 60.1183 0.0000 0.0000 0.0000
# 4 0.0000 0.0000 0.0000 3.2599 0.0000 0.0000
# 5 0.0000 0.0000 0.0000 0.0000 25.2782 0.0000
# 6 0.0000 0.0000 0.0000 0.0000 0.0000 34.6348
#
#
#
# Elastic Compliance Matrix: (Units=1/GPa)
#
#
# Indices 1 2 3 4 5 6 
#
# 1 0.009741 -0.001289 -0.001164 0.000000 0.000000 0.000000
# 2 -0.001289 0.007539 0.000599 0.000000 0.000000 0.000000
# 3 -0.001164 0.000599 0.016800 0.000000 0.000000 0.000000
# 4 0.000000 0.000000 0.000000 0.306762 0.000000 0.000000
# 5 0.000000 0.000000 0.000000 0.000000 0.039560 0.000000
# 6 0.000000 0.000000 0.000000 0.000000 0.000000 0.028873
#
#
# Mechanical properties :
#
#
# Convention : Reuss Voigt Hill
#
# Bulk Modulus (GPa) = 32.92516 38.12072 35.52294
# Shear Modulus (GPa) = 11.81738 31.38244 21.59991
#
# Velocity S-wave (km/s) = 2.13499 3.47920 2.88644
# Velocity P-wave (km/s) = 4.33330 5.55371 4.98102
#
# Compressibility (1/GPa) = 0.03037191
#
# Stress axis : x y z
#
# Youngs Moduli (GPa) = 102.66285 132.64764 59.52402
#
# Poissons Ratio (x) = 0.17094 0.06930
# Poissons Ratio (y) = 0.13230 -0.03567
# Poissons Ratio (z) = 0.11953 -0.07949
#
# Static dielectric constant tensor:
#      x y z
#    x 2.088220 0.000000 0.000000 
#    y 0.000000 2.076890 0.000000 
#    z 0.000000 0.000000 2.193820 
# 
# From -- ./inp_files/17047.got.cif
#   From: 2010.05.17/outbox.cif.g08.bks.cpg/sg52_9_cif.got.tgz:17047.got - 2010.06.03 12:15:38.
