data_PCOD9408349
_publ_section_title
;
Structure prediction by ZEFSAII (Michael W. Deem and Ramdas Pophale) SiO2 
 PCOD9408349
Probable space group: P N N A
;
_chemical_formula_sum "Si O2"
_cell_formula_units_Z 40
_cell_length_a 8.385788
_cell_length_b 7.984332
_cell_length_c 23.548350
_cell_angle_alpha 90.000000
_cell_angle_beta 90.000000
_cell_angle_gamma 90.000000
_cell_volume 1576.677784
_symmetry_space_group_name_H-M "P N N A"
_symmetry_group_IT_number 52
_symmetry_cell_setting 'orthorhombic'
loop_
_space_group_symop_operation_xyz
x,y,z
1/2-x,-y,z
x,1/2-y,1/2-z
1/2-x,1/2+y,1/2-z
-x,-y,-z
1/2+x,y,-z
-x,1/2+y,1/2+z
1/2+x,1/2-y,1/2+z
loop_
_atom_site_type_symbol
_atom_site_label
_atom_site_fract_x
_atom_site_fract_y
_atom_site_fract_z
Si Si1 0.449172 0.629097 0.073005
Si Si2 0.369674 0.265615 0.023402
Si Si3 0.468285 0.796340 0.187181
Si Si4 0.070469 0.076053 0.893119
Si Si5 0.816908 0.812369 0.305403
O O1 0.427297 0.441017 0.051922
O O2 0.311754 0.738292 0.042879
O O3 0.436325 0.653003 0.140262
O O4 0.607997 0.703268 0.043843
O O5 0.472902 0.118752 0.050589
O O6 0.400139 0.750000 0.250000
O O7 0.658388 0.800629 0.196720
O O8 0.457310 0.965235 0.149428
O O9 0.093537 0.252524 0.860628
O O10 0.250000 0.000000 0.901782
O O11 0.911922 0.750000 0.250000
O O12 0.750000 0.000000 0.305673
#
# Coordination Sequence:
#
# PCOD9408349 Si02
#       5
#     8   8   8   8   8
#     4  10  23  43  68  93 127 178 220 275 329 394
#     4  10  23  43  65  97 128 170 229 270 332 392
#     4  10  21  39  60  90 132 173 214 265 331 395
#     4  10  22  37  60  98 132 169 218 271 331 396
#     4  10  18  32  57  88 126 170 214 262 314 382
#
# _framework density 25.369800000000001
#
# number of rings (size 3 to 8) (size 9 to 14) (size 15 to 20)
#    0.000    2.000    0.000    4.200    5.600    1.600 
#    0.000    5.000    0.000    0.000    0.000    0.000 
#    0.000    0.000    0.000    0.000    0.000    0.000 
#
# Total GULP energy -223138.269120 kJ/mol
# GULP energy per Si atom -5578.456728 kJ/mol
# Density = 2.531206 g / cm^3
# Si number density = 25.369800 Si / 1000 Ang^3
#
#
#
# Elastic Constant Matrix: (Units=GPa)
#
#
# Indices 1 2 3 4 5 6 
#
# 1 36.8388 7.6930 19.8289 0.0000 0.0000 0.0000
# 2 7.6930 141.0429 54.8588 0.0000 0.0000 0.0000
# 3 19.8289 54.8588 164.5782 0.0000 0.0000 0.0000
# 4 0.0000 0.0000 0.0000 39.9261 0.0000 0.0000
# 5 0.0000 0.0000 0.0000 0.0000 25.1146 0.0000
# 6 0.0000 0.0000 0.0000 0.0000 0.0000 29.1070
#
#
#
# Elastic Compliance Matrix: (Units=1/GPa)
#
#
# Indices 1 2 3 4 5 6 
#
# 1 0.029036 -0.000256 -0.003413 0.000000 0.000000 0.000000
# 2 -0.000256 0.008148 -0.002685 0.000000 0.000000 0.000000
# 3 -0.003413 -0.002685 0.007382 0.000000 0.000000 0.000000
# 4 0.000000 0.000000 0.000000 0.025046 0.000000 0.000000
# 5 0.000000 0.000000 0.000000 0.000000 0.039818 0.000000
# 6 0.000000 0.000000 0.000000 0.000000 0.000000 0.034356
#
#
# Mechanical properties :
#
#
# Convention : Reuss Voigt Hill
#
# Bulk Modulus (GPa) = 31.38941 56.35792 43.87367
# Shear Modulus (GPa) = 29.91958 36.16814 33.04386
#
# Velocity S-wave (km/s) = 3.43788 3.77986 3.61292
# Velocity P-wave (km/s) = 5.30644 6.42749 5.89368
#
# Compressibility (1/GPa) = 0.03185788
#
# Stress axis : x y z
#
# Youngs Moduli (GPa) = 34.44015 122.72275 135.45713
#
# Poissons Ratio (x) = 0.03145 0.46230
# Poissons Ratio (y) = 0.00883 0.36374
# Poissons Ratio (z) = 0.11754 0.32954
#
# Static dielectric constant tensor:
#      x y z
#    x 2.029120 0.000000 0.000000 
#    y 0.000000 2.041220 0.000000 
#    z 0.000000 0.000000 2.135240 
# 
# From -- ./inp_files/39226.got.cif
#   From: 2010.05.17/outbox.cif.g08.bks.cpg/sg52_20_cif.got.tgz:39226.got - 2010.06.03 12:15:38.
