data_PCOD9408194
_publ_section_title
;
Structure prediction by ZEFSAII (Michael W. Deem and Ramdas Pophale) SiO2 
 PCOD9408194
Probable space group: P N N A
;
_chemical_formula_sum "Si O2"
_cell_formula_units_Z 64
_cell_length_a 8.579123
_cell_length_b 24.185569
_cell_length_c 15.372073
_cell_angle_alpha 90.000000
_cell_angle_beta 90.000000
_cell_angle_gamma 90.000000
_cell_volume 3189.566357
_symmetry_space_group_name_H-M "P N N A"
_symmetry_group_IT_number 52
_symmetry_cell_setting 'orthorhombic'
loop_
_space_group_symop_operation_xyz
x,y,z
1/2-x,-y,z
x,1/2-y,1/2-z
1/2-x,1/2+y,1/2-z
-x,-y,-z
1/2+x,y,-z
-x,1/2+y,1/2+z
1/2+x,1/2-y,1/2+z
loop_
_atom_site_type_symbol
_atom_site_label
_atom_site_fract_x
_atom_site_fract_y
_atom_site_fract_z
Si Si1 0.011949 0.789841 0.093409
Si Si2 0.715303 0.774534 0.478281
Si Si3 0.368683 0.041658 0.468569
Si Si4 0.852059 0.884967 0.420943
Si Si5 0.940247 0.874414 0.953128
Si Si6 0.988867 0.278939 0.334088
Si Si7 0.265345 0.434847 0.590184
Si Si8 0.322161 0.654580 0.725188
O O1 0.847990 0.766429 0.056671
O O2 0.969259 0.810270 0.189331
O O3 0.036173 0.841575 0.028724
O O4 0.141594 0.745039 0.069323
O O5 0.799742 0.833312 0.480685
O O6 0.577068 0.764659 0.406315
O O7 0.472467 0.091197 0.428157
O O8 0.268027 0.067740 0.547389
O O9 0.250000 0.000000 0.417630
O O10 0.500000 0.000000 0.500000
O O11 0.828350 0.861267 0.324967
O O12 0.909439 0.825899 0.882821
O O13 0.054965 0.917664 0.908640
O O14 0.809893 0.908706 0.003152
O O15 0.061913 0.250000 0.250000
O O16 0.834630 0.310851 0.296988
O O17 0.250000 0.500000 0.594408
O O18 0.185326 0.401350 0.668570
#
# Coordination Sequence:
#
# PCOD9408194 Si02
#       8
#     8   8   8   8   8   8   8   8
#     4   9  18  32  50  83 119 148 184 225 291 339
#     4  10  18  29  54  85 111 151 183 225 278 354
#     4   9  21  38  57  79 107 145 194 256 312 353
#     4  11  19  35  60  84 108 147 204 241 295 368
#     4   9  18  31  51  77 108 149 184 233 281 347
#     4   9  15  29  48  78 115 139 179 226 279 333
#     4  10  19  33  53  81 109 146 199 242 288 339
#     4   9  19  31  53  84 112 146 189 243 281 352
#
# _framework density 20.065424
#
# number of rings (size 3 to 8) (size 9 to 14) (size 15 to 20)
#    0.000    2.500    1.250    3.375    0.000    1.500 
#    0.000    0.000    0.000   31.500   39.000    0.000 
#    0.000    0.000    0.000    0.000    0.000    0.000 
#
# Total GULP energy -356388.038431 kJ/mol
# GULP energy per Si atom -5568.563100 kJ/mol
# Density = 2.001975 g / cm^3
# Si number density = 20.065424 Si / 1000 Ang^3
#
#
#
# Elastic Constant Matrix: (Units=GPa)
#
#
# Indices 1 2 3 4 5 6 
#
# 1 58.6593 31.3281 28.4741 0.0000 0.0000 0.0000
# 2 31.3281 108.6732 39.5132 0.0000 0.0000 0.0000
# 3 28.4741 39.5132 78.7992 0.0000 0.0000 0.0000
# 4 0.0000 0.0000 0.0000 15.3846 0.0000 0.0000
# 5 0.0000 0.0000 0.0000 0.0000 20.5834 0.0000
# 6 0.0000 0.0000 0.0000 0.0000 0.0000 37.4914
#
#
#
# Elastic Compliance Matrix: (Units=1/GPa)
#
#
# Indices 1 2 3 4 5 6 
#
# 1 0.022174 -0.004255 -0.005879 0.000000 0.000000 0.000000
# 2 -0.004255 0.012070 -0.004515 0.000000 0.000000 0.000000
# 3 -0.005879 -0.004515 0.017079 0.000000 0.000000 0.000000
# 4 0.000000 0.000000 0.000000 0.065000 0.000000 0.000000
# 5 0.000000 0.000000 0.000000 0.000000 0.048583 0.000000
# 6 0.000000 0.000000 0.000000 0.000000 0.000000 0.026673
#
#
# Mechanical properties :
#
#
# Convention : Reuss Voigt Hill
#
# Bulk Modulus (GPa) = 45.40236 49.41807 47.41022
# Shear Modulus (GPa) = 21.90893 24.47961 23.19427
#
# Velocity S-wave (km/s) = 3.30794 3.49662 3.40359
# Velocity P-wave (km/s) = 6.10461 6.40186 6.25500
#
# Compressibility (1/GPa) = 0.02202529
#
# Stress axis : x y z
#
# Youngs Moduli (GPa) = 45.09871 82.84960 58.55179
#
# Poissons Ratio (x) = 0.35249 0.34423
# Poissons Ratio (y) = 0.19188 0.26436
# Poissons Ratio (z) = 0.26514 0.37407
#
# Static dielectric constant tensor:
#      x y z
#    x 1.761670 0.000000 0.000000 
#    y 0.000000 1.761310 0.000000 
#    z 0.000000 0.000000 1.726170 
# 
# From -- ./inp_files/25109.got.cif
#   From: 2010.05.17/outbox.cif.g08.bks.cpg/sg52_13_cif.got.tgz:25109.got - 2010.06.03 12:15:38.
