data_PCOD9408435
_publ_section_title
;
Structure prediction by ZEFSAII (Michael W. Deem and Ramdas Pophale) SiO2 
 PCOD9408435
Probable space group: P N N A
;
_chemical_formula_sum "Si O2"
_cell_formula_units_Z 36
_cell_length_a 19.374295
_cell_length_b 7.139166
_cell_length_c 9.806487
_cell_angle_alpha 90.000000
_cell_angle_beta 90.000000
_cell_angle_gamma 90.000000
_cell_volume 1356.397078
_symmetry_space_group_name_H-M "P N N A"
_symmetry_group_IT_number 52
_symmetry_cell_setting 'orthorhombic'
loop_
_space_group_symop_operation_xyz
x,y,z
1/2-x,-y,z
x,1/2-y,1/2-z
1/2-x,1/2+y,1/2-z
-x,-y,-z
1/2+x,y,-z
-x,1/2+y,1/2+z
1/2+x,1/2-y,1/2+z
loop_
_atom_site_type_symbol
_atom_site_label
_atom_site_fract_x
_atom_site_fract_y
_atom_site_fract_z
Si Si1 0.633872 0.539439 0.231140
Si Si2 0.355366 0.087149 0.445632
Si Si3 0.628741 0.033711 0.969652
Si Si4 0.475642 0.477344 0.240844
Si Si5 0.750000 0.000000 0.784287
O O1 0.662445 0.750000 0.250000
O O2 0.637293 0.421434 0.370560
O O3 0.551167 0.551308 0.210398
O O4 0.664330 0.484323 0.084854
O O5 0.369134 0.305783 0.473159
O O6 0.422543 0.989951 0.381793
O O7 0.301365 0.090881 0.324267
O O8 0.559658 0.062142 0.878497
O O9 0.695403 0.101816 0.884674
O O10 0.480179 0.250000 0.250000
#
# Coordination Sequence:
#
# PCOD9408435 Si02
#       5
#     8   8   8   8   4
#     4  10  19  33  53  78 106 135 170 211 262 313
#     4   9  19  34  52  73 102 138 171 214 263 305
#     4   9  19  34  52  73 102 138 171 214 263 305
#     4   9  17  33  53  76 107 136 166 206 258 312
#     4  10  18  34  52  66  94 136 178 208 252 310
#
# _framework density 26.540901999999999
#
# number of rings (size 3 to 8) (size 9 to 14) (size 15 to 20)
#    0.000    2.667    0.000    3.333    0.000    0.889 
#    0.000   13.333    0.000    0.000    0.000    0.000 
#    0.000    0.000    0.000    0.000    0.000    0.000 
#
# Total GULP energy -201082.569703 kJ/mol
# GULP energy per Si atom -5585.626936 kJ/mol
# Density = 2.648049 g / cm^3
# Si number density = 26.540902 Si / 1000 Ang^3
#
#
#
# Elastic Constant Matrix: (Units=GPa)
#
#
# Indices 1 2 3 4 5 6 
#
# 1 87.8523 -9.0363 51.6287 0.0000 0.0000 0.0000
# 2 -9.0363 98.6033 7.1917 0.0000 0.0000 0.0000
# 3 51.6287 7.1917 258.1262 0.0000 0.0000 0.0000
# 4 0.0000 0.0000 0.0000 -1.3488 0.0000 0.0000
# 5 0.0000 0.0000 0.0000 0.0000 -59.6748 0.0000
# 6 0.0000 0.0000 0.0000 0.0000 0.0000 20.1005
#
#
#
# Elastic Compliance Matrix: (Units=1/GPa)
#
#
# Indices 1 2 3 4 5 6 
#
# 1 0.013087 0.001393 -0.002656 0.000000 0.000000 0.000000
# 2 0.001393 0.010311 -0.000566 0.000000 0.000000 0.000000
# 3 -0.002656 -0.000566 0.004421 0.000000 0.000000 0.000000
# 4 0.000000 0.000000 0.000000 -0.741415 0.000000 0.000000
# 5 0.000000 0.000000 0.000000 0.000000 -0.016757 0.000000
# 6 0.000000 0.000000 0.000000 0.000000 0.000000 0.049750
#
#
# Mechanical properties :
#
#
# Convention : Reuss Voigt Hill
#
# Bulk Modulus (GPa) = 41.38995 60.46109 50.92552
# Shear Modulus (GPa) = -7.47505 18.13522 5.33009
#
# Velocity S-wave (km/s) = -1.68004 2.61682 1.41867
# Velocity P-wave (km/s) = 3.44460 5.65333 4.68110
#
# Compressibility (1/GPa) = 0.02416046
#
# Stress axis : x y z
#
# Youngs Moduli (GPa) = 76.41082 96.98766 226.18497
#
# Poissons Ratio (x) = -0.13511 0.60084
# Poissons Ratio (y) = -0.10645 0.12800
# Poissons Ratio (z) = 0.20298 0.05489
#
# Static dielectric constant tensor:
#      x y z
#    x 2.016840 0.000000 0.000000 
#    y 0.000000 2.147990 0.000000 
#    z 0.000000 0.000000 2.136790 
# 
# From -- ./inp_files/13064.got.cif
#   From: 2010.05.17/outbox.cif.g08.bks.cpg/sg52_7_cif.got.tgz:13064.got - 2010.06.03 12:15:38.
