data_PCOD9408092
_publ_section_title
;
Structure prediction by ZEFSAII (Michael W. Deem and Ramdas Pophale) SiO2 
 PCOD9408092
Probable space group: P N N A
;
_chemical_formula_sum "Si O2"
_cell_formula_units_Z 48
_cell_length_a 32.637331
_cell_length_b 8.375511
_cell_length_c 8.202295
_cell_angle_alpha 90.000000
_cell_angle_beta 90.000000
_cell_angle_gamma 90.000000
_cell_volume 2242.132812
_symmetry_space_group_name_H-M "P N N A"
_symmetry_group_IT_number 52
_symmetry_cell_setting 'orthorhombic'
loop_
_space_group_symop_operation_xyz
x,y,z
1/2-x,-y,z
x,1/2-y,1/2-z
1/2-x,1/2+y,1/2-z
-x,-y,-z
1/2+x,y,-z
-x,1/2+y,1/2+z
1/2+x,1/2-y,1/2+z
loop_
_atom_site_type_symbol
_atom_site_label
_atom_site_fract_x
_atom_site_fract_y
_atom_site_fract_z
Si Si1 0.191646 0.329337 0.995034
Si Si2 0.940081 0.818025 0.978907
Si Si3 0.512695 0.750000 0.250000
Si Si4 0.572846 0.491130 0.188944
Si Si5 0.732352 0.679015 0.427654
Si Si6 0.869939 0.750000 0.750000
Si Si7 0.334951 0.997502 0.808053
O O1 0.238461 0.286378 0.040935
O O2 0.171689 0.169037 0.908117
O O3 0.190263 0.467564 0.859920
O O4 0.161005 0.357664 0.143645
O O5 0.900898 0.851032 0.863897
O O6 0.981014 0.830336 0.874602
O O7 0.930856 0.639718 0.047475
O O8 0.943658 0.919952 0.141067
O O9 0.543434 0.637204 0.150710
O O10 0.619637 0.523953 0.240452
O O11 0.750000 0.500000 0.444920
O O12 0.742780 0.750000 0.250000
O O13 0.684045 0.640465 0.415791
#
# Coordination Sequence:
#
# PCOD9408092 Si02
#       7
#     8   8   4   8   8   4   8
#     4  10  17  33  55  84 105 151 193 229 275 344
#     4  10  21  38  60  83 118 153 196 237 283 353
#     4  11  24  34  58  98 114 146 184 256 308 329
#     4  11  20  39  59  86 115 155 196 235 285 357
#     4  10  18  31  56  81 109 139 184 245 276 329
#     4  11  18  32  60  86 108 150 206 232 266 343
#     4  10  18  33  57  80 107 143 200 231 279 334
#
# _framework density 21.408186000000001
#
# number of rings (size 3 to 8) (size 9 to 14) (size 15 to 20)
#    0.000    1.667    6.667    2.000    1.167    0.000 
#    0.000    0.000   11.000    0.000    8.667    0.000 
#    0.000    0.000    0.000    0.000    0.000    0.000 
#
# Total GULP energy -267299.609142 kJ/mol
# GULP energy per Si atom -5568.741857 kJ/mol
# Density = 2.135946 g / cm^3
# Si number density = 21.408186 Si / 1000 Ang^3
#
#
#
# Elastic Constant Matrix: (Units=GPa)
#
#
# Indices 1 2 3 4 5 6 
#
# 1 139.2666 25.6490 6.7192 0.0000 0.0000 0.0000
# 2 25.6490 29.9720 -2.2499 0.0000 0.0000 0.0000
# 3 6.7192 -2.2499 49.6334 0.0000 0.0000 0.0000
# 4 0.0000 0.0000 0.0000 8.1221 0.0000 0.0000
# 5 0.0000 0.0000 0.0000 0.0000 20.0877 0.0000
# 6 0.0000 0.0000 0.0000 0.0000 0.0000 14.1976
#
#
#
# Elastic Compliance Matrix: (Units=1/GPa)
#
#
# Indices 1 2 3 4 5 6 
#
# 1 0.008635 -0.007503 -0.001509 0.000000 0.000000 0.000000
# 2 -0.007503 0.039998 0.002829 0.000000 0.000000 0.000000
# 3 -0.001509 0.002829 0.020480 0.000000 0.000000 0.000000
# 4 0.000000 0.000000 0.000000 0.123121 0.000000 0.000000
# 5 0.000000 0.000000 0.000000 0.000000 0.049782 0.000000
# 6 0.000000 0.000000 0.000000 0.000000 0.000000 0.070434
#
#
# Mechanical properties :
#
#
# Convention : Reuss Voigt Hill
#
# Bulk Modulus (GPa) = 17.62221 31.01206 24.31714
# Shear Modulus (GPa) = 14.54623 21.06506 17.80565
#
# Velocity S-wave (km/s) = 2.60949 3.14024 2.88709
# Velocity P-wave (km/s) = 4.16277 5.25981 4.74312
#
# Compressibility (1/GPa) = 0.05674656
#
# Stress axis : x y z
#
# Youngs Moduli (GPa) = 115.80638 25.00155 48.82749
#
# Poissons Ratio (x) = 0.18758 0.07369
# Poissons Ratio (y) = 0.86888 -0.13813
# Poissons Ratio (z) = 0.17476 -0.07073
#
# Static dielectric constant tensor:
#      x y z
#    x 1.837320 0.000000 0.000000 
#    y 0.000000 1.840360 0.000000 
#    z 0.000000 0.000000 1.802630 
# 
# From -- ./inp_files/15605.got.cif
#   From: 2010.05.17/outbox.cif.g08.bks.cpg/sg52_8_cif.got.tgz:15605.got - 2010.06.03 12:15:38.
