data_PCOD9408821
_publ_section_title
;
Structure prediction by ZEFSAII (Michael W. Deem and Ramdas Pophale) SiO2 
 PCOD9408821
Probable space group: P N N A
;
_chemical_formula_sum "Si O2"
_cell_formula_units_Z 56
_cell_length_a 29.164341
_cell_length_b 5.580991
_cell_length_c 14.513510
_cell_angle_alpha 90.000000
_cell_angle_beta 90.000000
_cell_angle_gamma 90.000000
_cell_volume 2362.304875
_symmetry_space_group_name_H-M "P N N A"
_symmetry_group_IT_number 52
_symmetry_cell_setting 'orthorhombic'
loop_
_space_group_symop_operation_xyz
x,y,z
1/2-x,-y,z
x,1/2-y,1/2-z
1/2-x,1/2+y,1/2-z
-x,-y,-z
1/2+x,y,-z
-x,1/2+y,1/2+z
1/2+x,1/2-y,1/2+z
loop_
_atom_site_type_symbol
_atom_site_label
_atom_site_fract_x
_atom_site_fract_y
_atom_site_fract_z
Si Si1 0.399458 0.250001 0.350431
Si Si2 0.353156 0.250000 0.643127
Si Si3 0.350444 0.750000 0.642577
Si Si4 0.872586 0.749999 0.946448
Si Si5 0.956727 0.250000 0.409256
Si Si6 0.222511 0.250000 0.356443
Si Si7 0.502397 0.250001 0.112823
O O1 0.376038 0.250000 0.250000
O O2 0.388775 0.501594 0.400750
O O3 0.453565 0.249998 0.340133
O O4 0.388774 0.998410 0.400751
O O5 0.367471 0.250000 0.750000
O O6 0.326255 0.495464 0.628684
O O7 0.401283 0.250001 0.588493
O O8 0.326255 0.004536 0.628684
O O9 0.366785 0.750000 0.750000
O O10 0.384723 0.750000 0.554841
O O11 0.818412 0.750001 0.928988
O O12 0.985513 0.250000 0.505117
O O13 0.971596 0.502887 0.365122
O O14 0.971596 0.997113 0.365122
O O15 0.250000 0.500000 0.366665
O O16 0.204732 0.250000 0.250000
O O17 0.250000 0.000000 0.366665
#
# Coordination Sequence:
#
# PCOD9408821 Si02
#       7
#     8   8   8   8   8   8   8
#     4  12  25  39  57  86 120 155 197 236 287 356
#     4  10  20  34  54  79 107 140 188 248 296 339
#     4  10  21  37  59  88 116 147 195 248 293 340
#     4  12  23  40  65  87 119 159 189 231 289 340
#     4  10  19  33  50  71  99 143 193 237 296 346
#     4  10  21  38  61  90 121 151 188 228 267 325
#     4  10  21  33  49  71 104 143 186 242 289 340
#
# _framework density 23.705660999999999
#
# number of rings (size 3 to 8) (size 9 to 14) (size 15 to 20)
#    0.000    1.429    0.000    6.429    0.000    4.571 
#    0.000    0.000    0.000    0.857    0.000    0.000 
#    0.000    0.000    0.000    0.000    0.000    0.000 
#
# Total GULP energy -312131.084664 kJ/mol
# GULP energy per Si atom -5573.769369 kJ/mol
# Density = 2.365171 g / cm^3
# Si number density = 23.705661 Si / 1000 Ang^3
#
#
#
# Elastic Constant Matrix: (Units=GPa)
#
#
# Indices 1 2 3 4 5 6 
#
# 1 50.5007 27.5047 8.5622 0.0000 0.0000 0.0000
# 2 27.5047 278.7217 64.6493 0.0000 0.0000 0.0000
# 3 8.5622 64.6493 130.2066 0.0000 0.0000 0.0000
# 4 0.0000 0.0000 0.0000 4.4982 0.0000 0.0000
# 5 0.0000 0.0000 0.0000 0.0000 18.7625 0.0000
# 6 0.0000 0.0000 0.0000 0.0000 0.0000 14.8348
#
#
#
# Elastic Compliance Matrix: (Units=1/GPa)
#
#
# Indices 1 2 3 4 5 6 
#
# 1 0.020945 -0.001975 -0.000397 0.000000 0.000000 0.000000
# 2 -0.001975 0.004241 -0.001976 0.000000 0.000000 0.000000
# 3 -0.000397 -0.001976 0.008687 0.000000 0.000000 0.000000
# 4 0.000000 0.000000 0.000000 0.222311 0.000000 0.000000
# 5 0.000000 0.000000 0.000000 0.000000 0.053298 0.000000
# 6 0.000000 0.000000 0.000000 0.000000 0.000000 0.067409
#
#
# Mechanical properties :
#
#
# Convention : Reuss Voigt Hill
#
# Bulk Modulus (GPa) = 39.71738 73.42904 56.57321
# Shear Modulus (GPa) = 12.69107 31.53329 22.11218
#
# Velocity S-wave (km/s) = 2.31630 3.65115 3.05746
# Velocity P-wave (km/s) = 4.89330 6.98692 6.03164
#
# Compressibility (1/GPa) = 0.02517789
#
# Stress axis : x y z
#
# Youngs Moduli (GPa) = 47.74519 235.79450 115.11156
#
# Poissons Ratio (x) = 0.46565 0.04567
# Poissons Ratio (y) = 0.09429 0.22744
# Poissons Ratio (z) = 0.01894 0.46589
#
# Static dielectric constant tensor:
#      x y z
#    x 1.812800 0.000000 0.000000 
#    y 0.000000 1.985360 0.000000 
#    z 0.000000 0.000000 2.055130 
# 
# From -- ./inp_files/29677.got.cif
#   From: 2010.05.17/outbox.cif.g08.bks.cpg/sg52_15_cif.got.tgz:29677.got - 2010.06.03 12:15:38.
