data_PCOD9408187
_publ_section_title
;
Structure prediction by ZEFSAII (Michael W. Deem and Ramdas Pophale) SiO2 
 PCOD9408187
Probable space group: P N N A
;
_chemical_formula_sum "Si O2"
_cell_formula_units_Z 24
_cell_length_a 5.764370
_cell_length_b 7.455249
_cell_length_c 24.550692
_cell_angle_alpha 90.000000
_cell_angle_beta 90.000000
_cell_angle_gamma 90.000000
_cell_volume 1055.061414
_symmetry_space_group_name_H-M "P N N A"
_symmetry_group_IT_number 52
_symmetry_cell_setting 'orthorhombic'
loop_
_space_group_symop_operation_xyz
x,y,z
1/2-x,-y,z
x,1/2-y,1/2-z
1/2-x,1/2+y,1/2-z
-x,-y,-z
1/2+x,y,-z
-x,1/2+y,1/2+z
1/2+x,1/2-y,1/2+z
loop_
_atom_site_type_symbol
_atom_site_label
_atom_site_fract_x
_atom_site_fract_y
_atom_site_fract_z
Si Si1 0.878444 0.750000 0.750000
Si Si2 0.250000 0.500000 0.794722
Si Si3 0.523706 0.712107 0.980640
Si Si4 0.390405 0.187853 0.356250
O O1 0.456799 0.419774 0.760135
O O2 0.737402 0.719856 0.694415
O O3 0.352772 0.651373 0.833653
O O4 0.586339 0.750055 0.917646
O O5 0.500000 0.500000 0.000000
O O6 0.759466 0.779625 0.010167
O O7 0.250000 0.000000 0.361476
#
# Coordination Sequence:
#
# PCOD9408187 Si02
#       4
#     4   4   8   8
#     4  10  22  34  54  82 114 162 194 244 292 358
#     4  10  20  36  54  78 116 154 196 242 300 352
#     4  10  18  29  49  80 111 146 184 244 309 349
#     4  10  19  32  51  78 115 147 196 242 298 359
#
# _framework density 22.747492999999999
#
# number of rings (size 3 to 8) (size 9 to 14) (size 15 to 20)
#    0.000    2.000    3.333    3.000    4.667    0.000 
#    0.000    0.000    0.000    0.000    0.000    2.333 
#    0.000    0.000    0.000    0.000    0.000    0.000 
#
# Total GULP energy -133700.121744 kJ/mol
# GULP energy per Si atom -5570.838406 kJ/mol
# Density = 2.269572 g / cm^3
# Si number density = 22.747493 Si / 1000 Ang^3
#
#
#
# Elastic Constant Matrix: (Units=GPa)
#
#
# Indices 1 2 3 4 5 6 
#
# 1 158.7097 4.3549 76.0607 0.0000 0.0000 0.0000
# 2 4.3549 24.9537 16.2571 0.0000 0.0000 0.0000
# 3 76.0607 16.2571 212.9082 0.0000 0.0000 0.0000
# 4 0.0000 0.0000 0.0000 16.8800 0.0000 0.0000
# 5 0.0000 0.0000 0.0000 0.0000 20.4277 0.0000
# 6 0.0000 0.0000 0.0000 0.0000 0.0000 20.5424
#
#
#
# Elastic Compliance Matrix: (Units=1/GPa)
#
#
# Indices 1 2 3 4 5 6 
#
# 1 0.007608 0.000466 -0.002753 0.000000 0.000000 0.000000
# 2 0.000466 0.042201 -0.003389 0.000000 0.000000 0.000000
# 3 -0.002753 -0.003389 0.005939 0.000000 0.000000 0.000000
# 4 0.000000 0.000000 0.000000 0.059242 0.000000 0.000000
# 5 0.000000 0.000000 0.000000 0.000000 0.048953 0.000000
# 6 0.000000 0.000000 0.000000 0.000000 0.000000 0.048680
#
#
# Mechanical properties :
#
#
# Convention : Reuss Voigt Hill
#
# Bulk Modulus (GPa) = 22.52492 65.54633 44.03563
# Shear Modulus (GPa) = 20.94042 31.56329 26.25185
#
# Velocity S-wave (km/s) = 3.03736 3.72902 3.40082
# Velocity P-wave (km/s) = 4.71428 6.88608 5.90096
#
# Compressibility (1/GPa) = 0.04439527
#
# Stress axis : x y z
#
# Youngs Moduli (GPa) = 131.44829 23.69633 168.37128
#
# Poissons Ratio (x) = -0.01105 0.46359
# Poissons Ratio (y) = -0.06127 0.57059
# Poissons Ratio (z) = 0.36193 0.08030
#
# Static dielectric constant tensor:
#      x y z
#    x 1.923620 0.000000 0.000000 
#    y 0.000000 1.915710 0.000000 
#    z 0.000000 0.000000 1.867050 
# 
# From -- ./inp_files/34719.got.cif
#   From: 2010.05.17/outbox.cif.g08.bks.cpg/sg52_18_cif.got.tgz:34719.got - 2010.06.03 12:15:38.
