data_PCOD9408722
_publ_section_title
;
Structure prediction by ZEFSAII (Michael W. Deem and Ramdas Pophale) SiO2 
 PCOD9408722
Probable space group: P N N A
;
_chemical_formula_sum "Si O2"
_cell_formula_units_Z 40
_cell_length_a 5.356066
_cell_length_b 11.180219
_cell_length_c 33.559963
_cell_angle_alpha 90.000000
_cell_angle_beta 90.000000
_cell_angle_gamma 90.000000
_cell_volume 2009.637398
_symmetry_space_group_name_H-M "P N N A"
_symmetry_group_IT_number 52
_symmetry_cell_setting 'orthorhombic'
loop_
_space_group_symop_operation_xyz
x,y,z
1/2-x,-y,z
x,1/2-y,1/2-z
1/2-x,1/2+y,1/2-z
-x,-y,-z
1/2+x,y,-z
-x,1/2+y,1/2+z
1/2+x,1/2-y,1/2+z
loop_
_atom_site_type_symbol
_atom_site_label
_atom_site_fract_x
_atom_site_fract_y
_atom_site_fract_z
Si Si1 0.698950 0.283031 0.588036
Si Si2 0.742484 0.638394 0.219694
Si Si3 0.256927 0.136646 0.333064
Si Si4 0.164748 0.346015 0.012000
Si Si5 0.182331 0.130294 0.950593
O O1 0.726070 0.233860 0.632245
O O2 0.738811 0.172835 0.557447
O O3 0.422206 0.328667 0.575906
O O4 0.929158 0.368858 0.575683
O O5 0.750000 0.500000 0.236128
O O6 0.756846 0.750000 0.250000
O O7 0.479928 0.647954 0.196346
O O8 0.981010 0.649515 0.190243
O O9 0.250000 0.000000 0.349158
O O10 0.394206 0.400118 0.989067
O O11 0.138238 0.219699 0.987614
O O12 0.250000 0.000000 0.966049
#
# Coordination Sequence:
#
# PCOD9408722 Si02
#       5
#     8   8   8   8   8
#     4  10  19  32  50  74 104 136 179 224 260 314
#     4  10  21  40  65  89 114 146 182 220 270 334
#     4  10  21  38  60  82 107 143 180 220 275 331
#     4   8  16  27  44  66  96 135 179 220 259 306
#     4  10  19  31  48  71 105 148 185 220 270 325
#
# _framework density 19.904087000000001
#
# number of rings (size 3 to 8) (size 9 to 14) (size 15 to 20)
#    0.000    2.400    0.000    2.400    0.000    7.200 
#    0.000    6.000    0.000   10.800    0.000    0.000 
#    0.000    0.000    0.000    0.000    0.000    0.000 
#
# Total GULP energy -222807.217602 kJ/mol
# GULP energy per Si atom -5570.180440 kJ/mol
# Density = 1.985878 g / cm^3
# Si number density = 19.904087 Si / 1000 Ang^3
#
#
#
# Elastic Constant Matrix: (Units=GPa)
#
#
# Indices 1 2 3 4 5 6 
#
# 1 133.8313 18.2545 12.9687 0.0000 0.0000 0.0000
# 2 18.2545 102.0859 40.2081 0.0000 0.0000 0.0000
# 3 12.9687 40.2081 55.9637 0.0000 0.0000 0.0000
# 4 0.0000 0.0000 0.0000 32.2512 0.0000 0.0000
# 5 0.0000 0.0000 0.0000 0.0000 23.6116 0.0000
# 6 0.0000 0.0000 0.0000 0.0000 0.0000 29.5602
#
#
#
# Elastic Compliance Matrix: (Units=1/GPa)
#
#
# Indices 1 2 3 4 5 6 
#
# 1 0.007708 -0.000941 -0.001110 0.000000 0.000000 0.000000
# 2 -0.000941 0.013777 -0.009680 0.000000 0.000000 0.000000
# 3 -0.001110 -0.009680 0.025081 0.000000 0.000000 0.000000
# 4 0.000000 0.000000 0.000000 0.031007 0.000000 0.000000
# 5 0.000000 0.000000 0.000000 0.000000 0.042352 0.000000
# 6 0.000000 0.000000 0.000000 0.000000 0.000000 0.033829
#
#
# Mechanical properties :
#
#
# Convention : Reuss Voigt Hill
#
# Bulk Modulus (GPa) = 43.28428 48.30485 45.79457
# Shear Modulus (GPa) = 27.03925 31.78123 29.41024
#
# Velocity S-wave (km/s) = 3.68975 4.00023 3.84812
# Velocity P-wave (km/s) = 6.32028 6.75702 6.54230
#
# Compressibility (1/GPa) = 0.02310308
#
# Stress axis : x y z
#
# Youngs Moduli (GPa) = 129.73489 72.58714 39.87135
#
# Poissons Ratio (x) = 0.06831 0.04426
# Poissons Ratio (y) = 0.12209 0.38595
# Poissons Ratio (z) = 0.14401 0.70264
#
# Static dielectric constant tensor:
#      x y z
#    x 1.748550 0.000000 0.000000 
#    y 0.000000 1.936970 0.000000 
#    z 0.000000 0.000000 1.656300 
# 
# From -- ./inp_files/41482.got.cif
#   From: 2010.05.17/outbox.cif.g08.bks.cpg/sg52_21_cif.got.tgz:41482.got - 2010.06.03 12:15:38.
