data_PCOD9408614
_publ_section_title
;
Structure prediction by ZEFSAII (Michael W. Deem and Ramdas Pophale) SiO2 
 PCOD9408614
Probable space group: P N N A
;
_chemical_formula_sum "Si O2"
_cell_formula_units_Z 52
_cell_length_a 17.903357
_cell_length_b 11.300428
_cell_length_c 14.535260
_cell_angle_alpha 90.000000
_cell_angle_beta 90.000000
_cell_angle_gamma 90.000000
_cell_volume 2940.709801
_symmetry_space_group_name_H-M "P N N A"
_symmetry_group_IT_number 52
_symmetry_cell_setting 'orthorhombic'
loop_
_space_group_symop_operation_xyz
x,y,z
1/2-x,-y,z
x,1/2-y,1/2-z
1/2-x,1/2+y,1/2-z
-x,-y,-z
1/2+x,y,-z
-x,1/2+y,1/2+z
1/2+x,1/2-y,1/2+z
loop_
_atom_site_type_symbol
_atom_site_label
_atom_site_fract_x
_atom_site_fract_y
_atom_site_fract_z
Si Si1 0.356180 0.207877 0.146973
Si Si2 0.722341 0.633122 0.005654
Si Si3 0.125161 0.766408 0.858289
Si Si4 0.514268 0.860084 0.993228
Si Si5 0.653277 0.170533 0.033724
Si Si6 0.250000 0.000000 0.094703
Si Si7 0.765779 0.876976 0.201368
O O1 0.371549 0.250000 0.250000
O O2 0.298575 0.097247 0.148531
O O3 0.316980 0.309519 0.084214
O O4 0.430488 0.169590 0.091372
O O5 0.750000 0.500000 0.994961
O O6 0.662884 0.654909 0.089001
O O7 0.794972 0.713591 0.026596
O O8 0.109018 0.750000 0.750000
O O9 0.056285 0.812491 0.916464
O O10 0.192482 0.862107 0.863100
O O11 0.432426 0.804170 0.985671
O O12 0.500000 0.000000 0.000000
O O13 0.662636 0.120186 0.136749
O O14 0.690844 0.073780 0.966753
O O15 0.768433 0.750000 0.250000
O O16 0.750000 0.000000 0.253285
#
# Coordination Sequence:
#
# PCOD9408614 Si02
#       7
#     8   8   8   8   8   4   8
#     4  10  22  37  60  89 120 153 202 251 293 354
#     4   9  20  39  61  84 116 156 198 246 297 344
#     4   9  20  36  56  82 117 153 192 234 290 361
#     4  11  20  37  59  85 120 155 190 245 303 352
#     4  10  19  34  61  82 110 154 200 234 296 357
#     4  10  18  38  60  82 106 156 208 246 278 348
#     4  10  19  32  54  84 111 145 194 243 285 345
#
# _framework density 17.682805999999999
#
# number of rings (size 3 to 8) (size 9 to 14) (size 15 to 20)
#    0.000    2.154    2.308    1.846    1.077    6.154 
#    0.000    9.231    0.000    0.000    0.000    0.000 
#    0.000    0.000    0.000    0.000    0.000    0.000 
#
# Total GULP energy -289657.760407 kJ/mol
# GULP energy per Si atom -5570.341546 kJ/mol
# Density = 1.764256 g / cm^3
# Si number density = 17.682806 Si / 1000 Ang^3
#
#
#
# Elastic Constant Matrix: (Units=GPa)
#
#
# Indices 1 2 3 4 5 6 
#
# 1 138.9084 40.0695 61.4944 0.0000 0.0000 0.0000
# 2 40.0695 134.5399 49.9016 0.0000 0.0000 0.0000
# 3 61.4944 49.9016 130.3117 0.0000 0.0000 0.0000
# 4 0.0000 0.0000 0.0000 18.7175 0.0000 0.0000
# 5 0.0000 0.0000 0.0000 0.0000 21.9434 0.0000
# 6 0.0000 0.0000 0.0000 0.0000 0.0000 21.6461
#
#
#
# Elastic Compliance Matrix: (Units=1/GPa)
#
#
# Indices 1 2 3 4 5 6 
#
# 1 0.009300 -0.001331 -0.003879 0.000000 0.000000 0.000000
# 2 -0.001331 0.008854 -0.002762 0.000000 0.000000 0.000000
# 3 -0.003879 -0.002762 0.010562 0.000000 0.000000 0.000000
# 4 0.000000 0.000000 0.000000 0.053426 0.000000 0.000000
# 5 0.000000 0.000000 0.000000 0.000000 0.045572 0.000000
# 6 0.000000 0.000000 0.000000 0.000000 0.000000 0.046198
#
#
# Mechanical properties :
#
#
# Convention : Reuss Voigt Hill
#
# Bulk Modulus (GPa) = 78.30073 78.52122 78.41097
# Shear Modulus (GPa) = 25.75808 29.28102 27.51955
#
# Velocity S-wave (km/s) = 3.82078 4.07369 3.94926
# Velocity P-wave (km/s) = 7.99008 8.16263 8.07681
#
# Compressibility (1/GPa) = 0.01277127
#
# Stress axis : x y z
#
# Youngs Moduli (GPa) = 107.52447 112.94689 94.67684
#
# Poissons Ratio (x) = 0.15034 0.36726
# Poissons Ratio (y) = 0.14312 0.26153
# Poissons Ratio (z) = 0.41709 0.31199
#
# Static dielectric constant tensor:
#      x y z
#    x 1.614400 0.000000 0.000000 
#    y 0.000000 1.643360 0.000000 
#    z 0.000000 0.000000 1.646630 
# 
# From -- ./inp_files/28229.got.cif
#   From: 2010.05.17/outbox.cif.g08.bks.cpg/sg52_15_cif.got.tgz:28229.got - 2010.06.03 12:15:38.
