data_PCOD9408824
_publ_section_title
;
Structure prediction by ZEFSAII (Michael W. Deem and Ramdas Pophale) SiO2 
 PCOD9408824
Probable space group: P N N A
;
_chemical_formula_sum "Si O2"
_cell_formula_units_Z 64
_cell_length_a 9.515630
_cell_length_b 22.027540
_cell_length_c 16.951201
_cell_angle_alpha 90.000000
_cell_angle_beta 90.000000
_cell_angle_gamma 90.000000
_cell_volume 3553.072088
_symmetry_space_group_name_H-M "P N N A"
_symmetry_group_IT_number 52
_symmetry_cell_setting 'orthorhombic'
loop_
_space_group_symop_operation_xyz
x,y,z
1/2-x,-y,z
x,1/2-y,1/2-z
1/2-x,1/2+y,1/2-z
-x,-y,-z
1/2+x,y,-z
-x,1/2+y,1/2+z
1/2+x,1/2-y,1/2+z
loop_
_atom_site_type_symbol
_atom_site_label
_atom_site_fract_x
_atom_site_fract_y
_atom_site_fract_z
Si Si1 0.849506 0.799800 0.682037
Si Si2 0.618211 0.761286 0.905232
Si Si3 0.063237 0.055234 0.948464
Si Si4 0.338855 0.701087 0.684173
Si Si5 0.951252 0.887388 0.813289
Si Si6 0.932157 0.224883 0.087191
Si Si7 0.763824 0.388249 0.575128
Si Si8 0.758560 0.562837 0.293525
O O1 0.820818 0.750000 0.750000
O O2 0.710488 0.795437 0.627001
O O3 0.894609 0.858260 0.732466
O O4 0.985889 0.777575 0.633820
O O5 0.493011 0.781077 0.847002
O O6 0.727380 0.816919 0.908545
O O7 0.561194 0.759857 0.994784
O O8 0.145454 0.042294 0.868062
O O9 0.925000 0.093543 0.931158
O O10 0.178528 0.092153 0.998333
O O11 0.000000 0.000000 0.000000
O O12 0.297868 0.750000 0.750000
O O13 0.228772 0.713565 0.613447
O O14 0.321433 0.632124 0.717959
O O15 0.820690 0.920338 0.854371
O O16 0.997594 0.836710 0.878784
O O17 0.094279 0.922874 0.803750
O O18 0.750000 0.500000 0.242365
#
# Coordination Sequence:
#
# PCOD9408824 Si02
#       8
#     8   8   8   8   8   8   8   8
#     4  10  19  35  52  74 108 148 188 239 304 357
#     4  12  21  32  53  81 110 143 198 241 296 350
#     4  12  24  36  51  77 115 163 210 247 278 326
#     4  11  23  37  57  81 114 152 198 248 297 346
#     4  10  21  36  56  75 111 156 199 242 299 348
#     4  10  19  33  51  76 109 147 186 235 291 354
#     4  12  21  33  50  71 105 152 203 243 281 326
#     4  11  22  39  57  81 114 157 207 250 287 356
#
# _framework density 18.012581000000001
#
# number of rings (size 3 to 8) (size 9 to 14) (size 15 to 20)
#    0.000    1.000    3.750    7.875    0.000    0.000 
#    0.000    0.000    0.000    0.000    0.000    0.000 
#    0.000   16.000    0.000    0.000    0.000    0.625 
#
# Total GULP energy -356331.907105 kJ/mol
# GULP energy per Si atom -5567.686049 kJ/mol
# Density = 1.797158 g / cm^3
# Si number density = 18.012581 Si / 1000 Ang^3
#
#
#
# Elastic Constant Matrix: (Units=GPa)
#
#
# Indices 1 2 3 4 5 6 
#
# 1 108.0844 21.1367 13.6057 0.0000 0.0000 0.0000
# 2 21.1367 69.0831 24.5415 0.0000 0.0000 0.0000
# 3 13.6057 24.5415 55.0714 0.0000 0.0000 0.0000
# 4 0.0000 0.0000 0.0000 22.2475 0.0000 0.0000
# 5 0.0000 0.0000 0.0000 0.0000 22.7364 0.0000
# 6 0.0000 0.0000 0.0000 0.0000 0.0000 18.2006
#
#
#
# Elastic Compliance Matrix: (Units=1/GPa)
#
#
# Indices 1 2 3 4 5 6 
#
# 1 0.009919 -0.002571 -0.001305 0.000000 0.000000 0.000000
# 2 -0.002571 0.017864 -0.007326 0.000000 0.000000 0.000000
# 3 -0.001305 -0.007326 0.021745 0.000000 0.000000 0.000000
# 4 0.000000 0.000000 0.000000 0.044949 0.000000 0.000000
# 5 0.000000 0.000000 0.000000 0.000000 0.043982 0.000000
# 6 0.000000 0.000000 0.000000 0.000000 0.000000 0.054943
#
#
# Mechanical properties :
#
#
# Convention : Reuss Voigt Hill
#
# Bulk Modulus (GPa) = 36.86605 38.97852 37.92228
# Shear Modulus (GPa) = 22.23722 24.16724 23.20223
#
# Velocity S-wave (km/s) = 3.51741 3.66688 3.59292
# Velocity P-wave (km/s) = 6.08338 6.29401 6.18959
#
# Compressibility (1/GPa) = 0.02712523
#
# Stress axis : x y z
#
# Youngs Moduli (GPa) = 100.81547 55.97700 45.98734
#
# Poissons Ratio (x) = 0.14394 0.06000
# Poissons Ratio (y) = 0.25923 0.33689
# Poissons Ratio (z) = 0.13153 0.41007
#
# Static dielectric constant tensor:
#      x y z
#    x 1.683420 0.000000 0.000000 
#    y 0.000000 1.724960 0.000000 
#    z 0.000000 0.000000 1.673170 
# 
# From -- ./inp_files/31614.got.cif
#   From: 2010.05.17/outbox.cif.g08.bks.cpg/sg52_16_cif.got.tgz:31614.got - 2010.06.03 12:15:38.
