data_PCOD9408642
_publ_section_title
;
Structure prediction by ZEFSAII (Michael W. Deem and Ramdas Pophale) SiO2 
 PCOD9408642
Probable space group: P N N A
;
_chemical_formula_sum "Si O2"
_cell_formula_units_Z 48
_cell_length_a 11.072805
_cell_length_b 9.119810
_cell_length_c 22.325506
_cell_angle_alpha 90.000000
_cell_angle_beta 90.000000
_cell_angle_gamma 90.000000
_cell_volume 2254.471518
_symmetry_space_group_name_H-M "P N N A"
_symmetry_group_IT_number 52
_symmetry_cell_setting 'orthorhombic'
loop_
_space_group_symop_operation_xyz
x,y,z
1/2-x,-y,z
x,1/2-y,1/2-z
1/2-x,1/2+y,1/2-z
-x,-y,-z
1/2+x,y,-z
-x,1/2+y,1/2+z
1/2+x,1/2-y,1/2+z
loop_
_atom_site_type_symbol
_atom_site_label
_atom_site_fract_x
_atom_site_fract_y
_atom_site_fract_z
Si Si1 0.571368 0.179768 0.813761
Si Si2 0.581884 0.383003 0.179956
Si Si3 0.645415 0.613553 0.969569
Si Si4 0.303664 0.332766 0.159080
Si Si5 0.957198 0.113306 0.411326
Si Si6 0.375906 0.568134 0.682530
O O1 0.528966 0.250000 0.750000
O O2 0.716388 0.207954 0.813421
O O3 0.531558 0.276799 0.870410
O O4 0.498036 0.028892 0.823364
O O5 0.436450 0.357575 0.186125
O O6 0.614130 0.518182 0.137578
O O7 0.632145 0.407555 0.245888
O O8 0.619967 0.227759 0.153183
O O9 0.750000 0.500000 0.986462
O O10 0.685041 0.705229 0.911759
O O11 0.541203 0.511354 0.941179
O O12 0.606553 0.686319 0.031722
O O13 0.250000 0.500000 0.162944
O O14 0.250000 0.500000 0.662035
#
# Coordination Sequence:
#
# PCOD9408642 Si02
#       6
#     8   8   8   8   8   8
#     4  12  22  37  65  97 133 167 208 270 339 386
#     4  10  22  41  58  87 129 170 211 261 320 387
#     4   9  17  33  59  94 121 161 212 272 298 367
#     4  10  18  39  64  96 130 155 215 276 322 380
#     4  10  19  35  62  92 122 163 217 259 320 376
#     4  11  26  40  56  87 135 174 212 255 317 408
#
# _framework density 21.29102
#
# number of rings (size 3 to 8) (size 9 to 14) (size 15 to 20)
#    0.000    1.667    6.667    0.000    4.667    2.667 
#    0.000    0.000    0.000    9.000    0.000    0.000 
#    0.000    0.000    0.000    0.000    0.000    0.000 
#
# Total GULP energy -267367.771668 kJ/mol
# GULP energy per Si atom -5570.161910 kJ/mol
# Density = 2.124256 g / cm^3
# Si number density = 21.291020 Si / 1000 Ang^3
#
#
#
# Elastic Constant Matrix: (Units=GPa)
#
#
# Indices 1 2 3 4 5 6 
#
# 1 61.9911 -3.2433 -17.2803 0.0000 0.0000 0.0000
# 2 -3.2433 36.2022 -20.0300 0.0000 0.0000 0.0000
# 3 -17.2803 -20.0300 76.3023 0.0000 0.0000 0.0000
# 4 0.0000 0.0000 0.0000 20.8957 0.0000 0.0000
# 5 0.0000 0.0000 0.0000 0.0000 33.4260 0.0000
# 6 0.0000 0.0000 0.0000 0.0000 0.0000 25.2295
#
#
#
# Elastic Compliance Matrix: (Units=1/GPa)
#
#
# Indices 1 2 3 4 5 6 
#
# 1 0.017818 0.004480 0.005211 0.000000 0.000000 0.000000
# 2 0.004480 0.033443 0.009793 0.000000 0.000000 0.000000
# 3 0.005211 0.009793 0.016857 0.000000 0.000000 0.000000
# 4 0.000000 0.000000 0.000000 0.047857 0.000000 0.000000
# 5 0.000000 0.000000 0.000000 0.000000 0.029917 0.000000
# 6 0.000000 0.000000 0.000000 0.000000 0.000000 0.039636
#
#
# Mechanical properties :
#
#
# Convention : Reuss Voigt Hill
#
# Bulk Modulus (GPa) = 9.33824 10.37649 9.85737
# Shear Modulus (GPa) = 27.43422 30.24686 28.84054
#
# Velocity S-wave (km/s) = 3.59351 3.77323 3.68446
# Velocity P-wave (km/s) = 4.64901 4.88541 4.76867
#
# Compressibility (1/GPa) = 0.10708655
#
# Stress axis : x y z
#
# Youngs Moduli (GPa) = 56.12183 29.90204 59.32313
#
# Poissons Ratio (x) = -0.13395 -0.30915
# Poissons Ratio (y) = -0.25141 -0.58098
# Poissons Ratio (z) = -0.29247 -0.29284
#
# Static dielectric constant tensor:
#      x y z
#    x 1.886650 0.000000 0.000000 
#    y 0.000000 1.855000 0.000000 
#    z 0.000000 0.000000 1.815340 
# 
# From -- ./inp_files/40132.got.cif
#   From: 2010.05.17/outbox.cif.g08.bks.cpg/sg52_21_cif.got.tgz:40132.got - 2010.06.03 12:15:38.
