data_PCOD9408969
_publ_section_title
;
Structure prediction by ZEFSAII (Michael W. Deem and Ramdas Pophale) SiO2 
 PCOD9408969
Probable space group: P N N A
;
_chemical_formula_sum "Si O2"
_cell_formula_units_Z 32
_cell_length_a 5.188080
_cell_length_b 19.047710
_cell_length_c 15.978732
_cell_angle_alpha 90.000000
_cell_angle_beta 90.000000
_cell_angle_gamma 90.000000
_cell_volume 1579.034967
_symmetry_space_group_name_H-M "P N N A"
_symmetry_group_IT_number 52
_symmetry_cell_setting 'orthorhombic'
loop_
_space_group_symop_operation_xyz
x,y,z
1/2-x,-y,z
x,1/2-y,1/2-z
1/2-x,1/2+y,1/2-z
-x,-y,-z
1/2+x,y,-z
-x,1/2+y,1/2+z
1/2+x,1/2-y,1/2+z
loop_
_atom_site_type_symbol
_atom_site_label
_atom_site_fract_x
_atom_site_fract_y
_atom_site_fract_z
Si Si1 0.743858 0.688695 0.951633
Si Si2 0.836280 0.579729 0.365497
Si Si3 0.445748 0.326926 0.233647
Si Si4 0.169587 0.345137 0.397880
O O1 0.646672 0.664481 0.860629
O O2 0.760650 0.773594 0.944409
O O3 0.528272 0.667182 0.019166
O O4 0.750000 0.500000 0.365144
O O5 0.879893 0.611296 0.272040
O O6 0.614903 0.626128 0.407862
O O7 0.109946 0.595744 0.409207
O O8 0.570566 0.250000 0.250000
O O9 0.207203 0.326791 0.298923
#
# Coordination Sequence:
#
# PCOD9408969 Si02
#       4
#     8   8   8   8
#     4  11  22  34  55  84 117 147 181 229 285 328
#     4  10  19  34  61  83 107 142 189 236 275 319
#     4   8  20  34  56  83 106 144 187 237 268 323
#     4   9  20  35  55  78 111 138 192 226 270 326
#
# _framework density 20.265542
#
# number of rings (size 3 to 8) (size 9 to 14) (size 15 to 20)
#    1.500    1.000    0.000    2.250    3.500    1.000 
#    0.000    0.000    0.000   16.500    0.000    0.000 
#    0.000    0.000    0.000    0.000    0.000    0.000 
#
# Total GULP energy -178269.727748 kJ/mol
# GULP energy per Si atom -5570.928992 kJ/mol
# Density = 2.021942 g / cm^3
# Si number density = 20.265542 Si / 1000 Ang^3
#
#
#
# Elastic Constant Matrix: (Units=GPa)
#
#
# Indices 1 2 3 4 5 6 
#
# 1 88.2318 -8.3635 14.1766 0.0000 0.0000 0.0000
# 2 -8.3635 28.7619 18.4780 0.0000 0.0000 0.0000
# 3 14.1766 18.4780 99.1498 0.0000 0.0000 0.0000
# 4 0.0000 0.0000 0.0000 14.6506 0.0000 0.0000
# 5 0.0000 0.0000 0.0000 0.0000 -1.5009 0.0000
# 6 0.0000 0.0000 0.0000 0.0000 0.0000 13.8627
#
#
#
# Elastic Compliance Matrix: (Units=1/GPa)
#
#
# Indices 1 2 3 4 5 6 
#
# 1 0.012282 0.005339 -0.002751 0.000000 0.000000 0.000000
# 2 0.005339 0.041818 -0.008557 0.000000 0.000000 0.000000
# 3 -0.002751 -0.008557 0.012074 0.000000 0.000000 0.000000
# 4 0.000000 0.000000 0.000000 0.068257 0.000000 0.000000
# 5 0.000000 0.000000 0.000000 0.000000 -0.666253 0.000000
# 6 0.000000 0.000000 0.000000 0.000000 0.000000 0.072136
#
#
# Mechanical properties :
#
#
# Convention : Reuss Voigt Hill
#
# Bulk Modulus (GPa) = 18.43811 29.41395 23.92603
# Shear Modulus (GPa) = -11.63683 18.19263 3.27790
#
# Velocity S-wave (km/s) = -2.39888 2.99944 1.27318
# Velocity P-wave (km/s) = 1.20215 5.15182 3.74075
#
# Compressibility (1/GPa) = 0.05423548
#
# Stress axis : x y z
#
# Youngs Moduli (GPa) = 81.42087 23.91328 82.82428
#
# Poissons Ratio (x) = -0.12767 0.22785
# Poissons Ratio (y) = -0.43469 0.70870
# Poissons Ratio (z) = 0.22399 0.20462
#
# Static dielectric constant tensor:
#      x y z
#    x 1.732700 0.000000 0.000000 
#    y 0.000000 1.702630 0.000000 
#    z 0.000000 0.000000 1.771680 
# 
# From -- ./inp_files/23541.got.cif
#   From: 2010.05.17/outbox.cif.g08.bks.cpg/sg52_12_cif.got.tgz:23541.got - 2010.06.03 12:15:38.
