data_PCOD9408888
_publ_section_title
;
Structure prediction by ZEFSAII (Michael W. Deem and Ramdas Pophale) SiO2 
 PCOD9408888
Probable space group: P N N A
;
_chemical_formula_sum "Si O2"
_cell_formula_units_Z 64
_cell_length_a 13.329798
_cell_length_b 31.253223
_cell_length_c 7.532920
_cell_angle_alpha 90.000000
_cell_angle_beta 90.000000
_cell_angle_gamma 90.000000
_cell_volume 3138.208065
_symmetry_space_group_name_H-M "P N N A"
_symmetry_group_IT_number 52
_symmetry_cell_setting 'orthorhombic'
loop_
_space_group_symop_operation_xyz
x,y,z
1/2-x,-y,z
x,1/2-y,1/2-z
1/2-x,1/2+y,1/2-z
-x,-y,-z
1/2+x,y,-z
-x,1/2+y,1/2+z
1/2+x,1/2-y,1/2+z
loop_
_atom_site_type_symbol
_atom_site_label
_atom_site_fract_x
_atom_site_fract_y
_atom_site_fract_z
Si Si1 0.879481 0.880088 0.699369
Si Si2 0.812066 0.834775 0.160702
Si Si3 0.213089 0.953072 0.250569
Si Si4 0.485911 0.157939 0.018117
Si Si5 0.287259 0.176739 0.458580
Si Si6 0.666132 0.733096 0.452196
Si Si7 0.331260 0.409668 0.582584
Si Si8 0.922392 0.096702 0.476364
O O1 0.806861 0.920257 0.736080
O O2 0.949093 0.859911 0.852349
O O3 0.800712 0.842554 0.658894
O O4 0.958778 0.896520 0.550525
O O5 0.763359 0.824699 0.348250
O O6 0.765193 0.797004 0.039763
O O7 0.768850 0.881155 0.106371
O O8 0.930900 0.835641 0.166324
O O9 0.124763 0.936331 0.381741
O O10 0.250000 0.000000 0.299575
O O11 0.181685 0.950343 0.042865
O O12 0.426291 0.201618 0.987913
O O13 0.402590 0.121481 0.034416
O O14 0.323808 0.224706 0.428499
O O15 0.376976 0.142777 0.469202
O O16 0.653807 0.750000 0.250000
O O17 0.377623 0.415157 0.779322
#
# Coordination Sequence:
#
# PCOD9408888 Si02
#       8
#     8   8   8   8   8   8   8   8
#     4  10  20  38  61  83 112 159 200 233 307 375
#     4   9  17  32  55  78 107 151 191 230 286 341
#     4  11  23  39  62  89 120 149 195 261 302 360
#     4  10  19  33  60  80 110 156 193 243 288 351
#     4   9  19  35  55  79 116 153 190 241 290 342
#     4   9  18  32  50  78 116 146 190 240 283 333
#     4   9  19  38  58  83 116 150 194 241 295 359
#     4   9  21  39  59  85 117 160 195 238 303 364
#
# _framework density 20.393803999999999
#
# number of rings (size 3 to 8) (size 9 to 14) (size 15 to 20)
#    0.000    2.500    1.250    2.250    1.750    3.000 
#    0.000    2.500    0.000    1.500    0.000    0.000 
#    0.000    0.000    0.000    0.000    0.000    0.000 
#
# Total GULP energy -356810.406541 kJ/mol
# GULP energy per Si atom -5575.162602 kJ/mol
# Density = 2.034739 g / cm^3
# Si number density = 20.393804 Si / 1000 Ang^3
#
#
#
# Elastic Constant Matrix: (Units=GPa)
#
#
# Indices 1 2 3 4 5 6 
#
# 1 74.7669 8.5725 21.6731 0.0000 0.0000 0.0000
# 2 8.5725 70.3925 20.5099 0.0000 0.0000 0.0000
# 3 21.6731 20.5099 54.0060 0.0000 0.0000 0.0000
# 4 0.0000 0.0000 0.0000 24.5391 0.0000 0.0000
# 5 0.0000 0.0000 0.0000 0.0000 19.8155 0.0000
# 6 0.0000 0.0000 0.0000 0.0000 0.0000 2.6414
#
#
#
# Elastic Compliance Matrix: (Units=1/GPa)
#
#
# Indices 1 2 3 4 5 6 
#
# 1 0.015136 -0.000083 -0.006043 0.000000 0.000000 0.000000
# 2 -0.000083 0.015974 -0.006033 0.000000 0.000000 0.000000
# 3 -0.006043 -0.006033 0.023233 0.000000 0.000000 0.000000
# 4 0.000000 0.000000 0.000000 0.040751 0.000000 0.000000
# 5 0.000000 0.000000 0.000000 0.000000 0.050466 0.000000
# 6 0.000000 0.000000 0.000000 0.000000 0.000000 0.378582
#
#
# Mechanical properties :
#
#
# Convention : Reuss Voigt Hill
#
# Bulk Modulus (GPa) = 33.30527 33.40849 33.35688
# Shear Modulus (GPa) = 8.95307 19.29321 14.12314
#
# Velocity S-wave (km/s) = 2.09753 3.07910 2.63443
# Velocity P-wave (km/s) = 4.71516 5.39059 5.06414
#
# Compressibility (1/GPa) = 0.03002528
#
# Stress axis : x y z
#
# Youngs Moduli (GPa) = 66.06745 62.60170 43.04266
#
# Poissons Ratio (x) = 0.00517 0.26010
# Poissons Ratio (y) = 0.00546 0.25969
# Poissons Ratio (z) = 0.39924 0.37770
#
# Static dielectric constant tensor:
#      x y z
#    x 1.727040 0.000000 0.000000 
#    y 0.000000 1.710740 0.000000 
#    z 0.000000 0.000000 1.843200 
# 
# From -- ./inp_files/9123.got.cif
#   From: 2010.05.17/outbox.cif.g08.bks.cpg/sg52_5_cif.got.tgz:9123.got - 2010.06.03 12:15:38.
