data_PCOD9408516
_publ_section_title
;
Structure prediction by ZEFSAII (Michael W. Deem and Ramdas Pophale) SiO2 
 PCOD9408516
Probable space group: P N N A
;
_chemical_formula_sum "Si O2"
_cell_formula_units_Z 64
_cell_length_a 18.678946
_cell_length_b 9.916865
_cell_length_c 17.807535
_cell_angle_alpha 90.000000
_cell_angle_beta 90.000000
_cell_angle_gamma 90.000000
_cell_volume 3298.606985
_symmetry_space_group_name_H-M "P N N A"
_symmetry_group_IT_number 52
_symmetry_cell_setting 'orthorhombic'
loop_
_space_group_symop_operation_xyz
x,y,z
1/2-x,-y,z
x,1/2-y,1/2-z
1/2-x,1/2+y,1/2-z
-x,-y,-z
1/2+x,y,-z
-x,1/2+y,1/2+z
1/2+x,1/2-y,1/2+z
loop_
_atom_site_type_symbol
_atom_site_label
_atom_site_fract_x
_atom_site_fract_y
_atom_site_fract_z
Si Si1 0.381943 0.454963 0.017335
Si Si2 0.575563 0.443427 0.530183
Si Si3 0.643232 0.621532 0.298349
Si Si4 0.994164 0.998897 0.386867
Si Si5 0.330450 0.782098 0.533027
Si Si6 0.519934 0.297749 0.671582
Si Si7 0.131564 0.375693 0.803367
Si Si8 0.819859 0.166668 0.030052
O O1 0.439771 0.507005 0.956569
O O2 0.329838 0.583982 0.018830
O O3 0.350932 0.316487 0.985917
O O4 0.429118 0.438125 0.091967
O O5 0.500000 0.500000 0.500000
O O6 0.600768 0.311937 0.482922
O O7 0.563853 0.392048 0.615277
O O8 0.634169 0.560185 0.517552
O O9 0.666462 0.750000 0.250000
O O10 0.556682 0.634058 0.309098
O O11 0.662907 0.495980 0.246575
O O12 0.672347 0.625314 0.382585
O O13 0.003243 0.156816 0.369837
O O14 0.949053 0.922749 0.324006
O O15 0.329170 0.835747 0.618923
O O16 0.263789 0.685728 0.515111
O O17 0.554508 0.250000 0.750000
O O18 0.129895 0.250000 0.750000
#
# Coordination Sequence:
#
# PCOD9408516 Si02
#       8
#     8   8   8   8   8   8   8   8
#     4  10  20  36  62  88 120 163 213 259 310 362
#     4  12  24  40  66  94 123 164 216 275 315 368
#     4  11  20  37  60  88 131 178 211 242 304 392
#     4  10  18  35  59  89 121 158 208 262 305 366
#     4  11  25  42  60  90 131 171 210 254 316 382
#     4  11  20  38  63  93 122 163 213 267 332 380
#     4  11  23  35  57  91 132 167 203 253 307 379
#     4  12  24  40  63  95 129 169 219 262 312 377
#
# _framework density 19.40213
#
# number of rings (size 3 to 8) (size 9 to 14) (size 15 to 20)
#    0.000    1.000    6.250    2.250    3.500    0.500 
#    0.000    2.500    0.000    0.000    6.500    0.000 
#    0.000    0.000    0.000    0.000    0.000    0.000 
#
# Total GULP energy -357228.022541 kJ/mol
# GULP energy per Si atom -5581.687852 kJ/mol
# Density = 1.935797 g / cm^3
# Si number density = 19.402130 Si / 1000 Ang^3
#
#
#
# Elastic Constant Matrix: (Units=GPa)
#
#
# Indices 1 2 3 4 5 6 
#
# 1 70.8695 39.7812 32.7245 0.0000 0.0000 0.0000
# 2 39.7812 123.1717 28.9022 0.0000 0.0000 0.0000
# 3 32.7245 28.9022 60.8176 0.0000 0.0000 0.0000
# 4 0.0000 0.0000 0.0000 40.5551 0.0000 0.0000
# 5 0.0000 0.0000 0.0000 0.0000 17.8235 0.0000
# 6 0.0000 0.0000 0.0000 0.0000 0.0000 20.0350
#
#
#
# Elastic Compliance Matrix: (Units=1/GPa)
#
#
# Indices 1 2 3 4 5 6 
#
# 1 0.020878 -0.004623 -0.009037 0.000000 0.000000 0.000000
# 2 -0.004623 0.010161 -0.002342 0.000000 0.000000 0.000000
# 3 -0.009037 -0.002342 0.022418 0.000000 0.000000 0.000000
# 4 0.000000 0.000000 0.000000 0.024658 0.000000 0.000000
# 5 0.000000 0.000000 0.000000 0.000000 0.056106 0.000000
# 6 0.000000 0.000000 0.000000 0.000000 0.000000 0.049913
#
#
# Mechanical properties :
#
#
# Convention : Reuss Voigt Hill
#
# Bulk Modulus (GPa) = 46.60989 50.85273 48.73131
# Shear Modulus (GPa) = 22.39259 25.91278 24.15268
#
# Velocity S-wave (km/s) = 3.40093 3.65850 3.53207
# Velocity P-wave (km/s) = 6.28467 6.64176 6.46568
#
# Compressibility (1/GPa) = 0.02145467
#
# Stress axis : x y z
#
# Youngs Moduli (GPa) = 47.89667 98.41400 44.60660
#
# Poissons Ratio (x) = 0.45492 0.40313
# Poissons Ratio (y) = 0.22140 0.10445
# Poissons Ratio (z) = 0.43286 0.23045
#
# Static dielectric constant tensor:
#      x y z
#    x 1.748410 0.000000 0.000000 
#    y 0.000000 1.693310 0.000000 
#    z 0.000000 0.000000 1.692870 
# 
# From -- ./inp_files/37694.got.cif
#   From: 2010.05.17/outbox.cif.g08.bks.cpg/sg52_19_cif.got.tgz:37694.got - 2010.06.03 12:15:38.
