data_PCOD9408501
_publ_section_title
;
Structure prediction by ZEFSAII (Michael W. Deem and Ramdas Pophale) SiO2 
 PCOD9408501
Probable space group: P N N A
;
_chemical_formula_sum "Si O2"
_cell_formula_units_Z 44
_cell_length_a 15.224399
_cell_length_b 18.037259
_cell_length_c 7.204237
_cell_angle_alpha 90.000000
_cell_angle_beta 90.000000
_cell_angle_gamma 90.000000
_cell_volume 1978.329788
_symmetry_space_group_name_H-M "P N N A"
_symmetry_group_IT_number 52
_symmetry_cell_setting 'orthorhombic'
loop_
_space_group_symop_operation_xyz
x,y,z
1/2-x,-y,z
x,1/2-y,1/2-z
1/2-x,1/2+y,1/2-z
-x,-y,-z
1/2+x,y,-z
-x,1/2+y,1/2+z
1/2+x,1/2-y,1/2+z
loop_
_atom_site_type_symbol
_atom_site_label
_atom_site_fract_x
_atom_site_fract_y
_atom_site_fract_z
Si Si1 0.831088 0.750000 0.250000
Si Si2 0.526520 0.171044 0.664969
Si Si3 0.274613 0.843380 0.414106
Si Si4 0.876342 0.250000 0.750000
Si Si5 0.750000 0.500000 0.091174
Si Si6 0.982582 0.645851 0.286688
Si Si7 0.048412 0.514833 0.799413
O O1 0.778210 0.793802 0.401225
O O2 0.892970 0.687116 0.342238
O O3 0.498277 0.250000 0.750000
O O4 0.632257 0.166396 0.686691
O O5 0.512490 0.160667 0.440055
O O6 0.481951 0.097716 0.752115
O O7 0.189386 0.812653 0.318670
O O8 0.264370 0.927981 0.467513
O O9 0.941023 0.303131 0.632474
O O10 0.844820 0.489137 0.191552
O O11 0.981467 0.558182 0.314770
O O12 0.000000 0.500000 0.000000
#
# Coordination Sequence:
#
# PCOD9408501 Si02
#       7
#     4   8   8   4   4   8   8
#     4   9  18  38  60  81 120 158 191 254 304 355
#     4  10  19  36  58  89 123 155 200 259 297 354
#     4  11  21  35  63  91 119 153 208 256 300 361
#     4  11  22  36  60  95 116 158 205 252 314 361
#     4  12  20  36  64  92 116 162 216 252 292 368
#     4   9  19  38  59  79 122 162 193 247 316 359
#     4  10  18  35  56  87 120 158 208 251 295 358
#
# _framework density 22.240984999999998
#
# number of rings (size 3 to 8) (size 9 to 14) (size 15 to 20)
#    0.000    1.818    6.364    2.182    0.000    0.000 
#    6.545    0.000    0.000   17.455    0.000    0.000 
#    0.000    0.000    0.000    0.000    0.000    0.000 
#
# Total GULP energy -245262.723507 kJ/mol
# GULP energy per Si atom -5574.152807 kJ/mol
# Density = 2.219036 g / cm^3
# Si number density = 22.240985 Si / 1000 Ang^3
#
#
#
# Elastic Constant Matrix: (Units=GPa)
#
#
# Indices 1 2 3 4 5 6 
#
# 1 94.9046 22.8891 8.0419 0.0000 0.0000 0.0000
# 2 22.8891 238.3202 26.2432 0.0000 0.0000 0.0000
# 3 8.0419 26.2432 43.9599 0.0000 0.0000 0.0000
# 4 0.0000 0.0000 0.0000 23.5448 0.0000 0.0000
# 5 0.0000 0.0000 0.0000 0.0000 33.3674 0.0000
# 6 0.0000 0.0000 0.0000 0.0000 0.0000 50.9381
#
#
#
# Elastic Compliance Matrix: (Units=1/GPa)
#
#
# Indices 1 2 3 4 5 6 
#
# 1 0.010874 -0.000883 -0.001462 0.000000 0.000000 0.000000
# 2 -0.000883 0.004563 -0.002562 0.000000 0.000000 0.000000
# 3 -0.001462 -0.002562 0.024545 0.000000 0.000000 0.000000
# 4 0.000000 0.000000 0.000000 0.042472 0.000000 0.000000
# 5 0.000000 0.000000 0.000000 0.000000 0.029969 0.000000
# 6 0.000000 0.000000 0.000000 0.000000 0.000000 0.019632
#
#
# Mechanical properties :
#
#
# Convention : Reuss Voigt Hill
#
# Bulk Modulus (GPa) = 33.14920 54.61480 43.88200
# Shear Modulus (GPa) = 32.91069 42.90408 37.90739
#
# Velocity S-wave (km/s) = 3.85090 4.39687 4.13291
# Velocity P-wave (km/s) = 5.89148 7.09830 6.52286
#
# Compressibility (1/GPa) = 0.03016664
#
# Stress axis : x y z
#
# Youngs Moduli (GPa) = 91.96399 219.15171 40.74124
#
# Poissons Ratio (x) = 0.19360 0.05956
# Poissons Ratio (y) = 0.08124 0.10440
# Poissons Ratio (z) = 0.13444 0.56156
#
# Static dielectric constant tensor:
#      x y z
#    x 2.530240 0.000000 0.000000 
#    y 0.000000 1.800090 0.000000 
#    z 0.000000 0.000000 1.915610 
# 
# From -- ./inp_files/10395.got.cif
#   From: 2010.05.17/outbox.cif.g08.bks.cpg/sg52_6_cif.got.tgz:10395.got - 2010.06.03 12:15:38.
