data_PCOD9408651
_publ_section_title
;
Structure prediction by ZEFSAII (Michael W. Deem and Ramdas Pophale) SiO2 
 PCOD9408651
Probable space group: P N N A
;
_chemical_formula_sum "Si O2"
_cell_formula_units_Z 44
_cell_length_a 15.504275
_cell_length_b 8.475299
_cell_length_c 17.552834
_cell_angle_alpha 90.000000
_cell_angle_beta 90.000000
_cell_angle_gamma 90.000000
_cell_volume 2306.501478
_symmetry_space_group_name_H-M "P N N A"
_symmetry_group_IT_number 52
_symmetry_cell_setting 'orthorhombic'
loop_
_space_group_symop_operation_xyz
x,y,z
1/2-x,-y,z
x,1/2-y,1/2-z
1/2-x,1/2+y,1/2-z
-x,-y,-z
1/2+x,y,-z
-x,1/2+y,1/2+z
1/2+x,1/2-y,1/2+z
loop_
_atom_site_type_symbol
_atom_site_label
_atom_site_fract_x
_atom_site_fract_y
_atom_site_fract_z
Si Si1 0.632329 0.568464 0.358912
Si Si2 0.203854 0.252722 0.592360
Si Si3 0.324201 0.117932 0.187066
Si Si4 0.211811 0.170892 0.419605
Si Si5 0.750000 0.500000 0.217175
Si Si6 0.056005 0.173026 0.166857
O O1 0.703034 0.662324 0.407177
O O2 0.634554 0.388794 0.389097
O O3 0.675175 0.561503 0.274158
O O4 0.540981 0.651770 0.361884
O O5 0.194770 0.179410 0.509644
O O6 0.209273 0.130157 0.661701
O O7 0.343669 0.250000 0.250000
O O8 0.280875 0.202443 0.113795
O O9 0.250000 0.000000 0.218106
O O10 0.402862 0.002483 0.169169
O O11 0.121723 0.217959 0.380251
O O12 0.250000 0.000000 0.400787
O O13 0.053161 0.250000 0.250000
#
# Coordination Sequence:
#
# PCOD9408651 Si02
#       6
#     8   8   8   8   4   8
#     4  10  22  38  64  87 121 154 207 254 303 366
#     4  10  21  38  63  89 119 163 202 249 312 367
#     4  10  20  35  59  85 116 160 202 245 295 366
#     4  11  22  40  60  87 125 162 204 248 308 374
#     4  10  18  40  64  90 114 164 210 252 302 370
#     4  11  23  39  63  91 123 159 202 256 305 366
#
# _framework density 19.076512000000001
#
# number of rings (size 3 to 8) (size 9 to 14) (size 15 to 20)
#    0.000    1.818    0.909    7.091    7.636    2.182 
#    0.000    2.727    0.000    0.000    0.000    0.000 
#    0.000    0.000    0.000    0.000    0.000    0.000 
#
# Total GULP energy -245562.515437 kJ/mol
# GULP energy per Si atom -5580.966260 kJ/mol
# Density = 1.903309 g / cm^3
# Si number density = 19.076512 Si / 1000 Ang^3
#
#
#
# Elastic Constant Matrix: (Units=GPa)
#
#
# Indices 1 2 3 4 5 6 
#
# 1 104.7935 35.3349 20.5100 0.0000 0.0000 0.0000
# 2 35.3349 101.5427 26.7027 0.0000 0.0000 0.0000
# 3 20.5100 26.7027 69.9337 0.0000 0.0000 0.0000
# 4 0.0000 0.0000 0.0000 41.4540 0.0000 0.0000
# 5 0.0000 0.0000 0.0000 0.0000 3.2615 0.0000
# 6 0.0000 0.0000 0.0000 0.0000 0.0000 20.7132
#
#
#
# Elastic Compliance Matrix: (Units=1/GPa)
#
#
# Indices 1 2 3 4 5 6 
#
# 1 0.011050 -0.003327 -0.001970 0.000000 0.000000 0.000000
# 2 -0.003327 0.011949 -0.003587 0.000000 0.000000 0.000000
# 3 -0.001970 -0.003587 0.016247 0.000000 0.000000 0.000000
# 4 0.000000 0.000000 0.000000 0.024123 0.000000 0.000000
# 5 0.000000 0.000000 0.000000 0.000000 0.306608 0.000000
# 6 0.000000 0.000000 0.000000 0.000000 0.000000 0.048278
#
#
# Mechanical properties :
#
#
# Convention : Reuss Voigt Hill
#
# Bulk Modulus (GPa) = 46.56056 49.04057 47.80056
# Shear Modulus (GPa) = 11.28203 26.00056 18.64129
#
# Velocity S-wave (km/s) = 2.43453 3.69584 3.12939
# Velocity P-wave (km/s) = 5.68883 6.63139 6.17812
#
# Compressibility (1/GPa) = 0.02147741
#
# Stress axis : x y z
#
# Youngs Moduli (GPa) = 90.49734 83.68879 61.55117
#
# Poissons Ratio (x) = 0.27844 0.12128
# Poissons Ratio (y) = 0.30109 0.22077
# Poissons Ratio (z) = 0.17831 0.30017
#
# Static dielectric constant tensor:
#      x y z
#    x 1.634800 0.000000 0.000000 
#    y 0.000000 1.719860 0.000000 
#    z 0.000000 0.000000 1.663450 
# 
# From -- ./inp_files/32953.got.cif
#   From: 2010.05.17/outbox.cif.g08.bks.cpg/sg52_17_cif.got.tgz:32953.got - 2010.06.03 12:15:38.
