data_PCOD9408747
_publ_section_title
;
Structure prediction by ZEFSAII (Michael W. Deem and Ramdas Pophale) SiO2 
 PCOD9408747
Probable space group: P N N A
;
_chemical_formula_sum "Si O2"
_cell_formula_units_Z 48
_cell_length_a 19.721485
_cell_length_b 19.826006
_cell_length_c 5.534963
_cell_angle_alpha 90.000000
_cell_angle_beta 90.000000
_cell_angle_gamma 90.000000
_cell_volume 2164.161013
_symmetry_space_group_name_H-M "P N N A"
_symmetry_group_IT_number 52
_symmetry_cell_setting 'orthorhombic'
loop_
_space_group_symop_operation_xyz
x,y,z
1/2-x,-y,z
x,1/2-y,1/2-z
1/2-x,1/2+y,1/2-z
-x,-y,-z
1/2+x,y,-z
-x,1/2+y,1/2+z
1/2+x,1/2-y,1/2+z
loop_
_atom_site_type_symbol
_atom_site_label
_atom_site_fract_x
_atom_site_fract_y
_atom_site_fract_z
Si Si1 0.505675 0.388419 0.332423
Si Si2 0.632095 0.371291 0.018722
Si Si3 0.681717 0.953997 0.010795
Si Si4 0.487296 0.250000 0.250000
Si Si5 0.223339 0.577796 0.000612
Si Si6 0.060220 0.023173 0.225431
Si Si7 0.927651 0.750000 0.750000
O O1 0.457110 0.325704 0.265886
O O2 0.479604 0.456091 0.200693
O O3 0.514679 0.418230 0.602642
O O4 0.579695 0.363038 0.239925
O O5 0.607869 0.443279 0.920238
O O6 0.617389 0.314992 0.815753
O O7 0.711393 0.376547 0.059933
O O8 0.692029 0.910908 0.765627
O O9 0.614893 0.998599 0.974304
O O10 0.750000 0.000000 0.025397
O O11 0.676174 0.916965 0.266403
O O12 0.526688 0.254088 0.508980
O O13 0.250000 0.500000 0.014203
#
# Coordination Sequence:
#
# PCOD9408747 Si02
#       7
#     8   8   8   4   8   8   4
#     4  10  22  34  57  83 119 150 193 243 301 349
#     4  11  20  36  55  87 118 153 194 247 298 356
#     4  10  19  33  51  82 106 147 179 234 287 333
#     4  10  20  40  52  81 116 161 186 228 298 366
#     4  10  19  31  55  77 110 143 182 227 282 343
#     4  11  20  35  56  88 115 148 197 249 287 359
#     4  10  22  34  60  79 118 153 192 236 298 346
#
# _framework density 22.179494999999999
#
# number of rings (size 3 to 8) (size 9 to 14) (size 15 to 20)
#    0.000    1.667    5.000    2.500    0.000    0.000 
#    0.000    0.000    0.000    1.000    0.000    0.000 
#    0.000    0.000    0.000    0.000    0.000    0.000 
#
# Total GULP energy -267217.799625 kJ/mol
# GULP energy per Si atom -5567.037492 kJ/mol
# Density = 2.212901 g / cm^3
# Si number density = 22.179495 Si / 1000 Ang^3
#
#
#
# Elastic Constant Matrix: (Units=GPa)
#
#
# Indices 1 2 3 4 5 6 
#
# 1 39.0373 14.5497 1.3686 0.0000 0.0000 0.0000
# 2 14.5497 106.4734 19.2419 0.0000 0.0000 0.0000
# 3 1.3686 19.2419 120.8270 0.0000 0.0000 0.0000
# 4 0.0000 0.0000 0.0000 30.2234 0.0000 0.0000
# 5 0.0000 0.0000 0.0000 0.0000 18.1940 0.0000
# 6 0.0000 0.0000 0.0000 0.0000 0.0000 20.9403
#
#
#
# Elastic Compliance Matrix: (Units=1/GPa)
#
#
# Indices 1 2 3 4 5 6 
#
# 1 0.027001 -0.003742 0.000290 0.000000 0.000000 0.000000
# 2 -0.003742 0.010189 -0.001580 0.000000 0.000000 0.000000
# 3 0.000290 -0.001580 0.008525 0.000000 0.000000 0.000000
# 4 0.000000 0.000000 0.000000 0.033087 0.000000 0.000000
# 5 0.000000 0.000000 0.000000 0.000000 0.054963 0.000000
# 6 0.000000 0.000000 0.000000 0.000000 0.000000 0.047755
#
#
# Mechanical properties :
#
#
# Convention : Reuss Voigt Hill
#
# Bulk Modulus (GPa) = 28.05037 37.40646 32.72841
# Shear Modulus (GPa) = 24.57395 29.28338 26.92866
#
# Velocity S-wave (km/s) = 3.33221 3.63752 3.48821
# Velocity P-wave (km/s) = 5.24207 5.87742 5.56881
#
# Compressibility (1/GPa) = 0.03565015
#
# Stress axis : x y z
#
# Youngs Moduli (GPa) = 37.03555 98.14540 117.30668
#
# Poissons Ratio (x) = 0.36728 -0.03403
# Poissons Ratio (y) = 0.13859 0.18537
# Poissons Ratio (z) = -0.01074 0.15509
#
# Static dielectric constant tensor:
#      x y z
#    x 1.838950 0.000000 0.000000 
#    y 0.000000 1.915170 0.000000 
#    z 0.000000 0.000000 1.906840 
# 
# From -- ./inp_files/5159.got.cif
#   From: 2010.05.17/outbox.cif.g08.bks.cpg/sg52_3_cif.got.tgz:5159.got - 2010.06.03 12:15:38.
