data_PCOD9408142
_publ_section_title
;
Structure prediction by ZEFSAII (Michael W. Deem and Ramdas Pophale) SiO2 
 PCOD9408142
Probable space group: P N N A
;
_chemical_formula_sum "Si O2"
_cell_formula_units_Z 56
_cell_length_a 13.881718
_cell_length_b 20.211842
_cell_length_c 10.888104
_cell_angle_alpha 90.000000
_cell_angle_beta 90.000000
_cell_angle_gamma 90.000000
_cell_volume 3054.930770
_symmetry_space_group_name_H-M "P N N A"
_symmetry_group_IT_number 52
_symmetry_cell_setting 'orthorhombic'
loop_
_space_group_symop_operation_xyz
x,y,z
1/2-x,-y,z
x,1/2-y,1/2-z
1/2-x,1/2+y,1/2-z
-x,-y,-z
1/2+x,y,-z
-x,1/2+y,1/2+z
1/2+x,1/2-y,1/2+z
loop_
_atom_site_type_symbol
_atom_site_label
_atom_site_fract_x
_atom_site_fract_y
_atom_site_fract_z
Si Si1 0.250000 0.500000 0.055760
Si Si2 0.855392 0.374518 0.196317
Si Si3 0.187437 0.859952 0.405071
Si Si4 0.977526 0.653770 0.178886
Si Si5 0.361713 0.727151 0.041338
Si Si6 0.511008 0.750000 0.250000
Si Si7 0.073964 0.012025 0.610457
Si Si8 0.307539 0.811939 0.832899
O O1 0.206863 0.562747 0.126955
O O2 0.170934 0.470721 0.963088
O O3 0.905316 0.446394 0.189083
O O4 0.760556 0.370276 0.282839
O O5 0.925849 0.316412 0.240351
O O6 0.830689 0.360062 0.053031
O O7 0.283120 0.817061 0.387858
O O8 0.090496 0.833379 0.340886
O O9 0.963790 0.575051 0.181188
O O10 0.919614 0.678603 0.297312
O O11 0.916451 0.683388 0.063479
O O12 0.442754 0.752792 0.131862
O O13 0.305722 0.786194 0.971108
O O14 0.000000 0.000000 0.500000
O O15 0.273276 0.750000 0.750000
#
# Coordination Sequence:
#
# PCOD9408142 Si02
#       8
#     4   8   8   8   8   4   8   8
#     4  10  18  26  48  76 116 144 162 224 290 342
#     4  11  19  33  57  81 113 148 187 226 287 348
#     4  11  19  32  52  81 116 148 178 226 290 346
#     4  11  19  34  55  82 114 139 180 233 289 333
#     4  11  22  37  54  79 115 149 193 235 280 343
#     4  12  22  36  56  82 108 148 192 240 282 330
#     4  11  18  29  51  86 112 137 178 235 288 335
#     4  10  20  36  53  76 113 155 185 227 278 346
#
# _framework density 18.331021
#
# number of rings (size 3 to 8) (size 9 to 14) (size 15 to 20)
#    0.000    1.143    9.286    0.857    0.000    0.000 
#    3.857    0.000    0.000    0.857    0.000    4.000 
#    0.000    0.000    0.000    0.000    0.000    0.000 
#
# Total GULP energy -312191.844626 kJ/mol
# GULP energy per Si atom -5574.854368 kJ/mol
# Density = 1.828930 g / cm^3
# Si number density = 18.331021 Si / 1000 Ang^3
#
#
#
# Elastic Constant Matrix: (Units=GPa)
#
#
# Indices 1 2 3 4 5 6 
#
# 1 105.4515 25.9915 11.6734 0.0000 0.0000 0.0000
# 2 25.9915 85.2822 18.9348 0.0000 0.0000 0.0000
# 3 11.6734 18.9348 29.4117 0.0000 0.0000 0.0000
# 4 0.0000 0.0000 0.0000 17.6332 0.0000 0.0000
# 5 0.0000 0.0000 0.0000 0.0000 24.7475 0.0000
# 6 0.0000 0.0000 0.0000 0.0000 0.0000 35.6410
#
#
#
# Elastic Compliance Matrix: (Units=1/GPa)
#
#
# Indices 1 2 3 4 5 6 
#
# 1 0.010401 -0.002629 -0.002435 0.000000 0.000000 0.000000
# 2 -0.002629 0.014346 -0.008192 0.000000 0.000000 0.000000
# 3 -0.002435 -0.008192 0.040241 0.000000 0.000000 0.000000
# 4 0.000000 0.000000 0.000000 0.056711 0.000000 0.000000
# 5 0.000000 0.000000 0.000000 0.000000 0.040408 0.000000
# 6 0.000000 0.000000 0.000000 0.000000 0.000000 0.028058
#
#
# Mechanical properties :
#
#
# Convention : Reuss Voigt Hill
#
# Bulk Modulus (GPa) = 25.99164 37.03829 31.51497
# Shear Modulus (GPa) = 21.78628 26.50739 24.14684
#
# Velocity S-wave (km/s) = 3.45119 3.80681 3.63335
# Velocity P-wave (km/s) = 5.48551 6.29059 5.90179
#
# Compressibility (1/GPa) = 0.03847390
#
# Stress axis : x y z
#
# Youngs Moduli (GPa) = 96.14795 69.70627 24.85045
#
# Poissons Ratio (x) = 0.18326 0.06052
# Poissons Ratio (y) = 0.25278 0.20358
# Poissons Ratio (z) = 0.23416 0.57105
#
# Static dielectric constant tensor:
#      x y z
#    x -5.627120 0.000000 0.000000 
#    y 0.000000 1.682930 0.000000 
#    z 0.000000 0.000000 1.628580 
# 
# From -- ./inp_files/18381.got.cif
#   From: 2010.05.17/outbox.cif.g08.bks.cpg/sg52_10_cif.got.tgz:18381.got - 2010.06.03 12:15:38.
