data_PCOD9408902
_publ_section_title
;
Structure prediction by ZEFSAII (Michael W. Deem and Ramdas Pophale) SiO2 
 PCOD9408902
Probable space group: P N N A
;
_chemical_formula_sum "Si O2"
_cell_formula_units_Z 48
_cell_length_a 31.866951
_cell_length_b 5.936610
_cell_length_c 13.821214
_cell_angle_alpha 90.000000
_cell_angle_beta 90.000000
_cell_angle_gamma 90.000000
_cell_volume 2614.720207
_symmetry_space_group_name_H-M "P N N A"
_symmetry_group_IT_number 52
_symmetry_cell_setting 'orthorhombic'
loop_
_space_group_symop_operation_xyz
x,y,z
1/2-x,-y,z
x,1/2-y,1/2-z
1/2-x,1/2+y,1/2-z
-x,-y,-z
1/2+x,y,-z
-x,1/2+y,1/2+z
1/2+x,1/2-y,1/2+z
loop_
_atom_site_type_symbol
_atom_site_label
_atom_site_fract_x
_atom_site_fract_y
_atom_site_fract_z
Si Si1 0.637387 0.045653 0.037255
Si Si2 0.800402 0.999841 0.203886
Si Si3 0.578605 0.424563 0.996193
Si Si4 0.060259 0.703111 0.637927
Si Si5 0.609797 0.697778 0.645186
Si Si6 0.030292 0.111844 0.149416
O O1 0.679206 0.009224 0.097416
O O2 0.600852 0.905085 0.090564
O O3 0.618084 0.294643 0.041868
O O4 0.636709 0.961739 0.926126
O O5 0.812635 0.250000 0.250000
O O6 0.750000 0.000000 0.202604
O O7 0.812781 0.750000 0.250000
O O8 0.599134 0.580305 0.914351
O O9 0.547826 0.257914 0.939594
O O10 0.554415 0.568657 0.076572
O O11 0.067658 0.750000 0.750000
O O12 0.018150 0.554461 0.629731
O O13 0.628391 0.750000 0.750000
O O14 0.564327 0.582489 0.660360
O O15 0.030260 0.250000 0.250000
#
# Coordination Sequence:
#
# PCOD9408902 Si02
#       6
#     8   8   8   8   8   8
#     4  10  23  35  57  85 114 146 192 243 303 359
#     4  10  23  43  70  98 128 161 192 233 293 372
#     4  10  21  34  52  75 106 150 189 253 291 353
#     4  10  22  34  48  76 111 151 194 241 304 349
#     4  10  20  36  55  76 107 150 204 248 295 343
#     4  10  19  34  51  72 103 152 205 247 291 349
#
# _framework density 18.357605
#
# number of rings (size 3 to 8) (size 9 to 14) (size 15 to 20)
#    0.000    2.000    1.667    1.000    7.000    7.333 
#    0.000    0.000    0.000    0.000    4.333    0.000 
#    0.000    0.000    0.000    0.000    0.000    0.000 
#
# Total GULP energy -267502.045175 kJ/mol
# GULP energy per Si atom -5572.959274 kJ/mol
# Density = 1.831582 g / cm^3
# Si number density = 18.357605 Si / 1000 Ang^3
#
#
#
# Elastic Constant Matrix: (Units=GPa)
#
#
# Indices 1 2 3 4 5 6 
#
# 1 21.0370 14.9317 21.9123 0.0000 0.0000 0.0000
# 2 14.9317 64.4270 28.6054 0.0000 0.0000 0.0000
# 3 21.9123 28.6054 118.6447 0.0000 0.0000 0.0000
# 4 0.0000 0.0000 0.0000 23.2456 0.0000 0.0000
# 5 0.0000 0.0000 0.0000 0.0000 31.8667 0.0000
# 6 0.0000 0.0000 0.0000 0.0000 0.0000 7.8804
#
#
#
# Elastic Compliance Matrix: (Units=1/GPa)
#
#
# Indices 1 2 3 4 5 6 
#
# 1 0.065054 -0.010910 -0.009384 0.000000 0.000000 0.000000
# 2 -0.010910 0.019212 -0.002617 0.000000 0.000000 0.000000
# 3 -0.009384 -0.002617 0.010793 0.000000 0.000000 0.000000
# 4 0.000000 0.000000 0.000000 0.043019 0.000000 0.000000
# 5 0.000000 0.000000 0.000000 0.000000 0.031381 0.000000
# 6 0.000000 0.000000 0.000000 0.000000 0.000000 0.126897
#
#
# Mechanical properties :
#
#
# Convention : Reuss Voigt Hill
#
# Bulk Modulus (GPa) = 20.31057 37.22304 28.76681
# Shear Modulus (GPa) = 13.94349 21.84249 17.89299
#
# Velocity S-wave (km/s) = 2.75898 3.45314 3.12539
# Velocity P-wave (km/s) = 4.60838 6.01827 5.35988
#
# Compressibility (1/GPa) = 0.04923544
#
# Stress axis : x y z
#
# Youngs Moduli (GPa) = 15.37181 52.05081 92.65572
#
# Poissons Ratio (x) = 0.56790 0.86950
# Poissons Ratio (y) = 0.16771 0.24248
# Poissons Ratio (z) = 0.14425 0.13622
#
# Static dielectric constant tensor:
#      x y z
#    x 1.604550 0.000000 0.000000 
#    y 0.000000 1.720040 0.000000 
#    z 0.000000 0.000000 1.655500 
# 
# From -- ./inp_files/29610.got.cif
#   From: 2010.05.17/outbox.cif.g08.bks.cpg/sg52_15_cif.got.tgz:29610.got - 2010.06.03 12:15:38.
