data_PCOD9408116
_publ_section_title
;
Structure prediction by ZEFSAII (Michael W. Deem and Ramdas Pophale) SiO2 
 PCOD9408116
Probable space group: P N N A
;
_chemical_formula_sum "Si O2"
_cell_formula_units_Z 32
_cell_length_a 8.119461
_cell_length_b 12.281104
_cell_length_c 11.979463
_cell_angle_alpha 90.000000
_cell_angle_beta 90.000000
_cell_angle_gamma 90.000000
_cell_volume 1194.543473
_symmetry_space_group_name_H-M "P N N A"
_symmetry_group_IT_number 52
_symmetry_cell_setting 'orthorhombic'
loop_
_space_group_symop_operation_xyz
x,y,z
1/2-x,-y,z
x,1/2-y,1/2-z
1/2-x,1/2+y,1/2-z
-x,-y,-z
1/2+x,y,-z
-x,1/2+y,1/2+z
1/2+x,1/2-y,1/2+z
loop_
_atom_site_type_symbol
_atom_site_label
_atom_site_fract_x
_atom_site_fract_y
_atom_site_fract_z
Si Si1 0.366613 0.842865 0.659927
Si Si2 0.627635 0.583483 0.447887
Si Si3 0.005382 0.946130 0.624233
Si Si4 0.868283 0.761467 0.923621
O O1 0.363264 0.750000 0.750000
O O2 0.183226 0.888398 0.635548
O O3 0.421110 0.783790 0.545800
O O4 0.484136 0.943126 0.694632
O O5 0.750000 0.500000 0.387332
O O6 0.500000 0.500000 0.500000
O O7 0.723943 0.655108 0.541818
O O8 0.519200 0.666885 0.377222
O O9 0.864056 0.854460 0.640182
O O10 0.000000 0.000000 0.500000
#
# Coordination Sequence:
#
# PCOD9408116 Si02
#       4
#     8   8   8   8
#     4  10  20  36  58  97 129 160 217 298 337 392
#     4   9  18  31  51  87 121 159 214 271 319 379
#     4   9  19  36  60  90 121 176 225 267 329 415
#     4  10  17  35  61  86 124 167 228 268 317 413
#
# _framework density 26.788477
#
# number of rings (size 3 to 8) (size 9 to 14) (size 15 to 20)
#    0.000    2.500    2.500    0.000    0.000    0.000 
#   13.500    0.000    0.000    4.500    0.000    0.000 
#    0.000    0.000    0.000    0.000    0.000    0.000 
#
# Total GULP energy -178636.889517 kJ/mol
# GULP energy per Si atom -5582.402797 kJ/mol
# Density = 2.672751 g / cm^3
# Si number density = 26.788477 Si / 1000 Ang^3
#
#
#
# Elastic Constant Matrix: (Units=GPa)
#
#
# Indices 1 2 3 4 5 6 
#
# 1 94.7777 83.3332 17.5729 0.0000 0.0000 0.0000
# 2 83.3332 254.8803 34.9389 0.0000 0.0000 0.0000
# 3 17.5729 34.9389 73.3188 0.0000 0.0000 0.0000
# 4 0.0000 0.0000 0.0000 37.9445 0.0000 0.0000
# 5 0.0000 0.0000 0.0000 0.0000 28.2331 0.0000
# 6 0.0000 0.0000 0.0000 0.0000 0.0000 73.9151
#
#
#
# Elastic Compliance Matrix: (Units=1/GPa)
#
#
# Indices 1 2 3 4 5 6 
#
# 1 0.014930 -0.004698 -0.001340 0.000000 0.000000 0.000000
# 2 -0.004698 0.005676 -0.001579 0.000000 0.000000 0.000000
# 3 -0.001340 -0.001579 0.014712 0.000000 0.000000 0.000000
# 4 0.000000 0.000000 0.000000 0.026354 0.000000 0.000000
# 5 0.000000 0.000000 0.000000 0.000000 0.035419 0.000000
# 6 0.000000 0.000000 0.000000 0.000000 0.000000 0.013529
#
#
# Mechanical properties :
#
#
# Convention : Reuss Voigt Hill
#
# Bulk Modulus (GPa) = 49.78662 77.18521 63.48591
# Shear Modulus (GPa) = 37.72212 47.16069 42.44140
#
# Velocity S-wave (km/s) = 3.75660 4.20036 3.98466
# Velocity P-wave (km/s) = 6.11895 7.23875 6.70227
#
# Compressibility (1/GPa) = 0.02008572
#
# Stress axis : x y z
#
# Youngs Moduli (GPa) = 66.98005 176.18897 67.96944
#
# Poissons Ratio (x) = 0.82768 0.09106
# Poissons Ratio (y) = 0.31465 0.10731
# Poissons Ratio (z) = 0.08974 0.27816
#
# Static dielectric constant tensor:
#      x y z
#    x 2.162080 0.000000 0.000000 
#    y 0.000000 2.156370 0.000000 
#    z 0.000000 0.000000 2.272480 
# 
# From -- ./inp_files/24087.got.cif
#   From: 2010.05.17/outbox.cif.g08.bks.cpg/sg52_13_cif.got.tgz:24087.got - 2010.06.03 12:15:38.
