data_PCOD9408606
_publ_section_title
;
Structure prediction by ZEFSAII (Michael W. Deem and Ramdas Pophale) SiO2 
 PCOD9408606
Probable space group: P N N A
;
_chemical_formula_sum "Si O2"
_cell_formula_units_Z 48
_cell_length_a 9.468098
_cell_length_b 16.150448
_cell_length_c 14.989203
_cell_angle_alpha 90.000000
_cell_angle_beta 90.000000
_cell_angle_gamma 90.000000
_cell_volume 2292.059353
_symmetry_space_group_name_H-M "P N N A"
_symmetry_group_IT_number 52
_symmetry_cell_setting 'orthorhombic'
loop_
_space_group_symop_operation_xyz
x,y,z
1/2-x,-y,z
x,1/2-y,1/2-z
1/2-x,1/2+y,1/2-z
-x,-y,-z
1/2+x,y,-z
-x,1/2+y,1/2+z
1/2+x,1/2-y,1/2+z
loop_
_atom_site_type_symbol
_atom_site_label
_atom_site_fract_x
_atom_site_fract_y
_atom_site_fract_z
Si Si1 0.769746 0.404271 0.215291
Si Si2 0.429150 0.280351 0.110017
Si Si3 0.907740 0.975977 0.913488
Si Si4 0.497162 0.314162 0.677130
Si Si5 0.970608 0.377654 0.721679
Si Si6 0.257008 0.287009 0.934845
O O1 0.750000 0.500000 0.224231
O O2 0.912774 0.375451 0.258361
O O3 0.638976 0.362844 0.267880
O O4 0.766601 0.375152 0.114020
O O5 0.421914 0.359052 0.177047
O O6 0.405003 0.196079 0.164296
O O7 0.589710 0.268185 0.072284
O O8 0.314081 0.288247 0.033971
O O9 0.919831 0.878937 0.885920
O O10 0.750000 0.000000 0.938600
O O11 0.944627 0.036529 0.829437
O O12 0.000000 0.000000 0.000000
O O13 0.565142 0.250000 0.750000
O O14 0.372490 0.268367 0.620227
#
# Coordination Sequence:
#
# PCOD9408606 Si02
#       6
#     8   8   8   8   8   8
#     4  10  18  37  68  91 118 171 223 273 325 393
#     4  10  21  40  62  94 130 172 220 276 335 405
#     4  12  28  44  67 106 136 176 231 293 352 407
#     4  10  21  40  68  98 135 177 228 280 343 417
#     4  10  21  40  65  89 132 173 216 274 345 396
#     4  10  21  37  62  97 124 172 222 266 330 403
#
# _framework density 20.941866000000001
#
# number of rings (size 3 to 8) (size 9 to 14) (size 15 to 20)
#    0.000    1.667    3.333    1.000    2.333    4.000 
#    9.000    4.167    0.000    0.000    0.000    0.000 
#    0.000    0.000    0.000    0.000    0.000    0.000 
#
# Total GULP energy -267615.534576 kJ/mol
# GULP energy per Si atom -5575.323637 kJ/mol
# Density = 2.089420 g / cm^3
# Si number density = 20.941866 Si / 1000 Ang^3
#
#
#
# Elastic Constant Matrix: (Units=GPa)
#
#
# Indices 1 2 3 4 5 6 
#
# 1 86.7321 22.3986 50.1694 0.0000 0.0000 0.0000
# 2 22.3986 80.9266 42.9740 0.0000 0.0000 0.0000
# 3 50.1694 42.9740 127.5086 0.0000 0.0000 0.0000
# 4 0.0000 0.0000 0.0000 21.2137 0.0000 0.0000
# 5 0.0000 0.0000 0.0000 0.0000 33.9225 0.0000
# 6 0.0000 0.0000 0.0000 0.0000 0.0000 18.6513
#
#
#
# Elastic Compliance Matrix: (Units=1/GPa)
#
#
# Indices 1 2 3 4 5 6 
#
# 1 0.015029 -0.001242 -0.005495 0.000000 0.000000 0.000000
# 2 -0.001242 0.015153 -0.004618 0.000000 0.000000 0.000000
# 3 -0.005495 -0.004618 0.011561 0.000000 0.000000 0.000000
# 4 0.000000 0.000000 0.000000 0.047139 0.000000 0.000000
# 5 0.000000 0.000000 0.000000 0.000000 0.029479 0.000000
# 6 0.000000 0.000000 0.000000 0.000000 0.000000 0.053616
#
#
# Mechanical properties :
#
#
# Convention : Reuss Voigt Hill
#
# Bulk Modulus (GPa) = 52.53998 58.47238 55.50618
# Shear Modulus (GPa) = 24.87177 26.73251 25.80214
#
# Velocity S-wave (km/s) = 3.44998 3.57670 3.51391
# Velocity P-wave (km/s) = 6.40412 6.71111 6.55941
#
# Compressibility (1/GPa) = 0.01903313
#
# Stress axis : x y z
#
# Youngs Moduli (GPa) = 66.53888 65.99326 86.49709
#
# Poissons Ratio (x) = 0.08195 0.47528
# Poissons Ratio (y) = 0.08263 0.39948
# Poissons Ratio (z) = 0.36561 0.30478
#
# Static dielectric constant tensor:
#      x y z
#    x 1.789720 0.000000 0.000000 
#    y 0.000000 1.838010 0.000000 
#    z 0.000000 0.000000 1.789100 
# 
# From -- ./inp_files/24738.got.cif
#   From: 2010.05.17/outbox.cif.g08.bks.cpg/sg52_13_cif.got.tgz:24738.got - 2010.06.03 12:15:38.
