data_PCOD9408731
_publ_section_title
;
Structure prediction by ZEFSAII (Michael W. Deem and Ramdas Pophale) SiO2 
 PCOD9408731
Probable space group: P N N A
;
_chemical_formula_sum "Si O2"
_cell_formula_units_Z 40
_cell_length_a 6.894498
_cell_length_b 18.607847
_cell_length_c 11.346305
_cell_angle_alpha 90.000000
_cell_angle_beta 90.000000
_cell_angle_gamma 90.000000
_cell_volume 1455.637482
_symmetry_space_group_name_H-M "P N N A"
_symmetry_group_IT_number 52
_symmetry_cell_setting 'orthorhombic'
loop_
_space_group_symop_operation_xyz
x,y,z
1/2-x,-y,z
x,1/2-y,1/2-z
1/2-x,1/2+y,1/2-z
-x,-y,-z
1/2+x,y,-z
-x,1/2+y,1/2+z
1/2+x,1/2-y,1/2+z
loop_
_atom_site_type_symbol
_atom_site_label
_atom_site_fract_x
_atom_site_fract_y
_atom_site_fract_z
Si Si1 0.925469 0.271974 0.620696
Si Si2 0.440120 0.384585 0.093694
Si Si3 0.250000 0.500000 0.659227
Si Si4 0.313299 0.250000 0.750000
Si Si5 0.367273 0.071224 0.146679
Si Si6 0.885985 0.106461 0.339956
O O1 0.852605 0.250000 0.750000
O O2 0.883064 0.197038 0.555568
O O3 0.837531 0.349263 0.591029
O O4 0.159446 0.276536 0.648462
O O5 0.334813 0.415376 0.210177
O O6 0.656325 0.381962 0.141938
O O7 0.454236 0.421358 0.966445
O O8 0.409327 0.554009 0.609272
O O9 0.105535 0.546953 0.740785
O O10 0.444326 0.183952 0.707845
O O11 0.250000 0.000000 0.111864
#
# Coordination Sequence:
#
# PCOD9408731 Si02
#       6
#     8   8   4   4   8   8
#     4   7  13  33  49  64  98 146 166 200 253 301
#     4   9  19  31  50  72 108 133 171 210 259 303
#     4  10  20  32  48  78 112 132 166 204 264 320
#     4   8  14  34  50  66 100 140 178 196 260 308
#     4  10  19  31  52  76 106 142 168 211 262 312
#     4  10  19  31  50  76 100 138 164 213 258 308
#
# _framework density 27.479371
#
# number of rings (size 3 to 8) (size 9 to 14) (size 15 to 20)
#    0.600    2.400    4.000    0.000    4.200    1.600 
#    0.000    2.000    0.000    0.000    2.600    4.200 
#    0.000    0.000    0.000    0.000    0.000    0.000 
#
# Total GULP energy -222965.090814 kJ/mol
# GULP energy per Si atom -5574.127270 kJ/mol
# Density = 2.741683 g / cm^3
# Si number density = 27.479371 Si / 1000 Ang^3
#
#
#
# Elastic Constant Matrix: (Units=GPa)
#
#
# Indices 1 2 3 4 5 6 
#
# 1 69.8042 28.1267 5.3937 0.0000 0.0000 0.0000
# 2 28.1267 198.5289 23.4113 0.0000 0.0000 0.0000
# 3 5.3937 23.4113 70.4368 0.0000 0.0000 0.0000
# 4 0.0000 0.0000 0.0000 9.1614 0.0000 0.0000
# 5 0.0000 0.0000 0.0000 0.0000 41.0198 0.0000
# 6 0.0000 0.0000 0.0000 0.0000 0.0000 38.3297
#
#
#
# Elastic Compliance Matrix: (Units=1/GPa)
#
#
# Indices 1 2 3 4 5 6 
#
# 1 0.015208 -0.002100 -0.000467 0.000000 0.000000 0.000000
# 2 -0.002100 0.005532 -0.001678 0.000000 0.000000 0.000000
# 3 -0.000467 -0.001678 0.014791 0.000000 0.000000 0.000000
# 4 0.000000 0.000000 0.000000 0.109153 0.000000 0.000000
# 5 0.000000 0.000000 0.000000 0.000000 0.024378 0.000000
# 6 0.000000 0.000000 0.000000 0.000000 0.000000 0.026089
#
#
# Mechanical properties :
#
#
# Convention : Reuss Voigt Hill
#
# Bulk Modulus (GPa) = 36.97923 50.29260 43.63592
# Shear Modulus (GPa) = 23.51228 36.49139 30.00184
#
# Velocity S-wave (km/s) = 2.92830 3.64807 3.30782
# Velocity P-wave (km/s) = 4.99195 6.00718 5.52294
#
# Compressibility (1/GPa) = 0.02704220
#
# Stress axis : x y z
#
# Youngs Moduli (GPa) = 65.75564 180.75381 67.61054
#
# Poissons Ratio (x) = 0.37950 0.03155
# Poissons Ratio (y) = 0.13806 0.11345
# Poissons Ratio (z) = 0.03069 0.30331
#
# Static dielectric constant tensor:
#      x y z
#    x 2.153560 0.000000 0.000000 
#    y 0.000000 2.285260 0.000000 
#    z 0.000000 0.000000 2.261670 
# 
# From -- ./inp_files/31092.got.cif
#   From: 2010.05.17/outbox.cif.g08.bks.cpg/sg52_16_cif.got.tgz:31092.got - 2010.06.03 12:15:38.
