data_PCOD9408932
_publ_section_title
;
Structure prediction by ZEFSAII (Michael W. Deem and Ramdas Pophale) SiO2 
 PCOD9408932
Probable space group: P N N A
;
_chemical_formula_sum "Si O2"
_cell_formula_units_Z 64
_cell_length_a 20.202361
_cell_length_b 19.019113
_cell_length_c 9.452945
_cell_angle_alpha 90.000000
_cell_angle_beta 90.000000
_cell_angle_gamma 90.000000
_cell_volume 3632.114385
_symmetry_space_group_name_H-M "P N N A"
_symmetry_group_IT_number 52
_symmetry_cell_setting 'orthorhombic'
loop_
_space_group_symop_operation_xyz
x,y,z
1/2-x,-y,z
x,1/2-y,1/2-z
1/2-x,1/2+y,1/2-z
-x,-y,-z
1/2+x,y,-z
-x,1/2+y,1/2+z
1/2+x,1/2-y,1/2+z
loop_
_atom_site_type_symbol
_atom_site_label
_atom_site_fract_x
_atom_site_fract_y
_atom_site_fract_z
Si Si1 0.959515 0.583522 0.145009
Si Si2 0.675181 0.083990 0.492497
Si Si3 0.175181 0.583990 0.992497
Si Si4 0.822639 0.167305 0.786767
Si Si5 0.464849 0.683233 0.354380
Si Si6 0.177361 0.332695 0.286767
Si Si7 0.964849 0.316768 0.645620
Si Si8 0.459515 0.083523 0.645010
O O1 0.961781 0.500000 0.170536
O O2 0.993435 0.624452 0.272071
O O3 0.883764 0.604731 0.112421
O O4 1.000000 0.597334 1.000000
O O5 0.750000 0.097322 0.440473
O O6 0.667732 0.124515 0.640794
O O7 0.668531 1.000000 0.517924
O O8 0.167732 0.624515 0.140793
O O9 0.116236 0.604732 0.887579
O O10 0.819441 0.250000 0.750000
O O11 0.750000 0.147375 0.845894
O O12 0.889121 0.157877 0.876774
O O13 0.462767 0.750000 0.250000
O O14 0.389121 0.657877 0.376774
O O15 0.500000 0.702009 0.500000
O O16 0.506565 0.624452 0.272072
O O17 0.180559 0.250000 0.250000
O O18 0.962767 0.250000 0.750000
#
# Coordination Sequence:
#
# PCOD9408932 Si02
#       8
#     8   8   8   8   8   8   8   8
#     4  10  19  34  56  81 109 138 176 224 273 324
#     4   9  17  31  55  83 109 142 181 220 268 326
#     4   9  17  31  55  83 109 142 181 220 268 326
#     4   9  18  32  52  76 105 140 180 224 265 319
#     4  11  23  36  55  79 109 146 185 227 274 322
#     4   9  18  32  52  76 105 140 180 224 265 319
#     4  11  23  36  55  79 109 146 185 227 274 322
#     4  10  19  34  56  81 109 138 176 224 273 324
#
# _framework density 17.62059
#
# number of rings (size 3 to 8) (size 9 to 14) (size 15 to 20)
#    0.000    2.250    2.500    0.750    3.500    0.500 
#    0.000    1.250    0.000    1.500    0.000    0.000 
#    0.000    0.000    0.000    0.000    0.000    0.000 
#
# Total GULP energy -356699.137057 kJ/mol
# GULP energy per Si atom -5573.424017 kJ/mol
# Density = 1.758049 g / cm^3
# Si number density = 17.620590 Si / 1000 Ang^3
#
#
#
# Elastic Constant Matrix: (Units=GPa)
#
#
# Indices 1 2 3 4 5 6 
#
# 1 178.9310 27.5428 48.9345 0.0000 0.0000 0.0000
# 2 27.5428 30.9660 15.7865 0.0000 0.0000 0.0000
# 3 48.9345 15.7865 58.9885 0.0000 0.0000 0.0000
# 4 0.0000 0.0000 0.0000 26.3142 0.0000 0.0000
# 5 0.0000 0.0000 0.0000 0.0000 22.6018 0.0000
# 6 0.0000 0.0000 0.0000 0.0000 0.0000 20.6262
#
#
#
# Elastic Compliance Matrix: (Units=1/GPa)
#
#
# Indices 1 2 3 4 5 6 
#
# 1 0.007661 -0.004139 -0.005248 0.000000 0.000000 0.000000
# 2 -0.004139 0.039632 -0.007173 0.000000 0.000000 0.000000
# 3 -0.005248 -0.007173 0.023225 0.000000 0.000000 0.000000
# 4 0.000000 0.000000 0.000000 0.038002 0.000000 0.000000
# 5 0.000000 0.000000 0.000000 0.000000 0.044244 0.000000
# 6 0.000000 0.000000 0.000000 0.000000 0.000000 0.048482
#
#
# Mechanical properties :
#
#
# Convention : Reuss Voigt Hill
#
# Bulk Modulus (GPa) = 26.73848 50.37923 38.55886
# Shear Modulus (GPa) = 20.25676 25.68321 22.96998
#
# Velocity S-wave (km/s) = 3.39426 3.82195 3.61444
# Velocity P-wave (km/s) = 5.52891 6.93755 6.27290
#
# Compressibility (1/GPa) = 0.03739928
#
# Stress axis : x y z
#
# Youngs Moduli (GPa) = 130.53197 25.23244 43.05665
#
# Poissons Ratio (x) = 0.10443 0.22594
# Poissons Ratio (y) = 0.54025 0.30884
# Poissons Ratio (z) = 0.68498 0.18099
#
# Static dielectric constant tensor:
#      x y z
#    x 1.671300 0.000000 0.000000 
#    y 0.000000 1.602080 0.000000 
#    z 0.000000 0.000000 1.543580 
# 
# From -- ./inp_files/13684.got.cif
#   From: 2010.05.17/outbox.cif.g08.bks.cpg/sg52_7_cif.got.tgz:13684.got - 2010.06.03 12:15:38.
