data_PCOD9408878
_publ_section_title
;
Structure prediction by ZEFSAII (Michael W. Deem and Ramdas Pophale) SiO2 
 PCOD9408878
Probable space group: P N N A
;
_chemical_formula_sum "Si O2"
_cell_formula_units_Z 56
_cell_length_a 24.393579
_cell_length_b 21.576473
_cell_length_c 4.911293
_cell_angle_alpha 90.000000
_cell_angle_beta 90.000000
_cell_angle_gamma 90.000000
_cell_volume 2584.948069
_symmetry_space_group_name_H-M "P N N A"
_symmetry_group_IT_number 52
_symmetry_cell_setting 'orthorhombic'
loop_
_space_group_symop_operation_xyz
x,y,z
1/2-x,-y,z
x,1/2-y,1/2-z
1/2-x,1/2+y,1/2-z
-x,-y,-z
1/2+x,y,-z
-x,1/2+y,1/2+z
1/2+x,1/2-y,1/2+z
loop_
_atom_site_type_symbol
_atom_site_label
_atom_site_fract_x
_atom_site_fract_y
_atom_site_fract_z
Si Si1 0.603424 0.593630 0.774897
Si Si2 0.629141 0.290934 0.981140
Si Si3 0.475687 0.655477 0.321596
Si Si4 0.402062 0.180743 0.772271
Si Si5 0.520876 0.079439 0.332490
Si Si6 0.812432 0.985662 0.762333
Si Si7 0.143487 0.075374 0.742760
O O1 0.603998 0.650667 0.566216
O O2 0.542318 0.562165 0.773528
O O3 0.648416 0.544201 0.691813
O O4 0.615524 0.627553 0.060521
O O5 0.618472 0.250000 0.250000
O O6 0.648585 0.356248 0.111959
O O7 0.661365 0.250000 0.750000
O O8 0.576234 0.311295 0.804189
O O9 0.532279 0.685722 0.232138
O O10 0.473780 0.641591 0.641518
O O11 0.477420 0.590643 0.156163
O O12 0.378391 0.250000 0.750000
O O13 0.580192 0.050606 0.267907
O O14 0.750000 0.000000 0.826441
O O15 0.820242 0.967887 0.448529
O O16 0.835616 0.930432 0.951002
#
# Coordination Sequence:
#
# PCOD9408878 Si02
#       7
#     8   8   8   8   8   8   8
#     4  10  22  38  59  90 121 156 199 240 296 354
#     4  11  20  33  57  89 126 158 189 235 291 357
#     4   9  17  29  49  84 126 164 190 216 278 364
#     4  10  19  33  57  88 124 157 191 238 291 355
#     4   9  18  34  56  87 123 153 187 241 298 349
#     4  12  26  45  66  83 111 160 211 257 294 348
#     4  11  23  40  63  92 120 155 200 242 297 354
#
# _framework density 21.663875999999998
#
# number of rings (size 3 to 8) (size 9 to 14) (size 15 to 20)
#    0.000    1.714    0.000    6.429    0.000    4.571 
#    0.000    0.000    0.000    8.571    0.000    0.000 
#    0.000    0.000    0.000    0.000    0.000    0.000 
#
# Total GULP energy -312133.973121 kJ/mol
# GULP energy per Si atom -5573.820949 kJ/mol
# Density = 2.161457 g / cm^3
# Si number density = 21.663876 Si / 1000 Ang^3
#
#
#
# Elastic Constant Matrix: (Units=GPa)
#
#
# Indices 1 2 3 4 5 6 
#
# 1 87.2179 27.7476 0.3955 0.0000 0.0000 0.0000
# 2 27.7476 75.2173 2.7180 0.0000 0.0000 0.0000
# 3 0.3955 2.7180 74.8604 0.0000 0.0000 0.0000
# 4 0.0000 0.0000 0.0000 38.9569 0.0000 0.0000
# 5 0.0000 0.0000 0.0000 0.0000 89.5323 0.0000
# 6 0.0000 0.0000 0.0000 0.0000 0.0000 -47.9651
#
#
#
# Elastic Compliance Matrix: (Units=1/GPa)
#
#
# Indices 1 2 3 4 5 6 
#
# 1 0.012991 -0.004796 0.000106 0.000000 0.000000 0.000000
# 2 -0.004796 0.015083 -0.000522 0.000000 0.000000 0.000000
# 3 0.000106 -0.000522 0.013377 0.000000 0.000000 0.000000
# 4 0.000000 0.000000 0.000000 0.025669 0.000000 0.000000
# 5 0.000000 0.000000 0.000000 0.000000 0.011169 0.000000
# 6 0.000000 0.000000 0.000000 0.000000 0.000000 -0.020848
#
#
# Mechanical properties :
#
#
# Convention : Reuss Voigt Hill
#
# Bulk Modulus (GPa) = 32.23244 33.22418 32.72831
# Shear Modulus (GPa) = 63.93213 29.86712 46.89962
#
# Velocity S-wave (km/s) = 5.43829 3.71706 4.65787
# Velocity P-wave (km/s) = 7.37184 5.81305 6.63836
#
# Compressibility (1/GPa) = 0.03102464
#
# Stress axis : x y z
#
# Youngs Moduli (GPa) = 76.97693 66.29987 74.75739
#
# Poissons Ratio (x) = 0.31798 -0.00789
# Poissons Ratio (y) = 0.36919 0.03904
# Poissons Ratio (z) = -0.00812 0.03463
#
# Static dielectric constant tensor:
#      x y z
#    x 1.784970 0.000000 0.000000 
#    y 0.000000 1.891020 0.000000 
#    z 0.000000 0.000000 1.782740 
# 
# From -- ./inp_files/6025.got.cif
#   From: 2010.05.17/outbox.cif.g08.bks.cpg/sg52_4_cif.got.tgz:6025.got - 2010.06.03 12:15:38.
