data_PCOD9408402
_publ_section_title
;
Structure prediction by ZEFSAII (Michael W. Deem and Ramdas Pophale) SiO2 
 PCOD9408402
Probable space group: P N N A
;
_chemical_formula_sum "Si O2"
_cell_formula_units_Z 52
_cell_length_a 19.126020
_cell_length_b 25.655558
_cell_length_c 5.137936
_cell_angle_alpha 90.000000
_cell_angle_beta 90.000000
_cell_angle_gamma 90.000000
_cell_volume 2521.127216
_symmetry_space_group_name_H-M "P N N A"
_symmetry_group_IT_number 52
_symmetry_cell_setting 'orthorhombic'
loop_
_space_group_symop_operation_xyz
x,y,z
1/2-x,-y,z
x,1/2-y,1/2-z
1/2-x,1/2+y,1/2-z
-x,-y,-z
1/2+x,y,-z
-x,1/2+y,1/2+z
1/2+x,1/2-y,1/2+z
loop_
_atom_site_type_symbol
_atom_site_label
_atom_site_fract_x
_atom_site_fract_y
_atom_site_fract_z
Si Si1 0.861792 0.935956 0.752936
Si Si2 0.141453 0.920240 0.773053
Si Si3 0.970001 0.305908 0.685817
Si Si4 0.423240 0.600753 0.754927
Si Si5 0.439370 0.455857 0.224321
Si Si6 0.750000 0.000000 0.455131
Si Si7 0.873191 0.306645 0.188664
O O1 0.889348 0.896269 0.536741
O O2 0.790641 0.960328 0.644543
O O3 0.914798 0.984936 0.741620
O O4 0.865695 0.911138 0.036255
O O5 0.083706 0.931231 0.550071
O O6 0.167551 0.860847 0.736038
O O7 0.198176 0.965339 0.719862
O O8 0.104565 0.926976 0.050228
O O9 0.002812 0.250000 0.750000
O O10 0.027418 0.350335 0.705441
O O11 0.935764 0.307688 0.401172
O O12 0.907954 0.309624 0.902326
O O13 0.478685 0.552941 0.742691
O O14 0.838793 0.250000 0.250000
#
# Coordination Sequence:
#
# PCOD9408402 Si02
#       7
#     8   8   8   8   8   4   8
#     4  11  24  36  55  79 112 157 192 232 272 344
#     4  11  20  37  58  80 117 154 188 244 280 348
#     4  10  20  34  56  87 120 144 175 228 294 360
#     4  12  20  36  58  85 116 145 184 232 294 343
#     4  11  21  35  56  85 116 144 183 233 291 346
#     4  10  26  42  54  78 116 160 208 230 288 324
#     4  10  18  33  56  85 113 145 183 233 294 341
#
# _framework density 20.625695
#
# number of rings (size 3 to 8) (size 9 to 14) (size 15 to 20)
#    0.000    1.231    3.077    4.615    0.000    5.538 
#    0.000    0.000    0.000    0.923    0.000    6.462 
#    0.000    0.000    0.000    0.000    0.000    0.000 
#
# Total GULP energy -290597.760179 kJ/mol
# GULP energy per Si atom -5588.418465 kJ/mol
# Density = 2.057875 g / cm^3
# Si number density = 20.625695 Si / 1000 Ang^3
#
#
#
# Elastic Constant Matrix: (Units=GPa)
#
#
# Indices 1 2 3 4 5 6 
#
# 1 42.9002 -9.6374 8.2370 0.0000 0.0000 0.0000
# 2 -9.6374 70.3973 10.4448 0.0000 0.0000 0.0000
# 3 8.2370 10.4448 78.4444 0.0000 0.0000 0.0000
# 4 0.0000 0.0000 0.0000 24.2716 0.0000 0.0000
# 5 0.0000 0.0000 0.0000 0.0000 13.6354 0.0000
# 6 0.0000 0.0000 0.0000 0.0000 0.0000 23.2049
#
#
#
# Elastic Compliance Matrix: (Units=1/GPa)
#
#
# Indices 1 2 3 4 5 6 
#
# 1 0.024774 0.003854 -0.003114 0.000000 0.000000 0.000000
# 2 0.003854 0.015091 -0.002414 0.000000 0.000000 0.000000
# 3 -0.003114 -0.002414 0.013396 0.000000 0.000000 0.000000
# 4 0.000000 0.000000 0.000000 0.041200 0.000000 0.000000
# 5 0.000000 0.000000 0.000000 0.000000 0.073339 0.000000
# 6 0.000000 0.000000 0.000000 0.000000 0.000000 0.043094
#
#
# Mechanical properties :
#
#
# Convention : Reuss Voigt Hill
#
# Bulk Modulus (GPa) = 20.03561 23.31452 21.67507
# Shear Modulus (GPa) = 21.65618 24.40219 23.02918
#
# Velocity S-wave (km/s) = 3.24383 3.44335 3.34508
# Velocity P-wave (km/s) = 4.87492 5.20932 5.04489
#
# Compressibility (1/GPa) = 0.04991113
#
# Stress axis : x y z
#
# Youngs Moduli (GPa) = 40.36551 66.26547 74.64730
#
# Poissons Ratio (x) = -0.25536 0.23249
# Poissons Ratio (y) = -0.15555 0.18020
# Poissons Ratio (z) = 0.12572 0.15996
#
# Static dielectric constant tensor:
#      x y z
#    x 1.709870 0.000000 0.000000 
#    y 0.000000 1.807730 0.000000 
#    z 0.000000 0.000000 1.749300 
# 
# From -- ./inp_files/3569.got.cif
#   From: 2010.05.17/outbox.cif.g08.bks.cpg/sg52_2_cif.got.tgz:3569.got - 2010.06.03 12:15:38.
