data_PCOD9408612
_publ_section_title
;
Structure prediction by ZEFSAII (Michael W. Deem and Ramdas Pophale) SiO2 
 PCOD9408612
Probable space group: P N N A
;
_chemical_formula_sum "Si O2"
_cell_formula_units_Z 52
_cell_length_a 10.876155
_cell_length_b 16.975876
_cell_length_c 15.667179
_cell_angle_alpha 90.000000
_cell_angle_beta 90.000000
_cell_angle_gamma 90.000000
_cell_volume 2892.666645
_symmetry_space_group_name_H-M "P N N A"
_symmetry_group_IT_number 52
_symmetry_cell_setting 'orthorhombic'
loop_
_space_group_symop_operation_xyz
x,y,z
1/2-x,-y,z
x,1/2-y,1/2-z
1/2-x,1/2+y,1/2-z
-x,-y,-z
1/2+x,y,-z
-x,1/2+y,1/2+z
1/2+x,1/2-y,1/2+z
loop_
_atom_site_type_symbol
_atom_site_label
_atom_site_fract_x
_atom_site_fract_y
_atom_site_fract_z
Si Si1 0.999755 0.141601 0.837003
Si Si2 0.315836 0.917090 0.973577
Si Si3 0.781128 0.089757 0.723030
Si Si4 0.381408 0.667665 0.359610
Si Si5 0.148514 0.726851 0.593237
Si Si6 0.317503 0.750000 0.750000
Si Si7 0.662444 0.781506 0.588405
O O1 0.068998 0.093741 0.910264
O O2 0.098353 0.174190 0.769364
O O3 0.890339 0.094775 0.792743
O O4 0.940673 0.221494 0.875733
O O5 0.218926 0.849438 0.945585
O O6 0.250000 0.000000 0.966193
O O7 0.360379 0.899837 0.069344
O O8 0.667204 0.135229 0.769102
O O9 0.829154 0.138600 0.641694
O O10 0.750000 0.000000 0.703866
O O11 0.519370 0.699067 0.367594
O O12 0.290165 0.737103 0.390097
O O13 0.233326 0.761225 0.667362
O O14 0.138680 0.785153 0.512485
#
# Coordination Sequence:
#
# PCOD9408612 Si02
#       7
#     8   8   8   8   8   4   8
#     4  10  18  38  58  81 117 160 201 232 296 377
#     4  10  21  33  54  86 123 156 179 234 312 366
#     4  11  23  35  60  87 117 159 198 253 301 346
#     4  10  20  36  55  89 118 147 196 243 299 354
#     4  10  22  35  59  87 114 151 198 240 288 354
#     4  10  20  36  60  88 104 158 200 244 290 346
#     4  10  20  39  60  81 113 162 198 240 292 365
#
# _framework density 17.976492
#
# number of rings (size 3 to 8) (size 9 to 14) (size 15 to 20)
#    0.000    1.846    3.077    1.846    4.308    0.615 
#    0.000    0.000    0.000    7.385    0.000    0.000 
#    0.000    0.000    0.000    0.000    0.000    0.000 
#
# Total GULP energy -290296.045528 kJ/mol
# GULP energy per Si atom -5582.616260 kJ/mol
# Density = 1.793558 g / cm^3
# Si number density = 17.976492 Si / 1000 Ang^3
#
#
#
# Elastic Constant Matrix: (Units=GPa)
#
#
# Indices 1 2 3 4 5 6 
#
# 1 84.1847 22.4058 31.6335 0.0000 0.0000 0.0000
# 2 22.4058 74.2472 45.2566 0.0000 0.0000 0.0000
# 3 31.6335 45.2566 97.8977 0.0000 0.0000 0.0000
# 4 0.0000 0.0000 0.0000 13.4428 0.0000 0.0000
# 5 0.0000 0.0000 0.0000 0.0000 13.2552 0.0000
# 6 0.0000 0.0000 0.0000 0.0000 0.0000 18.0663
#
#
#
# Elastic Compliance Matrix: (Units=1/GPa)
#
#
# Indices 1 2 3 4 5 6 
#
# 1 0.013731 -0.002004 -0.003511 0.000000 0.000000 0.000000
# 2 -0.002004 0.019045 -0.008157 0.000000 0.000000 0.000000
# 3 -0.003511 -0.008157 0.015120 0.000000 0.000000 0.000000
# 4 0.000000 0.000000 0.000000 0.074389 0.000000 0.000000
# 5 0.000000 0.000000 0.000000 0.000000 0.075442 0.000000
# 6 0.000000 0.000000 0.000000 0.000000 0.000000 0.055352
#
#
# Mechanical properties :
#
#
# Convention : Reuss Voigt Hill
#
# Bulk Modulus (GPa) = 48.65298 50.54681 49.59990
# Shear Modulus (GPa) = 17.40508 19.42179 18.41344
#
# Velocity S-wave (km/s) = 3.11499 3.29051 3.20395
# Velocity P-wave (km/s) = 6.32938 6.52809 6.42950
#
# Compressibility (1/GPa) = 0.02055372
#
# Stress axis : x y z
#
# Youngs Moduli (GPa) = 72.82738 52.50700 66.13823
#
# Poissons Ratio (x) = 0.10522 0.23218
# Poissons Ratio (y) = 0.14593 0.53947
# Poissons Ratio (z) = 0.25566 0.42829
#
# Static dielectric constant tensor:
#      x y z
#    x 1.639570 0.000000 0.000000 
#    y 0.000000 1.592460 0.000000 
#    z 0.000000 0.000000 1.636210 
# 
# From -- ./inp_files/26282.got.cif
#   From: 2010.05.17/outbox.cif.g08.bks.cpg/sg52_14_cif.got.tgz:26282.got - 2010.06.03 12:15:38.
