data_PCOD9408860
_publ_section_title
;
Structure prediction by ZEFSAII (Michael W. Deem and Ramdas Pophale) SiO2 
 PCOD9408860
Probable space group: P N N A
;
_chemical_formula_sum "Si O2"
_cell_formula_units_Z 56
_cell_length_a 16.507487
_cell_length_b 19.406940
_cell_length_c 9.796098
_cell_angle_alpha 90.000000
_cell_angle_beta 90.000000
_cell_angle_gamma 90.000000
_cell_volume 3138.276092
_symmetry_space_group_name_H-M "P N N A"
_symmetry_group_IT_number 52
_symmetry_cell_setting 'orthorhombic'
loop_
_space_group_symop_operation_xyz
x,y,z
1/2-x,-y,z
x,1/2-y,1/2-z
1/2-x,1/2+y,1/2-z
-x,-y,-z
1/2+x,y,-z
-x,1/2+y,1/2+z
1/2+x,1/2-y,1/2+z
loop_
_atom_site_type_symbol
_atom_site_label
_atom_site_fract_x
_atom_site_fract_y
_atom_site_fract_z
Si Si1 0.412102 0.173890 0.942544
Si Si2 0.263321 0.329839 0.762664
Si Si3 0.113227 0.077884 0.809327
Si Si4 0.547548 0.059277 0.916812
Si Si5 0.099741 0.666732 0.961938
Si Si6 0.019069 0.966982 0.647319
Si Si7 0.046526 0.830148 0.238233
O O1 0.334149 0.158804 0.850246
O O2 0.489132 0.126100 0.910171
O O3 0.429120 0.255534 0.928164
O O4 0.398627 0.161898 0.103971
O O5 0.235867 0.250000 0.750000
O O6 0.191304 0.383010 0.744810
O O7 0.309366 0.337806 0.906093
O O8 0.033394 0.124286 0.780850
O O9 0.091026 0.008143 0.726905
O O10 0.119291 0.071631 0.974835
O O11 0.553355 0.034423 0.760140
O O12 0.500000 0.000000 0.000000
O O13 0.046718 0.610069 0.885840
O O14 0.091308 0.653058 0.121926
O O15 0.000000 0.000000 0.500000
O O16 0.022151 0.750000 0.250000
#
# Coordination Sequence:
#
# PCOD9408860 Si02
#       7
#     8   8   8   8   8   8   8
#     4   9  18  34  56  78 106 146 187 226 268 336
#     4  10  20  35  57  83 110 141 186 232 278 331
#     4  10  20  34  54  80 110 142 180 231 279 325
#     4   9  19  35  54  80 108 143 184 226 271 331
#     4  10  19  33  55  81 108 144 188 225 271 338
#     4  11  20  34  55  80 112 143 186 231 280 325
#     4   9  17  32  55  79 104 142 183 223 272 325
#
# _framework density 17.844192
#
# number of rings (size 3 to 8) (size 9 to 14) (size 15 to 20)
#    0.000    2.286    2.857    0.429    0.000    0.571 
#    0.000    1.429    0.000    0.000    0.000    0.000 
#    0.000    0.000    0.000    0.000    0.000    0.000 
#
# Total GULP energy -311781.903056 kJ/mol
# GULP energy per Si atom -5567.533983 kJ/mol
# Density = 1.780358 g / cm^3
# Si number density = 17.844192 Si / 1000 Ang^3
#
#
#
# Elastic Constant Matrix: (Units=GPa)
#
#
# Indices 1 2 3 4 5 6 
#
# 1 30.2430 23.9064 23.1301 0.0000 0.0000 0.0000
# 2 23.9064 68.9446 36.4939 0.0000 0.0000 0.0000
# 3 23.1301 36.4939 150.9012 0.0000 0.0000 0.0000
# 4 0.0000 0.0000 0.0000 29.0328 0.0000 0.0000
# 5 0.0000 0.0000 0.0000 0.0000 18.3018 0.0000
# 6 0.0000 0.0000 0.0000 0.0000 0.0000 17.3489
#
#
#
# Elastic Compliance Matrix: (Units=1/GPa)
#
#
# Indices 1 2 3 4 5 6 
#
# 1 0.047349 -0.014423 -0.003770 0.000000 0.000000 0.000000
# 2 -0.014423 0.021027 -0.002874 0.000000 0.000000 0.000000
# 3 -0.003770 -0.002874 0.007900 0.000000 0.000000 0.000000
# 4 0.000000 0.000000 0.000000 0.034444 0.000000 0.000000
# 5 0.000000 0.000000 0.000000 0.000000 0.054640 0.000000
# 6 0.000000 0.000000 0.000000 0.000000 0.000000 0.057641
#
#
# Mechanical properties :
#
#
# Convention : Reuss Voigt Hill
#
# Bulk Modulus (GPa) = 29.28923 46.34995 37.81959
# Shear Modulus (GPa) = 18.08219 24.04059 21.06139
#
# Velocity S-wave (km/s) = 3.18675 3.67447 3.43927
# Velocity P-wave (km/s) = 5.47631 6.63578 6.08373
#
# Compressibility (1/GPa) = 0.03414225
#
# Stress axis : x y z
#
# Youngs Moduli (GPa) = 21.11955 47.55783 126.58527
#
# Poissons Ratio (x) = 0.68592 0.47718
# Poissons Ratio (y) = 0.30461 0.36386
# Poissons Ratio (z) = 0.07961 0.13670
#
# Static dielectric constant tensor:
#      x y z
#    x 1.567600 0.000000 0.000000 
#    y 0.000000 1.660310 0.000000 
#    z 0.000000 0.000000 1.681910 
# 
# From -- ./inp_files/12525.got.cif
#   From: 2010.05.17/outbox.cif.g08.bks.cpg/sg52_7_cif.got.tgz:12525.got - 2010.06.03 12:15:38.
