data_PCOD9408386
_publ_section_title
;
Structure prediction by ZEFSAII (Michael W. Deem and Ramdas Pophale) SiO2 
 PCOD9408386
Probable space group: P N N A
;
_chemical_formula_sum "Si O2"
_cell_formula_units_Z 64
_cell_length_a 26.546294
_cell_length_b 11.780658
_cell_length_c 11.328698
_cell_angle_alpha 90.000000
_cell_angle_beta 90.000000
_cell_angle_gamma 90.000000
_cell_volume 3542.855568
_symmetry_space_group_name_H-M "P N N A"
_symmetry_group_IT_number 52
_symmetry_cell_setting 'orthorhombic'
loop_
_space_group_symop_operation_xyz
x,y,z
1/2-x,-y,z
x,1/2-y,1/2-z
1/2-x,1/2+y,1/2-z
-x,-y,-z
1/2+x,y,-z
-x,1/2+y,1/2+z
1/2+x,1/2-y,1/2+z
loop_
_atom_site_type_symbol
_atom_site_label
_atom_site_fract_x
_atom_site_fract_y
_atom_site_fract_z
Si Si1 0.119625 0.865187 0.815380
Si Si2 0.376830 0.970930 0.605091
Si Si3 0.149544 0.769291 0.045765
Si Si4 0.308455 0.482409 0.096219
Si Si5 0.117382 0.541855 0.289460
Si Si6 0.057156 0.625475 0.066553
Si Si7 0.046008 0.279178 0.878229
Si Si8 0.442117 0.967977 0.981824
O O1 0.100757 0.750000 0.750000
O O2 0.138941 0.947706 0.712124
O O3 0.080098 0.945178 0.884394
O O4 0.158507 0.823239 0.917026
O O5 0.405119 0.856905 0.640840
O O6 0.329804 0.954058 0.518825
O O7 0.419048 0.038559 0.527413
O O8 0.177869 0.651394 0.071929
O O9 0.151114 0.858694 0.151143
O O10 0.089854 0.738120 0.043175
O O11 0.250000 0.500000 0.115321
O O12 0.342994 0.522148 0.205755
O O13 0.074917 0.585773 0.197099
O O14 0.089856 0.482131 0.398040
O O15 0.998715 0.652820 0.056529
O O16 0.023994 0.250000 0.750000
O O17 0.059741 0.161956 0.940366
O O18 0.500000 0.000000 0.000000
#
# Coordination Sequence:
#
# PCOD9408386 Si02
#       8
#     8   8   8   8   8   8   8   8
#     4  11  18  36  57  82 112 145 194 242 284 334
#     4  10  22  36  56  84 114 152 193 243 296 341
#     4   9  17  32  60  83 110 140 189 245 286 335
#     4  10  20  38  62  84 110 145 194 248 298 357
#     4   9  19  36  55  85 113 147 196 245 284 337
#     4  10  18  33  53  79 115 152 197 231 272 342
#     4  12  21  35  52  79 123 165 189 225 292 350
#     4  11  23  35  55  85 122 161 200 232 279 350
#
# _framework density 18.064523999999999
#
# number of rings (size 3 to 8) (size 9 to 14) (size 15 to 20)
#    0.000    2.000    3.750    4.875    0.000    0.000 
#    0.000    5.000    2.750    3.000    0.000    0.000 
#    0.000    0.000    0.000    0.000    0.000    0.000 
#
# Total GULP energy -356494.820443 kJ/mol
# GULP energy per Si atom -5570.231569 kJ/mol
# Density = 1.802341 g / cm^3
# Si number density = 18.064524 Si / 1000 Ang^3
#
#
#
# Elastic Constant Matrix: (Units=GPa)
#
#
# Indices 1 2 3 4 5 6 
#
# 1 75.5845 8.9584 17.0811 0.0000 0.0000 0.0000
# 2 8.9584 49.4757 17.2141 0.0000 0.0000 0.0000
# 3 17.0811 17.2141 100.3491 0.0000 0.0000 0.0000
# 4 0.0000 0.0000 0.0000 21.2668 0.0000 0.0000
# 5 0.0000 0.0000 0.0000 0.0000 11.1775 0.0000
# 6 0.0000 0.0000 0.0000 0.0000 0.0000 12.7327
#
#
#
# Elastic Compliance Matrix: (Units=1/GPa)
#
#
# Indices 1 2 3 4 5 6 
#
# 1 0.013909 -0.001802 -0.002058 0.000000 0.000000 0.000000
# 2 -0.001802 0.021728 -0.003421 0.000000 0.000000 0.000000
# 3 -0.002058 -0.003421 0.010902 0.000000 0.000000 0.000000
# 4 0.000000 0.000000 0.000000 0.047022 0.000000 0.000000
# 5 0.000000 0.000000 0.000000 0.000000 0.089466 0.000000
# 6 0.000000 0.000000 0.000000 0.000000 0.000000 0.078538
#
#
# Mechanical properties :
#
#
# Convention : Reuss Voigt Hill
#
# Bulk Modulus (GPa) = 31.27220 34.65741 32.96480
# Shear Modulus (GPa) = 17.43457 21.17910 19.30683
#
# Velocity S-wave (km/s) = 3.11002 3.42777 3.27275
# Velocity P-wave (km/s) = 5.49957 5.90704 5.70694
#
# Compressibility (1/GPa) = 0.03197729
#
# Stress axis : x y z
#
# Youngs Moduli (GPa) = 71.89592 46.02274 91.72334
#
# Poissons Ratio (x) = 0.08295 0.18880
# Poissons Ratio (y) = 0.12958 0.31375
# Poissons Ratio (z) = 0.14799 0.15742
#
# Static dielectric constant tensor:
#      x y z
#    x 1.595130 0.000000 0.000000 
#    y 0.000000 1.656740 0.000000 
#    z 0.000000 0.000000 1.682890 
# 
# From -- ./inp_files/22949.got.cif
#   From: 2010.05.17/outbox.cif.g08.bks.cpg/sg52_12_cif.got.tgz:22949.got - 2010.06.03 12:15:38.
