data_PCOD9408027
_publ_section_title
;
Structure prediction by ZEFSAII (Michael W. Deem and Ramdas Pophale) SiO2 
 PCOD9408027
Probable space group: P N N A
;
_chemical_formula_sum "Si O2"
_cell_formula_units_Z 48
_cell_length_a 17.088601
_cell_length_b 13.662042
_cell_length_c 9.535841
_cell_angle_alpha 90.000000
_cell_angle_beta 90.000000
_cell_angle_gamma 90.000000
_cell_volume 2226.286879
_symmetry_space_group_name_H-M "P N N A"
_symmetry_group_IT_number 52
_symmetry_cell_setting 'orthorhombic'
loop_
_space_group_symop_operation_xyz
x,y,z
1/2-x,-y,z
x,1/2-y,1/2-z
1/2-x,1/2+y,1/2-z
-x,-y,-z
1/2+x,y,-z
-x,1/2+y,1/2+z
1/2+x,1/2-y,1/2+z
loop_
_atom_site_type_symbol
_atom_site_label
_atom_site_fract_x
_atom_site_fract_y
_atom_site_fract_z
Si Si1 0.049714 0.083248 0.916143
Si Si2 0.920093 0.849389 0.673994
Si Si3 0.427361 0.957494 0.594450
Si Si4 0.581607 0.709194 0.597056
Si Si5 0.892399 0.337619 0.150928
Si Si6 0.841107 0.502559 0.614894
O O1 0.045550 0.078314 0.748019
O O2 0.005095 0.181726 0.959327
O O3 0.135451 0.063912 0.975430
O O4 0.000000 0.000000 0.000000
O O5 0.890935 0.750000 0.750000
O O6 0.897626 0.873438 0.511942
O O7 0.014886 0.847363 0.689182
O O8 0.886211 0.940819 0.761814
O O9 0.500000 0.000000 0.500000
O O10 0.370082 0.048298 0.635312
O O11 0.575670 0.750000 0.750000
O O12 0.616905 0.791585 0.500859
O O13 0.629074 0.608308 0.596801
O O14 0.860475 0.250000 0.250000
O O15 0.750000 0.500000 0.641211
#
# Coordination Sequence:
#
# PCOD9408027 Si02
#       6
#     8   8   8   8   8   8
#     4  10  19  35  58  85 117 156 205 259 312 375
#     4  10  20  37  57  83 117 162 212 260 314 372
#     4  10  18  32  56  87 119 151 197 264 327 375
#     4  11  20  34  60  92 115 149 205 261 311 367
#     4  10  17  29  54  88 118 145 189 257 320 369
#     4  11  24  41  59  85 128 173 206 251 318 396
#
# _framework density 21.560563999999999
#
# number of rings (size 3 to 8) (size 9 to 14) (size 15 to 20)
#    0.000    1.667    0.000   11.000    0.000    0.667 
#    0.000    0.833    0.000    7.000    0.000    0.000 
#    0.000    0.000    0.000    0.000    0.000    0.000 
#
# Total GULP energy -267469.763190 kJ/mol
# GULP energy per Si atom -5572.286733 kJ/mol
# Density = 2.151149 g / cm^3
# Si number density = 21.560564 Si / 1000 Ang^3
#
#
#
# Elastic Constant Matrix: (Units=GPa)
#
#
# Indices 1 2 3 4 5 6 
#
# 1 40.7165 17.9213 4.2589 0.0000 0.0000 0.0000
# 2 17.9213 89.1590 18.1327 0.0000 0.0000 0.0000
# 3 4.2589 18.1327 139.6287 0.0000 0.0000 0.0000
# 4 0.0000 0.0000 0.0000 45.7736 0.0000 0.0000
# 5 0.0000 0.0000 0.0000 0.0000 5.1414 0.0000
# 6 0.0000 0.0000 0.0000 0.0000 0.0000 10.7439
#
#
#
# Elastic Compliance Matrix: (Units=1/GPa)
#
#
# Indices 1 2 3 4 5 6 
#
# 1 0.026946 -0.005391 -0.000122 0.000000 0.000000 0.000000
# 2 -0.005391 0.012599 -0.001472 0.000000 0.000000 0.000000
# 3 -0.000122 -0.001472 0.007357 0.000000 0.000000 0.000000
# 4 0.000000 0.000000 0.000000 0.021847 0.000000 0.000000
# 5 0.000000 0.000000 0.000000 0.000000 0.194499 0.000000
# 6 0.000000 0.000000 0.000000 0.000000 0.000000 0.093076
#
#
# Mechanical properties :
#
#
# Convention : Reuss Voigt Hill
#
# Bulk Modulus (GPa) = 30.36589 38.90331 34.63460
# Shear Modulus (GPa) = 13.11404 27.61120 20.36262
#
# Velocity S-wave (km/s) = 2.46893 3.58248 3.07651
# Velocity P-wave (km/s) = 4.71615 5.93255 5.35897
#
# Compressibility (1/GPa) = 0.03293168
#
# Stress axis : x y z
#
# Youngs Moduli (GPa) = 37.11152 79.37190 135.93077
#
# Poissons Ratio (x) = 0.42793 0.01655
# Poissons Ratio (y) = 0.20008 0.20005
# Poissons Ratio (z) = 0.00452 0.11681
#
# Static dielectric constant tensor:
#      x y z
#    x 1.810290 0.000000 0.000000 
#    y 0.000000 1.889210 0.000000 
#    z 0.000000 0.000000 1.810350 
# 
# From -- ./inp_files/13270.got.cif
#   From: 2010.05.17/outbox.cif.g08.bks.cpg/sg52_7_cif.got.tgz:13270.got - 2010.06.03 12:15:38.
