data_PCOD9408286
_publ_section_title
;
Structure prediction by ZEFSAII (Michael W. Deem and Ramdas Pophale) SiO2 
 PCOD9408286
Probable space group: P N N A
;
_chemical_formula_sum "Si O2"
_cell_formula_units_Z 44
_cell_length_a 11.266718
_cell_length_b 13.187995
_cell_length_c 16.885983
_cell_angle_alpha 90.000000
_cell_angle_beta 90.000000
_cell_angle_gamma 90.000000
_cell_volume 2509.010887
_symmetry_space_group_name_H-M "P N N A"
_symmetry_group_IT_number 52
_symmetry_cell_setting 'orthorhombic'
loop_
_space_group_symop_operation_xyz
x,y,z
1/2-x,-y,z
x,1/2-y,1/2-z
1/2-x,1/2+y,1/2-z
-x,-y,-z
1/2+x,y,-z
-x,1/2+y,1/2+z
1/2+x,1/2-y,1/2+z
loop_
_atom_site_type_symbol
_atom_site_label
_atom_site_fract_x
_atom_site_fract_y
_atom_site_fract_z
Si Si1 0.819752 0.250000 0.750000
Si Si2 0.344530 0.087698 0.488111
Si Si3 0.992263 0.948723 0.617971
Si Si4 0.181008 0.260555 0.086760
Si Si5 0.386349 0.470949 0.268206
Si Si6 0.384129 0.963898 0.049165
O O1 0.736717 0.240983 0.826969
O O2 0.895646 0.352076 0.749994
O O3 0.383530 0.078869 0.578712
O O4 0.288542 0.194609 0.465592
O O5 0.250000 0.000000 0.472536
O O6 0.449316 0.050632 0.429088
O O7 0.911710 0.851996 0.595196
O O8 0.973833 0.969019 0.710242
O O9 0.124748 0.158175 0.053529
O O10 0.250000 0.500000 0.245054
O O11 0.399233 0.495683 0.360505
O O12 0.250000 0.000000 0.023379
O O13 0.500000 0.000000 0.000000
#
# Coordination Sequence:
#
# PCOD9408286 Si02
#       6
#     4   8   8   8   8   8
#     4  12  18  32  58  84 112 144 200 248 298 334
#     4   9  19  33  50  85 116 146 182 236 300 365
#     4  10  18  31  57  83 112 144 185 248 306 338
#     4  11  19  32  57  83 117 147 193 243 294 350
#     4  11  19  35  56  83 113 144 194 249 289 338
#     4  11  25  41  59  86 121 163 201 242 292 356
#
# _framework density 17.536791000000001
#
# number of rings (size 3 to 8) (size 9 to 14) (size 15 to 20)
#    0.000    1.455    7.273    0.545    2.545    0.000 
#    3.273    0.909    0.000    0.000    0.000    0.000 
#    0.000    0.000    0.000    0.000    0.000    0.000 
#
# Total GULP energy -245117.969688 kJ/mol
# GULP energy per Si atom -5570.862947 kJ/mol
# Density = 1.749688 g / cm^3
# Si number density = 17.536791 Si / 1000 Ang^3
#
#
#
# Elastic Constant Matrix: (Units=GPa)
#
#
# Indices 1 2 3 4 5 6 
#
# 1 48.5258 33.2359 40.5386 0.0000 0.0000 0.0000
# 2 33.2359 134.1992 29.8204 0.0000 0.0000 0.0000
# 3 40.5386 29.8204 83.9278 0.0000 0.0000 0.0000
# 4 0.0000 0.0000 0.0000 21.9777 0.0000 0.0000
# 5 0.0000 0.0000 0.0000 0.0000 27.4058 0.0000
# 6 0.0000 0.0000 0.0000 0.0000 0.0000 9.0927
#
#
#
# Elastic Compliance Matrix: (Units=1/GPa)
#
#
# Indices 1 2 3 4 5 6 
#
# 1 0.038350 -0.005843 -0.016448 0.000000 0.000000 0.000000
# 2 -0.005843 0.008981 -0.000369 0.000000 0.000000 0.000000
# 3 -0.016448 -0.000369 0.019990 0.000000 0.000000 0.000000
# 4 0.000000 0.000000 0.000000 0.045501 0.000000 0.000000
# 5 0.000000 0.000000 0.000000 0.000000 0.036489 0.000000
# 6 0.000000 0.000000 0.000000 0.000000 0.000000 0.109978
#
#
# Mechanical properties :
#
#
# Convention : Reuss Voigt Hill
#
# Bulk Modulus (GPa) = 45.44931 52.64918 49.04924
# Shear Modulus (GPa) = 16.02867 22.56578 19.29722
#
# Velocity S-wave (km/s) = 3.02653 3.59105 3.32080
# Velocity P-wave (km/s) = 6.17948 6.87615 6.53710
#
# Compressibility (1/GPa) = 0.02200253
#
# Stress axis : x y z
#
# Youngs Moduli (GPa) = 26.07569 111.35120 50.02378
#
# Poissons Ratio (x) = 0.65062 0.82277
# Poissons Ratio (y) = 0.15236 0.01844
# Poissons Ratio (z) = 0.42888 0.04105
#
# Static dielectric constant tensor:
#      x y z
#    x 1.628250 0.000000 0.000000 
#    y 0.000000 1.628000 0.000000 
#    z 0.000000 0.000000 1.613770 
# 
# From -- ./inp_files/32173.got.cif
#   From: 2010.05.17/outbox.cif.g08.bks.cpg/sg52_17_cif.got.tgz:32173.got - 2010.06.03 12:15:38.
