data_PCOD9408984
_publ_section_title
;
Structure prediction by ZEFSAII (Michael W. Deem and Ramdas Pophale) SiO2 
 PCOD9408984
Probable space group: P N N A
;
_chemical_formula_sum "Si O2"
_cell_formula_units_Z 52
_cell_length_a 9.103370
_cell_length_b 13.704408
_cell_length_c 16.052100
_cell_angle_alpha 90.000000
_cell_angle_beta 90.000000
_cell_angle_gamma 90.000000
_cell_volume 2002.600550
_symmetry_space_group_name_H-M "P N N A"
_symmetry_group_IT_number 52
_symmetry_cell_setting 'orthorhombic'
loop_
_space_group_symop_operation_xyz
x,y,z
1/2-x,-y,z
x,1/2-y,1/2-z
1/2-x,1/2+y,1/2-z
-x,-y,-z
1/2+x,y,-z
-x,1/2+y,1/2+z
1/2+x,1/2-y,1/2+z
loop_
_atom_site_type_symbol
_atom_site_label
_atom_site_fract_x
_atom_site_fract_y
_atom_site_fract_z
Si Si1 0.240523 0.104267 0.957113
Si Si2 0.990322 0.095762 0.830661
Si Si3 0.381069 0.679390 0.114404
Si Si4 0.211366 0.750000 0.250000
Si Si5 0.500322 0.112067 0.821319
Si Si6 0.187325 0.675922 0.972488
Si Si7 0.737227 0.355170 0.210146
O O1 0.079641 0.112706 0.916060
O O2 0.357878 0.094991 0.882106
O O3 0.283449 0.209044 0.992358
O O4 0.250000 0.000000 0.002794
O O5 0.113829 0.083706 0.756904
O O6 0.892275 0.189365 0.811864
O O7 0.917691 0.989949 0.828214
O O8 0.308820 0.665762 0.206069
O O9 0.421100 0.795069 0.136208
O O10 0.523417 0.654413 0.058219
O O11 0.251963 0.634159 0.056646
O O12 0.408413 0.128918 0.735158
O O13 0.277661 0.648281 0.888821
O O14 0.709399 0.250000 0.250000
#
# Coordination Sequence:
#
# PCOD9408984 Si02
#       7
#     8   8   8   4   8   8   8
#     4   8  15  32  54  84 123 156 195 248 304 374
#     4  10  19  34  64  96 122 163 223 265 313 390
#     4  11  25  40  61  92 130 174 213 271 326 388
#     4  12  24  40  62  86 128 168 222 268 330 388
#     4   9  19  38  59  92 125 165 213 262 321 380
#     4  11  22  37  60  90 126 166 217 254 324 382
#     4  11  16  34  67  92 126 169 214 257 315 388
#
# _framework density 25.966237
#
# number of rings (size 3 to 8) (size 9 to 14) (size 15 to 20)
#    0.000    1.846    5.385    2.308    4.308    0.615 
#    2.769    2.308    0.000    0.923    4.000    0.000 
#    0.000    0.000    0.000    0.000    0.000    0.000 
#
# Total GULP energy -289765.134559 kJ/mol
# GULP energy per Si atom -5572.406434 kJ/mol
# Density = 2.590714 g / cm^3
# Si number density = 25.966237 Si / 1000 Ang^3
#
#
#
# Elastic Constant Matrix: (Units=GPa)
#
#
# Indices 1 2 3 4 5 6 
#
# 1 103.5274 3.7929 16.7920 0.0000 0.0000 0.0000
# 2 3.7929 54.7378 -33.2567 0.0000 0.0000 0.0000
# 3 16.7920 -33.2567 103.2175 0.0000 0.0000 0.0000
# 4 0.0000 0.0000 0.0000 -12.2403 0.0000 0.0000
# 5 0.0000 0.0000 0.0000 0.0000 38.4435 0.0000
# 6 0.0000 0.0000 0.0000 0.0000 0.0000 -0.6024
#
#
#
# Elastic Compliance Matrix: (Units=1/GPa)
#
#
# Indices 1 2 3 4 5 6 
#
# 1 0.010114 -0.002114 -0.002327 0.000000 0.000000 0.000000
# 2 -0.002114 0.023158 0.007805 0.000000 0.000000 0.000000
# 3 -0.002327 0.007805 0.012582 0.000000 0.000000 0.000000
# 4 0.000000 0.000000 0.000000 -0.081697 0.000000 0.000000
# 5 0.000000 0.000000 0.000000 0.000000 0.026012 0.000000
# 6 0.000000 0.000000 0.000000 0.000000 0.000000 -1.659923
#
#
# Mechanical properties :
#
#
# Convention : Reuss Voigt Hill
#
# Bulk Modulus (GPa) = 19.01789 26.23768 22.62778
# Shear Modulus (GPa) = -3.01394 23.39711 10.19158
#
# Velocity S-wave (km/s) = -1.07853 3.00502 1.98329
# Velocity P-wave (km/s) = 2.40603 4.70815 3.73869
#
# Compressibility (1/GPa) = 0.05258207
#
# Stress axis : x y z
#
# Youngs Moduli (GPa) = 98.87161 43.18219 79.48046
#
# Poissons Ratio (x) = 0.09131 0.18493
# Poissons Ratio (y) = 0.20906 -0.62038
# Poissons Ratio (z) = 0.23004 -0.33705
#
# Static dielectric constant tensor:
#      x y z
#    x 2.182670 0.000000 0.000000 
#    y 0.000000 1.973200 0.000000 
#    z 0.000000 0.000000 2.111560 
# 
# From -- ./inp_files/31448.got.cif
#   From: 2010.05.17/outbox.cif.g08.bks.cpg/sg52_16_cif.got.tgz:31448.got - 2010.06.03 12:15:38.
