data_PCOD9408431
_publ_section_title
;
Structure prediction by ZEFSAII (Michael W. Deem and Ramdas Pophale) SiO2 
 PCOD9408431
Probable space group: P N N A
;
_chemical_formula_sum "Si O2"
_cell_formula_units_Z 56
_cell_length_a 5.513571
_cell_length_b 24.380427
_cell_length_c 16.951645
_cell_angle_alpha 90.000000
_cell_angle_beta 90.000000
_cell_angle_gamma 90.000000
_cell_volume 2278.694625
_symmetry_space_group_name_H-M "P N N A"
_symmetry_group_IT_number 52
_symmetry_cell_setting 'orthorhombic'
loop_
_space_group_symop_operation_xyz
x,y,z
1/2-x,-y,z
x,1/2-y,1/2-z
1/2-x,1/2+y,1/2-z
-x,-y,-z
1/2+x,y,-z
-x,1/2+y,1/2+z
1/2+x,1/2-y,1/2+z
loop_
_atom_site_type_symbol
_atom_site_label
_atom_site_fract_x
_atom_site_fract_y
_atom_site_fract_z
Si Si1 0.879563 0.303883 0.707859
Si Si2 0.466858 0.634801 0.175248
Si Si3 0.764541 0.398901 0.310548
Si Si4 0.229666 0.563587 0.048699
Si Si5 0.668758 0.711359 0.046126
Si Si6 0.109881 0.430117 0.535572
Si Si7 0.446849 0.826902 0.069644
O O1 0.979211 0.250000 0.750000
O O2 0.078792 0.350492 0.707359
O O3 0.663011 0.323592 0.765018
O O4 0.775294 0.298710 0.618838
O O5 0.608579 0.589542 0.227818
O O6 0.272041 0.604404 0.120895
O O7 0.638087 0.671764 0.120609
O O8 0.623372 0.438369 0.370347
O O9 0.966587 0.373971 0.369438
O O10 0.250000 0.500000 0.073691
O O11 0.468057 0.571759 0.992500
O O12 0.632936 0.776205 0.063132
O O13 0.928517 0.700811 0.007013
O O14 0.357439 0.450379 0.497503
O O15 0.108794 0.364782 0.507127
#
# Coordination Sequence:
#
# PCOD9408431 Si02
#       7
#     8   8   8   8   8   8   8
#     4  11  22  35  52  79 121 167 206 250 312 361
#     4  11  25  38  58  88 123 158 206 263 319 390
#     4  10  23  34  53  76 114 157 201 252 305 352
#     4  10  23  46  74  99 126 162 208 269 339 400
#     4  12  26  37  54  78 107 154 207 258 299 353
#     4  10  18  34  51  68  99 144 200 238 273 334
#     4  10  21  35  48  74 103 158 208 246 282 340
#
# _framework density 24.575475999999998
#
# number of rings (size 3 to 8) (size 9 to 14) (size 15 to 20)
#    0.000    1.429    2.857    2.571    8.000    0.000 
#    0.000    0.000    0.000    0.000    0.000    0.000 
#    0.000   10.286    0.000    1.286    0.000    0.000 
#
# Total GULP energy -312951.536848 kJ/mol
# GULP energy per Si atom -5588.420301 kJ/mol
# Density = 2.451954 g / cm^3
# Si number density = 24.575476 Si / 1000 Ang^3
#
#
#
# Elastic Constant Matrix: (Units=GPa)
#
#
# Indices 1 2 3 4 5 6 
#
# 1 101.8115 7.1340 18.6987 0.0000 0.0000 0.0000
# 2 7.1340 76.1137 16.8804 0.0000 0.0000 0.0000
# 3 18.6987 16.8804 94.7996 0.0000 0.0000 0.0000
# 4 0.0000 0.0000 0.0000 -16.4536 0.0000 0.0000
# 5 0.0000 0.0000 0.0000 0.0000 42.1796 0.0000
# 6 0.0000 0.0000 0.0000 0.0000 0.0000 27.8762
#
#
#
# Elastic Compliance Matrix: (Units=1/GPa)
#
#
# Indices 1 2 3 4 5 6 
#
# 1 0.010212 -0.000531 -0.001920 0.000000 0.000000 0.000000
# 2 -0.000531 0.013706 -0.002336 0.000000 0.000000 0.000000
# 3 -0.001920 -0.002336 0.011343 0.000000 0.000000 0.000000
# 4 0.000000 0.000000 0.000000 -0.060777 0.000000 0.000000
# 5 0.000000 0.000000 0.000000 0.000000 0.023708 0.000000
# 6 0.000000 0.000000 0.000000 0.000000 0.000000 0.035873
#
#
# Mechanical properties :
#
#
# Convention : Reuss Voigt Hill
#
# Bulk Modulus (GPa) = 38.92942 39.79457 39.36199
# Shear Modulus (GPa) = 95.78298 26.05452 60.91875
#
# Velocity S-wave (km/s) = 6.24977 3.25958 4.98420
# Velocity P-wave (km/s) = 8.24346 5.51311 7.01246
#
# Compressibility (1/GPa) = 0.02568752
#
# Stress axis : x y z
#
# Youngs Moduli (GPa) = 97.92531 72.96036 88.15918
#
# Poissons Ratio (x) = 0.03877 0.16923
# Poissons Ratio (y) = 0.05204 0.20592
# Poissons Ratio (z) = 0.18798 0.17042
#
# Static dielectric constant tensor:
#      x y z
#    x 2.058050 0.000000 0.000000 
#    y 0.000000 1.991780 0.000000 
#    z 0.000000 0.000000 2.013070 
# 
# From -- ./inp_files/23764.got.cif
#   From: 2010.05.17/outbox.cif.g08.bks.cpg/sg52_12_cif.got.tgz:23764.got - 2010.06.03 12:15:38.
