data_PCOD9408152
_publ_section_title
;
Structure prediction by ZEFSAII (Michael W. Deem and Ramdas Pophale) SiO2 
 PCOD9408152
Probable space group: P N N A
;
_chemical_formula_sum "Si O2"
_cell_formula_units_Z 48
_cell_length_a 29.249239
_cell_length_b 8.431476
_cell_length_c 11.807687
_cell_angle_alpha 90.000000
_cell_angle_beta 90.000000
_cell_angle_gamma 90.000000
_cell_volume 2911.943952
_symmetry_space_group_name_H-M "P N N A"
_symmetry_group_IT_number 52
_symmetry_cell_setting 'orthorhombic'
loop_
_space_group_symop_operation_xyz
x,y,z
1/2-x,-y,z
x,1/2-y,1/2-z
1/2-x,1/2+y,1/2-z
-x,-y,-z
1/2+x,y,-z
-x,1/2+y,1/2+z
1/2+x,1/2-y,1/2+z
loop_
_atom_site_type_symbol
_atom_site_label
_atom_site_fract_x
_atom_site_fract_y
_atom_site_fract_z
Si Si1 0.694755 0.750000 0.750000
Si Si2 0.467049 0.921569 0.405407
Si Si3 0.250000 0.000000 0.103060
Si Si4 0.135654 0.480969 0.165901
Si Si5 0.342325 0.648318 0.420869
Si Si6 0.562815 0.076294 0.992228
Si Si7 0.505882 0.920260 0.811606
O O1 0.727273 0.866627 0.818605
O O2 0.662635 0.645686 0.832178
O O3 0.416328 0.994562 0.379092
O O4 0.456759 0.741430 0.440465
O O5 0.500000 0.000000 0.500000
O O6 0.491246 0.948600 0.285653
O O7 0.206478 0.079740 0.044035
O O8 0.141161 0.420279 0.296993
O O9 0.158253 0.337903 0.094825
O O10 0.383291 0.595153 0.501013
O O11 0.546866 0.943434 0.902318
O O12 0.538620 0.056379 0.111845
O O13 0.507172 0.750000 0.750000
#
# Coordination Sequence:
#
# PCOD9408152 Si02
#       7
#     4   8   4   8   8   8   8
#     4  10  18  28  44  70  92 130 164 204 256 306
#     4  11  20  33  50  74 108 143 174 208 253 297
#     4  10  18  28  48  66  96 122 166 208 256 320
#     4   9  18  28  46  65 101 131 164 203 248 306
#     4   9  17  32  45  66  96 132 160 205 267 296
#     4  10  21  35  51  71 109 140 169 220 255 297
#     4  11  21  33  52  76 100 140 183 205 249 309
#
# _framework density 16.483834999999999
#
# number of rings (size 3 to 8) (size 9 to 14) (size 15 to 20)
#    0.000    2.000    3.333    2.500    1.167    0.000 
#    0.000    0.000    0.000    0.000    0.000    0.000 
#    5.000    0.000    0.000    0.000    0.000    0.000 
#
# Total GULP energy -267401.140461 kJ/mol
# GULP energy per Si atom -5570.857093 kJ/mol
# Density = 1.644632 g / cm^3
# Si number density = 16.483835 Si / 1000 Ang^3
#
#
#
# Elastic Constant Matrix: (Units=GPa)
#
#
# Indices 1 2 3 4 5 6 
#
# 1 140.3779 50.7371 46.5591 0.0000 0.0000 0.0000
# 2 50.7371 60.0115 25.0125 0.0000 0.0000 0.0000
# 3 46.5591 25.0125 60.7068 0.0000 0.0000 0.0000
# 4 0.0000 0.0000 0.0000 17.8781 0.0000 0.0000
# 5 0.0000 0.0000 0.0000 0.0000 18.2294 0.0000
# 6 0.0000 0.0000 0.0000 0.0000 0.0000 24.5374
#
#
#
# Elastic Compliance Matrix: (Units=1/GPa)
#
#
# Indices 1 2 3 4 5 6 
#
# 1 0.011815 -0.007500 -0.005971 0.000000 0.000000 0.000000
# 2 -0.007500 0.024880 -0.004499 0.000000 0.000000 0.000000
# 3 -0.005971 -0.004499 0.022906 0.000000 0.000000 0.000000
# 4 0.000000 0.000000 0.000000 0.055934 0.000000 0.000000
# 5 0.000000 0.000000 0.000000 0.000000 0.054856 0.000000
# 6 0.000000 0.000000 0.000000 0.000000 0.000000 0.040754
#
#
# Mechanical properties :
#
#
# Convention : Reuss Voigt Hill
#
# Bulk Modulus (GPa) = 42.26514 56.19041 49.22778
# Shear Modulus (GPa) = 19.60998 21.38146 20.49572
#
# Velocity S-wave (km/s) = 3.45287 3.60546 3.52999
# Velocity P-wave (km/s) = 6.44922 7.17598 6.82228
#
# Compressibility (1/GPa) = 0.02366016
#
# Stress axis : x y z
#
# Youngs Moduli (GPa) = 84.63871 40.19356 43.65709
#
# Poissons Ratio (x) = 0.30146 0.26069
# Poissons Ratio (y) = 0.63481 0.19640
# Poissons Ratio (z) = 0.50540 0.18082
#
# Static dielectric constant tensor:
#      x y z
#    x 1.582310 0.000000 0.000000 
#    y 0.000000 1.608790 0.000000 
#    z 0.000000 0.000000 1.532390 
# 
# From -- ./inp_files/23113.got.cif
#   From: 2010.05.17/outbox.cif.g08.bks.cpg/sg52_12_cif.got.tgz:23113.got - 2010.06.03 12:15:38.
