data_PCOD9408083
_publ_section_title
;
Structure prediction by ZEFSAII (Michael W. Deem and Ramdas Pophale) SiO2 
 PCOD9408083
Probable space group: P N N A
;
_chemical_formula_sum "Si O2"
_cell_formula_units_Z 40
_cell_length_a 14.709285
_cell_length_b 8.146393
_cell_length_c 13.675543
_cell_angle_alpha 90.000000
_cell_angle_beta 90.000000
_cell_angle_gamma 90.000000
_cell_volume 1638.707720
_symmetry_space_group_name_H-M "P N N A"
_symmetry_group_IT_number 52
_symmetry_cell_setting 'orthorhombic'
loop_
_space_group_symop_operation_xyz
x,y,z
1/2-x,-y,z
x,1/2-y,1/2-z
1/2-x,1/2+y,1/2-z
-x,-y,-z
1/2+x,y,-z
-x,1/2+y,1/2+z
1/2+x,1/2-y,1/2+z
loop_
_atom_site_type_symbol
_atom_site_label
_atom_site_fract_x
_atom_site_fract_y
_atom_site_fract_z
Si Si1 0.404282 0.835424 0.598510
Si Si2 0.957661 0.321739 0.466888
Si Si3 0.338670 0.918311 0.200148
Si Si4 0.535653 0.488146 0.284133
Si Si5 0.247668 0.823617 0.993548
O O1 0.472520 0.812418 0.507128
O O2 0.421676 0.667808 0.660188
O O3 0.428627 0.978720 0.673616
O O4 0.301906 0.818166 0.560956
O O5 0.858004 0.288726 0.510788
O O6 0.000000 0.500000 0.500000
O O7 0.946760 0.353008 0.351318
O O8 0.364501 0.750000 0.250000
O O9 0.305351 0.866707 0.091460
O O10 0.250000 0.000000 0.247459
O O11 0.426202 0.031976 0.210451
O O12 0.250000 0.000000 0.937827
#
# Coordination Sequence:
#
# PCOD9408083 Si02
#       5
#     8   8   8   8   8
#     4  10  19  34  62  97 122 171 224 281 339 408
#     4  10  17  32  58  91 127 172 227 273 341 409
#     4  11  24  38  61  99 132 168 222 285 345 409
#     4  10  20  35  61  90 132 165 218 279 338 410
#     4  11  18  34  62  91 125 171 231 272 329 424
#
# _framework density 24.409479999999999
#
# number of rings (size 3 to 8) (size 9 to 14) (size 15 to 20)
#    0.000    1.600    6.000    3.600    5.600    0.000 
#    0.000    1.000    8.800    0.000    0.000    0.000 
#    0.000    0.000    0.000    0.000    0.000    0.000 
#
# Total GULP energy -223395.027697 kJ/mol
# GULP energy per Si atom -5584.875692 kJ/mol
# Density = 2.435392 g / cm^3
# Si number density = 24.409480 Si / 1000 Ang^3
#
#
#
# Elastic Constant Matrix: (Units=GPa)
#
#
# Indices 1 2 3 4 5 6 
#
# 1 173.6925 21.0369 29.6192 0.0000 0.0000 0.0000
# 2 21.0369 79.9234 40.4285 0.0000 0.0000 0.0000
# 3 29.6192 40.4285 115.6237 0.0000 0.0000 0.0000
# 4 0.0000 0.0000 0.0000 38.2114 0.0000 0.0000
# 5 0.0000 0.0000 0.0000 0.0000 13.7319 0.0000
# 6 0.0000 0.0000 0.0000 0.0000 0.0000 0.6100
#
#
#
# Elastic Compliance Matrix: (Units=1/GPa)
#
#
# Indices 1 2 3 4 5 6 
#
# 1 0.006084 -0.000988 -0.001213 0.000000 0.000000 0.000000
# 2 -0.000988 0.015361 -0.005118 0.000000 0.000000 0.000000
# 3 -0.001213 -0.005118 0.010749 0.000000 0.000000 0.000000
# 4 0.000000 0.000000 0.000000 0.026170 0.000000 0.000000
# 5 0.000000 0.000000 0.000000 0.000000 0.072823 0.000000
# 6 0.000000 0.000000 0.000000 0.000000 0.000000 1.639403
#
#
# Mechanical properties :
#
#
# Convention : Reuss Voigt Hill
#
# Bulk Modulus (GPa) = 56.96036 61.26763 59.11399
# Shear Modulus (GPa) = 2.79161 29.05434 15.92297
#
# Velocity S-wave (km/s) = 1.07058 3.45380 2.55684
# Velocity P-wave (km/s) = 4.99141 6.40776 5.74341
#
# Compressibility (1/GPa) = 0.01755607
#
# Stress axis : x y z
#
# Youngs Moduli (GPa) = 164.37111 65.10066 93.03154
#
# Poissons Ratio (x) = 0.06430 0.11286
# Poissons Ratio (y) = 0.16235 0.47613
# Poissons Ratio (z) = 0.19940 0.33318
#
# Static dielectric constant tensor:
#      x y z
#    x 1.961040 0.000000 0.000000 
#    y 0.000000 1.925270 0.000000 
#    z 0.000000 0.000000 2.063480 
# 
# From -- ./inp_files/26909.got.cif
#   From: 2010.05.17/outbox.cif.g08.bks.cpg/sg52_14_cif.got.tgz:26909.got - 2010.06.03 12:15:38.
