data_PCOD9408855
_publ_section_title
;
Structure prediction by ZEFSAII (Michael W. Deem and Ramdas Pophale) SiO2 
 PCOD9408855
Probable space group: P N N A
;
_chemical_formula_sum "Si O2"
_cell_formula_units_Z 32
_cell_length_a 5.186703
_cell_length_b 7.236886
_cell_length_c 36.415462
_cell_angle_alpha 90.000000
_cell_angle_beta 90.000000
_cell_angle_gamma 90.000000
_cell_volume 1366.875426
_symmetry_space_group_name_H-M "P N N A"
_symmetry_group_IT_number 52
_symmetry_cell_setting 'orthorhombic'
loop_
_space_group_symop_operation_xyz
x,y,z
1/2-x,-y,z
x,1/2-y,1/2-z
1/2-x,1/2+y,1/2-z
-x,-y,-z
1/2+x,y,-z
-x,1/2+y,1/2+z
1/2+x,1/2-y,1/2+z
loop_
_atom_site_type_symbol
_atom_site_label
_atom_site_fract_x
_atom_site_fract_y
_atom_site_fract_z
Si Si1 0.717071 0.776223 0.359498
Si Si2 0.224866 0.720746 0.480818
Si Si3 0.000500 0.125817 0.284803
Si Si4 0.720650 0.781395 0.603367
O O1 0.595352 0.751677 0.319304
O O2 0.505420 0.707305 0.388387
O O3 0.000145 0.706259 0.369597
O O4 0.750000 0.000000 0.362110
O O5 0.250000 0.500000 0.484759
O O6 0.506067 0.792459 0.491730
O O7 0.149183 0.757140 0.438939
O O8 0.069126 0.250000 0.250000
O O9 0.750000 0.000000 0.275813
O O10 0.250000 0.000000 0.294734
O O11 0.750000 0.000000 0.610034
#
# Coordination Sequence:
#
# PCOD9408855 Si02
#       4
#     8   8   8   8
#     4   9  18  34  55  78 108 144 179 224 282 333
#     4  10  21  36  52  73 106 143 175 217 281 341
#     4  11  22  39  62  88 121 159 198 240 293 352
#     4  10  19  33  55  79 101 135 183 227 269 324
#
# _framework density 23.411059000000002
#
# number of rings (size 3 to 8) (size 9 to 14) (size 15 to 20)
#    0.000    2.000    0.000    6.000    0.000    1.000 
#    0.000    3.750    0.000    0.000    0.000    0.000 
#    0.000    0.000    0.000    0.000    0.000    0.000 
#
# Total GULP energy -178767.296961 kJ/mol
# GULP energy per Si atom -5586.478030 kJ/mol
# Density = 2.335777 g / cm^3
# Si number density = 23.411059 Si / 1000 Ang^3
#
#
#
# Elastic Constant Matrix: (Units=GPa)
#
#
# Indices 1 2 3 4 5 6 
#
# 1 147.4368 5.2351 44.1275 0.0000 0.0000 0.0000
# 2 5.2351 62.0402 -12.3930 0.0000 0.0000 0.0000
# 3 44.1275 -12.3930 121.4910 0.0000 0.0000 0.0000
# 4 0.0000 0.0000 0.0000 -0.8662 0.0000 0.0000
# 5 0.0000 0.0000 0.0000 0.0000 40.7932 0.0000
# 6 0.0000 0.0000 0.0000 0.0000 0.0000 -5.0306
#
#
#
# Elastic Compliance Matrix: (Units=1/GPa)
#
#
# Indices 1 2 3 4 5 6 
#
# 1 0.007701 -0.001234 -0.002923 0.000000 0.000000 0.000000
# 2 -0.001234 0.016652 0.002147 0.000000 0.000000 0.000000
# 3 -0.002923 0.002147 0.009512 0.000000 0.000000 0.000000
# 4 0.000000 0.000000 0.000000 -1.154509 0.000000 0.000000
# 5 0.000000 0.000000 0.000000 0.000000 0.024514 0.000000
# 6 0.000000 0.000000 0.000000 0.000000 0.000000 -0.198782
#
#
# Mechanical properties :
#
#
# Convention : Reuss Voigt Hill
#
# Bulk Modulus (GPa) = 33.50729 44.98969 39.24849
# Shear Modulus (GPa) = -3.90337 26.57917 11.33790
#
# Velocity S-wave (km/s) = -1.29265 3.37311 2.20306
# Velocity P-wave (km/s) = 3.48077 5.86767 4.82417
#
# Compressibility (1/GPa) = 0.02984425
#
# Stress axis : x y z
#
# Youngs Moduli (GPa) = 129.84919 60.05460 105.13317
#
# Poissons Ratio (x) = 0.07409 0.30731
# Poissons Ratio (y) = 0.16020 -0.22569
# Poissons Ratio (z) = 0.37956 -0.12892
#
# Static dielectric constant tensor:
#      x y z
#    x 1.869200 0.000000 0.000000 
#    y 0.000000 1.928620 0.000000 
#    z 0.000000 0.000000 1.845310 
# 
# From -- ./inp_files/43450.got.cif
#   From: 2010.05.17/outbox.cif.g08.bks.cpg/sg52_22_cif.got.tgz:43450.got - 2010.06.03 12:15:38.
