data_PCOD9408802
_publ_section_title
;
Structure prediction by ZEFSAII (Michael W. Deem and Ramdas Pophale) SiO2 
 PCOD9408802
Probable space group: P N N A
;
_chemical_formula_sum "Si O2"
_cell_formula_units_Z 36
_cell_length_a 24.908244
_cell_length_b 14.257673
_cell_length_c 5.268290
_cell_angle_alpha 90.000000
_cell_angle_beta 90.000000
_cell_angle_gamma 90.000000
_cell_volume 1870.946783
_symmetry_space_group_name_H-M "P N N A"
_symmetry_group_IT_number 52
_symmetry_cell_setting 'orthorhombic'
loop_
_space_group_symop_operation_xyz
x,y,z
1/2-x,-y,z
x,1/2-y,1/2-z
1/2-x,1/2+y,1/2-z
-x,-y,-z
1/2+x,y,-z
-x,1/2+y,1/2+z
1/2+x,1/2-y,1/2+z
loop_
_atom_site_type_symbol
_atom_site_label
_atom_site_fract_x
_atom_site_fract_y
_atom_site_fract_z
Si Si1 0.378193 0.498897 0.769639
Si Si2 0.487682 0.061461 0.749616
Si Si3 0.310107 0.538111 0.269933
Si Si4 0.438245 0.682838 0.942207
Si Si5 0.157792 0.250000 0.250000
O O1 0.423915 0.418729 0.752539
O O2 0.342376 0.505727 0.519520
O O3 0.414680 0.592300 0.797017
O O4 0.341809 0.500741 0.021681
O O5 0.527819 0.147216 0.686012
O O6 0.500000 0.000000 0.500000
O O7 0.500000 0.000000 0.000000
O O8 0.250000 0.500000 0.272072
O O9 0.310780 0.652210 0.267710
O O10 0.470036 0.750000 0.750000
O O11 0.384479 0.736863 0.023591
#
# Coordination Sequence:
#
# PCOD9408802 Si02
#       5
#     8   8   8   8   4
#     4  10  20  37  54  85 118 148 195 245 298 362
#     4  10  20  33  54  83 118 154 181 234 309 374
#     4  11  22  37  61  84 111 158 203 251 306 347
#     4  10  19  32  57  87 115 151 196 247 304 362
#     4  10  20  36  56  86 118 140 206 258 292 358
#
# _framework density 19.241596999999999
#
# number of rings (size 3 to 8) (size 9 to 14) (size 15 to 20)
#    0.000    1.778    2.222    4.667    3.111    0.000 
#    0.000    0.000    2.444    0.000    0.000    0.000 
#    0.000    0.000    0.000    0.000    0.000    0.000 
#
# Total GULP energy -200554.232182 kJ/mol
# GULP energy per Si atom -5570.950894 kJ/mol
# Density = 1.919780 g / cm^3
# Si number density = 19.241597 Si / 1000 Ang^3
#
#
#
# Elastic Constant Matrix: (Units=GPa)
#
#
# Indices 1 2 3 4 5 6 
#
# 1 168.1638 62.9879 75.5787 0.0000 0.0000 0.0000
# 2 62.9879 68.0979 33.6404 0.0000 0.0000 0.0000
# 3 75.5787 33.6404 175.0679 0.0000 0.0000 0.0000
# 4 0.0000 0.0000 0.0000 23.8564 0.0000 0.0000
# 5 0.0000 0.0000 0.0000 0.0000 24.3606 0.0000
# 6 0.0000 0.0000 0.0000 0.0000 0.0000 18.1020
#
#
#
# Elastic Compliance Matrix: (Units=1/GPa)
#
#
# Indices 1 2 3 4 5 6 
#
# 1 0.010264 -0.008071 -0.002880 0.000000 0.000000 0.000000
# 2 -0.008071 0.022572 -0.000853 0.000000 0.000000 0.000000
# 3 -0.002880 -0.000853 0.007119 0.000000 0.000000 0.000000
# 4 0.000000 0.000000 0.000000 0.041917 0.000000 0.000000
# 5 0.000000 0.000000 0.000000 0.000000 0.041050 0.000000
# 6 0.000000 0.000000 0.000000 0.000000 0.000000 0.055243
#
#
# Mechanical properties :
#
#
# Convention : Reuss Voigt Hill
#
# Bulk Modulus (GPa) = 61.17471 83.97152 72.57311
# Shear Modulus (GPa) = 24.12865 29.20531 26.66698
#
# Velocity S-wave (km/s) = 3.54501 3.90015 3.72681
# Velocity P-wave (km/s) = 6.97266 8.00106 7.50450
#
# Compressibility (1/GPa) = 0.01634663
#
# Stress axis : x y z
#
# Youngs Moduli (GPa) = 97.42583 44.30355 140.46154
#
# Poissons Ratio (x) = 0.35758 0.40456
# Poissons Ratio (y) = 0.78634 0.11980
# Poissons Ratio (z) = 0.28061 0.03779
#
# Static dielectric constant tensor:
#      x y z
#    x 1.671110 0.000000 0.000000 
#    y 0.000000 1.824310 0.000000 
#    z 0.000000 0.000000 1.675750 
# 
# From -- ./inp_files/5698.got.cif
#   From: 2010.05.17/outbox.cif.g08.bks.cpg/sg52_3_cif.got.tgz:5698.got - 2010.06.03 12:15:38.
