data_PCOD9408921
_publ_section_title
;
Structure prediction by ZEFSAII (Michael W. Deem and Ramdas Pophale) SiO2 
 PCOD9408921
Probable space group: P N N A
;
_chemical_formula_sum "Si O2"
_cell_formula_units_Z 32
_cell_length_a 7.323788
_cell_length_b 5.125300
_cell_length_c 36.246870
_cell_angle_alpha 90.000000
_cell_angle_beta 90.000000
_cell_angle_gamma 90.000000
_cell_volume 1360.584646
_symmetry_space_group_name_H-M "P N N A"
_symmetry_group_IT_number 52
_symmetry_cell_setting 'orthorhombic'
loop_
_space_group_symop_operation_xyz
x,y,z
1/2-x,-y,z
x,1/2-y,1/2-z
1/2-x,1/2+y,1/2-z
-x,-y,-z
1/2+x,y,-z
-x,1/2+y,1/2+z
1/2+x,1/2-y,1/2+z
loop_
_atom_site_type_symbol
_atom_site_label
_atom_site_fract_x
_atom_site_fract_y
_atom_site_fract_z
Si Si1 0.527329 0.496191 0.586419
Si Si2 0.967954 0.994619 0.543536
Si Si3 0.053910 0.105001 0.715286
Si Si4 0.961865 0.913383 0.829808
O O1 0.750000 0.500000 0.586257
O O2 0.465270 0.772683 0.570087
O O3 0.479094 0.403248 0.627589
O O4 0.461616 0.278376 0.558337
O O5 0.750000 0.000000 0.548142
O O6 0.000000 0.000000 0.500000
O O7 0.956827 0.250000 0.750000
O O8 0.071569 0.344362 0.687334
O O9 0.250000 0.000000 0.728655
O O10 0.973632 0.854608 0.693690
O O11 0.750000 0.000000 0.828979
#
# Coordination Sequence:
#
# PCOD9408921 Si02
#       4
#     8   8   8   8
#     4   9  19  36  58  83 115 153 191 243 305 351
#     4  10  19  34  55  81 115 154 193 236 293 354
#     4  12  25  44  64  89 128 168 197 242 319 385
#     4  11  23  42  69  95 119 157 214 263 299 358
#
# _framework density 23.519303000000001
#
# number of rings (size 3 to 8) (size 9 to 14) (size 15 to 20)
#    0.000    1.500    0.000    6.000    0.000    6.000 
#    0.000    8.750    0.000    0.000    0.000    0.000 
#    0.000    0.000    0.000    0.000    0.000    0.000 
#
# Total GULP energy -178757.523930 kJ/mol
# GULP energy per Si atom -5586.172623 kJ/mol
# Density = 2.346577 g / cm^3
# Si number density = 23.519303 Si / 1000 Ang^3
#
#
#
# Elastic Constant Matrix: (Units=GPa)
#
#
# Indices 1 2 3 4 5 6 
#
# 1 57.7098 7.5171 -5.3926 0.0000 0.0000 0.0000
# 2 7.5171 186.4770 83.9903 0.0000 0.0000 0.0000
# 3 -5.3926 83.9903 182.7571 0.0000 0.0000 0.0000
# 4 0.0000 0.0000 0.0000 47.7288 0.0000 0.0000
# 5 0.0000 0.0000 0.0000 0.0000 25.7827 0.0000
# 6 0.0000 0.0000 0.0000 0.0000 0.0000 18.4152
#
#
#
# Elastic Compliance Matrix: (Units=1/GPa)
#
#
# Indices 1 2 3 4 5 6 
#
# 1 0.017582 -0.001188 0.001065 0.000000 0.000000 0.000000
# 2 -0.001188 0.006843 -0.003180 0.000000 0.000000 0.000000
# 3 0.001065 -0.003180 0.006965 0.000000 0.000000 0.000000
# 4 0.000000 0.000000 0.000000 0.020952 0.000000 0.000000
# 5 0.000000 0.000000 0.000000 0.000000 0.038786 0.000000
# 6 0.000000 0.000000 0.000000 0.000000 0.000000 0.054303
#
#
# Mechanical properties :
#
#
# Convention : Reuss Voigt Hill
#
# Bulk Modulus (GPa) = 40.35009 66.57484 53.46247
# Shear Modulus (GPa) = 31.19198 41.10727 36.14962
#
# Velocity S-wave (km/s) = 3.64569 4.18522 3.92474
# Velocity P-wave (km/s) = 5.90888 7.19185 6.58170
#
# Compressibility (1/GPa) = 0.02478309
#
# Stress axis : x y z
#
# Youngs Moduli (GPa) = 56.87511 146.14125 143.58508
#
# Poissons Ratio (x) = 0.17368 -0.15291
# Poissons Ratio (y) = 0.06759 0.45657
# Poissons Ratio (z) = -0.06057 0.46470
#
# Static dielectric constant tensor:
#      x y z
#    x 1.990370 0.000000 0.000000 
#    y 0.000000 1.859660 0.000000 
#    z 0.000000 0.000000 1.898280 
# 
# From -- ./inp_files/44020.got.cif
#   From: 2010.05.17/outbox.cif.g08.bks.cpg/sg52_23_cif.got.tgz:44020.got - 2010.06.03 12:15:38.
