data_PCOD9408662
_publ_section_title
;
Structure prediction by ZEFSAII (Michael W. Deem and Ramdas Pophale) SiO2 
 PCOD9408662
Probable space group: P N N A
;
_chemical_formula_sum "Si O2"
_cell_formula_units_Z 56
_cell_length_a 17.661170
_cell_length_b 15.443832
_cell_length_c 8.893275
_cell_angle_alpha 90.000000
_cell_angle_beta 90.000000
_cell_angle_gamma 90.000000
_cell_volume 2425.695382
_symmetry_space_group_name_H-M "P N N A"
_symmetry_group_IT_number 52
_symmetry_cell_setting 'orthorhombic'
loop_
_space_group_symop_operation_xyz
x,y,z
1/2-x,-y,z
x,1/2-y,1/2-z
1/2-x,1/2+y,1/2-z
-x,-y,-z
1/2+x,y,-z
-x,1/2+y,1/2+z
1/2+x,1/2-y,1/2+z
loop_
_atom_site_type_symbol
_atom_site_label
_atom_site_fract_x
_atom_site_fract_y
_atom_site_fract_z
Si Si1 0.606169 0.773783 0.409947
Si Si2 0.323091 0.250000 0.250000
Si Si3 0.797643 0.614704 0.646662
Si Si4 0.427518 0.028291 0.676899
Si Si5 0.868534 0.750000 0.250000
Si Si6 0.061993 0.261436 0.438491
Si Si7 0.305600 0.931705 0.812408
Si Si8 0.094156 0.438203 0.133031
O O1 0.648013 0.750000 0.250000
O O2 0.637231 0.760939 0.582263
O O3 0.590159 0.874926 0.378791
O O4 0.525857 0.721305 0.404180
O O5 0.268200 0.332192 0.273791
O O6 0.870456 0.676382 0.613279
O O7 0.775030 0.586168 0.479890
O O8 0.834451 0.545817 0.760206
O O9 0.517286 0.020862 0.697729
O O10 0.383449 0.986601 0.816291
O O11 0.399897 0.971884 0.535503
O O12 0.924952 0.738651 0.386293
O O13 0.819348 0.837801 0.260797
O O14 0.079479 0.164329 0.385353
O O15 0.250000 0.000000 0.732837
#
# Coordination Sequence:
#
# PCOD9408662 Si02
#       8
#     8   4   8   8   4   8   8   8
#     4  11  26  46  75 108 155 196 241 317 385 447
#     4  12  27  48  72 113 152 200 256 304 383 458
#     4  11  24  43  71  97 141 199 247 305 368 453
#     4  10  23  41  68 104 137 182 241 306 365 442
#     4  10  21  40  74 103 140 194 250 310 369 456
#     4  10  18  41  72 104 133 191 253 302 370 453
#     4  11  26  43  65 106 146 190 248 307 376 457
#     4  10  19  41  67  95 136 177 241 304 359 432
#
# _framework density 23.086164
#
# number of rings (size 3 to 8) (size 9 to 14) (size 15 to 20)
#    0.000    1.429    2.857    2.143    2.000    5.143 
#    1.286    0.000    0.000    0.000    0.000    0.000 
#    0.000    0.000    0.000    0.000    0.000    0.000 
#
# Total GULP energy -312142.987360 kJ/mol
# GULP energy per Si atom -5573.981917 kJ/mol
# Density = 2.303362 g / cm^3
# Si number density = 23.086164 Si / 1000 Ang^3
#
#
#
# Elastic Constant Matrix: (Units=GPa)
#
#
# Indices 1 2 3 4 5 6 
#
# 1 82.6261 27.4710 42.8380 0.0000 0.0000 0.0000
# 2 27.4710 57.4774 17.1463 0.0000 0.0000 0.0000
# 3 42.8380 17.1463 110.0995 0.0000 0.0000 0.0000
# 4 0.0000 0.0000 0.0000 -94.2600 0.0000 0.0000
# 5 0.0000 0.0000 0.0000 0.0000 53.5684 0.0000
# 6 0.0000 0.0000 0.0000 0.0000 0.0000 0.4350
#
#
#
# Elastic Compliance Matrix: (Units=1/GPa)
#
#
# Indices 1 2 3 4 5 6 
#
# 1 0.017222 -0.006536 -0.005683 0.000000 0.000000 0.000000
# 2 -0.006536 0.020726 -0.000685 0.000000 0.000000 0.000000
# 3 -0.005683 -0.000685 0.011400 0.000000 0.000000 0.000000
# 4 0.000000 0.000000 0.000000 -0.010609 0.000000 0.000000
# 5 0.000000 0.000000 0.000000 0.000000 0.018668 0.000000
# 6 0.000000 0.000000 0.000000 0.000000 0.000000 2.299008
#
#
# Mechanical properties :
#
#
# Convention : Reuss Voigt Hill
#
# Bulk Modulus (GPa) = 42.47819 47.23486 44.85653
# Shear Modulus (GPa) = 2.09199 2.79853 2.44526
#
# Velocity S-wave (km/s) = 0.95296 1.10220 1.03029
# Velocity P-wave (km/s) = 4.43290 4.70366 4.57029
#
# Compressibility (1/GPa) = 0.02354149
#
# Stress axis : x y z
#
# Youngs Moduli (GPa) = 58.06491 48.24812 87.71546
#
# Poissons Ratio (x) = 0.31534 0.49849
# Poissons Ratio (y) = 0.37951 0.06007
# Poissons Ratio (z) = 0.32998 0.03304
#
# Static dielectric constant tensor:
#      x y z
#    x 1.912360 0.000000 0.000000 
#    y 0.000000 2.010380 0.000000 
#    z 0.000000 0.000000 2.063590 
# 
# From -- ./inp_files/13480.got.cif
#   From: 2010.05.17/outbox.cif.g08.bks.cpg/sg52_7_cif.got.tgz:13480.got - 2010.06.03 12:15:38.
