data_PCOD9408914
_publ_section_title
;
Structure prediction by ZEFSAII (Michael W. Deem and Ramdas Pophale) SiO2 
 PCOD9408914
Probable space group: P N N A
;
_chemical_formula_sum "Si O2"
_cell_formula_units_Z 48
_cell_length_a 10.117807
_cell_length_b 12.378391
_cell_length_c 23.930142
_cell_angle_alpha 90.000000
_cell_angle_beta 90.000000
_cell_angle_gamma 90.000000
_cell_volume 2997.062939
_symmetry_space_group_name_H-M "P N N A"
_symmetry_group_IT_number 52
_symmetry_cell_setting 'orthorhombic'
loop_
_space_group_symop_operation_xyz
x,y,z
1/2-x,-y,z
x,1/2-y,1/2-z
1/2-x,1/2+y,1/2-z
-x,-y,-z
1/2+x,y,-z
-x,1/2+y,1/2+z
1/2+x,1/2-y,1/2+z
loop_
_atom_site_type_symbol
_atom_site_label
_atom_site_fract_x
_atom_site_fract_y
_atom_site_fract_z
Si Si1 0.041522 0.780416 0.166961
Si Si2 0.639356 0.918562 0.273005
Si Si3 0.385787 0.432821 0.228476
Si Si4 0.279353 0.206345 0.834908
Si Si5 0.870786 0.417014 0.439209
Si Si6 0.117930 0.569966 0.431448
O O1 0.094057 0.660548 0.181597
O O2 0.091216 0.863230 0.214998
O O3 0.096700 0.830761 0.110049
O O4 0.880391 0.780867 0.166749
O O5 0.679471 0.885326 0.209831
O O6 0.651295 0.812532 0.310531
O O7 0.750000 0.000000 0.294241
O O8 0.501263 0.978882 0.274728
O O9 0.250000 0.500000 0.227111
O O10 0.333987 0.175903 0.895661
O O11 0.750000 0.500000 0.435966
O O12 0.886124 0.388722 0.504465
O O13 0.999557 0.484743 0.422342
O O14 0.250000 0.500000 0.422677
#
# Coordination Sequence:
#
# PCOD9408914 Si02
#       6
#     8   8   8   8   8   8
#     4  11  20  36  56  78 108 148 174 214 273 316
#     4  11  19  34  54  83 104 138 181 213 257 317
#     4  11  23  35  54  81 115 139 172 219 270 320
#     4  11  20  32  60  80 106 141 183 220 253 318
#     4  10  19  34  54  80 106 140 175 221 269 309
#     4  10  21  33  53  80 110 137 175 221 270 318
#
# _framework density 16.015678999999999
#
# number of rings (size 3 to 8) (size 9 to 14) (size 15 to 20)
#    0.000    1.333    5.000    3.000    0.000    4.000 
#    0.000    0.000    0.000    2.000    0.000    0.000 
#    0.000    0.000    0.000    0.000    0.000    0.000 
#
# Total GULP energy -267738.627258 kJ/mol
# GULP energy per Si atom -5577.888068 kJ/mol
# Density = 1.597923 g / cm^3
# Si number density = 16.015679 Si / 1000 Ang^3
#
#
#
# Elastic Constant Matrix: (Units=GPa)
#
#
# Indices 1 2 3 4 5 6 
#
# 1 124.1357 54.1550 21.9058 0.0000 0.0000 0.0000
# 2 54.1550 111.2786 49.3403 0.0000 0.0000 0.0000
# 3 21.9058 49.3403 74.7629 0.0000 0.0000 0.0000
# 4 0.0000 0.0000 0.0000 23.6175 0.0000 0.0000
# 5 0.0000 0.0000 0.0000 0.0000 25.5717 0.0000
# 6 0.0000 0.0000 0.0000 0.0000 0.0000 26.9704
#
#
#
# Elastic Compliance Matrix: (Units=1/GPa)
#
#
# Indices 1 2 3 4 5 6 
#
# 1 0.010236 -0.005162 0.000408 0.000000 0.000000 0.000000
# 2 -0.005162 0.015307 -0.008590 0.000000 0.000000 0.000000
# 3 0.000408 -0.008590 0.018925 0.000000 0.000000 0.000000
# 4 0.000000 0.000000 0.000000 0.042342 0.000000 0.000000
# 5 0.000000 0.000000 0.000000 0.000000 0.039106 0.000000
# 6 0.000000 0.000000 0.000000 0.000000 0.000000 0.037078
#
#
# Mechanical properties :
#
#
# Convention : Reuss Voigt Hill
#
# Bulk Modulus (GPa) = 56.24350 62.33105 59.28728
# Shear Modulus (GPa) = 25.56138 27.55032 26.55585
#
# Velocity S-wave (km/s) = 3.99936 4.15204 4.07641
# Velocity P-wave (km/s) = 7.51801 7.87332 7.69772
#
# Compressibility (1/GPa) = 0.01777983
#
# Stress axis : x y z
#
# Youngs Moduli (GPa) = 97.69665 65.32858 52.84030
#
# Poissons Ratio (x) = 0.33723 -0.02154
# Poissons Ratio (y) = 0.50432 0.45388
# Poissons Ratio (z) = -0.03983 0.56115
#
# Static dielectric constant tensor:
#      x y z
#    x 1.547620 0.000000 0.000000 
#    y 0.000000 1.459740 0.000000 
#    z 0.000000 0.000000 1.567030 
# 
# From -- ./inp_files/39431.got.cif
#   From: 2010.05.17/outbox.cif.g08.bks.cpg/sg52_20_cif.got.tgz:39431.got - 2010.06.03 12:15:38.
