data_PCOD9408663
_publ_section_title
;
Structure prediction by ZEFSAII (Michael W. Deem and Ramdas Pophale) SiO2 
 PCOD9408663
Probable space group: P N N A
;
_chemical_formula_sum "Si O2"
_cell_formula_units_Z 16
_cell_length_a 5.141584
_cell_length_b 5.060686
_cell_length_c 25.086214
_cell_angle_alpha 90.000000
_cell_angle_beta 90.000000
_cell_angle_gamma 90.000000
_cell_volume 652.741837
_symmetry_space_group_name_H-M "P N N A"
_symmetry_group_IT_number 52
_symmetry_cell_setting 'orthorhombic'
loop_
_space_group_symop_operation_xyz
x,y,z
1/2-x,-y,z
x,1/2-y,1/2-z
1/2-x,1/2+y,1/2-z
-x,-y,-z
1/2+x,y,-z
-x,1/2+y,1/2+z
1/2+x,1/2-y,1/2+z
loop_
_atom_site_type_symbol
_atom_site_label
_atom_site_fract_x
_atom_site_fract_y
_atom_site_fract_z
Si Si1 0.750000 0.000000 0.784422
Si Si2 0.578221 0.728746 0.613070
Si Si3 0.250000 0.000000 0.537639
O O1 0.656468 0.250000 0.750000
O O2 0.545729 0.872597 0.826436
O O3 0.750000 0.500000 0.586037
O O4 0.320017 0.774165 0.580000
O O5 0.750000 0.000000 0.614535
O O6 0.500000 0.000000 0.500000
#
# Coordination Sequence:
#
# PCOD9408663 Si02
#       3
#     4   8   4
#     4  10  18  41  80 106 154 203 254 324 408 458
#     4  10  23  44  73 114 155 193 268 318 384 485
#     4  12  26  49  80 114 156 215 254 324 400 458
#
# _framework density 24.511989
#
# number of rings (size 3 to 8) (size 9 to 14) (size 15 to 20)
#    1.500    0.000    5.000    0.000    0.000    4.000 
#    0.000    0.000   11.000    0.000    0.000    0.000 
#    0.000    0.000    0.000    0.000    0.000    0.000 
#
# Total GULP energy -89199.455152 kJ/mol
# GULP energy per Si atom -5574.965947 kJ/mol
# Density = 2.445620 g / cm^3
# Si number density = 24.511989 Si / 1000 Ang^3
#
#
#
# Elastic Constant Matrix: (Units=GPa)
#
#
# Indices 1 2 3 4 5 6 
#
# 1 144.2316 68.0544 67.4460 0.0000 0.0000 0.0000
# 2 68.0544 214.1869 69.7800 0.0000 0.0000 0.0000
# 3 67.4460 69.7800 188.5057 0.0000 0.0000 0.0000
# 4 0.0000 0.0000 0.0000 4923.9660 0.0000 0.0000
# 5 0.0000 0.0000 0.0000 0.0000 115.1210 0.0000
# 6 0.0000 0.0000 0.0000 0.0000 0.0000 38.0338
#
#
#
# Elastic Compliance Matrix: (Units=1/GPa)
#
#
# Indices 1 2 3 4 5 6 
#
# 1 0.009071 -0.002075 -0.002477 0.000000 0.000000 0.000000
# 2 -0.002075 0.005784 -0.001399 0.000000 0.000000 0.000000
# 3 -0.002477 -0.001399 0.006709 0.000000 0.000000 0.000000
# 4 0.000000 0.000000 0.000000 0.000203 0.000000 0.000000
# 5 0.000000 0.000000 0.000000 0.000000 0.008687 0.000000
# 6 0.000000 0.000000 0.000000 0.000000 0.000000 0.026292
#
#
# Mechanical properties :
#
#
# Convention : Reuss Voigt Hill
#
# Bulk Modulus (GPa) = 103.50169 106.38720 104.94444
# Shear Modulus (GPa) = 69.57193 1038.20040 553.88617
#
# Velocity S-wave (km/s) = 5.33333 20.60261 15.04845
# Velocity P-wave (km/s) = 8.95782 24.68710 18.57008
#
# Compressibility (1/GPa) = 0.00966168
#
# Stress axis : x y z
#
# Youngs Moduli (GPa) = 110.24334 172.89782 149.05389
#
# Poissons Ratio (x) = 0.35876 0.36926
# Poissons Ratio (y) = 0.22876 0.20846
# Poissons Ratio (z) = 0.27311 0.24181
#
# Static dielectric constant tensor:
#      x y z
#    x 1.999680 0.000000 0.000000 
#    y 0.000000 1.989670 0.000000 
#    z 0.000000 0.000000 2.001150 
# 
# From -- ./inp_files/41245.got.cif
#   From: 2010.05.17/outbox.cif.g08.bks.cpg/sg52_21_cif.got.tgz:41245.got - 2010.06.03 12:15:38.
