data_PCOD9408979
_publ_section_title
;
Structure prediction by ZEFSAII (Michael W. Deem and Ramdas Pophale) SiO2 
 PCOD9408979
Probable space group: P N N A
;
_chemical_formula_sum "Si O2"
_cell_formula_units_Z 56
_cell_length_a 15.369522
_cell_length_b 16.447439
_cell_length_c 12.201008
_cell_angle_alpha 90.000000
_cell_angle_beta 90.000000
_cell_angle_gamma 90.000000
_cell_volume 3084.283973
_symmetry_space_group_name_H-M "P N N A"
_symmetry_group_IT_number 52
_symmetry_cell_setting 'orthorhombic'
loop_
_space_group_symop_operation_xyz
x,y,z
1/2-x,-y,z
x,1/2-y,1/2-z
1/2-x,1/2+y,1/2-z
-x,-y,-z
1/2+x,y,-z
-x,1/2+y,1/2+z
1/2+x,1/2-y,1/2+z
loop_
_atom_site_type_symbol
_atom_site_label
_atom_site_fract_x
_atom_site_fract_y
_atom_site_fract_z
Si Si1 0.512636 0.379685 0.254316
Si Si2 0.795827 0.664922 0.315380
Si Si3 0.003400 0.960565 0.619860
Si Si4 0.454771 0.254986 0.424024
Si Si5 0.574002 0.287286 0.868092
Si Si6 0.797243 0.084214 0.365137
Si Si7 0.746486 0.734961 0.982497
O O1 0.613463 0.378704 0.289808
O O2 0.488916 0.468255 0.208776
O O3 0.466247 0.339730 0.359248
O O4 0.494193 0.315710 0.155134
O O5 0.801881 0.750000 0.250000
O O6 0.722649 0.611693 0.258292
O O7 0.772350 0.690581 0.437528
O O8 0.940110 0.884323 0.632037
O O9 0.100394 0.924723 0.625326
O O10 0.000000 0.000000 0.500000
O O11 0.510508 0.248406 0.536181
O O12 0.351927 0.242795 0.439969
O O13 0.551558 0.250000 0.750000
O O14 0.674721 0.270756 0.897333
O O15 0.757512 0.152979 0.444159
O O16 0.750000 0.000000 0.389610
#
# Coordination Sequence:
#
# PCOD9408979 Si02
#       7
#     8   8   8   8   8   8   8
#     4  11  20  40  68  93 126 167 220 265 323 393
#     4  10  19  34  62  91 121 162 219 271 310 370
#     4  12  23  40  64 100 132 164 211 284 331 374
#     4  11  22  40  68  93 122 178 220 255 322 397
#     4  12  26  42  63  97 136 167 212 270 328 386
#     4  11  20  32  63  99 122 153 218 275 324 363
#     4  11  23  40  63  90 128 172 215 259 320 393
#
# _framework density 18.156563999999999
#
# number of rings (size 3 to 8) (size 9 to 14) (size 15 to 20)
#    0.000    0.857    7.143    1.714    4.000    0.000 
#    0.000    0.714    3.143    0.000    0.000    0.000 
#    0.000    0.000    0.000    0.000    0.000    0.000 
#
# Total GULP energy -312521.967194 kJ/mol
# GULP energy per Si atom -5580.749414 kJ/mol
# Density = 1.811524 g / cm^3
# Si number density = 18.156564 Si / 1000 Ang^3
#
#
#
# Elastic Constant Matrix: (Units=GPa)
#
#
# Indices 1 2 3 4 5 6 
#
# 1 111.8551 24.0062 47.2838 0.0000 0.0000 0.0000
# 2 24.0062 75.5295 59.3235 0.0000 0.0000 0.0000
# 3 47.2838 59.3235 113.9894 0.0000 0.0000 0.0000
# 4 0.0000 0.0000 0.0000 35.7061 0.0000 0.0000
# 5 0.0000 0.0000 0.0000 0.0000 12.0158 0.0000
# 6 0.0000 0.0000 0.0000 0.0000 0.0000 31.2983
#
#
#
# Elastic Compliance Matrix: (Units=1/GPa)
#
#
# Indices 1 2 3 4 5 6 
#
# 1 0.010842 0.000146 -0.004573 0.000000 0.000000 0.000000
# 2 0.000146 0.022395 -0.011716 0.000000 0.000000 0.000000
# 3 -0.004573 -0.011716 0.016767 0.000000 0.000000 0.000000
# 4 0.000000 0.000000 0.000000 0.028006 0.000000 0.000000
# 5 0.000000 0.000000 0.000000 0.000000 0.083223 0.000000
# 6 0.000000 0.000000 0.000000 0.000000 0.000000 0.031951
#
#
# Mechanical properties :
#
#
# Convention : Reuss Voigt Hill
#
# Bulk Modulus (GPa) = 56.43887 62.51121 59.47504
# Shear Modulus (GPa) = 21.60969 27.18808 24.39889
#
# Velocity S-wave (km/s) = 3.45365 3.87385 3.66977
# Velocity P-wave (km/s) = 6.85971 7.38327 7.12630
#
# Compressibility (1/GPa) = 0.01771828
#
# Stress axis : x y z
#
# Youngs Moduli (GPa) = 92.23322 44.65186 59.64051
#
# Poissons Ratio (x) = -0.00652 0.27276
# Poissons Ratio (y) = -0.01347 0.69874
# Poissons Ratio (z) = 0.42182 0.52314
#
# Static dielectric constant tensor:
#      x y z
#    x 1.634640 0.000000 0.000000 
#    y 0.000000 1.616970 0.000000 
#    z 0.000000 0.000000 1.667570 
# 
# From -- ./inp_files/19631.got.cif
#   From: 2010.05.17/outbox.cif.g08.bks.cpg/sg52_10_cif.got.tgz:19631.got - 2010.06.03 12:15:38.
