data_PCOD9408313
_publ_section_title
;
Structure prediction by ZEFSAII (Michael W. Deem and Ramdas Pophale) SiO2 
 PCOD9408313
Probable space group: P N N A
;
_chemical_formula_sum "Si O2"
_cell_formula_units_Z 56
_cell_length_a 19.151442
_cell_length_b 15.610686
_cell_length_c 7.410196
_cell_angle_alpha 90.000000
_cell_angle_beta 90.000000
_cell_angle_gamma 90.000000
_cell_volume 2215.405161
_symmetry_space_group_name_H-M "P N N A"
_symmetry_group_IT_number 52
_symmetry_cell_setting 'orthorhombic'
loop_
_space_group_symop_operation_xyz
x,y,z
1/2-x,-y,z
x,1/2-y,1/2-z
1/2-x,1/2+y,1/2-z
-x,-y,-z
1/2+x,y,-z
-x,1/2+y,1/2+z
1/2+x,1/2-y,1/2+z
loop_
_atom_site_type_symbol
_atom_site_label
_atom_site_fract_x
_atom_site_fract_y
_atom_site_fract_z
Si Si1 0.716854 0.224386 0.956852
Si Si2 0.325681 0.527594 0.514068
Si Si3 0.489018 0.795861 0.042095
Si Si4 0.393098 0.462759 0.140542
Si Si5 0.631111 0.770646 0.534798
Si Si6 0.408196 0.651633 0.080784
Si Si7 0.965564 0.545817 0.327136
O O1 0.729325 0.250000 0.750000
O O2 0.688049 0.128155 0.970187
O O3 0.558519 0.167912 0.787537
O O4 0.654884 0.290491 0.996036
O O5 0.250000 0.500000 0.577145
O O6 0.350517 0.475599 0.332156
O O7 0.386080 0.516161 0.661833
O O8 0.572165 0.787906 0.064155
O O9 0.467302 0.856201 0.882901
O O10 0.472515 0.698374 0.989435
O O11 0.373959 0.375159 0.038045
O O12 0.384201 0.555991 0.052490
O O13 0.476288 0.466166 0.178105
O O14 0.622371 0.750000 0.750000
O O15 0.706868 0.740696 0.463158
O O16 0.000000 0.500000 0.500000
#
# Coordination Sequence:
#
# PCOD9408313 Si02
#       7
#     8   8   8   8   8   8   8
#     4  11  18  34  50  84 112 147 180 231 285 340
#     4  11  19  29  53  81 111 143 185 234 286 328
#     4  11  19  37  53  82 112 151 185 235 277 349
#     4  11  21  34  53  84 113 146 184 242 279 334
#     4  11  24  32  53  87 123 139 182 241 296 326
#     4  11  20  36  62  77 109 157 196 223 281 349
#     4  10  18  32  51  78 108 144 188 232 282 321
#
# _framework density 25.277540999999999
#
# number of rings (size 3 to 8) (size 9 to 14) (size 15 to 20)
#    0.000    1.143    8.571    1.714    2.000    0.571 
#    0.000    0.000    0.000    0.000   14.857    0.000 
#    0.000    0.000    0.000    0.000    0.000    0.000 
#
# Total GULP energy -311978.409795 kJ/mol
# GULP energy per Si atom -5571.043032 kJ/mol
# Density = 2.522001 g / cm^3
# Si number density = 25.277541 Si / 1000 Ang^3
#
#
#
# Elastic Constant Matrix: (Units=GPa)
#
#
# Indices 1 2 3 4 5 6 
#
# 1 202.1463 14.8334 0.7911 0.0000 0.0000 0.0000
# 2 14.8334 121.3515 5.5019 0.0000 0.0000 0.0000
# 3 0.7911 5.5019 66.9482 0.0000 0.0000 0.0000
# 4 0.0000 0.0000 0.0000 12.0305 0.0000 0.0000
# 5 0.0000 0.0000 0.0000 0.0000 14.0731 0.0000
# 6 0.0000 0.0000 0.0000 0.0000 0.0000 39.2993
#
#
#
# Elastic Compliance Matrix: (Units=1/GPa)
#
#
# Indices 1 2 3 4 5 6 
#
# 1 0.004992 -0.000610 -0.000009 0.000000 0.000000 0.000000
# 2 -0.000610 0.008346 -0.000679 0.000000 0.000000 0.000000
# 3 -0.000009 -0.000679 0.014993 0.000000 0.000000 0.000000
# 4 0.000000 0.000000 0.000000 0.083122 0.000000 0.000000
# 5 0.000000 0.000000 0.000000 0.000000 0.071057 0.000000
# 6 0.000000 0.000000 0.000000 0.000000 0.000000 0.025446
#
#
# Mechanical properties :
#
#
# Convention : Reuss Voigt Hill
#
# Bulk Modulus (GPa) = 38.85650 48.07766 43.46708
# Shear Modulus (GPa) = 22.81764 37.70189 30.25977
#
# Velocity S-wave (km/s) = 3.00773 3.86621 3.46367
# Velocity P-wave (km/s) = 5.24092 6.24430 5.76448
#
# Compressibility (1/GPa) = 0.02573572
#
# Stress axis : x y z
#
# Youngs Moduli (GPa) = 200.33295 119.82031 66.69866
#
# Poissons Ratio (x) = 0.07306 0.00059
# Poissons Ratio (y) = 0.12215 0.04527
# Poissons Ratio (z) = 0.00178 0.08132
#
# Static dielectric constant tensor:
#      x y z
#    x 2.076420 0.000000 0.000000 
#    y 0.000000 2.369650 0.000000 
#    z 0.000000 0.000000 2.136150 
# 
# From -- ./inp_files/20931.got.cif
#   From: 2010.05.17/outbox.cif.g08.bks.cpg/sg52_11_cif.got.tgz:20931.got - 2010.06.03 12:15:38.
