data_PCOD9408578
_publ_section_title
;
Structure prediction by ZEFSAII (Michael W. Deem and Ramdas Pophale) SiO2 
 PCOD9408578
Probable space group: P N N A
;
_chemical_formula_sum "Si O2"
_cell_formula_units_Z 28
_cell_length_a 8.646603
_cell_length_b 9.868962
_cell_length_c 13.320244
_cell_angle_alpha 90.000000
_cell_angle_beta 90.000000
_cell_angle_gamma 90.000000
_cell_volume 1136.656334
_symmetry_space_group_name_H-M "P N N A"
_symmetry_group_IT_number 52
_symmetry_cell_setting 'orthorhombic'
loop_
_space_group_symop_operation_xyz
x,y,z
1/2-x,-y,z
x,1/2-y,1/2-z
1/2-x,1/2+y,1/2-z
-x,-y,-z
1/2+x,y,-z
-x,1/2+y,1/2+z
1/2+x,1/2-y,1/2+z
loop_
_atom_site_type_symbol
_atom_site_label
_atom_site_fract_x
_atom_site_fract_y
_atom_site_fract_z
Si Si1 0.337904 0.372545 0.921258
Si Si2 0.598611 0.908725 0.072161
Si Si3 0.112442 0.250000 0.750000
Si Si4 0.432163 0.519933 0.239747
O O1 0.250000 0.500000 0.969007
O O2 0.373747 0.236425 0.981470
O O3 0.222816 0.307734 0.837304
O O4 0.485715 0.432915 0.862949
O O5 0.496584 0.882999 0.171926
O O6 0.750000 0.000000 0.096435
O O7 0.500000 0.000000 0.000000
O O8 0.004424 0.376397 0.726490
O O9 0.250000 0.500000 0.233833
#
# Coordination Sequence:
#
# PCOD9408578 Si02
#       4
#     8   8   4   8
#     4  10  20  41  65  90 124 171 217 265 324 386
#     4  12  23  42  62  91 131 171 212 261 335 396
#     4  10  18  36  66  86 124 160 212 272 310 380
#     4  11  22  36  65  99 125 160 220 271 317 379
#
# _framework density 24.633656999999999
#
# number of rings (size 3 to 8) (size 9 to 14) (size 15 to 20)
#    0.000    1.143    5.714    1.714    4.000    0.000 
#    0.000    1.429    0.000    0.000    0.000    0.000 
#    0.000    0.000    0.000    0.000    0.000    0.000 
#
# Total GULP energy -156635.026201 kJ/mol
# GULP energy per Si atom -5594.108079 kJ/mol
# Density = 2.457759 g / cm^3
# Si number density = 24.633657 Si / 1000 Ang^3
#
#
#
# Elastic Constant Matrix: (Units=GPa)
#
#
# Indices 1 2 3 4 5 6 
#
# 1 200.7264 61.1208 31.4141 0.0000 0.0000 0.0000
# 2 61.1208 203.9927 11.0306 0.0000 0.0000 0.0000
# 3 31.4141 11.0306 41.5926 0.0000 0.0000 0.0000
# 4 0.0000 0.0000 0.0000 19.3567 0.0000 0.0000
# 5 0.0000 0.0000 0.0000 0.0000 14.4894 0.0000
# 6 0.0000 0.0000 0.0000 0.0000 0.0000 35.8019
#
#
#
# Elastic Compliance Matrix: (Units=1/GPa)
#
#
# Indices 1 2 3 4 5 6 
#
# 1 0.006130 -0.001609 -0.004203 0.000000 0.000000 0.000000
# 2 -0.001609 0.005396 -0.000216 0.000000 0.000000 0.000000
# 3 -0.004203 -0.000216 0.027274 0.000000 0.000000 0.000000
# 4 0.000000 0.000000 0.000000 0.051662 0.000000 0.000000
# 5 0.000000 0.000000 0.000000 0.000000 0.069016 0.000000
# 6 0.000000 0.000000 0.000000 0.000000 0.000000 0.027931
#
#
# Mechanical properties :
#
#
# Convention : Reuss Voigt Hill
#
# Bulk Modulus (GPa) = 37.39094 72.60474 54.99784
# Shear Modulus (GPa) = 23.99469 36.77934 30.38701
#
# Velocity S-wave (km/s) = 3.12438 3.86820 3.51601
# Velocity P-wave (km/s) = 5.31295 7.03480 6.23361
#
# Compressibility (1/GPa) = 0.02674444
#
# Stress axis : x y z
#
# Youngs Moduli (GPa) = 163.14032 185.32306 36.66470
#
# Poissons Ratio (x) = 0.29825 0.15410
# Poissons Ratio (y) = 0.26255 0.00790
# Poissons Ratio (z) = 0.68565 0.03995
#
# Static dielectric constant tensor:
#      x y z
#    x 1.963400 0.000000 0.000000 
#    y 0.000000 2.109900 0.000000 
#    z 0.000000 0.000000 2.018660 
# 
# From -- ./inp_files/30637.got.cif
#   From: 2010.05.17/outbox.cif.g08.bks.cpg/sg52_16_cif.got.tgz:30637.got - 2010.06.03 12:15:38.
