data_PCOD9408759
_publ_section_title
;
Structure prediction by ZEFSAII (Michael W. Deem and Ramdas Pophale) SiO2 
 PCOD9408759
Probable space group: P N N A
;
_chemical_formula_sum "Si O2"
_cell_formula_units_Z 48
_cell_length_a 5.437728
_cell_length_b 19.635583
_cell_length_c 25.763045
_cell_angle_alpha 90.000000
_cell_angle_beta 90.000000
_cell_angle_gamma 90.000000
_cell_volume 2750.796560
_symmetry_space_group_name_H-M "P N N A"
_symmetry_group_IT_number 52
_symmetry_cell_setting 'orthorhombic'
loop_
_space_group_symop_operation_xyz
x,y,z
1/2-x,-y,z
x,1/2-y,1/2-z
1/2-x,1/2+y,1/2-z
-x,-y,-z
1/2+x,y,-z
-x,1/2+y,1/2+z
1/2+x,1/2-y,1/2+z
loop_
_atom_site_type_symbol
_atom_site_label
_atom_site_fract_x
_atom_site_fract_y
_atom_site_fract_z
Si Si1 0.568045 0.172413 0.772547
Si Si2 0.853088 0.816788 0.527616
Si Si3 0.977939 0.328245 0.881203
Si Si4 0.577355 0.290722 0.305128
Si Si5 0.129146 0.570839 0.926449
Si Si6 0.160365 0.072593 0.318562
O O1 0.572954 0.250000 0.750000
O O2 0.325519 0.166570 0.806751
O O3 0.544656 0.119649 0.725426
O O4 0.825226 0.166978 0.802796
O O5 0.613648 0.792341 0.495232
O O6 0.759753 0.802924 0.586216
O O7 0.921860 0.897878 0.535201
O O8 0.084254 0.264730 0.850614
O O9 0.164703 0.370084 0.917895
O O10 0.888398 0.383183 0.839475
O O11 0.579900 0.250000 0.250000
O O12 0.250000 0.500000 0.942122
O O13 0.006818 0.560834 0.869576
O O14 0.250000 0.000000 0.298724
#
# Coordination Sequence:
#
# PCOD9408759 Si02
#       6
#     8   8   8   8   8   8
#     4  10  19  32  49  71 100 127 163 213 247 306
#     4  11  24  40  52  70  95 129 175 227 278 321
#     4  11  21  37  54  72  96 135 174 224 264 306
#     4  10  19  32  53  72  96 122 165 212 248 306
#     4  11  22  34  52  69  95 130 179 226 271 311
#     4  11  21  32  50  77 105 136 174 223 267 307
#
# _framework density 17.449490000000001
#
# number of rings (size 3 to 8) (size 9 to 14) (size 15 to 20)
#    0.000    1.333    6.667    2.000    2.333    0.667 
#    0.000    0.000    0.000    0.000    0.000    0.000 
#    0.000    0.000    0.000    0.000    0.000   16.667 
#
# Total GULP energy -267373.032934 kJ/mol
# GULP energy per Si atom -5570.271519 kJ/mol
# Density = 1.740977 g / cm^3
# Si number density = 17.449490 Si / 1000 Ang^3
#
#
#
# Elastic Constant Matrix: (Units=GPa)
#
#
# Indices 1 2 3 4 5 6 
#
# 1 126.1465 13.5159 21.7335 0.0000 0.0000 0.0000
# 2 13.5159 31.3215 24.5439 0.0000 0.0000 0.0000
# 3 21.7335 24.5439 46.0528 0.0000 0.0000 0.0000
# 4 0.0000 0.0000 0.0000 15.8121 0.0000 0.0000
# 5 0.0000 0.0000 0.0000 0.0000 22.3768 0.0000
# 6 0.0000 0.0000 0.0000 0.0000 0.0000 42.9182
#
#
#
# Elastic Compliance Matrix: (Units=1/GPa)
#
#
# Indices 1 2 3 4 5 6 
#
# 1 0.008644 -0.000916 -0.003591 0.000000 0.000000 0.000000
# 2 -0.000916 0.054919 -0.028837 0.000000 0.000000 0.000000
# 3 -0.003591 -0.028837 0.038778 0.000000 0.000000 0.000000
# 4 0.000000 0.000000 0.000000 0.063243 0.000000 0.000000
# 5 0.000000 0.000000 0.000000 0.000000 0.044689 0.000000
# 6 0.000000 0.000000 0.000000 0.000000 0.000000 0.023300
#
#
# Mechanical properties :
#
#
# Convention : Reuss Voigt Hill
#
# Bulk Modulus (GPa) = 28.04838 35.90082 31.97460
# Shear Modulus (GPa) = 16.01814 25.80327 20.91071
#
# Velocity S-wave (km/s) = 3.03309 3.84961 3.46548
# Velocity P-wave (km/s) = 5.32683 6.35438 5.86316
#
# Compressibility (1/GPa) = 0.03565268
#
# Stress axis : x y z
#
# Youngs Moduli (GPa) = 115.68515 18.20848 25.78798
#
# Poissons Ratio (x) = 0.01668 0.09261
# Poissons Ratio (y) = 0.10597 0.74365
# Poissons Ratio (z) = 0.41545 0.52508
#
# Static dielectric constant tensor:
#      x y z
#    x 1.752630 0.000000 0.000000 
#    y 0.000000 1.554020 0.000000 
#    z 0.000000 0.000000 1.649690 
# 
# From -- ./inp_files/38830.got.cif
#   From: 2010.05.17/outbox.cif.g08.bks.cpg/sg52_20_cif.got.tgz:38830.got - 2010.06.03 12:15:38.
