data_PCOD9408101
_publ_section_title
;
Structure prediction by ZEFSAII (Michael W. Deem and Ramdas Pophale) SiO2 
 PCOD9408101
Probable space group: P N N A
;
_chemical_formula_sum "Si O2"
_cell_formula_units_Z 64
_cell_length_a 19.583155
_cell_length_b 11.716256
_cell_length_c 13.802825
_cell_angle_alpha 90.000000
_cell_angle_beta 90.000000
_cell_angle_gamma 90.000000
_cell_volume 3166.937522
_symmetry_space_group_name_H-M "P N N A"
_symmetry_group_IT_number 52
_symmetry_cell_setting 'orthorhombic'
loop_
_space_group_symop_operation_xyz
x,y,z
1/2-x,-y,z
x,1/2-y,1/2-z
1/2-x,1/2+y,1/2-z
-x,-y,-z
1/2+x,y,-z
-x,1/2+y,1/2+z
1/2+x,1/2-y,1/2+z
loop_
_atom_site_type_symbol
_atom_site_label
_atom_site_fract_x
_atom_site_fract_y
_atom_site_fract_z
Si Si1 0.933474 0.361218 0.695164
Si Si2 0.449019 0.181184 0.846116
Si Si3 0.070360 0.867086 0.522829
Si Si4 0.324843 0.985149 0.160623
Si Si5 0.328756 0.991760 0.387955
Si Si6 0.393430 0.738839 0.403896
Si Si7 0.952186 0.517943 0.213904
Si Si8 0.447452 0.721314 0.902266
O O1 0.903993 0.250000 0.750000
O O2 0.883201 0.428479 0.625237
O O3 0.968178 0.449387 0.770598
O O4 0.000076 0.311829 0.641322
O O5 0.428753 0.250000 0.750000
O O6 0.413470 0.239136 0.938472
O O7 0.529940 0.209772 0.864393
O O8 0.435712 0.051544 0.812280
O O9 0.997899 0.857928 0.468030
O O10 0.125653 0.924173 0.453415
O O11 0.060360 0.937859 0.621571
O O12 0.323976 0.021348 0.274055
O O13 0.347012 0.855560 0.146455
O O14 0.250000 0.000000 0.119081
O O15 0.363599 0.865882 0.389974
O O16 0.250000 0.000000 0.423617
O O17 0.396845 0.724678 0.520504
O O18 0.918580 0.637896 0.180712
#
# Coordination Sequence:
#
# PCOD9408101 Si02
#       8
#     8   8   8   8   8   8   8   8
#     4  10  21  35  56  85 120 151 193 242 306 357
#     4   9  18  28  55  87 115 141 181 244 301 355
#     4  10  20  33  55  86 113 146 195 241 298 343
#     4  11  24  38  56  79 123 172 201 233 284 365
#     4  11  23  37  58  85 118 159 206 246 283 357
#     4  11  21  36  57  84 116 157 203 243 299 356
#     4  10  17  34  56  86 112 148 185 241 303 349
#     4  10  21  32  57  88 121 151 188 255 302 347
#
# _framework density 20.208798000000002
#
# number of rings (size 3 to 8) (size 9 to 14) (size 15 to 20)
#    0.000    1.750    2.500    3.000    7.000    3.500 
#    0.000    0.000    0.000    0.000    9.750    0.000 
#    0.000    0.000    0.000    0.000    0.000    0.000 
#
# Total GULP energy -356467.900758 kJ/mol
# GULP energy per Si atom -5569.810949 kJ/mol
# Density = 2.016280 g / cm^3
# Si number density = 20.208798 Si / 1000 Ang^3
#
#
#
# Elastic Constant Matrix: (Units=GPa)
#
#
# Indices 1 2 3 4 5 6 
#
# 1 44.5676 18.3355 18.3059 0.0000 0.0000 0.0000
# 2 18.3355 97.0339 49.4638 0.0000 0.0000 0.0000
# 3 18.3059 49.4638 67.4313 0.0000 0.0000 0.0000
# 4 0.0000 0.0000 0.0000 45.5053 0.0000 0.0000
# 5 0.0000 0.0000 0.0000 0.0000 11.1309 0.0000
# 6 0.0000 0.0000 0.0000 0.0000 0.0000 13.0778
#
#
#
# Elastic Compliance Matrix: (Units=1/GPa)
#
#
# Indices 1 2 3 4 5 6 
#
# 1 0.025509 -0.002061 -0.005414 0.000000 0.000000 0.000000
# 2 -0.002061 0.016627 -0.011637 0.000000 0.000000 0.000000
# 3 -0.005414 -0.011637 0.024836 0.000000 0.000000 0.000000
# 4 0.000000 0.000000 0.000000 0.021975 0.000000 0.000000
# 5 0.000000 0.000000 0.000000 0.000000 0.089840 0.000000
# 6 0.000000 0.000000 0.000000 0.000000 0.000000 0.076465
#
#
# Mechanical properties :
#
#
# Convention : Reuss Voigt Hill
#
# Bulk Modulus (GPa) = 34.78335 42.36034 38.57184
# Shear Modulus (GPa) = 16.49839 22.13798 19.31819
#
# Velocity S-wave (km/s) = 2.86036 3.31337 3.09517
# Velocity P-wave (km/s) = 5.30644 5.97032 5.64814
#
# Compressibility (1/GPa) = 0.02874939
#
# Stress axis : x y z
#
# Youngs Moduli (GPa) = 39.20156 60.14192 40.26394
#
# Poissons Ratio (x) = 0.12393 0.21797
# Poissons Ratio (y) = 0.08078 0.46857
# Poissons Ratio (z) = 0.21222 0.69990
#
# Static dielectric constant tensor:
#      x y z
#    x 1.735030 0.000000 0.000000 
#    y 0.000000 1.830290 0.000000 
#    z 0.000000 0.000000 1.805060 
# 
# From -- ./inp_files/28308.got.cif
#   From: 2010.05.17/outbox.cif.g08.bks.cpg/sg52_15_cif.got.tgz:28308.got - 2010.06.03 12:15:38.
