data_PCOD9408532
_publ_section_title
;
Structure prediction by ZEFSAII (Michael W. Deem and Ramdas Pophale) SiO2 
 PCOD9408532
Probable space group: P N N A
;
_chemical_formula_sum "Si O2"
_cell_formula_units_Z 48
_cell_length_a 23.299761
_cell_length_b 9.201362
_cell_length_c 13.091312
_cell_angle_alpha 90.000000
_cell_angle_beta 90.000000
_cell_angle_gamma 90.000000
_cell_volume 2806.640298
_symmetry_space_group_name_H-M "P N N A"
_symmetry_group_IT_number 52
_symmetry_cell_setting 'orthorhombic'
loop_
_space_group_symop_operation_xyz
x,y,z
1/2-x,-y,z
x,1/2-y,1/2-z
1/2-x,1/2+y,1/2-z
-x,-y,-z
1/2+x,y,-z
-x,1/2+y,1/2+z
1/2+x,1/2-y,1/2+z
loop_
_atom_site_type_symbol
_atom_site_label
_atom_site_fract_x
_atom_site_fract_y
_atom_site_fract_z
Si Si1 0.055267 0.827846 0.148631
Si Si2 0.015369 0.898127 0.782842
Si Si3 0.884759 0.402129 0.440966
Si Si4 0.234234 0.830901 0.853789
Si Si5 0.035822 0.082673 0.587088
Si Si6 0.360976 0.733865 0.624965
O O1 0.080563 0.750000 0.250000
O O2 0.003026 0.721132 0.117870
O O3 0.096041 0.855126 0.053174
O O4 0.027734 0.983865 0.172364
O O5 0.985081 0.750000 0.750000
O O6 0.065319 0.856528 0.862051
O O7 0.041017 0.976596 0.683618
O O8 0.822746 0.333300 0.420472
O O9 0.879325 0.574912 0.416302
O O10 0.219168 0.750000 0.750000
O O11 0.292739 0.757048 0.893863
O O12 0.250000 0.000000 0.833375
O O13 0.099094 0.147728 0.569526
O O14 0.000000 0.000000 0.500000
O O15 0.369145 0.750000 0.750000
#
# Coordination Sequence:
#
# PCOD9408532 Si02
#       6
#     8   8   8   8   8   8
#     4  10  22  38  52  78 111 146 189 243 286 339
#     4  11  21  32  54  82 113 146 188 230 289 348
#     4  11  19  34  58  81 109 150 189 230 290 348
#     4   9  20  34  55  84 112 147 184 226 287 344
#     4  11  21  34  53  82 116 151 185 229 291 348
#     4  10  18  36  55  81 118 149 180 237 288 345
#
# _framework density 17.102298000000001
#
# number of rings (size 3 to 8) (size 9 to 14) (size 15 to 20)
#    0.000    1.667    3.333    2.500    2.333    0.000 
#    0.000    0.000    0.000    0.000   26.000    0.000 
#    0.000    0.000    0.000    0.000    0.000    0.000 
#
# Total GULP energy -267589.519023 kJ/mol
# GULP energy per Si atom -5574.781646 kJ/mol
# Density = 1.706337 g / cm^3
# Si number density = 17.102298 Si / 1000 Ang^3
#
#
#
# Elastic Constant Matrix: (Units=GPa)
#
#
# Indices 1 2 3 4 5 6 
#
# 1 109.4368 56.3270 74.8177 0.0000 0.0000 0.0000
# 2 56.3270 93.3877 44.4858 0.0000 0.0000 0.0000
# 3 74.8177 44.4858 108.1059 0.0000 0.0000 0.0000
# 4 0.0000 0.0000 0.0000 27.8752 0.0000 0.0000
# 5 0.0000 0.0000 0.0000 0.0000 26.4230 0.0000
# 6 0.0000 0.0000 0.0000 0.0000 0.0000 26.0141
#
#
#
# Elastic Compliance Matrix: (Units=1/GPa)
#
#
# Indices 1 2 3 4 5 6 
#
# 1 0.020421 -0.006946 -0.011274 0.000000 0.000000 0.000000
# 2 -0.006946 0.015682 -0.001646 0.000000 0.000000 0.000000
# 3 -0.011274 -0.001646 0.017730 0.000000 0.000000 0.000000
# 4 0.000000 0.000000 0.000000 0.035874 0.000000 0.000000
# 5 0.000000 0.000000 0.000000 0.000000 0.037846 0.000000
# 6 0.000000 0.000000 0.000000 0.000000 0.000000 0.038441
#
#
# Mechanical properties :
#
#
# Convention : Reuss Voigt Hill
#
# Bulk Modulus (GPa) = 70.92227 73.57683 72.24955
# Shear Modulus (GPa) = 23.76136 25.08246 24.42191
#
# Velocity S-wave (km/s) = 3.73146 3.83379 3.78297
# Velocity P-wave (km/s) = 7.75400 7.91911 7.83699
#
# Compressibility (1/GPa) = 0.01409994
#
# Stress axis : x y z
#
# Youngs Moduli (GPa) = 48.96984 63.76902 56.40115
#
# Poissons Ratio (x) = 0.44295 0.63589
# Poissons Ratio (y) = 0.34015 0.09282
# Poissons Ratio (z) = 0.55210 0.10494
#
# Static dielectric constant tensor:
#      x y z
#    x 1.596940 0.000000 0.000000 
#    y 0.000000 1.610950 0.000000 
#    z 0.000000 0.000000 1.583330 
# 
# From -- ./inp_files/22270.got.cif
#   From: 2010.05.17/outbox.cif.g08.bks.cpg/sg52_12_cif.got.tgz:22270.got - 2010.06.03 12:15:38.
