data_PCOD9408575
_publ_section_title
;
Structure prediction by ZEFSAII (Michael W. Deem and Ramdas Pophale) SiO2 
 PCOD9408575
Probable space group: P N N A
;
_chemical_formula_sum "Si O2"
_cell_formula_units_Z 32
_cell_length_a 15.108308
_cell_length_b 7.979651
_cell_length_c 11.290455
_cell_angle_alpha 90.000000
_cell_angle_beta 90.000000
_cell_angle_gamma 90.000000
_cell_volume 1361.166247
_symmetry_space_group_name_H-M "P N N A"
_symmetry_group_IT_number 52
_symmetry_cell_setting 'orthorhombic'
loop_
_space_group_symop_operation_xyz
x,y,z
1/2-x,-y,z
x,1/2-y,1/2-z
1/2-x,1/2+y,1/2-z
-x,-y,-z
1/2+x,y,-z
-x,1/2+y,1/2+z
1/2+x,1/2-y,1/2+z
loop_
_atom_site_type_symbol
_atom_site_label
_atom_site_fract_x
_atom_site_fract_y
_atom_site_fract_z
Si Si1 0.723531 0.696625 0.886441
Si Si2 0.121760 0.175800 0.951250
Si Si3 0.452422 0.322008 0.969995
Si Si4 0.355253 0.506023 0.777993
O O1 0.750000 0.500000 0.899598
O O2 0.730404 0.750000 0.750000
O O3 0.792556 0.801852 0.966402
O O4 0.623526 0.716823 0.933687
O O5 0.122414 0.331141 0.858265
O O6 0.121013 0.023055 0.859801
O O7 0.033262 0.193071 0.027684
O O8 0.401280 0.357924 0.849055
O O9 0.500000 0.500000 0.000000
O O10 0.250000 0.500000 0.782745
#
# Coordination Sequence:
#
# PCOD9408575 Si02
#       4
#     8   8   8   8
#     4  12  24  42  64  95 139 181 219 277 341 405
#     4  10  21  36  63  98 124 172 225 270 328 399
#     4  10  19  37  66  93 127 171 228 264 334 393
#     4  10  18  36  65  93 129 166 221 280 321 388
#
# _framework density 23.509250999999999
#
# number of rings (size 3 to 8) (size 9 to 14) (size 15 to 20)
#    0.000    1.500    7.500    0.000    7.000    1.000 
#    0.000    2.500    0.000    4.500    0.000    0.000 
#    0.000    0.000    0.000    0.000    0.000    0.000 
#
# Total GULP energy -179028.552833 kJ/mol
# GULP energy per Si atom -5594.642276 kJ/mol
# Density = 2.345574 g / cm^3
# Si number density = 23.509251 Si / 1000 Ang^3
#
#
#
# Elastic Constant Matrix: (Units=GPa)
#
#
# Indices 1 2 3 4 5 6 
#
# 1 193.2762 27.3481 75.0943 0.0000 0.0000 0.0000
# 2 27.3481 69.8336 37.7385 0.0000 0.0000 0.0000
# 3 75.0943 37.7385 181.3672 0.0000 0.0000 0.0000
# 4 0.0000 0.0000 0.0000 42.4401 0.0000 0.0000
# 5 0.0000 0.0000 0.0000 0.0000 193.3156 0.0000
# 6 0.0000 0.0000 0.0000 0.0000 0.0000 13.1333
#
#
#
# Elastic Compliance Matrix: (Units=1/GPa)
#
#
# Indices 1 2 3 4 5 6 
#
# 1 0.006251 -0.001182 -0.002342 0.000000 0.000000 0.000000
# 2 -0.001182 0.016358 -0.002914 0.000000 0.000000 0.000000
# 3 -0.002342 -0.002914 0.007090 0.000000 0.000000 0.000000
# 4 0.000000 0.000000 0.000000 0.023563 0.000000 0.000000
# 5 0.000000 0.000000 0.000000 0.000000 0.005173 0.000000
# 6 0.000000 0.000000 0.000000 0.000000 0.000000 0.076142
#
#
# Mechanical properties :
#
#
# Convention : Reuss Voigt Hill
#
# Bulk Modulus (GPa) = 59.44860 80.53762 69.99311
# Shear Modulus (GPa) = 32.66671 70.06423 51.36547
#
# Velocity S-wave (km/s) = 3.73168 5.46512 4.67937
# Velocity P-wave (km/s) = 6.62642 8.61136 7.68326
#
# Compressibility (1/GPa) = 0.01682125
#
# Stress axis : x y z
#
# Youngs Moduli (GPa) = 159.96666 61.13374 141.04648
#
# Poissons Ratio (x) = 0.07228 0.33037
# Poissons Ratio (y) = 0.18913 0.41103
# Poissons Ratio (z) = 0.37469 0.17815
#
# Static dielectric constant tensor:
#      x y z
#    x 1.863560 0.000000 0.000000 
#    y 0.000000 2.062410 0.000000 
#    z 0.000000 0.000000 1.945710 
# 
# From -- ./inp_files/9571.got.cif
#   From: 2010.05.17/outbox.cif.g08.bks.cpg/sg52_5_cif.got.tgz:9571.got - 2010.06.03 12:15:38.
