data_PCOD9408420
_publ_section_title
;
Structure prediction by ZEFSAII (Michael W. Deem and Ramdas Pophale) SiO2 
 PCOD9408420
Probable space group: P N N A
;
_chemical_formula_sum "Si O2"
_cell_formula_units_Z 32
_cell_length_a 8.096832
_cell_length_b 7.758949
_cell_length_c 21.290555
_cell_angle_alpha 90.000000
_cell_angle_beta 90.000000
_cell_angle_gamma 90.000000
_cell_volume 1337.534547
_symmetry_space_group_name_H-M "P N N A"
_symmetry_group_IT_number 52
_symmetry_cell_setting 'orthorhombic'
loop_
_space_group_symop_operation_xyz
x,y,z
1/2-x,-y,z
x,1/2-y,1/2-z
1/2-x,1/2+y,1/2-z
-x,-y,-z
1/2+x,y,-z
-x,1/2+y,1/2+z
1/2+x,1/2-y,1/2+z
loop_
_atom_site_type_symbol
_atom_site_label
_atom_site_fract_x
_atom_site_fract_y
_atom_site_fract_z
Si Si1 0.991506 0.181183 0.937539
Si Si2 0.750000 0.500000 0.648434
Si Si3 0.840265 0.187742 0.435587
Si Si4 0.439474 0.487531 0.152706
Si Si5 0.105135 0.750000 0.250000
O O1 0.185248 0.188378 0.925288
O O2 0.927361 0.356068 0.905097
O O3 0.944289 0.220125 0.009393
O O4 0.099392 0.972158 0.099394
O O5 0.783002 0.345592 0.697662
O O6 0.750000 0.000000 0.452601
O O7 0.954222 0.142397 0.375545
O O8 0.250000 0.500000 0.172465
O O9 0.509683 0.386632 0.212803
#
# Coordination Sequence:
#
# PCOD9408420 Si02
#       5
#     8   4   8   8   4
#     4  10  20  34  59  94 132 171 220 282 355 417
#     4  10  22  38  62  98 126 178 234 290 346 426
#     4  10  19  34  58  97 131 173 218 282 352 426
#     4  10  18  33  61  90 127 173 234 276 338 416
#     4  10  20  38  62  96 122 180 240 286 338 414
#
# _framework density 23.924614999999999
#
# number of rings (size 3 to 8) (size 9 to 14) (size 15 to 20)
#    0.000    2.000    1.250    5.250    0.000    1.000 
#    0.000    0.000    0.000   24.000   26.000    0.000 
#    0.000    0.000    0.000    0.000    0.000    1.375 
#
# Total GULP energy -178189.675513 kJ/mol
# GULP energy per Si atom -5568.427360 kJ/mol
# Density = 2.387016 g / cm^3
# Si number density = 23.924615 Si / 1000 Ang^3
#
#
#
# Elastic Constant Matrix: (Units=GPa)
#
#
# Indices 1 2 3 4 5 6 
#
# 1 110.3420 45.4124 83.5587 0.0000 0.0000 0.0000
# 2 45.4124 105.3294 68.0476 0.0000 0.0000 0.0000
# 3 83.5587 68.0476 159.5853 0.0000 0.0000 0.0000
# 4 0.0000 0.0000 0.0000 49.2916 0.0000 0.0000
# 5 0.0000 0.0000 0.0000 0.0000 12.2080 0.0000
# 6 0.0000 0.0000 0.0000 0.0000 0.0000 31.6216
#
#
#
# Elastic Compliance Matrix: (Units=1/GPa)
#
#
# Indices 1 2 3 4 5 6 
#
# 1 0.015305 -0.001962 -0.007177 0.000000 0.000000 0.000000
# 2 -0.001962 0.013355 -0.004667 0.000000 0.000000 0.000000
# 3 -0.007177 -0.004667 0.012014 0.000000 0.000000 0.000000
# 4 0.000000 0.000000 0.000000 0.020287 0.000000 0.000000
# 5 0.000000 0.000000 0.000000 0.000000 0.081914 0.000000
# 6 0.000000 0.000000 0.000000 0.000000 0.000000 0.031624
#
#
# Mechanical properties :
#
#
# Convention : Reuss Voigt Hill
#
# Bulk Modulus (GPa) = 76.55969 85.47713 81.01841
# Shear Modulus (GPa) = 24.21690 30.50678 27.36184
#
# Velocity S-wave (km/s) = 3.18499 3.57476 3.38549
# Velocity P-wave (km/s) = 6.75244 7.26937 7.01567
#
# Compressibility (1/GPa) = 0.01306170
#
# Stress axis : x y z
#
# Youngs Moduli (GPa) = 65.33666 74.87659 83.23316
#
# Poissons Ratio (x) = 0.14691 0.59739
# Poissons Ratio (y) = 0.12819 0.38848
# Poissons Ratio (z) = 0.46894 0.34948
#
# Static dielectric constant tensor:
#      x y z
#    x 1.959680 0.000000 0.000000 
#    y 0.000000 2.111620 0.000000 
#    z 0.000000 0.000000 1.953360 
# 
# From -- ./inp_files/35502.got.cif
#   From: 2010.05.17/outbox.cif.g08.bks.cpg/sg52_18_cif.got.tgz:35502.got - 2010.06.03 12:15:38.
