data_PCOD9408341
_publ_section_title
;
Structure prediction by ZEFSAII (Michael W. Deem and Ramdas Pophale) SiO2 
 PCOD9408341
Probable space group: P N N A
;
_chemical_formula_sum "Si O2"
_cell_formula_units_Z 48
_cell_length_a 30.434439
_cell_length_b 8.608930
_cell_length_c 8.322404
_cell_angle_alpha 90.000000
_cell_angle_beta 90.000000
_cell_angle_gamma 90.000000
_cell_volume 2180.536052
_symmetry_space_group_name_H-M "P N N A"
_symmetry_group_IT_number 52
_symmetry_cell_setting 'orthorhombic'
loop_
_space_group_symop_operation_xyz
x,y,z
1/2-x,-y,z
x,1/2-y,1/2-z
1/2-x,1/2+y,1/2-z
-x,-y,-z
1/2+x,y,-z
-x,1/2+y,1/2+z
1/2+x,1/2-y,1/2+z
loop_
_atom_site_type_symbol
_atom_site_label
_atom_site_fract_x
_atom_site_fract_y
_atom_site_fract_z
Si Si1 0.160484 0.593181 0.582969
Si Si2 0.344498 0.070830 0.276620
Si Si3 0.300042 0.054417 0.591254
Si Si4 0.989331 0.750000 0.750000
Si Si5 0.480193 0.750000 0.750000
Si Si6 0.939590 0.038484 0.079423
Si Si7 0.055459 0.533171 0.194740
O O1 0.161875 0.510681 0.406533
O O2 0.186366 0.759919 0.580488
O O3 0.178843 0.504336 0.738687
O O4 0.108286 0.608992 0.613632
O O5 0.331439 0.250000 0.250000
O O6 0.318351 0.992188 0.420955
O O7 0.394833 0.077099 0.342253
O O8 0.250000 0.000000 0.599103
O O9 0.022167 0.855224 0.850905
O O10 0.957880 0.639171 0.853708
O O11 0.449558 0.628097 0.658198
O O12 0.516073 0.647760 0.850930
O O13 0.943811 0.029471 0.888633
#
# Coordination Sequence:
#
# PCOD9408341 Si02
#       7
#     8   8   8   4   4   8   8
#     4   9  20  40  63  86 131 166 193 265 330 366
#     4   9  18  37  65  87 122 169 207 257 320 381
#     4  10  20  37  65  96 112 152 221 254 318 414
#     4  10  18  32  56  84 122 168 212 266 298 362
#     4  10  18  34  58  90 122 170 222 262 290 376
#     4  10  21  39  57  88 130 173 220 256 321 382
#     4  10  20  37  55  84 130 173 215 265 319 366
#
# _framework density 22.012937000000001
#
# number of rings (size 3 to 8) (size 9 to 14) (size 15 to 20)
#    0.000    2.333    0.833    3.000    0.000    0.667 
#    9.000    8.333   12.833    0.000    0.000    0.000 
#    0.000    0.000    0.000    0.000    0.000    0.000 
#
# Total GULP energy -267453.588218 kJ/mol
# GULP energy per Si atom -5571.949755 kJ/mol
# Density = 2.196283 g / cm^3
# Si number density = 22.012937 Si / 1000 Ang^3
#
#
#
# Elastic Constant Matrix: (Units=GPa)
#
#
# Indices 1 2 3 4 5 6 
#
# 1 132.3545 13.5258 53.1387 0.0000 0.0000 0.0000
# 2 13.5258 71.7874 11.5659 0.0000 0.0000 0.0000
# 3 53.1387 11.5659 134.5074 0.0000 0.0000 0.0000
# 4 0.0000 0.0000 0.0000 15.8728 0.0000 0.0000
# 5 0.0000 0.0000 0.0000 0.0000 31.5328 0.0000
# 6 0.0000 0.0000 0.0000 0.0000 0.0000 29.1377
#
#
#
# Elastic Compliance Matrix: (Units=1/GPa)
#
#
# Indices 1 2 3 4 5 6 
#
# 1 0.009072 -0.001148 -0.003485 0.000000 0.000000 0.000000
# 2 -0.001148 0.014271 -0.000774 0.000000 0.000000 0.000000
# 3 -0.003485 -0.000774 0.008878 0.000000 0.000000 0.000000
# 4 0.000000 0.000000 0.000000 0.063001 0.000000 0.000000
# 5 0.000000 0.000000 0.000000 0.000000 0.031713 0.000000
# 6 0.000000 0.000000 0.000000 0.000000 0.000000 0.034320
#
#
# Mechanical properties :
#
#
# Convention : Reuss Voigt Hill
#
# Bulk Modulus (GPa) = 46.71278 55.01224 50.86251
# Shear Modulus (GPa) = 27.90114 32.66991 30.28552
#
# Velocity S-wave (km/s) = 3.56404 3.85661 3.71321
# Velocity P-wave (km/s) = 6.18087 6.69898 6.44514
#
# Compressibility (1/GPa) = 0.02140742
#
# Stress axis : x y z
#
# Youngs Moduli (GPa) = 110.22830 70.07251 112.63820
#
# Poissons Ratio (x) = 0.08043 0.39258
# Poissons Ratio (y) = 0.12652 0.08714
# Poissons Ratio (z) = 0.38418 0.05421
#
# Static dielectric constant tensor:
#      x y z
#    x 1.798860 0.000000 0.000000 
#    y 0.000000 1.934610 0.000000 
#    z 0.000000 0.000000 1.951350 
# 
# From -- ./inp_files/15574.got.cif
#   From: 2010.05.17/outbox.cif.g08.bks.cpg/sg52_8_cif.got.tgz:15574.got - 2010.06.03 12:15:38.
