data_PCOD9408493
_publ_section_title
;
Structure prediction by ZEFSAII (Michael W. Deem and Ramdas Pophale) SiO2 
 PCOD9408493
Probable space group: P N N A
;
_chemical_formula_sum "Si O2"
_cell_formula_units_Z 40
_cell_length_a 13.466476
_cell_length_b 5.587619
_cell_length_c 21.594916
_cell_angle_alpha 90.000000
_cell_angle_beta 90.000000
_cell_angle_gamma 90.000000
_cell_volume 1624.921054
_symmetry_space_group_name_H-M "P N N A"
_symmetry_group_IT_number 52
_symmetry_cell_setting 'orthorhombic'
loop_
_space_group_symop_operation_xyz
x,y,z
1/2-x,-y,z
x,1/2-y,1/2-z
1/2-x,1/2+y,1/2-z
-x,-y,-z
1/2+x,y,-z
-x,1/2+y,1/2+z
1/2+x,1/2-y,1/2+z
loop_
_atom_site_type_symbol
_atom_site_label
_atom_site_fract_x
_atom_site_fract_y
_atom_site_fract_z
Si Si1 0.639335 0.734592 0.401366
Si Si2 0.424733 0.247152 0.134726
Si Si3 0.250000 0.000000 0.696505
Si Si4 0.591467 0.250319 0.889562
Si Si5 0.072765 0.250000 0.750000
Si Si6 0.403454 0.736381 0.962647
O O1 0.527078 0.742147 0.373739
O O2 0.644339 0.483169 0.437276
O O3 0.721627 0.782058 0.349181
O O4 0.640216 0.978405 0.442661
O O5 0.370024 0.500288 0.137124
O O6 0.503997 0.232596 0.190219
O O7 0.366159 0.999958 0.133918
O O8 0.488217 0.257141 0.070293
O O9 0.348095 0.957605 0.735905
O O10 0.596240 0.252546 0.963851
#
# Coordination Sequence:
#
# PCOD9408493 Si02
#       6
#     8   8   4   8   4   8
#     4  10  20  34  48  75  91 131 178 220 271 306
#     4  10  20  34  48  75  91 131 178 220 270 304
#     4  12  26  36  50  70 114 160 190 224 242 314
#     4  10  18  35  55  72  90 116 180 245 276 310
#     4  12  26  36  50  70 114 160 190 224 236 310
#     4  10  18  35  55  72  90 116 180 245 276 309
#
# _framework density 24.616581
#
# number of rings (size 3 to 8) (size 9 to 14) (size 15 to 20)
#    0.000    1.600    4.000    6.000    5.600    1.600 
#    0.000    0.000    0.000    0.000    0.000    0.000 
#    0.000    0.000    0.000    0.000    0.000  144.000 
#
# Total GULP energy -223532.764500 kJ/mol
# GULP energy per Si atom -5588.319113 kJ/mol
# Density = 2.456055 g / cm^3
# Si number density = 24.616581 Si / 1000 Ang^3
#
#
#
# Elastic Constant Matrix: (Units=GPa)
#
#
# Indices 1 2 3 4 5 6 
#
# 1 75.9459 27.9173 20.2575 0.0000 0.0000 0.0000
# 2 27.9173 286.6895 70.4417 0.0000 0.0000 0.0000
# 3 20.2575 70.4417 95.1889 0.0000 0.0000 0.0000
# 4 0.0000 0.0000 0.0000 39.2926 0.0000 0.0000
# 5 0.0000 0.0000 0.0000 0.0000 -4.0831 0.0000
# 6 0.0000 0.0000 0.0000 0.0000 0.0000 2.9610
#
#
#
# Elastic Compliance Matrix: (Units=1/GPa)
#
#
# Indices 1 2 3 4 5 6 
#
# 1 0.014100 -0.000777 -0.002426 0.000000 0.000000 0.000000
# 2 -0.000777 0.004306 -0.003021 0.000000 0.000000 0.000000
# 3 -0.002426 -0.003021 0.013257 0.000000 0.000000 0.000000
# 4 0.000000 0.000000 0.000000 0.025450 0.000000 0.000000
# 5 0.000000 0.000000 0.000000 0.000000 -0.244913 0.000000
# 6 0.000000 0.000000 0.000000 0.000000 0.000000 0.337723
#
#
# Mechanical properties :
#
#
# Convention : Reuss Voigt Hill
#
# Bulk Modulus (GPa) = 52.04103 77.22858 64.63481
# Shear Modulus (GPa) = 29.62486 30.24796 29.93641
#
# Velocity S-wave (km/s) = 3.47284 3.50918 3.49106
# Velocity P-wave (km/s) = 6.10470 6.91808 6.52408
#
# Compressibility (1/GPa) = 0.01921561
#
# Stress axis : x y z
#
# Youngs Moduli (GPa) = 70.92250 232.22868 75.42949
#
# Poissons Ratio (x) = 0.18045 0.18296
# Poissons Ratio (y) = 0.05511 0.22789
# Poissons Ratio (z) = 0.17203 0.70162
#
# Static dielectric constant tensor:
#      x y z
#    x 1.942340 0.000000 0.000000 
#    y 0.000000 2.102790 0.000000 
#    z 0.000000 0.000000 1.936380 
# 
# From -- ./inp_files/33961.got.cif
#   From: 2010.05.17/outbox.cif.g08.bks.cpg/sg52_17_cif.got.tgz:33961.got - 2010.06.03 12:15:38.
