data_PCOD9408744
_publ_section_title
;
Structure prediction by ZEFSAII (Michael W. Deem and Ramdas Pophale) SiO2 
 PCOD9408744
Probable space group: P N N A
;
_chemical_formula_sum "Si O2"
_cell_formula_units_Z 52
_cell_length_a 13.218206
_cell_length_b 12.919070
_cell_length_c 18.556727
_cell_angle_alpha 90.000000
_cell_angle_beta 90.000000
_cell_angle_gamma 90.000000
_cell_volume 3168.875274
_symmetry_space_group_name_H-M "P N N A"
_symmetry_group_IT_number 52
_symmetry_cell_setting 'orthorhombic'
loop_
_space_group_symop_operation_xyz
x,y,z
1/2-x,-y,z
x,1/2-y,1/2-z
1/2-x,1/2+y,1/2-z
-x,-y,-z
1/2+x,y,-z
-x,1/2+y,1/2+z
1/2+x,1/2-y,1/2+z
loop_
_atom_site_type_symbol
_atom_site_label
_atom_site_fract_x
_atom_site_fract_y
_atom_site_fract_z
Si Si1 0.180968 0.750000 0.750000
Si Si2 0.679131 0.089504 0.160119
Si Si3 0.136456 0.456929 0.808353
Si Si4 0.127913 0.875287 0.457544
Si Si5 0.058728 0.647332 0.880518
Si Si6 0.142520 0.123994 0.447425
Si Si7 0.425466 0.778143 0.596131
O O1 0.248069 0.836868 0.790719
O O2 0.112859 0.705513 0.815037
O O3 0.614118 0.036043 0.223701
O O4 0.610117 0.160533 0.109491
O O5 0.750000 0.000000 0.126285
O O6 0.250000 0.500000 0.821800
O O7 0.065632 0.528419 0.856201
O O8 0.119532 0.342154 0.836959
O O9 0.114910 0.843913 0.542089
O O10 0.241006 0.858064 0.428724
O O11 0.042783 0.810115 0.414911
O O12 0.117847 0.000906 0.454826
O O13 0.941787 0.672215 0.895198
O O14 0.126196 0.175330 0.525164
#
# Coordination Sequence:
#
# PCOD9408744 Si02
#       7
#     4   8   8   8   8   8   8
#     4  12  20  30  52  72 106 134 166 210 256 308
#     4  11  21  30  48  80 108 139 168 215 261 320
#     4  11  16  28  48  76 108 128 160 208 266 314
#     4  10  19  31  54  78 103 135 163 220 269 313
#     4  11  19  31  50  80 105 133 161 210 270 309
#     4  10  19  31  53  77 105 130 172 216 264 321
#     4  11  18  31  50  77 108 134 164 214 270 308
#
# _framework density 16.409607999999999
#
# number of rings (size 3 to 8) (size 9 to 14) (size 15 to 20)
#    0.000    1.231    7.692    2.769    0.000    0.000 
#    0.000    0.000    3.385    8.308    0.000    0.000 
#    0.000    0.000    0.000    0.000    0.000    0.000 
#
# Total GULP energy -289516.235560 kJ/mol
# GULP energy per Si atom -5567.619915 kJ/mol
# Density = 1.637226 g / cm^3
# Si number density = 16.409608 Si / 1000 Ang^3
#
#
#
# Elastic Constant Matrix: (Units=GPa)
#
#
# Indices 1 2 3 4 5 6 
#
# 1 116.6440 37.9032 38.7149 0.0000 0.0000 0.0000
# 2 37.9032 57.4292 18.2464 0.0000 0.0000 0.0000
# 3 38.7149 18.2464 51.2773 0.0000 0.0000 0.0000
# 4 0.0000 0.0000 0.0000 29.1889 0.0000 0.0000
# 5 0.0000 0.0000 0.0000 0.0000 17.5845 0.0000
# 6 0.0000 0.0000 0.0000 0.0000 0.0000 27.8237
#
#
#
# Elastic Compliance Matrix: (Units=1/GPa)
#
#
# Indices 1 2 3 4 5 6 
#
# 1 0.013160 -0.006234 -0.007718 0.000000 0.000000 0.000000
# 2 -0.006234 0.022585 -0.003330 0.000000 0.000000 0.000000
# 3 -0.007718 -0.003330 0.026514 0.000000 0.000000 0.000000
# 4 0.000000 0.000000 0.000000 0.034260 0.000000 0.000000
# 5 0.000000 0.000000 0.000000 0.000000 0.056868 0.000000
# 6 0.000000 0.000000 0.000000 0.000000 0.000000 0.035941
#
#
# Mechanical properties :
#
#
# Convention : Reuss Voigt Hill
#
# Bulk Modulus (GPa) = 36.10669 46.11997 41.11333
# Shear Modulus (GPa) = 21.44786 23.61847 22.53317
#
# Velocity S-wave (km/s) = 3.61921 3.79794 3.70965
# Velocity P-wave (km/s) = 6.28618 6.88469 6.59223
#
# Compressibility (1/GPa) = 0.02769570
#
# Stress axis : x y z
#
# Youngs Moduli (GPa) = 75.98564 44.27719 37.71591
#
# Poissons Ratio (x) = 0.27601 0.29109
# Poissons Ratio (y) = 0.47367 0.12560
# Poissons Ratio (z) = 0.58646 0.14745
#
# Static dielectric constant tensor:
#      x y z
#    x 1.594580 0.000000 0.000000 
#    y 0.000000 1.623380 0.000000 
#    z 0.000000 0.000000 1.552560 
# 
# From -- ./inp_files/33209.got.cif
#   From: 2010.05.17/outbox.cif.g08.bks.cpg/sg52_17_cif.got.tgz:33209.got - 2010.06.03 12:15:38.
