data_PCOD9408124
_publ_section_title
;
Structure prediction by ZEFSAII (Michael W. Deem and Ramdas Pophale) SiO2 
 PCOD9408124
Probable space group: P N N A
;
_chemical_formula_sum "Si O2"
_cell_formula_units_Z 36
_cell_length_a 22.843552
_cell_length_b 5.641644
_cell_length_c 13.829342
_cell_angle_alpha 90.000000
_cell_angle_beta 90.000000
_cell_angle_gamma 90.000000
_cell_volume 1782.259051
_symmetry_space_group_name_H-M "P N N A"
_symmetry_group_IT_number 52
_symmetry_cell_setting 'orthorhombic'
loop_
_space_group_symop_operation_xyz
x,y,z
1/2-x,-y,z
x,1/2-y,1/2-z
1/2-x,1/2+y,1/2-z
-x,-y,-z
1/2+x,y,-z
-x,1/2+y,1/2+z
1/2+x,1/2-y,1/2+z
loop_
_atom_site_type_symbol
_atom_site_label
_atom_site_fract_x
_atom_site_fract_y
_atom_site_fract_z
Si Si1 0.250000 0.500000 0.088266
Si Si2 0.850975 0.176453 0.864722
Si Si3 0.559895 0.059049 0.552541
Si Si4 0.664793 0.321543 0.464649
Si Si5 0.250000 0.000000 0.803723
Si Si6 0.909095 0.750000 0.750000
O O1 0.207788 0.668987 0.149795
O O2 0.292158 0.638052 0.016031
O O3 0.905136 0.335424 0.902618
O O4 0.870503 0.981653 0.783592
O O5 0.835461 0.033995 0.960573
O O6 0.500000 0.000000 0.500000
O O7 0.601538 0.196961 0.475708
O O8 0.554174 0.208129 0.652327
O O9 0.693836 0.418008 0.367481
O O10 0.265182 0.250000 0.750000
#
# Coordination Sequence:
#
# PCOD9408124 Si02
#       6
#     4   8   8   8   4   4
#     4  10  17  36  70  93 130 182 220 269 353 426
#     4  10  20  38  71  89 136 175 222 284 346 423
#     4  10  23  43  71  93 133 182 230 295 356 416
#     4  10  21  39  67  93 133 179 226 283 358 417
#     4  12  25  40  68 103 146 190 238 305 353 436
#     4  10  22  40  66 100 134 174 228 288 344 432
#
# _framework density 20.199082000000001
#
# number of rings (size 3 to 8) (size 9 to 14) (size 15 to 20)
#    0.000    1.778    2.222    1.333    3.111    3.556 
#    0.000    4.444  178.444    0.000    0.000    0.000 
#    0.000    0.000    0.000    0.000    0.000    0.000 
#
# Total GULP energy -200447.989103 kJ/mol
# GULP energy per Si atom -5567.999697 kJ/mol
# Density = 2.015311 g / cm^3
# Si number density = 20.199082 Si / 1000 Ang^3
#
#
#
# Elastic Constant Matrix: (Units=GPa)
#
#
# Indices 1 2 3 4 5 6 
#
# 1 164.7556 69.0698 75.5288 0.0000 0.0000 0.0000
# 2 69.0698 118.1786 59.3755 0.0000 0.0000 0.0000
# 3 75.5288 59.3755 122.6045 0.0000 0.0000 0.0000
# 4 0.0000 0.0000 0.0000 103.1296 0.0000 0.0000
# 5 0.0000 0.0000 0.0000 0.0000 31.0553 0.0000
# 6 0.0000 0.0000 0.0000 0.0000 0.0000 16.1740
#
#
#
# Elastic Compliance Matrix: (Units=1/GPa)
#
#
# Indices 1 2 3 4 5 6 
#
# 1 0.009397 -0.003414 -0.004135 0.000000 0.000000 0.000000
# 2 -0.003414 0.012423 -0.003913 0.000000 0.000000 0.000000
# 3 -0.004135 -0.003913 0.012599 0.000000 0.000000 0.000000
# 4 0.000000 0.000000 0.000000 0.009697 0.000000 0.000000
# 5 0.000000 0.000000 0.000000 0.000000 0.032201 0.000000
# 6 0.000000 0.000000 0.000000 0.000000 0.000000 0.061827
#
#
# Mechanical properties :
#
#
# Convention : Reuss Voigt Hill
#
# Bulk Modulus (GPa) = 87.00499 90.38742 88.69620
# Shear Modulus (GPa) = 30.32148 43.50943 36.91545
#
# Velocity S-wave (km/s) = 3.87865 4.64619 4.27966
# Velocity P-wave (km/s) = 7.95146 8.58069 8.27206
#
# Compressibility (1/GPa) = 0.01149359
#
# Stress axis : x y z
#
# Youngs Moduli (GPa) = 106.42100 80.49412 79.37284
#
# Poissons Ratio (x) = 0.27483 0.32822
# Poissons Ratio (y) = 0.36335 0.31059
# Poissons Ratio (z) = 0.44007 0.31498
#
# Static dielectric constant tensor:
#      x y z
#    x 1.665880 0.000000 0.000000 
#    y 0.000000 1.806750 0.000000 
#    z 0.000000 0.000000 1.748200 
# 
# From -- ./inp_files/28528.got.cif
#   From: 2010.05.17/outbox.cif.g08.bks.cpg/sg52_15_cif.got.tgz:28528.got - 2010.06.03 12:15:38.
