data_PCOD9408935
_publ_section_title
;
Structure prediction by ZEFSAII (Michael W. Deem and Ramdas Pophale) SiO2 
 PCOD9408935
Probable space group: P N N A
;
_chemical_formula_sum "Si O2"
_cell_formula_units_Z 48
_cell_length_a 8.661688
_cell_length_b 9.710794
_cell_length_c 32.022344
_cell_angle_alpha 90.000000
_cell_angle_beta 90.000000
_cell_angle_gamma 90.000000
_cell_volume 2693.459167
_symmetry_space_group_name_H-M "P N N A"
_symmetry_group_IT_number 52
_symmetry_cell_setting 'orthorhombic'
loop_
_space_group_symop_operation_xyz
x,y,z
1/2-x,-y,z
x,1/2-y,1/2-z
1/2-x,1/2+y,1/2-z
-x,-y,-z
1/2+x,y,-z
-x,1/2+y,1/2+z
1/2+x,1/2-y,1/2+z
loop_
_atom_site_type_symbol
_atom_site_label
_atom_site_fract_x
_atom_site_fract_y
_atom_site_fract_z
Si Si1 0.936485 0.008105 0.178543
Si Si2 0.592388 0.589604 0.234812
Si Si3 0.565252 0.987583 0.358272
Si Si4 0.935223 0.009719 0.953749
Si Si5 0.572357 0.718465 0.617766
Si Si6 0.557405 0.283119 0.612589
O O1 0.994681 0.022255 0.225883
O O2 0.984882 0.141741 0.152621
O O3 0.750000 0.000000 0.178515
O O4 0.008922 0.880635 0.154144
O O5 0.750000 0.500000 0.232583
O O6 0.617946 0.750000 0.250000
O O7 0.521757 0.563404 0.188987
O O8 0.491751 0.131383 0.372092
O O9 0.750000 0.000000 0.359653
O O10 0.507515 0.869219 0.389137
O O11 0.987046 0.878718 0.926364
O O12 0.750000 0.000000 0.955763
O O13 0.976190 0.145006 0.926027
O O14 0.000000 0.000000 0.000000
O O15 0.757954 0.718112 0.617375
#
# Coordination Sequence:
#
# PCOD9408935 Si02
#       6
#     8   8   8   8   8   8
#     4  10  19  34  57  78 108 149 197 237 272 330
#     4  10  21  34  53  80 116 150 196 247 289 317
#     4  11  22  36  57  82 112 150 200 238 274 334
#     4   9  20  38  62  86 111 142 180 226 282 347
#     4  10  22  37  56  84 115 152 180 228 299 335
#     4  10  20  39  56  81 119 147 180 233 291 343
#
# _framework density 17.82095
#
# number of rings (size 3 to 8) (size 9 to 14) (size 15 to 20)
#    0.000    2.000    1.667    3.000    7.000    4.000 
#    0.000    5.833    0.000    0.000    0.000    0.000 
#    0.000    0.000    0.000    0.000    0.000    0.000 
#
# Total GULP energy -267500.501789 kJ/mol
# GULP energy per Si atom -5572.927121 kJ/mol
# Density = 1.778039 g / cm^3
# Si number density = 17.820950 Si / 1000 Ang^3
#
#
#
# Elastic Constant Matrix: (Units=GPa)
#
#
# Indices 1 2 3 4 5 6 
#
# 1 50.7603 33.3212 32.4215 0.0000 0.0000 0.0000
# 2 33.3212 163.4316 64.8552 0.0000 0.0000 0.0000
# 3 32.4215 64.8552 139.7496 0.0000 0.0000 0.0000
# 4 0.0000 0.0000 0.0000 11.8070 0.0000 0.0000
# 5 0.0000 0.0000 0.0000 0.0000 24.9799 0.0000
# 6 0.0000 0.0000 0.0000 0.0000 0.0000 32.8240
#
#
#
# Elastic Compliance Matrix: (Units=1/GPa)
#
#
# Indices 1 2 3 4 5 6 
#
# 1 0.024550 -0.003365 -0.004134 0.000000 0.000000 0.000000
# 2 -0.003365 0.007961 -0.002914 0.000000 0.000000 0.000000
# 3 -0.004134 -0.002914 0.009467 0.000000 0.000000 0.000000
# 4 0.000000 0.000000 0.000000 0.084695 0.000000 0.000000
# 5 0.000000 0.000000 0.000000 0.000000 0.040032 0.000000
# 6 0.000000 0.000000 0.000000 0.000000 0.000000 0.030466
#
#
# Mechanical properties :
#
#
# Convention : Reuss Voigt Hill
#
# Bulk Modulus (GPa) = 47.27590 68.34859 57.81225
# Shear Modulus (GPa) = 22.21758 28.81176 25.51467
#
# Velocity S-wave (km/s) = 3.53471 4.02523 3.78792
# Velocity P-wave (km/s) = 6.57608 7.74851 7.18625
#
# Compressibility (1/GPa) = 0.02115242
#
# Stress axis : x y z
#
# Youngs Moduli (GPa) = 40.73375 125.60944 105.62961
#
# Poissons Ratio (x) = 0.42265 0.43666
# Poissons Ratio (y) = 0.13706 0.30781
# Poissons Ratio (z) = 0.16839 0.36603
#
# Static dielectric constant tensor:
#      x y z
#    x 1.607940 0.000000 0.000000 
#    y 0.000000 1.615730 0.000000 
#    z 0.000000 0.000000 1.626650 
# 
# From -- ./inp_files/44387.got.cif
#   From: 2010.05.17/outbox.cif.g08.bks.cpg/sg52_23_cif.got.tgz:44387.got - 2010.06.03 12:15:38.
