data_PCOD9408487
_publ_section_title
;
Structure prediction by ZEFSAII (Michael W. Deem and Ramdas Pophale) SiO2 
 PCOD9408487
Probable space group: P N N A
;
_chemical_formula_sum "Si O2"
_cell_formula_units_Z 40
_cell_length_a 8.686333
_cell_length_b 7.821133
_cell_length_c 26.171775
_cell_angle_alpha 90.000000
_cell_angle_beta 90.000000
_cell_angle_gamma 90.000000
_cell_volume 1778.030980
_symmetry_space_group_name_H-M "P N N A"
_symmetry_group_IT_number 52
_symmetry_cell_setting 'orthorhombic'
loop_
_space_group_symop_operation_xyz
x,y,z
1/2-x,-y,z
x,1/2-y,1/2-z
1/2-x,1/2+y,1/2-z
-x,-y,-z
1/2+x,y,-z
-x,1/2+y,1/2+z
1/2+x,1/2-y,1/2+z
loop_
_atom_site_type_symbol
_atom_site_label
_atom_site_fract_x
_atom_site_fract_y
_atom_site_fract_z
Si Si1 0.290983 0.678547 0.663288
Si Si2 0.709140 0.203363 0.535358
Si Si3 0.993344 0.622040 0.874942
Si Si4 0.961162 0.751222 0.430006
Si Si5 0.750000 0.500000 0.792497
Si Si6 0.516062 0.750000 0.750000
O O1 0.250000 0.500000 0.689561
O O2 0.144478 0.791460 0.648355
O O3 0.386256 0.632346 0.612389
O O4 0.407795 0.768189 0.701356
O O5 0.579000 0.228229 0.578075
O O6 0.645666 0.242569 0.479622
O O7 0.867275 0.292534 0.551806
O O8 0.750000 0.000000 0.535466
O O9 0.032046 0.437353 0.901131
O O10 0.859810 0.604082 0.832071
O O11 0.632399 0.593796 0.755075
#
# Coordination Sequence:
#
# PCOD9408487 Si02
#       6
#     8   8   8   8   4   4
#     4  12  28  44  66  99 141 181 228 281 343 409
#     4  10  18  34  68 104 134 174 229 282 330 393
#     4  11  21  43  70 100 136 174 227 288 337 402
#     4  11  20  40  65 103 137 179 233 276 335 401
#     4  12  26  48  74 102 134 176 230 292 350 404
#     4  12  30  48  70 100 130 180 232 288 352 402
#
# _framework density 22.496794999999999
#
# number of rings (size 3 to 8) (size 9 to 14) (size 15 to 20)
#    0.000    0.800    5.000    5.400    5.600    0.000 
#    0.000    4.000    0.000    0.000    0.000    0.000 
#    0.000    0.000    0.000    0.000    0.000    0.000 
#
# Total GULP energy -223623.914040 kJ/mol
# GULP energy per Si atom -5590.597851 kJ/mol
# Density = 2.244559 g / cm^3
# Si number density = 22.496795 Si / 1000 Ang^3
#
#
#
# Elastic Constant Matrix: (Units=GPa)
#
#
# Indices 1 2 3 4 5 6 
#
# 1 164.4407 21.0286 68.7127 0.0000 0.0000 0.0000
# 2 21.0286 14.8467 -3.9859 0.0000 0.0000 0.0000
# 3 68.7127 -3.9859 109.3068 0.0000 0.0000 0.0000
# 4 0.0000 0.0000 0.0000 22.8632 0.0000 0.0000
# 5 0.0000 0.0000 0.0000 0.0000 -201.2647 0.0000
# 6 0.0000 0.0000 0.0000 0.0000 0.0000 27.0102
#
#
#
# Elastic Compliance Matrix: (Units=1/GPa)
#
#
# Indices 1 2 3 4 5 6 
#
# 1 0.011966 -0.019155 -0.008220 0.000000 0.000000 0.000000
# 2 -0.019155 0.098684 0.015640 0.000000 0.000000 0.000000
# 3 -0.008220 0.015640 0.014886 0.000000 0.000000 0.000000
# 4 0.000000 0.000000 0.000000 0.043738 0.000000 0.000000
# 5 0.000000 0.000000 0.000000 0.000000 -0.004969 0.000000
# 6 0.000000 0.000000 0.000000 0.000000 0.000000 0.037023
#
#
# Mechanical properties :
#
#
# Convention : Reuss Voigt Hill
#
# Bulk Modulus (GPa) = 9.79767 51.12278 30.46022
# Shear Modulus (GPa) = 19.31832 -16.75565 1.28133
#
# Velocity S-wave (km/s) = 2.93356 -2.73207 0.75551
# Velocity P-wave (km/s) = 3.97982 3.58072 3.78553
#
# Compressibility (1/GPa) = 0.10206513
#
# Stress axis : x y z
#
# Youngs Moduli (GPa) = 83.57250 10.13335 67.17556
#
# Poissons Ratio (x) = 0.19410 0.55221
# Poissons Ratio (y) = 1.60082 -1.05060
# Poissons Ratio (z) = 0.68700 -0.15848
#
# Static dielectric constant tensor:
#      x y z
#    x 1.823650 0.000000 0.000000 
#    y 0.000000 1.859700 0.000000 
#    z 0.000000 0.000000 1.831400 
# 
# From -- ./inp_files/39283.got.cif
#   From: 2010.05.17/outbox.cif.g08.bks.cpg/sg52_20_cif.got.tgz:39283.got - 2010.06.03 12:15:38.
