data_PCOD9408511
_publ_section_title
;
Structure prediction by ZEFSAII (Michael W. Deem and Ramdas Pophale) SiO2 
 PCOD9408511
Probable space group: P N N A
;
_chemical_formula_sum "Si O2"
_cell_formula_units_Z 56
_cell_length_a 19.318555
_cell_length_b 16.836387
_cell_length_c 9.079029
_cell_angle_alpha 90.000000
_cell_angle_beta 90.000000
_cell_angle_gamma 90.000000
_cell_volume 2952.996566
_symmetry_space_group_name_H-M "P N N A"
_symmetry_group_IT_number 52
_symmetry_cell_setting 'orthorhombic'
loop_
_space_group_symop_operation_xyz
x,y,z
1/2-x,-y,z
x,1/2-y,1/2-z
1/2-x,1/2+y,1/2-z
-x,-y,-z
1/2+x,y,-z
-x,1/2+y,1/2+z
1/2+x,1/2-y,1/2+z
loop_
_atom_site_type_symbol
_atom_site_label
_atom_site_fract_x
_atom_site_fract_y
_atom_site_fract_z
Si Si1 0.668783 0.393107 0.115434
Si Si2 0.059315 0.660882 0.721295
Si Si3 0.623575 0.501382 0.368663
Si Si4 0.960544 0.929921 0.583250
Si Si5 0.111579 0.250000 0.750000
Si Si6 0.878108 0.464387 0.698998
Si Si7 0.494143 0.872861 0.902487
Si Si8 0.750000 0.000000 0.600624
O O1 0.668637 0.445052 0.264675
O O2 0.664255 0.301217 0.151842
O O3 0.595311 0.404420 0.034929
O O4 0.722878 0.429753 0.003727
O O5 0.085917 0.750000 0.750000
O O6 0.112198 0.586724 0.708294
O O7 0.010269 0.638463 0.858581
O O8 0.016877 0.652873 0.566994
O O9 0.647258 0.515777 0.534786
O O10 0.550180 0.454767 0.390660
O O11 0.922413 0.965212 0.726366
O O12 0.000000 0.000000 0.500000
O O13 0.058924 0.191479 0.836030
O O14 0.811289 0.461747 0.802646
O O15 0.933488 0.391951 0.682956
#
# Coordination Sequence:
#
# PCOD9408511 Si02
#       8
#     8   8   8   8   4   8   8   4
#     4  10  21  36  60  85 121 155 216 238 309 370
#     4  11  19  28  50  91 124 146 190 248 327 364
#     4  10  18  36  59  85 113 159 196 263 308 364
#     4  11  17  31  53  86 118 154 187 257 309 370
#     4  10  20  36  62  96 120 160 194 280 314 356
#     4  10  19  35  59  79 120 152 211 242 296 379
#     4  10  18  35  58  92 121 155 196 256 332 368
#     4  10  24  38  58  90 110 174 208 252 286 378
#
# _framework density 18.963787
#
# number of rings (size 3 to 8) (size 9 to 14) (size 15 to 20)
#    0.000    1.714    4.286    2.571    0.000    0.571 
#    0.000    0.000    1.571    3.429    0.000    0.000 
#    0.000    0.000    0.000    0.000    0.000    0.000 
#
# Total GULP energy -312034.848805 kJ/mol
# GULP energy per Si atom -5572.050872 kJ/mol
# Density = 1.892062 g / cm^3
# Si number density = 18.963787 Si / 1000 Ang^3
#
#
#
# Elastic Constant Matrix: (Units=GPa)
#
#
# Indices 1 2 3 4 5 6 
#
# 1 63.4206 29.9665 34.2671 0.0000 0.0000 0.0000
# 2 29.9665 110.5099 31.1316 0.0000 0.0000 0.0000
# 3 34.2671 31.1316 83.8766 0.0000 0.0000 0.0000
# 4 0.0000 0.0000 0.0000 24.2338 0.0000 0.0000
# 5 0.0000 0.0000 0.0000 0.0000 18.3343 0.0000
# 6 0.0000 0.0000 0.0000 0.0000 0.0000 14.9334
#
#
#
# Elastic Compliance Matrix: (Units=1/GPa)
#
#
# Indices 1 2 3 4 5 6 
#
# 1 0.021545 -0.003755 -0.007408 0.000000 0.000000 0.000000
# 2 -0.003755 0.010760 -0.002460 0.000000 0.000000 0.000000
# 3 -0.007408 -0.002460 0.015862 0.000000 0.000000 0.000000
# 4 0.000000 0.000000 0.000000 0.041265 0.000000 0.000000
# 5 0.000000 0.000000 0.000000 0.000000 0.054543 0.000000
# 6 0.000000 0.000000 0.000000 0.000000 0.000000 0.066964
#
#
# Mechanical properties :
#
#
# Convention : Reuss Voigt Hill
#
# Bulk Modulus (GPa) = 47.79948 49.83750 48.81849
# Shear Modulus (GPa) = 20.39505 22.32977 21.36241
#
# Velocity S-wave (km/s) = 3.28300 3.43519 3.35996
# Velocity P-wave (km/s) = 6.29533 6.48625 6.39150
#
# Compressibility (1/GPa) = 0.02092073
#
# Stress axis : x y z
#
# Youngs Moduli (GPa) = 46.41478 92.93560 63.04491
#
# Poissons Ratio (x) = 0.34900 0.46705
# Poissons Ratio (y) = 0.17430 0.15506
# Poissons Ratio (z) = 0.34385 0.22858
#
# Static dielectric constant tensor:
#      x y z
#    x 1.602150 0.000000 0.000000 
#    y 0.000000 1.617900 0.000000 
#    z 0.000000 0.000000 1.724230 
# 
# From -- ./inp_files/13569.got.cif
#   From: 2010.05.17/outbox.cif.g08.bks.cpg/sg52_7_cif.got.tgz:13569.got - 2010.06.03 12:15:38.
