data_PCOD9408032
_publ_section_title
;
Structure prediction by ZEFSAII (Michael W. Deem and Ramdas Pophale) SiO2 
 PCOD9408032
Probable space group: P N N A
;
_chemical_formula_sum "Si O2"
_cell_formula_units_Z 48
_cell_length_a 9.745772
_cell_length_b 15.318595
_cell_length_c 14.973251
_cell_angle_alpha 90.000000
_cell_angle_beta 90.000000
_cell_angle_gamma 90.000000
_cell_volume 2235.379614
_symmetry_space_group_name_H-M "P N N A"
_symmetry_group_IT_number 52
_symmetry_cell_setting 'orthorhombic'
loop_
_space_group_symop_operation_xyz
x,y,z
1/2-x,-y,z
x,1/2-y,1/2-z
1/2-x,1/2+y,1/2-z
-x,-y,-z
1/2+x,y,-z
-x,1/2+y,1/2+z
1/2+x,1/2-y,1/2+z
loop_
_atom_site_type_symbol
_atom_site_label
_atom_site_fract_x
_atom_site_fract_y
_atom_site_fract_z
Si Si1 0.583109 0.830837 0.884620
Si Si2 0.374754 0.366838 0.177388
Si Si3 0.188652 0.180331 0.988316
Si Si4 0.168726 0.790585 0.655707
Si Si5 0.102159 0.138929 0.418875
Si Si6 0.367198 0.932450 0.612050
O O1 0.590560 0.723731 0.876996
O O2 0.596454 0.857227 0.781762
O O3 0.441605 0.856693 0.934183
O O4 0.713948 0.866702 0.939863
O O5 0.216217 0.381555 0.154831
O O6 0.476758 0.441365 0.142270
O O7 0.297185 0.215680 0.915292
O O8 0.130385 0.263318 0.043088
O O9 0.129352 0.750000 0.750000
O O10 0.310141 0.844545 0.659567
O O11 0.051249 0.854114 0.617910
O O12 0.126749 0.080364 0.505778
O O13 0.250000 0.000000 0.635766
#
# Coordination Sequence:
#
# PCOD9408032 Si02
#       6
#     8   8   8   8   8   8
#     4  10  18  30  51  72 113 138 186 238 290 340
#     4  10  20  32  49  78 106 150 186 235 287 334
#     4  10  17  30  46  75 108 142 175 228 292 335
#     4  11  21  33  53  83 114 146 193 244 280 339
#     4  10  20  32  49  77 111 145 190 228 285 343
#     4  11  22  38  56  79 116 162 189 224 286 360
#
# _framework density 21.472863
#
# number of rings (size 3 to 8) (size 9 to 14) (size 15 to 20)
#    0.000    1.667    5.000    3.000    4.667    2.667 
#    0.000    0.000    0.000    0.000    0.000    4.667 
#    0.000    0.000    0.000    0.000    0.000    0.000 
#
# Total GULP energy -267886.929394 kJ/mol
# GULP energy per Si atom -5580.977696 kJ/mol
# Density = 2.142399 g / cm^3
# Si number density = 21.472863 Si / 1000 Ang^3
#
#
#
# Elastic Constant Matrix: (Units=GPa)
#
#
# Indices 1 2 3 4 5 6 
#
# 1 129.3088 -7.0468 42.1759 0.0000 0.0000 0.0000
# 2 -7.0468 6.2177 1.9698 0.0000 0.0000 0.0000
# 3 42.1759 1.9698 92.3707 0.0000 0.0000 0.0000
# 4 0.0000 0.0000 0.0000 9.7499 0.0000 0.0000
# 5 0.0000 0.0000 0.0000 0.0000 36.2652 0.0000
# 6 0.0000 0.0000 0.0000 0.0000 0.0000 12.9647
#
#
#
# Elastic Compliance Matrix: (Units=1/GPa)
#
#
# Indices 1 2 3 4 5 6 
#
# 1 0.010017 0.012889 -0.004849 0.000000 0.000000 0.000000
# 2 0.012889 0.178509 -0.009692 0.000000 0.000000 0.000000
# 3 -0.004849 -0.009692 0.013247 0.000000 0.000000 0.000000
# 4 0.000000 0.000000 0.000000 0.102566 0.000000 0.000000
# 5 0.000000 0.000000 0.000000 0.000000 0.027575 0.000000
# 6 0.000000 0.000000 0.000000 0.000000 0.000000 0.077133
#
#
# Mechanical properties :
#
#
# Convention : Reuss Voigt Hill
#
# Bulk Modulus (GPa) = 5.03854 33.56611 19.30233
# Shear Modulus (GPa) = 10.44920 24.51584 17.48252
#
# Velocity S-wave (km/s) = 2.20835 3.38259 2.85646
# Velocity P-wave (km/s) = 2.97556 5.56073 4.45958
#
# Compressibility (1/GPa) = 0.19847022
#
# Stress axis : x y z
#
# Youngs Moduli (GPa) = 99.82727 5.60195 75.49154
#
# Poissons Ratio (x) = -0.07220 0.36604
# Poissons Ratio (y) = -1.28669 0.73166
# Poissons Ratio (z) = 0.48403 0.05429
#
# Static dielectric constant tensor:
#      x y z
#    x 1.792240 0.000000 0.000000 
#    y 0.000000 1.839960 0.000000 
#    z 0.000000 0.000000 1.746430 
# 
# From -- ./inp_files/24702.got.cif
#   From: 2010.05.17/outbox.cif.g08.bks.cpg/sg52_13_cif.got.tgz:24702.got - 2010.06.03 12:15:38.
