data_PCOD9408691
_publ_section_title
;
Structure prediction by ZEFSAII (Michael W. Deem and Ramdas Pophale) SiO2 
 PCOD9408691
Probable space group: P N N A
;
_chemical_formula_sum "Si O2"
_cell_formula_units_Z 48
_cell_length_a 20.633301
_cell_length_b 20.707379
_cell_length_c 5.490331
_cell_angle_alpha 90.000000
_cell_angle_beta 90.000000
_cell_angle_gamma 90.000000
_cell_volume 2345.807519
_symmetry_space_group_name_H-M "P N N A"
_symmetry_group_IT_number 52
_symmetry_cell_setting 'orthorhombic'
loop_
_space_group_symop_operation_xyz
x,y,z
1/2-x,-y,z
x,1/2-y,1/2-z
1/2-x,1/2+y,1/2-z
-x,-y,-z
1/2+x,y,-z
-x,1/2+y,1/2+z
1/2+x,1/2-y,1/2+z
loop_
_atom_site_type_symbol
_atom_site_label
_atom_site_fract_x
_atom_site_fract_y
_atom_site_fract_z
Si Si1 0.404950 0.162090 0.839504
Si Si2 0.964124 0.613879 0.188994
Si Si3 0.395195 0.004949 0.828265
Si Si4 0.943629 0.678758 0.686621
Si Si5 0.617880 0.650531 0.837726
Si Si6 0.325619 0.010180 0.328605
O O1 0.478511 0.184752 0.836070
O O2 0.371393 0.183002 0.593612
O O3 0.406825 0.082436 0.833348
O O4 0.371056 0.184118 0.083915
O O5 0.957399 0.538612 0.261615
O O6 0.929189 0.650936 0.415987
O O7 0.040387 0.632169 0.171891
O O8 0.934637 0.633477 0.925747
O O9 0.348664 0.988462 0.597922
O O10 0.365354 0.986088 0.090613
O O11 0.917189 0.750000 0.750000
O O12 0.659286 0.586013 0.832881
O O13 0.250000 0.000000 0.292593
#
# Coordination Sequence:
#
# PCOD9408691 Si02
#       6
#     8   8   8   8   8   8
#     4   8  16  27  42  63  89 122 150 180 220 267
#     4  10  19  31  48  69  95 124 155 190 230 282
#     4  10  19  31  48  69  95 125 158 189 229 283
#     4  10  19  30  44  66  98 126 151 187 233 282
#     4   8  16  27  42  63  89 121 149 180 220 265
#     4  10  19  30  44  66  98 128 153 188 230 277
#
# _framework density 20.462036999999999
#
# number of rings (size 3 to 8) (size 9 to 14) (size 15 to 20)
#    0.000    2.667    0.000    2.000    0.000   12.000 
#    0.000    0.000    0.000    0.000    0.000    0.000 
#    0.000  240.000    0.000    0.000    0.000    0.000 
#
# Total GULP energy -267264.804870 kJ/mol
# GULP energy per Si atom -5568.016768 kJ/mol
# Density = 2.041546 g / cm^3
# Si number density = 20.462037 Si / 1000 Ang^3
#
#
#
# Elastic Constant Matrix: (Units=GPa)
#
#
# Indices 1 2 3 4 5 6 
#
# 1 20.7935 -0.0174 7.4506 0.0000 0.0000 0.0000
# 2 -0.0174 49.2629 18.1476 0.0000 0.0000 0.0000
# 3 7.4506 18.1476 202.1607 0.0000 0.0000 0.0000
# 4 0.0000 0.0000 0.0000 18.1106 0.0000 0.0000
# 5 0.0000 0.0000 0.0000 0.0000 17.6404 0.0000
# 6 0.0000 0.0000 0.0000 0.0000 0.0000 -8.4206
#
#
#
# Elastic Compliance Matrix: (Units=1/GPa)
#
#
# Indices 1 2 3 4 5 6 
#
# 1 0.048759 0.000702 -0.001860 0.000000 0.000000 0.000000
# 2 0.000702 0.021004 -0.001911 0.000000 0.000000 0.000000
# 3 -0.001860 -0.001911 0.005187 0.000000 0.000000 0.000000
# 4 0.000000 0.000000 0.000000 0.055216 0.000000 0.000000
# 5 0.000000 0.000000 0.000000 0.000000 0.056688 0.000000
# 6 0.000000 0.000000 0.000000 0.000000 0.000000 -0.118757
#
#
# Mechanical properties :
#
#
# Convention : Reuss Voigt Hill
#
# Bulk Modulus (GPa) = 14.53247 35.93094 25.23171
# Shear Modulus (GPa) = 51.45508 21.90851 36.68179
#
# Velocity S-wave (km/s) = 5.02008 3.27569 4.23859
# Velocity P-wave (km/s) = 6.38116 5.64843 6.02594
#
# Compressibility (1/GPa) = 0.06881144
#
# Stress axis : x y z
#
# Youngs Moduli (GPa) = 20.50904 47.61085 192.80127
#
# Poissons Ratio (x) = -0.03345 0.35862
# Poissons Ratio (y) = -0.01441 0.36851
# Poissons Ratio (z) = 0.03815 0.09100
#
# Static dielectric constant tensor:
#      x y z
#    x 1.670900 0.000000 0.000000 
#    y 0.000000 1.758220 0.000000 
#    z 0.000000 0.000000 1.817770 
# 
# From -- ./inp_files/4346.got.cif
#   From: 2010.05.17/outbox.cif.g08.bks.cpg/sg52_3_cif.got.tgz:4346.got - 2010.06.03 12:15:38.
