data_PCOD9408556
_publ_section_title
;
Structure prediction by ZEFSAII (Michael W. Deem and Ramdas Pophale) SiO2 
 PCOD9408556
Probable space group: P N N A
;
_chemical_formula_sum "Si O2"
_cell_formula_units_Z 36
_cell_length_a 9.261234
_cell_length_b 20.967719
_cell_length_c 8.223195
_cell_angle_alpha 90.000000
_cell_angle_beta 90.000000
_cell_angle_gamma 90.000000
_cell_volume 1596.837174
_symmetry_space_group_name_H-M "P N N A"
_symmetry_group_IT_number 52
_symmetry_cell_setting 'orthorhombic'
loop_
_space_group_symop_operation_xyz
x,y,z
1/2-x,-y,z
x,1/2-y,1/2-z
1/2-x,1/2+y,1/2-z
-x,-y,-z
1/2+x,y,-z
-x,1/2+y,1/2+z
1/2+x,1/2-y,1/2+z
loop_
_atom_site_type_symbol
_atom_site_label
_atom_site_fract_x
_atom_site_fract_y
_atom_site_fract_z
Si Si1 0.446758 0.250000 0.750000
Si Si2 0.689103 0.930025 0.143456
Si Si3 0.935212 0.322355 0.796423
Si Si4 0.427303 0.636474 0.459148
Si Si5 0.263065 0.845154 0.560192
O O1 0.541955 0.300940 0.649465
O O2 0.335261 0.211975 0.633349
O O3 0.518495 0.920375 0.122865
O O4 0.732254 0.904399 0.321575
O O5 0.750000 0.000000 0.118922
O O6 0.767589 0.883526 0.012147
O O7 0.900173 0.250000 0.750000
O O8 0.000473 0.352213 0.634891
O O9 0.070196 0.326616 0.922791
O O10 0.797731 0.354812 0.880071
#
# Coordination Sequence:
#
# PCOD9408556 Si02
#       5
#     4   8   8   8   8
#     4  10  18  36  60  94 126 154 204 264 332 368
#     4  10  22  43  62  87 126 174 219 260 303 377
#     4  11  21  38  57  91 127 158 200 259 321 392
#     4  10  22  37  63  94 123 165 213 265 320 380
#     4  10  22  37  59  88 125 161 202 260 319 370
#
# _framework density 22.544566
#
# number of rings (size 3 to 8) (size 9 to 14) (size 15 to 20)
#    0.000    1.778    3.333    0.667    0.000    3.556 
#    4.000    5.556    0.000    0.000    0.000    0.000 
#    0.000    0.000    0.000    0.000    0.000    0.000 
#
# Total GULP energy -201299.310263 kJ/mol
# GULP energy per Si atom -5591.647507 kJ/mol
# Density = 2.249325 g / cm^3
# Si number density = 22.544566 Si / 1000 Ang^3
#
#
#
# Elastic Constant Matrix: (Units=GPa)
#
#
# Indices 1 2 3 4 5 6 
#
# 1 104.4346 4.9144 29.6268 0.0000 0.0000 0.0000
# 2 4.9144 42.2268 4.4778 0.0000 0.0000 0.0000
# 3 29.6268 4.4778 69.4526 0.0000 0.0000 0.0000
# 4 0.0000 0.0000 0.0000 19.3153 0.0000 0.0000
# 5 0.0000 0.0000 0.0000 0.0000 45.0898 0.0000
# 6 0.0000 0.0000 0.0000 0.0000 0.0000 8.2540
#
#
#
# Elastic Compliance Matrix: (Units=1/GPa)
#
#
# Indices 1 2 3 4 5 6 
#
# 1 0.010919 -0.000782 -0.004607 0.000000 0.000000 0.000000
# 2 -0.000782 0.023901 -0.001207 0.000000 0.000000 0.000000
# 3 -0.004607 -0.001207 0.016442 0.000000 0.000000 0.000000
# 4 0.000000 0.000000 0.000000 0.051772 0.000000 0.000000
# 5 0.000000 0.000000 0.000000 0.000000 0.022178 0.000000
# 6 0.000000 0.000000 0.000000 0.000000 0.000000 0.121154
#
#
# Mechanical properties :
#
#
# Convention : Reuss Voigt Hill
#
# Bulk Modulus (GPa) = 26.26903 32.68356 29.47629
# Shear Modulus (GPa) = 18.36555 26.33816 22.35185
#
# Velocity S-wave (km/s) = 2.85727 3.42171 3.15215
# Velocity P-wave (km/s) = 4.75002 5.48995 5.13333
#
# Compressibility (1/GPa) = 0.03806765
#
# Stress axis : x y z
#
# Youngs Moduli (GPa) = 91.58134 41.83977 60.82142
#
# Poissons Ratio (x) = 0.03273 0.28023
# Poissons Ratio (y) = 0.07163 0.07343
# Poissons Ratio (z) = 0.42196 0.05051
#
# Static dielectric constant tensor:
#      x y z
#    x 1.847260 0.000000 0.000000 
#    y 0.000000 1.800280 0.000000 
#    z 0.000000 0.000000 1.899830 
# 
# From -- ./inp_files/7274.got.cif
#   From: 2010.05.17/outbox.cif.g08.bks.cpg/sg52_4_cif.got.tgz:7274.got - 2010.06.03 12:15:38.
