data_PCOD9408009
_publ_section_title
;
Structure prediction by ZEFSAII (Michael W. Deem and Ramdas Pophale) SiO2 
 PCOD9408009
Probable space group: P N N A
;
_chemical_formula_sum "Si O2"
_cell_formula_units_Z 48
_cell_length_a 8.036554
_cell_length_b 24.278858
_cell_length_c 15.947840
_cell_angle_alpha 90.000000
_cell_angle_beta 90.000000
_cell_angle_gamma 90.000000
_cell_volume 3111.716281
_symmetry_space_group_name_H-M "P N N A"
_symmetry_group_IT_number 52
_symmetry_cell_setting 'orthorhombic'
loop_
_space_group_symop_operation_xyz
x,y,z
1/2-x,-y,z
x,1/2-y,1/2-z
1/2-x,1/2+y,1/2-z
-x,-y,-z
1/2+x,y,-z
-x,1/2+y,1/2+z
1/2+x,1/2-y,1/2+z
loop_
_atom_site_type_symbol
_atom_site_label
_atom_site_fract_x
_atom_site_fract_y
_atom_site_fract_z
Si Si1 0.058679 0.240693 0.463560
Si Si2 0.165135 0.058281 0.441105
Si Si3 0.787342 0.440788 0.125509
Si Si4 0.840133 0.667302 0.212386
Si Si5 0.754198 0.221875 0.121971
Si Si6 0.146965 0.670517 0.094641
O O1 0.140742 0.273692 0.539988
O O2 0.199305 0.212876 0.406488
O O3 0.940997 0.280954 0.411502
O O4 0.957655 0.191209 0.512141
O O5 0.170644 0.060863 0.542442
O O6 0.276082 0.110056 0.413712
O O7 0.978297 0.061893 0.405943
O O8 0.250000 0.000000 0.417865
O O9 0.750000 0.500000 0.165960
O O10 0.739257 0.389592 0.182633
O O11 0.750647 0.717994 0.165578
O O12 0.814167 0.679230 0.310249
O O13 0.026544 0.671812 0.174853
#
# Coordination Sequence:
#
# PCOD9408009 Si02
#       6
#     8   8   8   8   8   8
#     4   9  17  31  49  64  87 122 155 184 226 274
#     4  11  19  28  43  64  90 127 164 183 207 265
#     4  11  20  30  44  64  92 127 157 188 223 263
#     4  10  19  31  45  68  97 121 148 189 232 267
#     4   9  18  32  48  68  93 120 151 189 228 274
#     4  10  17  28  46  67  93 123 152 187 222 262
#
# _framework density 15.42557
#
# number of rings (size 3 to 8) (size 9 to 14) (size 15 to 20)
#    0.000    2.000    0.000    9.000    0.000    0.000 
#    0.000   18.333    0.000    0.000    0.000    1.167 
#    0.000    0.000    0.000    0.000    0.000    0.000 
#
# Total GULP energy -267610.082637 kJ/mol
# GULP energy per Si atom -5575.210055 kJ/mol
# Density = 1.539046 g / cm^3
# Si number density = 15.425570 Si / 1000 Ang^3
#
#
#
# Elastic Constant Matrix: (Units=GPa)
#
#
# Indices 1 2 3 4 5 6 
#
# 1 105.7159 42.2805 47.6870 0.0000 0.0000 0.0000
# 2 42.2805 83.3148 46.4292 0.0000 0.0000 0.0000
# 3 47.6870 46.4292 72.8312 0.0000 0.0000 0.0000
# 4 0.0000 0.0000 0.0000 13.6848 0.0000 0.0000
# 5 0.0000 0.0000 0.0000 0.0000 7.0775 0.0000
# 6 0.0000 0.0000 0.0000 0.0000 0.0000 14.8277
#
#
#
# Elastic Compliance Matrix: (Units=1/GPa)
#
#
# Indices 1 2 3 4 5 6 
#
# 1 0.013915 -0.003078 -0.007149 0.000000 0.000000 0.000000
# 2 -0.003078 0.019297 -0.010287 0.000000 0.000000 0.000000
# 3 -0.007149 -0.010287 0.024969 0.000000 0.000000 0.000000
# 4 0.000000 0.000000 0.000000 0.073074 0.000000 0.000000
# 5 0.000000 0.000000 0.000000 0.000000 0.141293 0.000000
# 6 0.000000 0.000000 0.000000 0.000000 0.000000 0.067441
#
#
# Mechanical properties :
#
#
# Convention : Reuss Voigt Hill
#
# Bulk Modulus (GPa) = 58.29395 59.40616 58.85006
# Shear Modulus (GPa) = 12.92878 15.48232 14.20555
#
# Velocity S-wave (km/s) = 2.89820 3.17153 3.03794
# Velocity P-wave (km/s) = 7.00514 7.21156 7.10910
#
# Compressibility (1/GPa) = 0.01715444
#
# Stress axis : x y z
#
# Youngs Moduli (GPa) = 71.86469 51.82179 40.04986
#
# Poissons Ratio (x) = 0.15949 0.28632
# Poissons Ratio (y) = 0.22117 0.41197
# Poissons Ratio (z) = 0.51377 0.53307
#
# Static dielectric constant tensor:
#      x y z
#    x 1.567720 0.000000 0.000000 
#    y 0.000000 1.521310 0.000000 
#    z 0.000000 0.000000 1.505230 
# 
# From -- ./inp_files/25014.got.cif
#   From: 2010.05.17/outbox.cif.g08.bks.cpg/sg52_13_cif.got.tgz:25014.got - 2010.06.03 12:15:38.
