data_PCOD9408546
_publ_section_title
;
Structure prediction by ZEFSAII (Michael W. Deem and Ramdas Pophale) SiO2 
 PCOD9408546
Probable space group: P N N A
;
_chemical_formula_sum "Si O2"
_cell_formula_units_Z 44
_cell_length_a 10.000125
_cell_length_b 16.346490
_cell_length_c 11.139264
_cell_angle_alpha 90.000000
_cell_angle_beta 90.000000
_cell_angle_gamma 90.000000
_cell_volume 1820.901437
_symmetry_space_group_name_H-M "P N N A"
_symmetry_group_IT_number 52
_symmetry_cell_setting 'orthorhombic'
loop_
_space_group_symop_operation_xyz
x,y,z
1/2-x,-y,z
x,1/2-y,1/2-z
1/2-x,1/2+y,1/2-z
-x,-y,-z
1/2+x,y,-z
-x,1/2+y,1/2+z
1/2+x,1/2-y,1/2+z
loop_
_atom_site_type_symbol
_atom_site_label
_atom_site_fract_x
_atom_site_fract_y
_atom_site_fract_z
Si Si1 0.750000 0.000000 0.029961
Si Si2 0.712972 0.354108 0.613654
Si Si3 0.723393 0.726058 0.375202
Si Si4 0.972009 0.374833 0.063971
Si Si5 0.234700 0.903972 0.363270
Si Si6 0.066064 0.565080 0.687575
O O1 0.876846 0.987382 0.117809
O O2 0.796201 0.071996 0.943493
O O3 0.710429 0.287353 0.507134
O O4 0.767283 0.344255 0.747921
O O5 0.570246 0.396518 0.638540
O O6 0.798008 0.750000 0.250000
O O7 0.597952 0.789163 0.393084
O O8 0.670373 0.636958 0.340506
O O9 0.938747 0.440079 0.169434
O O10 0.132247 0.379488 0.061412
O O11 0.896616 0.395615 0.942675
O O12 0.250000 0.000000 0.327905
#
# Coordination Sequence:
#
# PCOD9408546 Si02
#       6
#     4   8   8   8   8   8
#     4  10  18  36  58  92 122 164 222 268 346 392
#     4  10  20  37  65  90 132 169 225 277 332 412
#     4   9  20  40  61  92 126 168 222 274 345 403
#     4  10  23  40  64  93 130 181 225 281 341 409
#     4  11  23  42  64  97 136 179 228 284 343 406
#     4   9  20  36  62  89 124 174 213 284 337 402
#
# _framework density 24.163855000000002
#
# number of rings (size 3 to 8) (size 9 to 14) (size 15 to 20)
#    0.000    2.182    0.909    1.091    3.818    0.727 
#    0.000    7.273    0.000    0.000    0.000    0.000 
#    0.000    0.000    0.000    0.000    0.000    0.000 
#
# Total GULP energy -245061.057304 kJ/mol
# GULP energy per Si atom -5569.569484 kJ/mol
# Density = 2.410886 g / cm^3
# Si number density = 24.163855 Si / 1000 Ang^3
#
#
#
# Elastic Constant Matrix: (Units=GPa)
#
#
# Indices 1 2 3 4 5 6 
#
# 1 79.7864 14.9393 75.9998 0.0000 0.0000 0.0000
# 2 14.9393 81.9007 34.2264 0.0000 0.0000 0.0000
# 3 75.9998 34.2264 192.5634 0.0000 0.0000 0.0000
# 4 0.0000 0.0000 0.0000 10.2964 0.0000 0.0000
# 5 0.0000 0.0000 0.0000 0.0000 -56.3602 0.0000
# 6 0.0000 0.0000 0.0000 0.0000 0.0000 25.3156
#
#
#
# Elastic Compliance Matrix: (Units=1/GPa)
#
#
# Indices 1 2 3 4 5 6 
#
# 1 0.020095 -0.000379 -0.007863 0.000000 0.000000 0.000000
# 2 -0.000379 0.013197 -0.002196 0.000000 0.000000 0.000000
# 3 -0.007863 -0.002196 0.008687 0.000000 0.000000 0.000000
# 4 0.000000 0.000000 0.000000 0.097121 0.000000 0.000000
# 5 0.000000 0.000000 0.000000 0.000000 -0.017743 0.000000
# 6 0.000000 0.000000 0.000000 0.000000 0.000000 0.039501
#
#
# Mechanical properties :
#
#
# Convention : Reuss Voigt Hill
#
# Bulk Modulus (GPa) = 47.39089 67.17572 57.28331
# Shear Modulus (GPa) = 26.48740 11.12270 18.80505
#
# Velocity S-wave (km/s) = 3.31442 2.14780 2.79270
# Velocity P-wave (km/s) = 5.85680 5.83191 5.84436
#
# Compressibility (1/GPa) = 0.02110110
#
# Stress axis : x y z
#
# Youngs Moduli (GPa) = 49.76424 75.77611 115.11586
#
# Poissons Ratio (x) = 0.02874 0.90521
# Poissons Ratio (y) = 0.01888 0.25278
# Poissons Ratio (z) = 0.39132 0.16640
#
# Static dielectric constant tensor:
#      x y z
#    x 1.938790 0.000000 0.000000 
#    y 0.000000 2.059240 0.000000 
#    z 0.000000 0.000000 2.045650 
# 
# From -- ./inp_files/18139.got.cif
#   From: 2010.05.17/outbox.cif.g08.bks.cpg/sg52_10_cif.got.tgz:18139.got - 2010.06.03 12:15:38.
