data_PCOD9408905
_publ_section_title
;
Structure prediction by ZEFSAII (Michael W. Deem and Ramdas Pophale) SiO2 
 PCOD9408905
Probable space group: P N N A
;
_chemical_formula_sum "Si O2"
_cell_formula_units_Z 52
_cell_length_a 14.598768
_cell_length_b 8.467736
_cell_length_c 25.206394
_cell_angle_alpha 90.000000
_cell_angle_beta 90.000000
_cell_angle_gamma 90.000000
_cell_volume 3115.976953
_symmetry_space_group_name_H-M "P N N A"
_symmetry_group_IT_number 52
_symmetry_cell_setting 'orthorhombic'
loop_
_space_group_symop_operation_xyz
x,y,z
1/2-x,-y,z
x,1/2-y,1/2-z
1/2-x,1/2+y,1/2-z
-x,-y,-z
1/2+x,y,-z
-x,1/2+y,1/2+z
1/2+x,1/2-y,1/2+z
loop_
_atom_site_type_symbol
_atom_site_label
_atom_site_fract_x
_atom_site_fract_y
_atom_site_fract_z
Si Si1 0.750000 0.500000 0.514066
Si Si2 0.790989 0.735710 0.423276
Si Si3 0.521898 0.409602 0.052886
Si Si4 0.616573 0.627387 0.130909
Si Si5 0.647696 0.941210 0.253095
Si Si6 0.945813 0.072227 0.947997
Si Si7 0.583580 0.500502 0.355727
O O1 0.747733 0.646058 0.473162
O O2 0.843251 0.492233 0.546999
O O3 0.878327 0.828714 0.445171
O O4 0.714732 0.847088 0.397585
O O5 0.835728 0.607753 0.382020
O O6 0.536371 0.541279 0.098251
O O7 0.451820 0.262824 0.053665
O O8 0.500000 0.500000 0.000000
O O9 0.625770 0.529480 0.185415
O O10 0.596370 0.811854 0.139743
O O11 0.645207 0.750000 0.250000
O O12 0.584891 0.021802 0.207926
O O13 0.750000 0.000000 0.241604
O O14 0.997067 0.029867 0.893398
O O15 0.000000 0.000000 0.000000
#
# Coordination Sequence:
#
# PCOD9408905 Si02
#       7
#     4   8   8   8   8   8   8
#     4  12  20  34  62  74  98 144 194 226 262 320
#     4  11  19  33  54  75 106 150 185 215 263 334
#     4  11  22  32  50  76 116 140 170 228 274 323
#     4  11  20  33  50  82 113 142 179 226 279 323
#     4  10  20  31  50  77 110 145 183 220 270 334
#     4  11  21  37  53  77 105 142 190 222 271 335
#     4  10  19  34  53  72 109 150 184 218 260 336
#
# _framework density 16.688185000000001
#
# number of rings (size 3 to 8) (size 9 to 14) (size 15 to 20)
#    0.000    1.231    4.615    5.077    0.000    1.231 
#    0.000    0.000    0.000    0.000    0.000    6.462 
#    0.000    0.000    0.000    0.000    0.000    0.000 
#
# Total GULP energy -289507.947687 kJ/mol
# GULP energy per Si atom -5567.460532 kJ/mol
# Density = 1.665020 g / cm^3
# Si number density = 16.688185 Si / 1000 Ang^3
#
#
#
# Elastic Constant Matrix: (Units=GPa)
#
#
# Indices 1 2 3 4 5 6 
#
# 1 74.7500 12.3827 50.7306 0.0000 0.0000 0.0000
# 2 12.3827 62.6003 28.4281 0.0000 0.0000 0.0000
# 3 50.7306 28.4281 126.4843 0.0000 0.0000 0.0000
# 4 0.0000 0.0000 0.0000 11.2825 0.0000 0.0000
# 5 0.0000 0.0000 0.0000 0.0000 27.7218 0.0000
# 6 0.0000 0.0000 0.0000 0.0000 0.0000 27.9708
#
#
#
# Elastic Compliance Matrix: (Units=1/GPa)
#
#
# Indices 1 2 3 4 5 6 
#
# 1 0.018387 -0.000321 -0.007303 0.000000 0.000000 0.000000
# 2 -0.000321 0.017796 -0.003871 0.000000 0.000000 0.000000
# 3 -0.007303 -0.003871 0.011705 0.000000 0.000000 0.000000
# 4 0.000000 0.000000 0.000000 0.088633 0.000000 0.000000
# 5 0.000000 0.000000 0.000000 0.000000 0.036073 0.000000
# 6 0.000000 0.000000 0.000000 0.000000 0.000000 0.035752
#
#
# Mechanical properties :
#
#
# Convention : Reuss Voigt Hill
#
# Bulk Modulus (GPa) = 40.16216 49.65747 44.90982
# Shear Modulus (GPa) = 20.86514 24.88123 22.87319
#
# Velocity S-wave (km/s) = 3.53979 3.86547 3.70621
# Velocity P-wave (km/s) = 6.38946 7.05288 6.72935
#
# Compressibility (1/GPa) = 0.02489906
#
# Stress axis : x y z
#
# Youngs Moduli (GPa) = 54.38580 56.19319 85.43267
#
# Poissons Ratio (x) = 0.01803 0.62389
# Poissons Ratio (y) = 0.01745 0.33071
# Poissons Ratio (z) = 0.39716 0.21753
#
# Static dielectric constant tensor:
#      x y z
#    x 1.582840 0.000000 0.000000 
#    y 0.000000 1.634520 0.000000 
#    z 0.000000 0.000000 1.622560 
# 
# From -- ./inp_files/40611.got.cif
#   From: 2010.05.17/outbox.cif.g08.bks.cpg/sg52_21_cif.got.tgz:40611.got - 2010.06.03 12:15:38.
