data_PCOD9408434
_publ_section_title
;
Structure prediction by ZEFSAII (Michael W. Deem and Ramdas Pophale) SiO2 
 PCOD9408434
Probable space group: P N N A
;
_chemical_formula_sum "Si O2"
_cell_formula_units_Z 48
_cell_length_a 15.151043
_cell_length_b 5.897026
_cell_length_c 25.492280
_cell_angle_alpha 90.000000
_cell_angle_beta 90.000000
_cell_angle_gamma 90.000000
_cell_volume 2277.635658
_symmetry_space_group_name_H-M "P N N A"
_symmetry_group_IT_number 52
_symmetry_cell_setting 'orthorhombic'
loop_
_space_group_symop_operation_xyz
x,y,z
1/2-x,-y,z
x,1/2-y,1/2-z
1/2-x,1/2+y,1/2-z
-x,-y,-z
1/2+x,y,-z
-x,1/2+y,1/2+z
1/2+x,1/2-y,1/2+z
loop_
_atom_site_type_symbol
_atom_site_label
_atom_site_fract_x
_atom_site_fract_y
_atom_site_fract_z
Si Si1 0.410126 0.752987 0.371076
Si Si2 0.589790 0.518566 0.141911
Si Si3 0.750000 0.000000 0.868880
Si Si4 0.476053 0.631993 0.571791
Si Si5 0.250000 0.500000 0.777930
Si Si6 0.829311 0.162886 0.051059
Si Si7 0.148409 0.645322 0.055713
O O1 0.328912 0.636447 0.339869
O O2 0.465257 0.559294 0.400645
O O3 0.489798 0.896128 0.344576
O O4 0.359375 0.909336 0.413743
O O5 0.576903 0.273791 0.115349
O O6 0.660191 0.508138 0.187970
O O7 0.632894 0.683663 0.097788
O O8 0.695427 0.824059 0.905388
O O9 0.406133 0.513800 0.534610
O O10 0.544706 0.802850 0.546623
O O11 0.247781 0.250000 0.750000
O O12 0.750000 0.000000 0.067586
O O13 0.808638 0.313982 0.000632
#
# Coordination Sequence:
#
# PCOD9408434 Si02
#       7
#     8   8   4   8   4   8   8
#     4   9  20  35  60  81 132 162 227 265 319 395
#     4  10  23  42  63  93 122 165 217 268 350 408
#     4  10  18  34  51  84 128 172 222 263 312 364
#     4   9  20  35  54  77 122 162 220 270 320 387
#     4  12  30  50  81 104 138 168 218 287 360 440
#     4  11  21  33  54  80 122 171 223 273 316 385
#     4  10  19  33  49  84 119 176 221 268 311 368
#
# _framework density 21.074484999999999
#
# number of rings (size 3 to 8) (size 9 to 14) (size 15 to 20)
#    0.000    2.000    0.833    2.000    5.833    8.667 
#    6.000    0.000    0.000    0.000    0.000    0.000 
#   15.000    0.000    0.000    0.000    0.000    0.000 
#
# Total GULP energy -267405.298669 kJ/mol
# GULP energy per Si atom -5570.943722 kJ/mol
# Density = 2.102652 g / cm^3
# Si number density = 21.074485 Si / 1000 Ang^3
#
#
#
# Elastic Constant Matrix: (Units=GPa)
#
#
# Indices 1 2 3 4 5 6 
#
# 1 116.4656 53.9125 16.3717 0.0000 0.0000 0.0000
# 2 53.9125 117.1441 29.8950 0.0000 0.0000 0.0000
# 3 16.3717 29.8950 33.7520 0.0000 0.0000 0.0000
# 4 0.0000 0.0000 0.0000 9.6754 0.0000 0.0000
# 5 0.0000 0.0000 0.0000 0.0000 2.6323 0.0000
# 6 0.0000 0.0000 0.0000 0.0000 0.0000 65.5927
#
#
#
# Elastic Compliance Matrix: (Units=1/GPa)
#
#
# Indices 1 2 3 4 5 6 
#
# 1 0.010942 -0.004756 -0.001095 0.000000 0.000000 0.000000
# 2 -0.004756 0.013097 -0.009293 0.000000 0.000000 0.000000
# 3 -0.001095 -0.009293 0.038390 0.000000 0.000000 0.000000
# 4 0.000000 0.000000 0.000000 0.103355 0.000000 0.000000
# 5 0.000000 0.000000 0.000000 0.000000 0.379900 0.000000
# 6 0.000000 0.000000 0.000000 0.000000 0.000000 0.015246
#
#
# Mechanical properties :
#
#
# Convention : Reuss Voigt Hill
#
# Bulk Modulus (GPa) = 31.11341 51.96890 41.54115
# Shear Modulus (GPa) = 8.30658 26.72558 17.51608
#
# Velocity S-wave (km/s) = 1.98748 3.56497 2.88610
# Velocity P-wave (km/s) = 4.47911 6.45434 5.55522
#
# Compressibility (1/GPa) = 0.03214048
#
# Stress axis : x y z
#
# Youngs Moduli (GPa) = 91.39238 76.35266 26.04839
#
# Poissons Ratio (x) = 0.36316 0.02851
# Poissons Ratio (y) = 0.43469 0.24208
# Poissons Ratio (z) = 0.10004 0.70957
#
# Static dielectric constant tensor:
#      x y z
#    x 1.825930 0.000000 0.000000 
#    y 0.000000 1.832030 0.000000 
#    z 0.000000 0.000000 1.717430 
# 
# From -- ./inp_files/43033.got.cif
#   From: 2010.05.17/outbox.cif.g08.bks.cpg/sg52_22_cif.got.tgz:43033.got - 2010.06.03 12:15:38.
