data_PCOD9408991
_publ_section_title
;
Structure prediction by ZEFSAII (Michael W. Deem and Ramdas Pophale) SiO2 
 PCOD9408991
Probable space group: P N N A
;
_chemical_formula_sum "Si O2"
_cell_formula_units_Z 48
_cell_length_a 5.480017
_cell_length_b 30.358033
_cell_length_c 16.015364
_cell_angle_alpha 90.000000
_cell_angle_beta 90.000000
_cell_angle_gamma 90.000000
_cell_volume 2664.356585
_symmetry_space_group_name_H-M "P N N A"
_symmetry_group_IT_number 52
_symmetry_cell_setting 'orthorhombic'
loop_
_space_group_symop_operation_xyz
x,y,z
1/2-x,-y,z
x,1/2-y,1/2-z
1/2-x,1/2+y,1/2-z
-x,-y,-z
1/2+x,y,-z
-x,1/2+y,1/2+z
1/2+x,1/2-y,1/2+z
loop_
_atom_site_type_symbol
_atom_site_label
_atom_site_fract_x
_atom_site_fract_y
_atom_site_fract_z
Si Si1 0.744511 0.300693 0.783489
Si Si2 0.250511 0.268848 0.543283
Si Si3 0.244327 0.323978 0.698411
Si Si4 0.751185 0.327570 0.976346
Si Si5 0.283092 0.085649 0.897302
Si Si6 0.282982 0.051130 0.084169
O O1 0.745960 0.250000 0.750000
O O2 0.492319 0.322106 0.751143
O O3 0.750514 0.308079 0.882830
O O4 0.990473 0.323051 0.747765
O O5 0.502088 0.285468 0.501093
O O6 0.245734 0.281264 0.639232
O O7 0.251276 0.216412 0.533545
O O8 0.253740 0.365121 0.635104
O O9 0.501258 0.351670 0.000118
O O10 0.542353 0.066624 0.867596
O O11 0.040500 0.059113 0.871518
O O12 0.294373 0.079018 0.997858
O O13 0.250000 0.000000 0.061359
#
# Coordination Sequence:
#
# PCOD9408991 Si02
#       6
#     8   8   8   8   8   8
#     4  12  23  38  51  70  99 135 172 225 292 334
#     4  10  20  32  48  66  88 121 165 219 266 301
#     4  12  24  35  52  74 105 131 173 231 289 307
#     4  10  19  35  52  69  84 120 174 218 257 320
#     4  10  20  31  50  76 101 134 178 212 264 295
#     4  10  19  35  54  77 107 142 181 211 243 319
#
# _framework density 18.015605999999998
#
# number of rings (size 3 to 8) (size 9 to 14) (size 15 to 20)
#    0.000    1.333    0.000   10.000    4.667    0.000 
#    0.000    0.000    0.000    0.000    0.000    0.000 
#    0.000    0.000    0.000    0.000    0.000  343.333 
#
# Total GULP energy -267803.998646 kJ/mol
# GULP energy per Si atom -5579.249972 kJ/mol
# Density = 1.797460 g / cm^3
# Si number density = 18.015606 Si / 1000 Ang^3
#
#
#
# Elastic Constant Matrix: (Units=GPa)
#
#
# Indices 1 2 3 4 5 6 
#
# 1 169.3671 -12.7615 23.5549 0.0000 0.0000 0.0000
# 2 -12.7615 33.6606 3.0099 0.0000 0.0000 0.0000
# 3 23.5549 3.0099 35.1124 0.0000 0.0000 0.0000
# 4 0.0000 0.0000 0.0000 7.2195 0.0000 0.0000
# 5 0.0000 0.0000 0.0000 0.0000 28.4672 0.0000
# 6 0.0000 0.0000 0.0000 0.0000 0.0000 17.8893
#
#
#
# Elastic Compliance Matrix: (Units=1/GPa)
#
#
# Indices 1 2 3 4 5 6 
#
# 1 0.006802 0.003010 -0.004821 0.000000 0.000000 0.000000
# 2 0.003010 0.031270 -0.004700 0.000000 0.000000 0.000000
# 3 -0.004821 -0.004700 0.032117 0.000000 0.000000 0.000000
# 4 0.000000 0.000000 0.000000 0.138514 0.000000 0.000000
# 5 0.000000 0.000000 0.000000 0.000000 0.035128 0.000000
# 6 0.000000 0.000000 0.000000 0.000000 0.000000 0.055899
#
#
# Mechanical properties :
#
#
# Convention : Reuss Voigt Hill
#
# Bulk Modulus (GPa) = 17.49271 29.52744 23.51007
# Shear Modulus (GPa) = 15.06905 25.67100 20.37003
#
# Velocity S-wave (km/s) = 2.89527 3.77892 3.36622
# Velocity P-wave (km/s) = 4.57249 5.95532 5.30912
#
# Compressibility (1/GPa) = 0.05716667
#
# Stress axis : x y z
#
# Youngs Moduli (GPa) = 147.02498 31.97997 31.13638
#
# Poissons Ratio (x) = -0.09625 0.15010
# Poissons Ratio (y) = -0.44250 0.14633
# Poissons Ratio (z) = 0.70878 0.15029
#
# Static dielectric constant tensor:
#      x y z
#    x 1.789330 0.000000 0.000000 
#    y 0.000000 1.605010 0.000000 
#    z 0.000000 0.000000 1.631990 
# 
# From -- ./inp_files/23699.got.cif
#   From: 2010.05.17/outbox.cif.g08.bks.cpg/sg52_12_cif.got.tgz:23699.got - 2010.06.03 12:15:38.
