data_PCOD9408095
_publ_section_title
;
Structure prediction by ZEFSAII (Michael W. Deem and Ramdas Pophale) SiO2 
 PCOD9408095
Probable space group: P N N A
;
_chemical_formula_sum "Si O2"
_cell_formula_units_Z 60
_cell_length_a 9.732056
_cell_length_b 9.994371
_cell_length_c 31.450045
_cell_angle_alpha 90.000000
_cell_angle_beta 90.000000
_cell_angle_gamma 90.000000
_cell_volume 3059.013103
_symmetry_space_group_name_H-M "P N N A"
_symmetry_group_IT_number 52
_symmetry_cell_setting 'orthorhombic'
loop_
_space_group_symop_operation_xyz
x,y,z
1/2-x,-y,z
x,1/2-y,1/2-z
1/2-x,1/2+y,1/2-z
-x,-y,-z
1/2+x,y,-z
-x,1/2+y,1/2+z
1/2+x,1/2-y,1/2+z
loop_
_atom_site_type_symbol
_atom_site_label
_atom_site_fract_x
_atom_site_fract_y
_atom_site_fract_z
Si Si1 0.911653 0.178830 0.098951
Si Si2 0.593704 0.663203 0.934523
Si Si3 0.613691 0.913109 0.283662
Si Si4 0.330920 0.717897 0.539699
Si Si5 0.083190 0.519227 0.873651
Si Si6 0.250000 0.500000 0.997550
Si Si7 0.873513 0.393106 0.307354
Si Si8 0.315691 0.864799 0.055343
O O1 0.760631 0.165168 0.078461
O O2 0.936840 0.336704 0.105310
O O3 0.931882 0.110482 0.144922
O O4 0.024491 0.132939 0.065730
O O5 0.492480 0.779062 0.951509
O O6 0.507376 0.590101 0.897928
O O7 0.631429 0.556520 0.971324
O O8 0.737021 0.736864 0.924383
O O9 0.536381 0.970346 0.324513
O O10 0.661740 0.763414 0.297743
O O11 0.544940 0.920862 0.236952
O O12 0.750000 0.000000 0.279075
O O13 0.297051 0.649016 0.495260
O O14 0.295305 0.874931 0.530832
O O15 0.250000 0.500000 0.873677
O O16 0.750000 0.500000 0.309215
O O17 0.250000 0.000000 0.071751
#
# Coordination Sequence:
#
# PCOD9408095 Si02
#       8
#     8   8   8   8   8   4   8   8
#     4  11  22  37  57  85 115 153 195 248 289 348
#     4  11  21  35  58  83 114 156 194 238 302 352
#     4   8  16  31  54  87 125 142 174 247 298 349
#     4  11  21  36  59  81 112 149 207 252 296 331
#     4  10  17  33  59  93 120 133 181 245 302 343
#     4  10  20  34  54  84 122 152 190 246 302 346
#     4   9  18  33  55  86 117 155 185 229 309 356
#     4  11  26  42  51  74 116 167 204 242 284 345
#
# _framework density 19.614169
#
# number of rings (size 3 to 8) (size 9 to 14) (size 15 to 20)
#    0.000    1.867    1.333    4.400    0.000    3.733 
#    0.000    0.000    0.000    0.000   15.600    0.000 
#    0.000    0.000    0.000    0.000    0.000    0.000 
#
# Total GULP energy -334375.952869 kJ/mol
# GULP energy per Si atom -5572.932548 kJ/mol
# Density = 1.956953 g / cm^3
# Si number density = 19.614169 Si / 1000 Ang^3
#
#
#
# Elastic Constant Matrix: (Units=GPa)
#
#
# Indices 1 2 3 4 5 6 
#
# 1 59.4962 -1.3525 21.7961 0.0000 0.0000 0.0000
# 2 -1.3525 44.7288 17.8846 0.0000 0.0000 0.0000
# 3 21.7961 17.8846 115.2338 0.0000 0.0000 0.0000
# 4 0.0000 0.0000 0.0000 14.3707 0.0000 0.0000
# 5 0.0000 0.0000 0.0000 0.0000 1.1743 0.0000
# 6 0.0000 0.0000 0.0000 0.0000 0.0000 20.5329
#
#
#
# Elastic Compliance Matrix: (Units=1/GPa)
#
#
# Indices 1 2 3 4 5 6 
#
# 1 0.018235 0.002058 -0.003769 0.000000 0.000000 0.000000
# 2 0.002058 0.024068 -0.004125 0.000000 0.000000 0.000000
# 3 -0.003769 -0.004125 0.010031 0.000000 0.000000 0.000000
# 4 0.000000 0.000000 0.000000 0.069586 0.000000 0.000000
# 5 0.000000 0.000000 0.000000 0.000000 0.851564 0.000000
# 6 0.000000 0.000000 0.000000 0.000000 0.000000 0.048702
#
#
# Mechanical properties :
#
#
# Convention : Reuss Voigt Hill
#
# Bulk Modulus (GPa) = 24.59155 32.90169 28.74662
# Shear Modulus (GPa) = 4.77367 19.29094 12.03231
#
# Velocity S-wave (km/s) = 1.56175 3.13952 2.47948
# Velocity P-wave (km/s) = 3.97705 5.47293 4.78382
#
# Compressibility (1/GPa) = 0.04066437
#
# Stress axis : x y z
#
# Youngs Moduli (GPa) = 54.83905 41.54812 99.69095
#
# Poissons Ratio (x) = -0.08552 0.37569
# Poissons Ratio (y) = -0.11287 0.41121
# Poissons Ratio (z) = 0.20666 0.17138
#
# Static dielectric constant tensor:
#      x y z
#    x 1.688860 0.000000 0.000000 
#    y 0.000000 1.764820 0.000000 
#    z 0.000000 0.000000 1.744700 
# 
# From -- ./inp_files/44559.got.cif
#   From: 2010.05.17/outbox.cif.g08.bks.cpg/sg52_23_cif.got.tgz:44559.got - 2010.06.03 12:15:38.
