data_PCOD9408799
_publ_section_title
;
Structure prediction by ZEFSAII (Michael W. Deem and Ramdas Pophale) SiO2 
 PCOD9408799
Probable space group: P N N A
;
_chemical_formula_sum "Si O2"
_cell_formula_units_Z 48
_cell_length_a 15.311553
_cell_length_b 8.795179
_cell_length_c 15.944238
_cell_angle_alpha 90.000000
_cell_angle_beta 90.000000
_cell_angle_gamma 90.000000
_cell_volume 2147.176242
_symmetry_space_group_name_H-M "P N N A"
_symmetry_group_IT_number 52
_symmetry_cell_setting 'orthorhombic'
loop_
_space_group_symop_operation_xyz
x,y,z
1/2-x,-y,z
x,1/2-y,1/2-z
1/2-x,1/2+y,1/2-z
-x,-y,-z
1/2+x,y,-z
-x,1/2+y,1/2+z
1/2+x,1/2-y,1/2+z
loop_
_atom_site_type_symbol
_atom_site_label
_atom_site_fract_x
_atom_site_fract_y
_atom_site_fract_z
Si Si1 0.848176 0.053598 0.314863
Si Si2 0.995122 0.847104 0.331827
Si Si3 0.628714 0.716680 0.539404
Si Si4 0.159415 0.595769 0.631660
Si Si5 0.250000 0.000000 0.149199
Si Si6 0.750000 0.000000 0.567481
Si Si7 0.125979 0.112381 0.289088
O O1 0.838112 0.227265 0.341427
O O2 0.878324 0.029472 0.217816
O O3 0.750000 0.000000 0.319052
O O4 0.914264 0.946954 0.365322
O O5 0.971263 0.750000 0.250000
O O6 0.043041 0.758020 0.407041
O O7 0.067042 0.965250 0.298527
O O8 0.610708 0.616732 0.456376
O O9 0.689338 0.608667 0.595506
O O10 0.686975 0.872565 0.523842
O O11 0.250000 0.500000 0.617226
O O12 0.192173 0.098704 0.211917
O O13 0.684738 0.100213 0.626700
O O14 0.068360 0.250000 0.250000
#
# Coordination Sequence:
#
# PCOD9408799 Si02
#       7
#     8   8   8   8   4   4   8
#     4  10  25  47  70  89 124 182 242 302 346 402
#     4  11  24  40  66 101 137 178 231 286 353 419
#     4  11  21  39  63 102 140 177 218 287 348 427
#     4  10  23  43  70  95 125 175 240 293 349 415
#     4  11  18  34  58  95 142 176 212 259 340 432
#     4   9  20  30  54  93 134 174 212 259 344 418
#     4  10  19  32  56  90 135 181 215 257 331 429
#
# _framework density 22.354944
#
# number of rings (size 3 to 8) (size 9 to 14) (size 15 to 20)
#    0.000    1.667    4.167    0.000    8.167    0.667 
#    0.000    0.833    3.667    0.000    0.000    0.000 
#    0.000    0.000    0.000    0.000    0.000    0.000 
#
# Total GULP energy -267285.310905 kJ/mol
# GULP energy per Si atom -5568.443977 kJ/mol
# Density = 2.230406 g / cm^3
# Si number density = 22.354944 Si / 1000 Ang^3
#
#
#
# Elastic Constant Matrix: (Units=GPa)
#
#
# Indices 1 2 3 4 5 6 
#
# 1 75.1009 46.0244 31.5302 0.0000 0.0000 0.0000
# 2 46.0244 79.2020 28.4220 0.0000 0.0000 0.0000
# 3 31.5302 28.4220 78.4992 0.0000 0.0000 0.0000
# 4 0.0000 0.0000 0.0000 100.4422 0.0000 0.0000
# 5 0.0000 0.0000 0.0000 0.0000 6.3306 0.0000
# 6 0.0000 0.0000 0.0000 0.0000 0.0000 33.0030
#
#
#
# Elastic Compliance Matrix: (Units=1/GPa)
#
#
# Indices 1 2 3 4 5 6 
#
# 1 0.022195 -0.011147 -0.004879 0.000000 0.000000 0.000000
# 2 -0.011147 0.020109 -0.002804 0.000000 0.000000 0.000000
# 3 -0.004879 -0.002804 0.015714 0.000000 0.000000 0.000000
# 4 0.000000 0.000000 0.000000 0.009956 0.000000 0.000000
# 5 0.000000 0.000000 0.000000 0.000000 0.157963 0.000000
# 6 0.000000 0.000000 0.000000 0.000000 0.000000 0.030300
#
#
# Mechanical properties :
#
#
# Convention : Reuss Voigt Hill
#
# Bulk Modulus (GPa) = 49.11762 49.41726 49.26744
# Shear Modulus (GPa) = 16.62884 36.41021 26.51952
#
# Velocity S-wave (km/s) = 2.73033 4.04013 3.44800
# Velocity P-wave (km/s) = 5.65323 6.62701 6.15940
#
# Compressibility (1/GPa) = 0.02035929
#
# Stress axis : x y z
#
# Youngs Moduli (GPa) = 45.05552 49.72795 63.63813
#
# Poissons Ratio (x) = 0.55430 0.31049
# Poissons Ratio (y) = 0.50222 0.17843
# Poissons Ratio (z) = 0.21983 0.13943
#
# Static dielectric constant tensor:
#      x y z
#    x 1.823240 0.000000 0.000000 
#    y 0.000000 2.231240 0.000000 
#    z 0.000000 0.000000 1.881350 
# 
# From -- ./inp_files/28103.got.cif
#   From: 2010.05.17/outbox.cif.g08.bks.cpg/sg52_15_cif.got.tgz:28103.got - 2010.06.03 12:15:38.
