data_PCOD9408097
_publ_section_title
;
Structure prediction by ZEFSAII (Michael W. Deem and Ramdas Pophale) SiO2 
 PCOD9408097
Probable space group: P N N A
;
_chemical_formula_sum "Si O2"
_cell_formula_units_Z 48
_cell_length_a 9.366195
_cell_length_b 14.877994
_cell_length_c 16.192398
_cell_angle_alpha 90.000000
_cell_angle_beta 90.000000
_cell_angle_gamma 90.000000
_cell_volume 2256.413787
_symmetry_space_group_name_H-M "P N N A"
_symmetry_group_IT_number 52
_symmetry_cell_setting 'orthorhombic'
loop_
_space_group_symop_operation_xyz
x,y,z
1/2-x,-y,z
x,1/2-y,1/2-z
1/2-x,1/2+y,1/2-z
-x,-y,-z
1/2+x,y,-z
-x,1/2+y,1/2+z
1/2+x,1/2-y,1/2+z
loop_
_atom_site_type_symbol
_atom_site_label
_atom_site_fract_x
_atom_site_fract_y
_atom_site_fract_z
Si Si1 0.318952 0.291018 0.484251
Si Si2 0.808048 0.612124 0.067540
Si Si3 0.043530 0.809162 0.326243
Si Si4 0.513857 0.402432 0.906057
Si Si5 0.546678 0.315308 0.607055
Si Si6 0.817377 0.913137 0.747201
O O1 0.244130 0.210435 0.534725
O O2 0.410044 0.246600 0.408811
O O3 0.415312 0.343459 0.549543
O O4 0.190743 0.341511 0.440856
O O5 0.652641 0.572215 0.089132
O O6 0.918091 0.626409 0.141868
O O7 0.898845 0.578081 0.989191
O O8 0.987925 0.750000 0.250000
O O9 0.187542 0.853784 0.289398
O O10 0.531738 0.294026 0.890200
O O11 0.594137 0.448350 0.830946
O O12 0.574348 0.356747 0.696284
O O13 0.750000 0.000000 0.791028
#
# Coordination Sequence:
#
# PCOD9408097 Si02
#       6
#     8   8   8   8   8   8
#     4  10  17  33  62  86 110 136 191 244 288 326
#     4  10  18  32  62  90 113 139 193 243 294 335
#     4  12  20  35  60  87 113 147 190 246 291 335
#     4  10  18  36  59  85 115 146 192 243 284 341
#     4  10  19  36  62  84 111 145 191 245 282 339
#     4  12  24  38  55  83 121 163 192 227 291 353
#
# _framework density 21.272694999999999
#
# number of rings (size 3 to 8) (size 9 to 14) (size 15 to 20)
#    0.000    1.333   10.000    0.500    0.000    2.667 
#    0.000    5.000    0.000    0.000    0.000    0.000 
#    0.000    0.000    0.000    0.000    0.000    0.000 
#
# Total GULP energy -267930.926462 kJ/mol
# GULP energy per Si atom -5581.894301 kJ/mol
# Density = 2.122428 g / cm^3
# Si number density = 21.272695 Si / 1000 Ang^3
#
#
#
# Elastic Constant Matrix: (Units=GPa)
#
#
# Indices 1 2 3 4 5 6 
#
# 1 147.5805 26.1079 57.3107 0.0000 0.0000 0.0000
# 2 26.1079 45.2763 40.8918 0.0000 0.0000 0.0000
# 3 57.3107 40.8918 105.5528 0.0000 0.0000 0.0000
# 4 0.0000 0.0000 0.0000 8.4960 0.0000 0.0000
# 5 0.0000 0.0000 0.0000 0.0000 28.5800 0.0000
# 6 0.0000 0.0000 0.0000 0.0000 0.0000 26.8254
#
#
#
# Elastic Compliance Matrix: (Units=1/GPa)
#
#
# Indices 1 2 3 4 5 6 
#
# 1 0.008625 -0.001144 -0.004240 0.000000 0.000000 0.000000
# 2 -0.001144 0.034125 -0.012599 0.000000 0.000000 0.000000
# 3 -0.004240 -0.012599 0.016657 0.000000 0.000000 0.000000
# 4 0.000000 0.000000 0.000000 0.117703 0.000000 0.000000
# 5 0.000000 0.000000 0.000000 0.000000 0.034989 0.000000
# 6 0.000000 0.000000 0.000000 0.000000 0.000000 0.037278
#
#
# Mechanical properties :
#
#
# Convention : Reuss Voigt Hill
#
# Bulk Modulus (GPa) = 42.66018 60.78117 51.72068
# Shear Modulus (GPa) = 17.05569 24.38689 20.72129
#
# Velocity S-wave (km/s) = 2.83462 3.38952 3.12441
# Velocity P-wave (km/s) = 5.55076 6.62969 6.11407
#
# Compressibility (1/GPa) = 0.02344106
#
# Stress axis : x y z
#
# Youngs Moduli (GPa) = 115.94511 29.30360 60.03552
#
# Poissons Ratio (x) = 0.03353 0.25452
# Poissons Ratio (y) = 0.13268 0.75639
# Poissons Ratio (z) = 0.49156 0.36920
#
# Static dielectric constant tensor:
#      x y z
#    x 1.811930 0.000000 0.000000 
#    y 0.000000 1.841280 0.000000 
#    z 0.000000 0.000000 1.811610 
# 
# From -- ./inp_files/24854.got.cif
#   From: 2010.05.17/outbox.cif.g08.bks.cpg/sg52_13_cif.got.tgz:24854.got - 2010.06.03 12:15:38.
