data_PCOD9408778
_publ_section_title
;
Structure prediction by ZEFSAII (Michael W. Deem and Ramdas Pophale) SiO2 
 PCOD9408778
Probable space group: P N N A
;
_chemical_formula_sum "Si O2"
_cell_formula_units_Z 40
_cell_length_a 28.531896
_cell_length_b 8.273052
_cell_length_c 7.136648
_cell_angle_alpha 90.000000
_cell_angle_beta 90.000000
_cell_angle_gamma 90.000000
_cell_volume 1684.576209
_symmetry_space_group_name_H-M "P N N A"
_symmetry_group_IT_number 52
_symmetry_cell_setting 'orthorhombic'
loop_
_space_group_symop_operation_xyz
x,y,z
1/2-x,-y,z
x,1/2-y,1/2-z
1/2-x,1/2+y,1/2-z
-x,-y,-z
1/2+x,y,-z
-x,1/2+y,1/2+z
1/2+x,1/2-y,1/2+z
loop_
_atom_site_type_symbol
_atom_site_label
_atom_site_fract_x
_atom_site_fract_y
_atom_site_fract_z
Si Si1 0.900101 0.945434 0.721261
Si Si2 0.200231 0.559269 0.776261
Si Si3 0.700202 0.058857 0.710911
Si Si4 0.500761 0.557209 0.217882
Si Si5 0.100563 0.439531 0.777421
O O1 0.899965 0.750000 0.750000
O O2 0.849444 0.008134 0.787594
O O3 0.900018 0.977038 0.498715
O O4 0.950428 0.006310 0.793123
O O5 0.250000 0.500000 0.696054
O O6 0.201029 0.750000 0.750000
O O7 0.149803 0.503156 0.699326
O O8 0.200244 0.490011 0.990358
O O9 0.699281 0.250000 0.750000
O O10 0.750000 0.000000 0.785728
O O11 0.500223 0.750000 0.250000
O O12 0.550310 0.497558 0.296703
O O13 0.500000 0.500000 0.000000
O O14 0.101684 0.250000 0.750000
#
# Coordination Sequence:
#
# PCOD9408778 Si02
#       5
#     8   8   8   8   8
#     4   8  16  33  52  70 102 145 181 219 277 335
#     4  10  20  36  57  84 113 147 188 236 288 344
#     4   9  18  35  57  81 110 149 192 236 286 346
#     4   9  17  32  53  74 102 145 186 228 283 345
#     4  10  19  32  53  83 110 138 181 237 287 338
#
# _framework density 23.744842999999999
#
# number of rings (size 3 to 8) (size 9 to 14) (size 15 to 20)
#    0.000    2.800    0.000    1.200    0.000    0.000 
#    0.000   26.000    0.000    0.000    0.000    0.000 
#    0.000    0.000    0.000    0.000    0.000    0.000 
#
# Total GULP energy -222903.095349 kJ/mol
# GULP energy per Si atom -5572.577384 kJ/mol
# Density = 2.369080 g / cm^3
# Si number density = 23.744843 Si / 1000 Ang^3
#
#
#
# Elastic Constant Matrix: (Units=GPa)
#
#
# Indices 1 2 3 4 5 6 
#
# 1 374.9664 57.1025 12.5841 0.0000 0.0000 0.0000
# 2 57.1025 86.1410 2.3866 0.0000 0.0000 0.0000
# 3 12.5841 2.3866 149.8738 0.0000 0.0000 0.0000
# 4 0.0000 0.0000 0.0000 22.5162 0.0000 0.0000
# 5 0.0000 0.0000 0.0000 0.0000 -83.5288 0.0000
# 6 0.0000 0.0000 0.0000 0.0000 0.0000 -516.8772
#
#
#
# Elastic Compliance Matrix: (Units=1/GPa)
#
#
# Indices 1 2 3 4 5 6 
#
# 1 0.002973 -0.001965 -0.000218 0.000000 0.000000 0.000000
# 2 -0.001965 0.012913 -0.000041 0.000000 0.000000 0.000000
# 3 -0.000218 -0.000041 0.006691 0.000000 0.000000 0.000000
# 4 0.000000 0.000000 0.000000 0.044412 0.000000 0.000000
# 5 0.000000 0.000000 0.000000 0.000000 -0.011972 0.000000
# 6 0.000000 0.000000 0.000000 0.000000 0.000000 -0.001935
#
#
# Mechanical properties :
#
#
# Convention : Reuss Voigt Hill
#
# Bulk Modulus (GPa) = 55.15948 83.90308 69.53128
# Shear Modulus (GPa) = 78.64795 -79.65076 -0.50141
#
# Velocity S-wave (km/s) = 5.76143 -5.79804 -0.46003
# Velocity P-wave (km/s) = 8.21822 3.06774 5.39111
#
# Compressibility (1/GPa) = 0.01812925
#
# Stress axis : x y z
#
# Youngs Moduli (GPa) = 336.30542 77.44351 149.44864
#
# Poissons Ratio (x) = 0.15218 0.03264
# Poissons Ratio (y) = 0.66086 0.00607
# Poissons Ratio (z) = 0.07344 0.00315
#
# Static dielectric constant tensor:
#      x y z
#    x 6.089820 0.000000 0.000000 
#    y 0.000000 1.792840 0.000000 
#    z 0.000000 0.000000 2.061900 
# 
# From -- ./inp_files/15361.got.cif
#   From: 2010.05.17/outbox.cif.g08.bks.cpg/sg52_8_cif.got.tgz:15361.got - 2010.06.03 12:15:38.
