data_PCOD9408680
_publ_section_title
;
Structure prediction by ZEFSAII (Michael W. Deem and Ramdas Pophale) SiO2 
 PCOD9408680
Probable space group: P N N A
;
_chemical_formula_sum "Si O2"
_cell_formula_units_Z 56
_cell_length_a 5.735639
_cell_length_b 14.449525
_cell_length_c 27.054224
_cell_angle_alpha 90.000000
_cell_angle_beta 90.000000
_cell_angle_gamma 90.000000
_cell_volume 2242.179933
_symmetry_space_group_name_H-M "P N N A"
_symmetry_group_IT_number 52
_symmetry_cell_setting 'orthorhombic'
loop_
_space_group_symop_operation_xyz
x,y,z
1/2-x,-y,z
x,1/2-y,1/2-z
1/2-x,1/2+y,1/2-z
-x,-y,-z
1/2+x,y,-z
-x,1/2+y,1/2+z
1/2+x,1/2-y,1/2+z
loop_
_atom_site_type_symbol
_atom_site_label
_atom_site_fract_x
_atom_site_fract_y
_atom_site_fract_z
Si Si1 0.716028 0.360060 0.735571
Si Si2 0.861623 0.227916 0.440213
Si Si3 0.984795 0.526213 0.931752
Si Si4 0.205281 0.323665 0.375547
Si Si5 0.005880 0.351351 0.873591
Si Si6 0.630984 0.879358 0.980738
Si Si7 0.778811 0.646281 0.227670
O O1 0.716091 0.250000 0.750000
O O2 0.702257 0.374814 0.676491
O O3 0.969628 0.393720 0.754662
O O4 0.470587 0.396063 0.757691
O O5 0.018487 0.136871 0.434045
O O6 0.613550 0.190758 0.423392
O O7 0.863740 0.278305 0.492282
O O8 0.956349 0.303013 0.400763
O O9 0.250000 0.500000 0.943991
O O10 0.750000 0.500000 0.960536
O O11 0.953893 0.457843 0.884199
O O12 0.310908 0.223106 0.360470
O O13 0.346051 0.370712 0.421252
O O14 0.199911 0.348408 0.831225
O O15 0.379759 0.917305 0.998656
O O16 0.775650 0.750000 0.250000
#
# Coordination Sequence:
#
# PCOD9408680 Si02
#       7
#     8   8   8   8   8   8   8
#     4  10  19  29  44  69  83 105 134 179 240 296
#     4  10  20  34  48  62  90 115 159 189 228 275
#     4  10  21  32  48  65  85 117 155 191 234 277
#     4  11  19  31  50  63  90 116 145 193 246 278
#     4  11  19  32  49  64  88 117 145 193 246 279
#     4  10  21  32  48  65  85 117 155 191 234 277
#     4  10  19  29  45  67  85 102 137 178 240 296
#
# _framework density 24.975691999999999
#
# number of rings (size 3 to 8) (size 9 to 14) (size 15 to 20)
#    0.000    1.714    5.714    1.714    0.000    0.000 
#    0.000    0.714    3.143    0.000    0.000    0.000 
#    0.000    0.000    0.000    0.000    0.000    0.000 
#
# Total GULP energy -312076.897303 kJ/mol
# GULP energy per Si atom -5572.801738 kJ/mol
# Density = 2.491885 g / cm^3
# Si number density = 24.975692 Si / 1000 Ang^3
#
#
#
# Elastic Constant Matrix: (Units=GPa)
#
#
# Indices 1 2 3 4 5 6 
#
# 1 275.6337 -3.4605 98.1669 0.0000 0.0000 0.0000
# 2 -3.4605 92.0769 -23.3246 0.0000 0.0000 0.0000
# 3 98.1669 -23.3246 198.9768 0.0000 0.0000 0.0000
# 4 0.0000 0.0000 0.0000 -9.9890 0.0000 0.0000
# 5 0.0000 0.0000 0.0000 0.0000 -20.4713 0.0000
# 6 0.0000 0.0000 0.0000 0.0000 0.0000 16.6031
#
#
#
# Elastic Compliance Matrix: (Units=1/GPa)
#
#
# Indices 1 2 3 4 5 6 
#
# 1 0.004415 -0.000398 -0.002225 0.000000 0.000000 0.000000
# 2 -0.000398 0.011229 0.001512 0.000000 0.000000 0.000000
# 3 -0.002225 0.001512 0.006301 0.000000 0.000000 0.000000
# 4 0.000000 0.000000 0.000000 -0.100110 0.000000 0.000000
# 5 0.000000 0.000000 0.000000 0.000000 -0.048849 0.000000
# 6 0.000000 0.000000 0.000000 0.000000 0.000000 0.060230
#
#
# Mechanical properties :
#
#
# Convention : Reuss Voigt Hill
#
# Bulk Modulus (GPa) = 50.69870 78.82786 64.76328
# Shear Modulus (GPa) = -86.22322 30.24893 -27.98714
#
# Velocity S-wave (km/s) = -5.88199 3.48391 -3.35113
# Velocity P-wave (km/s) = 5.07810 6.91476 3.31864
#
# Compressibility (1/GPa) = 0.01972437
#
# Stress axis : x y z
#
# Youngs Moduli (GPa) = 226.47744 89.05770 158.71155
#
# Poissons Ratio (x) = 0.03542 0.35314
# Poissons Ratio (y) = 0.09007 -0.24005
# Poissons Ratio (z) = 0.50392 -0.13470
#
# Static dielectric constant tensor:
#      x y z
#    x 2.155520 0.000000 0.000000 
#    y 0.000000 2.029700 0.000000 
#    z 0.000000 0.000000 1.944400 
# 
# From -- ./inp_files/41846.got.cif
#   From: 2010.05.17/outbox.cif.g08.bks.cpg/sg52_21_cif.got.tgz:41846.got - 2010.06.03 12:15:38.
