data_PCOD9408042
_publ_section_title
;
Structure prediction by ZEFSAII (Michael W. Deem and Ramdas Pophale) SiO2 
 PCOD9408042
Probable space group: P N N A
;
_chemical_formula_sum "Si O2"
_cell_formula_units_Z 56
_cell_length_a 9.680790
_cell_length_b 24.790310
_cell_length_c 15.192346
_cell_angle_alpha 90.000000
_cell_angle_beta 90.000000
_cell_angle_gamma 90.000000
_cell_volume 3646.007852
_symmetry_space_group_name_H-M "P N N A"
_symmetry_group_IT_number 52
_symmetry_cell_setting 'orthorhombic'
loop_
_space_group_symop_operation_xyz
x,y,z
1/2-x,-y,z
x,1/2-y,1/2-z
1/2-x,1/2+y,1/2-z
-x,-y,-z
1/2+x,y,-z
-x,1/2+y,1/2+z
1/2+x,1/2-y,1/2+z
loop_
_atom_site_type_symbol
_atom_site_label
_atom_site_fract_x
_atom_site_fract_y
_atom_site_fract_z
Si Si1 0.889865 0.286020 0.017751
Si Si2 0.419025 0.662304 0.753365
Si Si3 0.024891 0.056162 0.547318
Si Si4 0.750184 0.939280 0.301588
Si Si5 0.013193 0.122154 0.373293
Si Si6 0.819823 0.368165 0.860298
Si Si7 0.131859 0.247311 0.896724
O O1 0.943918 0.321285 0.100280
O O2 0.776455 0.245174 0.053636
O O3 0.014765 0.257291 0.968663
O O4 0.825741 0.326209 0.942947
O O5 0.332035 0.607153 0.748931
O O6 0.576231 0.650976 0.783592
O O7 0.364102 0.699340 0.834279
O O8 0.403303 0.697694 0.666376
O O9 0.157949 0.055344 0.609529
O O10 0.048267 0.098071 0.469305
O O11 0.892460 0.077473 0.602023
O O12 0.000000 0.000000 0.500000
O O13 0.599001 0.916135 0.326148
O O14 0.750000 0.000000 0.263342
O O15 0.162764 0.126375 0.328984
#
# Coordination Sequence:
#
# PCOD9408042 Si02
#       7
#     8   8   8   8   8   8   8
#     4  10  17  30  51  72  88 126 165 210 242 284
#     4   9  20  35  47  68 101 139 159 194 263 305
#     4  10  18  27  39  63  96 133 174 195 223 268
#     4  11  20  31  44  68 100 138 169 197 235 298
#     4  11  18  27  44  67  98 124 168 204 226 274
#     4   9  19  29  44  66  99 129 164 205 238 283
#     4  10  18  33  55  69  98 128 165 209 255 296
#
# _framework density 15.359265000000001
#
# number of rings (size 3 to 8) (size 9 to 14) (size 15 to 20)
#    0.000    2.000    4.286    2.571    0.000    0.000 
#    0.000    1.429    3.143    0.000    0.000    1.000 
#    0.000    0.000    0.000    0.000    0.000    0.000 
#
# Total GULP energy -312071.441244 kJ/mol
# GULP energy per Si atom -5572.704308 kJ/mol
# Density = 1.532431 g / cm^3
# Si number density = 15.359265 Si / 1000 Ang^3
#
#
#
# Elastic Constant Matrix: (Units=GPa)
#
#
# Indices 1 2 3 4 5 6 
#
# 1 126.3346 49.9709 31.4528 0.0000 0.0000 0.0000
# 2 49.9709 84.5533 32.2202 0.0000 0.0000 0.0000
# 3 31.4528 32.2202 31.9934 0.0000 0.0000 0.0000
# 4 0.0000 0.0000 0.0000 16.3101 0.0000 0.0000
# 5 0.0000 0.0000 0.0000 0.0000 5.5000 0.0000
# 6 0.0000 0.0000 0.0000 0.0000 0.0000 16.5217
#
#
#
# Elastic Compliance Matrix: (Units=1/GPa)
#
#
# Indices 1 2 3 4 5 6 
#
# 1 0.011237 -0.003946 -0.007074 0.000000 0.000000 0.000000
# 2 -0.003946 0.020578 -0.016844 0.000000 0.000000 0.000000
# 3 -0.007074 -0.016844 0.055175 0.000000 0.000000 0.000000
# 4 0.000000 0.000000 0.000000 0.061312 0.000000 0.000000
# 5 0.000000 0.000000 0.000000 0.000000 0.181819 0.000000
# 6 0.000000 0.000000 0.000000 0.000000 0.000000 0.060526
#
#
# Mechanical properties :
#
#
# Convention : Reuss Voigt Hill
#
# Bulk Modulus (GPa) = 31.98813 52.24104 42.11458
# Shear Modulus (GPa) = 10.94582 16.28217 13.61399
#
# Velocity S-wave (km/s) = 2.67245 3.25943 2.98043
# Velocity P-wave (km/s) = 5.51312 6.94635 6.27081
#
# Compressibility (1/GPa) = 0.03126160
#
# Stress axis : x y z
#
# Youngs Moduli (GPa) = 88.98947 48.59665 18.12430
#
# Poissons Ratio (x) = 0.19175 0.12821
# Poissons Ratio (y) = 0.35112 0.30529
# Poissons Ratio (z) = 0.62949 0.81858
#
# Static dielectric constant tensor:
#      x y z
#    x 1.542950 0.000000 0.000000 
#    y 0.000000 1.557950 0.000000 
#    z 0.000000 0.000000 1.481390 
# 
# From -- ./inp_files/31615.got.cif
#   From: 2010.05.17/outbox.cif.g08.bks.cpg/sg52_16_cif.got.tgz:31615.got - 2010.06.03 12:15:38.
