data_PCOD9408293
_publ_section_title
;
Structure prediction by ZEFSAII (Michael W. Deem and Ramdas Pophale) SiO2 
 PCOD9408293
Probable space group: P N N A
;
_chemical_formula_sum "Si O2"
_cell_formula_units_Z 52
_cell_length_a 28.499570
_cell_length_b 8.361819
_cell_length_c 12.405713
_cell_angle_alpha 90.000000
_cell_angle_beta 90.000000
_cell_angle_gamma 90.000000
_cell_volume 2956.383704
_symmetry_space_group_name_H-M "P N N A"
_symmetry_group_IT_number 52
_symmetry_cell_setting 'orthorhombic'
loop_
_space_group_symop_operation_xyz
x,y,z
1/2-x,-y,z
x,1/2-y,1/2-z
1/2-x,1/2+y,1/2-z
-x,-y,-z
1/2+x,y,-z
-x,1/2+y,1/2+z
1/2+x,1/2-y,1/2+z
loop_
_atom_site_type_symbol
_atom_site_label
_atom_site_fract_x
_atom_site_fract_y
_atom_site_fract_z
Si Si1 0.524856 0.509939 0.178568
Si Si2 0.867319 0.042331 0.321923
Si Si3 0.553042 0.250000 0.750000
Si Si4 0.750000 0.500000 0.383824
Si Si5 0.990085 0.822607 0.099457
Si Si6 0.921827 0.511319 0.570915
Si Si7 0.186878 0.250000 0.750000
Si Si8 0.842761 0.147011 0.075225
O O1 0.577393 0.568990 0.160453
O O2 0.483990 0.640255 0.183041
O O3 0.515063 0.365939 0.098684
O O4 0.526270 0.418150 0.293937
O O5 0.856578 0.090811 0.197421
O O6 0.844173 0.161687 0.408350
O O7 0.847118 0.861060 0.324541
O O8 0.582520 0.370459 0.673802
O O9 0.778412 0.629650 0.312512
O O10 0.790189 0.408894 0.448079
O O11 0.956861 0.892321 0.007847
O O12 0.045148 0.860862 0.097892
O O13 0.877409 0.441539 0.507603
#
# Coordination Sequence:
#
# PCOD9408293 Si02
#       8
#     8   8   4   4   8   8   4   8
#     4  10  18  32  49  79 106 146 174 214 259 331
#     4  10  19  29  52  77 110 148 169 213 250 341
#     4  10  22  34  53  70 110 144 193 226 270 302
#     4  10  20  32  52  72 104 146 166 226 248 334
#     4   9  19  31  51  71 108 139 178 210 267 313
#     4  10  20  36  49  75 105 146 179 235 257 320
#     4  10  18  32  47  76 112 140 183 196 270 318
#     4  10  20  34  50  74 107 140 184 213 280 306
#
# _framework density 17.589055999999999
#
# number of rings (size 3 to 8) (size 9 to 14) (size 15 to 20)
#    0.000    2.154    1.538    3.692    6.462    0.615 
#    0.000    0.000    0.000    0.000    0.000    4.308 
#    0.000    0.000    0.000    0.000    0.000    0.000 
#
# Total GULP energy -289489.586401 kJ/mol
# GULP energy per Si atom -5567.107431 kJ/mol
# Density = 1.754902 g / cm^3
# Si number density = 17.589056 Si / 1000 Ang^3
#
#
#
# Elastic Constant Matrix: (Units=GPa)
#
#
# Indices 1 2 3 4 5 6 
#
# 1 93.8392 38.4266 27.3226 0.0000 0.0000 0.0000
# 2 38.4266 86.2225 16.3543 0.0000 0.0000 0.0000
# 3 27.3226 16.3543 35.4836 0.0000 0.0000 0.0000
# 4 0.0000 0.0000 0.0000 12.6680 0.0000 0.0000
# 5 0.0000 0.0000 0.0000 0.0000 22.1750 0.0000
# 6 0.0000 0.0000 0.0000 0.0000 0.0000 18.8465
#
#
#
# Elastic Compliance Matrix: (Units=1/GPa)
#
#
# Indices 1 2 3 4 5 6 
#
# 1 0.015548 -0.005105 -0.009619 0.000000 0.000000 0.000000
# 2 -0.005105 0.014385 -0.002699 0.000000 0.000000 0.000000
# 3 -0.009619 -0.002699 0.036833 0.000000 0.000000 0.000000
# 4 0.000000 0.000000 0.000000 0.078939 0.000000 0.000000
# 5 0.000000 0.000000 0.000000 0.000000 0.045096 0.000000
# 6 0.000000 0.000000 0.000000 0.000000 0.000000 0.053060
#
#
# Mechanical properties :
#
#
# Convention : Reuss Voigt Hill
#
# Bulk Modulus (GPa) = 31.32900 42.19470 36.76185
# Shear Modulus (GPa) = 17.28033 19.63400 18.45717
#
# Velocity S-wave (km/s) = 3.13780 3.34468 3.24289
# Velocity P-wave (km/s) = 5.56579 6.24156 5.91334
#
# Compressibility (1/GPa) = 0.03191930
#
# Stress axis : x y z
#
# Youngs Moduli (GPa) = 64.31897 69.51760 27.14970
#
# Poissons Ratio (x) = 0.35486 0.26115
# Poissons Ratio (y) = 0.32832 0.07329
# Poissons Ratio (z) = 0.61868 0.18766
#
# Static dielectric constant tensor:
#      x y z
#    x 1.604070 0.000000 0.000000 
#    y 0.000000 1.689920 0.000000 
#    z 0.000000 0.000000 1.635500 
# 
# From -- ./inp_files/22862.got.cif
#   From: 2010.05.17/outbox.cif.g08.bks.cpg/sg52_12_cif.got.tgz:22862.got - 2010.06.03 12:15:38.
