data_PCOD9408554
_publ_section_title
;
Structure prediction by ZEFSAII (Michael W. Deem and Ramdas Pophale) SiO2 
 PCOD9408554
Probable space group: P N N A
;
_chemical_formula_sum "Si O2"
_cell_formula_units_Z 52
_cell_length_a 8.802645
_cell_length_b 29.196130
_cell_length_c 11.195366
_cell_angle_alpha 90.000000
_cell_angle_beta 90.000000
_cell_angle_gamma 90.000000
_cell_volume 2877.244526
_symmetry_space_group_name_H-M "P N N A"
_symmetry_group_IT_number 52
_symmetry_cell_setting 'orthorhombic'
loop_
_space_group_symop_operation_xyz
x,y,z
1/2-x,-y,z
x,1/2-y,1/2-z
1/2-x,1/2+y,1/2-z
-x,-y,-z
1/2+x,y,-z
-x,1/2+y,1/2+z
1/2+x,1/2-y,1/2+z
loop_
_atom_site_type_symbol
_atom_site_label
_atom_site_fract_x
_atom_site_fract_y
_atom_site_fract_z
Si Si1 0.743339 0.704410 0.897704
Si Si2 0.934577 0.160571 0.386893
Si Si3 0.337326 0.309982 0.365093
Si Si4 0.032723 0.557006 0.883884
Si Si5 0.250000 0.500000 0.058543
Si Si6 0.587557 0.134856 0.009769
Si Si7 0.159660 0.604143 0.670659
O O1 0.662319 0.685753 0.777888
O O2 0.707006 0.758243 0.899038
O O3 0.921398 0.693912 0.880504
O O4 0.682025 0.680167 0.016612
O O5 0.861491 0.148941 0.257444
O O6 0.992884 0.109724 0.424677
O O7 0.494967 0.325304 0.423104
O O8 0.209858 0.342912 0.420905
O O9 0.143617 0.531946 0.976093
O O10 0.121754 0.562822 0.759293
O O11 0.872627 0.531073 0.872282
O O12 0.678668 0.105730 0.107573
O O13 0.467805 0.107182 0.930914
#
# Coordination Sequence:
#
# PCOD9408554 Si02
#       7
#     8   8   8   8   4   8   8
#     4  11  21  34  52  78 117 140 190 242 278 327
#     4  10  21  36  54  84 109 143 189 232 277 340
#     4  10  21  34  52  76 109 154 188 231 290 309
#     4   9  20  34  57  90 109 153 172 227 289 342
#     4  10  18  36  60  86 130 130 172 232 292 352
#     4  10  19  39  54  75 109 153 197 233 263 336
#     4   9  21  36  60  80 107 146 200 224 282 330
#
# _framework density 18.072846999999999
#
# number of rings (size 3 to 8) (size 9 to 14) (size 15 to 20)
#    0.923    1.231    1.538    1.846    2.154    0.000 
#    0.000    4.615    0.000    2.769    0.000    0.000 
#    0.000    0.000    0.000    0.000    0.000    0.000 
#
# Total GULP energy -289660.257345 kJ/mol
# GULP energy per Si atom -5570.389564 kJ/mol
# Density = 1.803171 g / cm^3
# Si number density = 18.072847 Si / 1000 Ang^3
#
#
#
# Elastic Constant Matrix: (Units=GPa)
#
#
# Indices 1 2 3 4 5 6 
#
# 1 41.6096 3.5492 11.9280 0.0000 0.0000 0.0000
# 2 3.5492 24.8243 -2.8744 0.0000 0.0000 0.0000
# 3 11.9280 -2.8744 67.1084 0.0000 0.0000 0.0000
# 4 0.0000 0.0000 0.0000 -1.8653 0.0000 0.0000
# 5 0.0000 0.0000 0.0000 0.0000 31.0585 0.0000
# 6 0.0000 0.0000 0.0000 0.0000 0.0000 21.2382
#
#
#
# Elastic Compliance Matrix: (Units=1/GPa)
#
#
# Indices 1 2 3 4 5 6 
#
# 1 0.025758 -0.004234 -0.004760 0.000000 0.000000 0.000000
# 2 -0.004234 0.041180 0.002516 0.000000 0.000000 0.000000
# 3 -0.004760 0.002516 0.015855 0.000000 0.000000 0.000000
# 4 0.000000 0.000000 0.000000 -0.536097 0.000000 0.000000
# 5 0.000000 0.000000 0.000000 0.000000 0.032197 0.000000
# 6 0.000000 0.000000 0.000000 0.000000 0.000000 0.047085
#
#
# Mechanical properties :
#
#
# Convention : Reuss Voigt Hill
#
# Bulk Modulus (GPa) = 14.31868 17.63866 15.97867
# Shear Modulus (GPa) = -14.80222 18.14890 1.67334
#
# Velocity S-wave (km/s) = -2.86498 3.17236 0.96327
# Velocity P-wave (km/s) = 1.73325 4.81658 3.17768
#
# Compressibility (1/GPa) = 0.06983883
#
# Stress axis : x y z
#
# Youngs Moduli (GPa) = 38.82214 24.28378 63.07137
#
# Poissons Ratio (x) = 0.10281 0.30020
# Poissons Ratio (y) = 0.16437 -0.15871
# Poissons Ratio (z) = 0.18478 -0.06111
#
# Static dielectric constant tensor:
#      x y z
#    x 1.609940 0.000000 0.000000 
#    y 0.000000 1.613200 0.000000 
#    z 0.000000 0.000000 1.627440 
# 
# From -- ./inp_files/17196.got.cif
#   From: 2010.05.17/outbox.cif.g08.bks.cpg/sg52_9_cif.got.tgz:17196.got - 2010.06.03 12:15:38.
