data_PCOD9408564
_publ_section_title
;
Structure prediction by ZEFSAII (Michael W. Deem and Ramdas Pophale) SiO2 
 PCOD9408564
Probable space group: P N N A
;
_chemical_formula_sum "Si O2"
_cell_formula_units_Z 40
_cell_length_a 16.209404
_cell_length_b 16.648535
_cell_length_c 7.273666
_cell_angle_alpha 90.000000
_cell_angle_beta 90.000000
_cell_angle_gamma 90.000000
_cell_volume 1962.892090
_symmetry_space_group_name_H-M "P N N A"
_symmetry_group_IT_number 52
_symmetry_cell_setting 'orthorhombic'
loop_
_space_group_symop_operation_xyz
x,y,z
1/2-x,-y,z
x,1/2-y,1/2-z
1/2-x,1/2+y,1/2-z
-x,-y,-z
1/2+x,y,-z
-x,1/2+y,1/2+z
1/2+x,1/2-y,1/2+z
loop_
_atom_site_type_symbol
_atom_site_label
_atom_site_fract_x
_atom_site_fract_y
_atom_site_fract_z
Si Si1 0.750000 0.000000 0.950160
Si Si2 0.383549 0.889277 0.075739
Si Si3 0.218125 0.250000 0.250000
Si Si4 0.408851 0.536197 0.019702
Si Si5 0.665517 0.887914 0.648435
Si Si6 0.978706 0.656031 0.250526
O O1 0.822642 0.948457 0.037784
O O2 0.704964 0.933639 0.822764
O O3 0.338810 0.805392 0.121118
O O4 0.398451 0.929907 0.273778
O O5 0.464448 0.876719 0.955917
O O6 0.275902 0.189613 0.370210
O O7 0.413725 0.610382 0.881031
O O8 0.500000 0.500000 0.000000
O O9 0.345735 0.460924 0.001752
O O10 0.572582 0.859218 0.688382
O O11 0.962507 0.750000 0.250000
#
# Coordination Sequence:
#
# PCOD9408564 Si02
#       6
#     4   8   4   8   8   8
#     4   8  18  34  54  80 104 152 186 228 298 344
#     4  10  20  36  58  82 118 151 198 245 298 363
#     4  10  18  36  62  86 118 166 196 246 316 362
#     4   9  20  36  57  86 115 154 198 244 304 356
#     4   9  18  35  58  84 113 154 199 237 296 366
#     4  11  21  35  59  89 115 152 200 248 298 361
#
# _framework density 20.378094999999998
#
# number of rings (size 3 to 8) (size 9 to 14) (size 15 to 20)
#    0.000    2.400    1.000    1.200    0.000    7.200 
#    0.000    8.000    0.000   14.400    0.000    0.000 
#    0.000    0.000    0.000    0.000    0.000    0.000 
#
# Total GULP energy -222673.962944 kJ/mol
# GULP energy per Si atom -5566.849074 kJ/mol
# Density = 2.033171 g / cm^3
# Si number density = 20.378095 Si / 1000 Ang^3
#
#
#
# Elastic Constant Matrix: (Units=GPa)
#
#
# Indices 1 2 3 4 5 6 
#
# 1 54.4467 18.3268 15.5502 0.0000 0.0000 0.0000
# 2 18.3268 122.6708 25.1271 0.0000 0.0000 0.0000
# 3 15.5502 25.1271 49.6305 0.0000 0.0000 0.0000
# 4 0.0000 0.0000 0.0000 21.5076 0.0000 0.0000
# 5 0.0000 0.0000 0.0000 0.0000 -22.4679 0.0000
# 6 0.0000 0.0000 0.0000 0.0000 0.0000 27.5998
#
#
#
# Elastic Compliance Matrix: (Units=1/GPa)
#
#
# Indices 1 2 3 4 5 6 
#
# 1 0.020584 -0.001957 -0.005459 0.000000 0.000000 0.000000
# 2 -0.001957 0.009281 -0.004086 0.000000 0.000000 0.000000
# 3 -0.005459 -0.004086 0.023928 0.000000 0.000000 0.000000
# 4 0.000000 0.000000 0.000000 0.046495 0.000000 0.000000
# 5 0.000000 0.000000 0.000000 0.000000 -0.044508 0.000000
# 6 0.000000 0.000000 0.000000 0.000000 0.000000 0.036232
#
#
# Mechanical properties :
#
#
# Convention : Reuss Voigt Hill
#
# Bulk Modulus (GPa) = 32.47773 38.30626 35.39199
# Shear Modulus (GPa) = 39.91088 16.51082 28.21085
#
# Velocity S-wave (km/s) = 4.43032 2.84953 3.72475
# Velocity P-wave (km/s) = 6.49172 5.44656 5.99197
#
# Compressibility (1/GPa) = 0.03079033
#
# Stress axis : x y z
#
# Youngs Moduli (GPa) = 48.58055 107.74485 41.79251
#
# Poissons Ratio (x) = 0.21087 0.22813
# Poissons Ratio (y) = 0.09508 0.17075
# Poissons Ratio (z) = 0.26518 0.44021
#
# Static dielectric constant tensor:
#      x y z
#    x 1.801710 0.000000 0.000000 
#    y 0.000000 1.784150 0.000000 
#    z 0.000000 0.000000 1.763180 
# 
# From -- ./inp_files/3245.got.cif
#   From: 2010.05.17/outbox.cif.g08.bks.cpg/sg52_2_cif.got.tgz:3245.got - 2010.06.03 12:15:38.
