data_PCOD9408697
_publ_section_title
;
Structure prediction by ZEFSAII (Michael W. Deem and Ramdas Pophale) SiO2 
 PCOD9408697
Probable space group: P N N A
;
_chemical_formula_sum "Si O2"
_cell_formula_units_Z 48
_cell_length_a 5.639609
_cell_length_b 32.018741
_cell_length_c 10.239429
_cell_angle_alpha 90.000000
_cell_angle_beta 90.000000
_cell_angle_gamma 90.000000
_cell_volume 1848.966255
_symmetry_space_group_name_H-M "P N N A"
_symmetry_group_IT_number 52
_symmetry_cell_setting 'orthorhombic'
loop_
_space_group_symop_operation_xyz
x,y,z
1/2-x,-y,z
x,1/2-y,1/2-z
1/2-x,1/2+y,1/2-z
-x,-y,-z
1/2+x,y,-z
-x,1/2+y,1/2+z
1/2+x,1/2-y,1/2+z
loop_
_atom_site_type_symbol
_atom_site_label
_atom_site_fract_x
_atom_site_fract_y
_atom_site_fract_z
Si Si1 0.815215 0.548052 0.288830
Si Si2 0.308973 0.576722 0.274922
Si Si3 0.159771 0.089015 0.504992
Si Si4 0.665928 0.673620 0.774229
Si Si5 0.160005 0.798299 0.720874
Si Si6 0.628043 0.653792 0.494010
O O1 0.750000 0.500000 0.298761
O O2 0.573137 0.571792 0.331320
O O3 0.846331 0.563706 0.138983
O O4 0.082090 0.555756 0.342940
O O5 0.230049 0.624603 0.245536
O O6 0.334494 0.560134 0.124394
O O7 0.410444 0.112806 0.510077
O O8 0.407213 0.682918 0.833822
O O9 0.636179 0.685254 0.618713
O O10 0.895245 0.695228 0.838076
O O11 0.198807 0.750000 0.750000
O O12 0.127254 0.822388 0.858133
O O13 0.378631 0.630543 0.507089
#
# Coordination Sequence:
#
# PCOD9408697 Si02
#       6
#     8   8   8   8   8   8
#     4  10  19  31  48  69  98 135 171 208 251 298
#     4  10  19  30  47  71  98 131 169 208 248 295
#     4   8  16  27  42  61  90 126 165 204 242 287
#     4  10  19  33  52  73 104 134 162 205 250 296
#     4  10  19  33  55  78 101 128 163 208 249 292
#     4   8  16  30  50  72  97 122 157 199 240 286
#
# _framework density 25.960452
#
# number of rings (size 3 to 8) (size 9 to 14) (size 15 to 20)
#    0.000    2.667    0.000    2.000    0.000    6.000 
#    0.000    0.000    0.000   54.000    0.000    0.000 
#    0.000  120.000    0.000    0.000    0.000    0.000 
#
# Total GULP energy -267429.365416 kJ/mol
# GULP energy per Si atom -5571.445113 kJ/mol
# Density = 2.590137 g / cm^3
# Si number density = 25.960452 Si / 1000 Ang^3
#
#
#
# Elastic Constant Matrix: (Units=GPa)
#
#
# Indices 1 2 3 4 5 6 
#
# 1 366.2362 50.9692 5.4430 0.0000 0.0000 0.0000
# 2 50.9692 88.0381 -11.9077 0.0000 0.0000 0.0000
# 3 5.4430 -11.9077 60.5314 0.0000 0.0000 0.0000
# 4 0.0000 0.0000 0.0000 12.0879 0.0000 0.0000
# 5 0.0000 0.0000 0.0000 0.0000 16.0872 0.0000
# 6 0.0000 0.0000 0.0000 0.0000 0.0000 37.7277
#
#
#
# Elastic Compliance Matrix: (Units=1/GPa)
#
#
# Indices 1 2 3 4 5 6 
#
# 1 0.002993 -0.001817 -0.000627 0.000000 0.000000 0.000000
# 2 -0.001817 0.012773 0.002676 0.000000 0.000000 0.000000
# 3 -0.000627 0.002676 0.017103 0.000000 0.000000 0.000000
# 4 0.000000 0.000000 0.000000 0.082728 0.000000 0.000000
# 5 0.000000 0.000000 0.000000 0.000000 0.062161 0.000000
# 6 0.000000 0.000000 0.000000 0.000000 0.000000 0.026506
#
#
# Mechanical properties :
#
#
# Convention : Reuss Voigt Hill
#
# Bulk Modulus (GPa) = 30.00044 67.09052 48.54548
# Shear Modulus (GPa) = 23.26556 44.53396 33.89976
#
# Velocity S-wave (km/s) = 2.99689 4.14630 3.61754
# Velocity P-wave (km/s) = 4.85350 6.98726 6.01574
#
# Compressibility (1/GPa) = 0.03333285
#
# Stress axis : x y z
#
# Youngs Moduli (GPa) = 334.14474 78.29118 58.46884
#
# Poissons Ratio (x) = 0.14228 0.03664
# Poissons Ratio (y) = 0.60726 -0.15647
# Poissons Ratio (z) = 0.20938 -0.20951
#
# Static dielectric constant tensor:
#      x y z
#    x 2.184450 0.000000 0.000000 
#    y 0.000000 1.980040 0.000000 
#    z 0.000000 0.000000 2.201460 
# 
# From -- ./inp_files/23695.got.cif
#   From: 2010.05.17/outbox.cif.g08.bks.cpg/sg52_12_cif.got.tgz:23695.got - 2010.06.03 12:15:38.
