data_PCOD9408298
_publ_section_title
;
Structure prediction by ZEFSAII (Michael W. Deem and Ramdas Pophale) SiO2 
 PCOD9408298
Probable space group: P N N A
;
_chemical_formula_sum "Si O2"
_cell_formula_units_Z 52
_cell_length_a 9.316520
_cell_length_b 16.986348
_cell_length_c 17.330296
_cell_angle_alpha 90.000000
_cell_angle_beta 90.000000
_cell_angle_gamma 90.000000
_cell_volume 2742.582613
_symmetry_space_group_name_H-M "P N N A"
_symmetry_group_IT_number 52
_symmetry_cell_setting 'orthorhombic'
loop_
_space_group_symop_operation_xyz
x,y,z
1/2-x,-y,z
x,1/2-y,1/2-z
1/2-x,1/2+y,1/2-z
-x,-y,-z
1/2+x,y,-z
-x,1/2+y,1/2+z
1/2+x,1/2-y,1/2+z
loop_
_atom_site_type_symbol
_atom_site_label
_atom_site_fract_x
_atom_site_fract_y
_atom_site_fract_z
Si Si1 0.670848 0.074368 0.739523
Si Si2 0.030870 0.953389 0.878739
Si Si3 0.532191 0.250000 0.250000
Si Si4 0.958616 0.617257 0.459945
Si Si5 0.258531 0.186379 0.859032
Si Si6 0.807879 0.303958 0.640235
Si Si7 0.471082 0.714387 0.163649
O O1 0.574467 0.037402 0.807508
O O2 0.770601 0.134785 0.789725
O O3 0.576025 0.124917 0.679527
O O4 0.750000 0.000000 0.702806
O O5 0.150977 0.893013 0.851261
O O6 0.960688 0.908314 0.951784
O O7 0.074224 0.037315 0.912409
O O8 0.647183 0.190049 0.212420
O O9 0.422378 0.242634 0.321993
O O10 0.110375 0.650128 0.427909
O O11 0.838438 0.678802 0.434900
O O12 0.372588 0.258076 0.865204
O O13 0.660607 0.258812 0.621776
O O14 0.471095 0.750000 0.250000
#
# Coordination Sequence:
#
# PCOD9408298 Si02
#       7
#     8   8   4   8   8   8   8
#     4  11  19  31  54  76 102 144 177 215 270 324
#     4  11  21  34  47  73 118 146 182 206 256 313
#     4  10  18  32  50  70  88 130 192 222 262 296
#     4  10  24  32  49  75 109 154 181 213 242 322
#     4  11  20  33  51  70  99 144 186 223 267 291
#     4  10  18  34  51  67  97 142 184 216 261 311
#     4  10  18  34  52  70  95 141 180 234 272 306
#
# _framework density 18.960231
#
# number of rings (size 3 to 8) (size 9 to 14) (size 15 to 20)
#    0.000    1.538    7.692    0.462    2.154    0.000 
#    0.000    0.000    0.000    0.000    0.000    0.000 
#    0.000    4.923    0.308    2.000    0.000    0.000 
#
# Total GULP energy -289546.964474 kJ/mol
# GULP energy per Si atom -5568.210855 kJ/mol
# Density = 1.891708 g / cm^3
# Si number density = 18.960231 Si / 1000 Ang^3
#
#
#
# Elastic Constant Matrix: (Units=GPa)
#
#
# Indices 1 2 3 4 5 6 
#
# 1 95.2137 28.9378 16.5433 0.0000 0.0000 0.0000
# 2 28.9378 64.7718 25.7740 0.0000 0.0000 0.0000
# 3 16.5433 25.7740 28.4603 0.0000 0.0000 0.0000
# 4 0.0000 0.0000 0.0000 26.7447 0.0000 0.0000
# 5 0.0000 0.0000 0.0000 0.0000 4.0340 0.0000
# 6 0.0000 0.0000 0.0000 0.0000 0.0000 22.8869
#
#
#
# Elastic Compliance Matrix: (Units=1/GPa)
#
#
# Indices 1 2 3 4 5 6 
#
# 1 0.012361 -0.004164 -0.003414 0.000000 0.000000 0.000000
# 2 -0.004164 0.025540 -0.020709 0.000000 0.000000 0.000000
# 3 -0.003414 -0.020709 0.055875 0.000000 0.000000 0.000000
# 4 0.000000 0.000000 0.000000 0.037391 0.000000 0.000000
# 5 0.000000 0.000000 0.000000 0.000000 0.247895 0.000000
# 6 0.000000 0.000000 0.000000 0.000000 0.000000 0.043693
#
#
# Mechanical properties :
#
#
# Convention : Reuss Voigt Hill
#
# Bulk Modulus (GPa) = 26.87998 36.77290 31.82644
# Shear Modulus (GPa) = 10.16819 18.54583 14.35701
#
# Velocity S-wave (km/s) = 2.31831 3.13092 2.75474
# Velocity P-wave (km/s) = 4.62319 5.70150 5.19042
#
# Compressibility (1/GPa) = 0.03720241
#
# Stress axis : x y z
#
# Youngs Moduli (GPa) = 80.89636 39.15498 17.89696
#
# Poissons Ratio (x) = 0.16304 0.06111
# Poissons Ratio (y) = 0.33685 0.37062
# Poissons Ratio (z) = 0.27622 0.81084
#
# Static dielectric constant tensor:
#      x y z
#    x 1.767970 0.000000 0.000000 
#    y 0.000000 1.702220 0.000000 
#    z 0.000000 0.000000 1.675560 
# 
# From -- ./inp_files/31447.got.cif
#   From: 2010.05.17/outbox.cif.g08.bks.cpg/sg52_16_cif.got.tgz:31447.got - 2010.06.03 12:15:38.
