data_PCOD9408572
_publ_section_title
;
Structure prediction by ZEFSAII (Michael W. Deem and Ramdas Pophale) SiO2 
 PCOD9408572
Probable space group: P N N A
;
_chemical_formula_sum "Si O2"
_cell_formula_units_Z 40
_cell_length_a 11.224705
_cell_length_b 8.261281
_cell_length_c 17.954522
_cell_angle_alpha 90.000000
_cell_angle_beta 90.000000
_cell_angle_gamma 90.000000
_cell_volume 1664.930764
_symmetry_space_group_name_H-M "P N N A"
_symmetry_group_IT_number 52
_symmetry_cell_setting 'orthorhombic'
loop_
_space_group_symop_operation_xyz
x,y,z
1/2-x,-y,z
x,1/2-y,1/2-z
1/2-x,1/2+y,1/2-z
-x,-y,-z
1/2+x,y,-z
-x,1/2+y,1/2+z
1/2+x,1/2-y,1/2+z
loop_
_atom_site_type_symbol
_atom_site_label
_atom_site_fract_x
_atom_site_fract_y
_atom_site_fract_z
Si Si1 0.128709 0.081158 0.703782
Si Si2 0.567017 0.758235 0.605556
Si Si3 0.917556 0.752118 0.532775
Si Si4 0.250000 0.500000 0.075623
Si Si5 0.750000 0.500000 0.447079
Si Si6 0.473213 0.423809 0.657590
O O1 0.151821 0.250000 0.750000
O O2 0.039085 0.135098 0.640084
O O3 0.250000 0.000000 0.676857
O O4 0.066961 0.949269 0.758005
O O5 0.532778 0.734282 0.519351
O O6 0.553927 0.582915 0.641682
O O7 0.689385 0.851573 0.618504
O O8 0.820100 0.627344 0.499068
O O9 0.954472 0.718305 0.617875
O O10 0.856610 0.925415 0.528284
O O11 0.648486 0.564386 0.390741
#
# Coordination Sequence:
#
# PCOD9408572 Si02
#       6
#     8   8   8   4   4   8
#     4  10  22  41  65  94 128 166 216 275 334 396
#     4  10  23  40  61  91 131 167 214 272 328 394
#     4  11  22  37  64  91 129 169 218 269 329 386
#     4  12  24  40  54  90 132 168 214 270 330 376
#     4  10  18  36  64  90 120 162 218 270 316 396
#     4  10  20  40  63  94 121 170 223 264 324 399
#
# _framework density 24.025023000000001
#
# number of rings (size 3 to 8) (size 9 to 14) (size 15 to 20)
#    0.000    1.600    1.000    5.400    1.400    1.600 
#    0.000    7.000    0.000    0.000    0.000    0.000 
#    0.000    0.000    0.000    0.000    0.000    0.000 
#
# Total GULP energy -223653.539756 kJ/mol
# GULP energy per Si atom -5591.338494 kJ/mol
# Density = 2.397034 g / cm^3
# Si number density = 24.025023 Si / 1000 Ang^3
#
#
#
# Elastic Constant Matrix: (Units=GPa)
#
#
# Indices 1 2 3 4 5 6 
#
# 1 86.6058 22.1147 1.6061 0.0000 0.0000 0.0000
# 2 22.1147 52.6806 5.3810 0.0000 0.0000 0.0000
# 3 1.6061 5.3810 71.9240 0.0000 0.0000 0.0000
# 4 0.0000 0.0000 0.0000 15.6606 0.0000 0.0000
# 5 0.0000 0.0000 0.0000 0.0000 15.0571 0.0000
# 6 0.0000 0.0000 0.0000 0.0000 0.0000 42.3336
#
#
#
# Elastic Compliance Matrix: (Units=1/GPa)
#
#
# Indices 1 2 3 4 5 6 
#
# 1 0.012934 -0.005442 0.000118 0.000000 0.000000 0.000000
# 2 -0.005442 0.021418 -0.001481 0.000000 0.000000 0.000000
# 3 0.000118 -0.001481 0.014012 0.000000 0.000000 0.000000
# 4 0.000000 0.000000 0.000000 0.063855 0.000000 0.000000
# 5 0.000000 0.000000 0.000000 0.000000 0.066414 0.000000
# 6 0.000000 0.000000 0.000000 0.000000 0.000000 0.023622
#
#
# Mechanical properties :
#
#
# Convention : Reuss Voigt Hill
#
# Bulk Modulus (GPa) = 28.77268 29.93488 29.35378
# Shear Modulus (GPa) = 21.98310 26.75081 24.36696
#
# Velocity S-wave (km/s) = 3.02819 3.34047 3.18816
# Velocity P-wave (km/s) = 4.92227 5.23118 5.07907
#
# Compressibility (1/GPa) = 0.03475519
#
# Stress axis : x y z
#
# Youngs Moduli (GPa) = 77.31635 46.68989 71.36887
#
# Poissons Ratio (x) = 0.25407 -0.00844
# Poissons Ratio (y) = 0.42072 0.10569
# Poissons Ratio (z) = -0.00915 0.06914
#
# Static dielectric constant tensor:
#      x y z
#    x 1.909050 0.000000 0.000000 
#    y 0.000000 2.008840 0.000000 
#    z 0.000000 0.000000 1.885100 
# 
# From -- ./inp_files/32039.got.cif
#   From: 2010.05.17/outbox.cif.g08.bks.cpg/sg52_17_cif.got.tgz:32039.got - 2010.06.03 12:15:38.
