data_PCOD9408864
_publ_section_title
;
Structure prediction by ZEFSAII (Michael W. Deem and Ramdas Pophale) SiO2 
 PCOD9408864
Probable space group: P N N A
;
_chemical_formula_sum "Si O2"
_cell_formula_units_Z 40
_cell_length_a 5.184018
_cell_length_b 14.338925
_cell_length_c 22.664966
_cell_angle_alpha 90.000000
_cell_angle_beta 90.000000
_cell_angle_gamma 90.000000
_cell_volume 1684.760477
_symmetry_space_group_name_H-M "P N N A"
_symmetry_group_IT_number 52
_symmetry_cell_setting 'orthorhombic'
loop_
_space_group_symop_operation_xyz
x,y,z
1/2-x,-y,z
x,1/2-y,1/2-z
1/2-x,1/2+y,1/2-z
-x,-y,-z
1/2+x,y,-z
-x,1/2+y,1/2+z
1/2+x,1/2-y,1/2+z
loop_
_atom_site_type_symbol
_atom_site_label
_atom_site_fract_x
_atom_site_fract_y
_atom_site_fract_z
Si Si1 0.242580 0.360289 0.468717
Si Si2 0.002912 0.061649 0.344624
Si Si3 0.700160 0.136934 0.531863
Si Si4 0.280053 0.113743 0.772714
Si Si5 0.723971 0.890029 0.833643
O O1 0.458439 0.394906 0.514399
O O2 0.219154 0.248484 0.472387
O O3 0.331782 0.381116 0.402627
O O4 0.897232 0.127628 0.292301
O O5 0.108412 0.110362 0.403101
O O6 0.750000 0.000000 0.359210
O O7 0.250000 0.000000 0.322778
O O8 0.483796 0.102988 0.485718
O O9 0.495197 0.148441 0.818198
O O10 0.002252 0.150085 0.792663
O O11 0.250000 0.000000 0.775889
O O12 0.750000 0.000000 0.821415
#
# Coordination Sequence:
#
# PCOD9408864 Si02
#       5
#     8   8   8   8   8
#     4  10  21  37  55  77 110 147 179 220 275 324
#     4  11  21  35  58  83 109 142 184 229 274 330
#     4  10  22  38  55  78 112 148 180 223 277 324
#     4   9  18  33  52  78 107 137 171 219 276 315
#     4  10  19  33  56  80 106 139 179 221 264 321
#
# _framework density 23.742248
#
# number of rings (size 3 to 8) (size 9 to 14) (size 15 to 20)
#    0.000    2.000    0.000    5.400    0.000    3.200 
#    0.000    1.000    0.000    7.200    0.000    0.000 
#    0.000    0.000    0.000    0.000    0.000    0.000 
#
# Total GULP energy -223529.311410 kJ/mol
# GULP energy per Si atom -5588.232785 kJ/mol
# Density = 2.368821 g / cm^3
# Si number density = 23.742248 Si / 1000 Ang^3
#
#
#
# Elastic Constant Matrix: (Units=GPa)
#
#
# Indices 1 2 3 4 5 6 
#
# 1 145.1911 37.2249 40.4761 0.0000 0.0000 0.0000
# 2 37.2249 41.0702 -2.3698 0.0000 0.0000 0.0000
# 3 40.4761 -2.3698 123.0005 0.0000 0.0000 0.0000
# 4 0.0000 0.0000 0.0000 54.4511 0.0000 0.0000
# 5 0.0000 0.0000 0.0000 0.0000 44.9273 0.0000
# 6 0.0000 0.0000 0.0000 0.0000 0.0000 1.7291
#
#
#
# Elastic Compliance Matrix: (Units=1/GPa)
#
#
# Indices 1 2 3 4 5 6 
#
# 1 0.010345 -0.009584 -0.003589 0.000000 0.000000 0.000000
# 2 -0.009584 0.033254 0.003794 0.000000 0.000000 0.000000
# 3 -0.003589 0.003794 0.009384 0.000000 0.000000 0.000000
# 4 0.000000 0.000000 0.000000 0.018365 0.000000 0.000000
# 5 0.000000 0.000000 0.000000 0.000000 0.022258 0.000000
# 6 0.000000 0.000000 0.000000 0.000000 0.000000 0.578331
#
#
# Mechanical properties :
#
#
# Convention : Reuss Voigt Hill
#
# Bulk Modulus (GPa) = 29.21689 51.10269 40.15979
# Shear Modulus (GPa) = 7.12146 35.81688 21.46917
#
# Velocity S-wave (km/s) = 1.73378 3.88825 3.01035
# Velocity P-wave (km/s) = 4.04235 6.45977 5.38838
#
# Compressibility (1/GPa) = 0.03422678
#
# Stress axis : x y z
#
# Youngs Moduli (GPa) = 96.66430 30.07177 106.56240
#
# Poissons Ratio (x) = 0.28819 0.38244
# Poissons Ratio (y) = 0.92639 -0.40434
# Poissons Ratio (z) = 0.34692 -0.11410
#
# Static dielectric constant tensor:
#      x y z
#    x 1.859280 0.000000 0.000000 
#    y 0.000000 1.958560 0.000000 
#    z 0.000000 0.000000 1.870460 
# 
# From -- ./inp_files/30136.got.cif
#   From: 2010.05.17/outbox.cif.g08.bks.cpg/sg52_16_cif.got.tgz:30136.got - 2010.06.03 12:15:38.
