data_PCOD9408842
_publ_section_title
;
Structure prediction by ZEFSAII (Michael W. Deem and Ramdas Pophale) SiO2 
 PCOD9408842
Probable space group: P N N A
;
_chemical_formula_sum "Si O2"
_cell_formula_units_Z 48
_cell_length_a 5.377661
_cell_length_b 15.610671
_cell_length_c 25.416421
_cell_angle_alpha 90.000000
_cell_angle_beta 90.000000
_cell_angle_gamma 90.000000
_cell_volume 2133.680499
_symmetry_space_group_name_H-M "P N N A"
_symmetry_group_IT_number 52
_symmetry_cell_setting 'orthorhombic'
loop_
_space_group_symop_operation_xyz
x,y,z
1/2-x,-y,z
x,1/2-y,1/2-z
1/2-x,1/2+y,1/2-z
-x,-y,-z
1/2+x,y,-z
-x,1/2+y,1/2+z
1/2+x,1/2-y,1/2+z
loop_
_atom_site_type_symbol
_atom_site_label
_atom_site_fract_x
_atom_site_fract_y
_atom_site_fract_z
Si Si1 0.892534 0.881575 0.637483
Si Si2 0.498192 0.963558 0.059272
Si Si3 0.689786 0.094621 0.518319
Si Si4 0.107755 0.129310 0.697930
Si Si5 0.882310 0.676733 0.624343
Si Si6 0.621345 0.336989 0.315957
O O1 0.887551 0.916751 0.578603
O O2 0.638250 0.902282 0.668054
O O3 0.891940 0.778865 0.627449
O O4 0.138138 0.902730 0.670949
O O5 0.458605 0.862658 0.067727
O O6 0.250000 0.000000 0.084970
O O7 0.750000 0.000000 0.083215
O O8 0.500000 0.000000 0.000000
O O9 0.460668 0.137926 0.487763
O O10 0.750000 0.000000 0.495389
O O11 0.115858 0.233433 0.692572
O O12 0.090004 0.115758 0.760323
O O13 0.612318 0.649329 0.645568
O O14 0.106404 0.643602 0.661272
#
# Coordination Sequence:
#
# PCOD9408842 Si02
#       6
#     8   8   8   8   8   8
#     4  10  19  33  54  83 109 138 178 230 267 316
#     4  10  21  38  54  72 101 144 189 227 280 330
#     4  10  21  38  56  77 107 146 177 206 267 328
#     4   9  17  30  52  81 114 138 172 218 281 326
#     4  10  19  33  54  80 106 138 188 227 269 318
#     4   9  17  30  52  81 110 142 172 222 275 331
#
# _framework density 22.496338000000002
#
# number of rings (size 3 to 8) (size 9 to 14) (size 15 to 20)
#    0.000    2.333    0.000    3.000    0.000    4.000 
#    6.000    0.000    0.000   10.000    0.000    0.000 
#    0.000    0.000    0.000    0.000    0.000    0.000 
#
# Total GULP energy -267665.480494 kJ/mol
# GULP energy per Si atom -5576.364177 kJ/mol
# Density = 2.244514 g / cm^3
# Si number density = 22.496338 Si / 1000 Ang^3
#
#
#
# Elastic Constant Matrix: (Units=GPa)
#
#
# Indices 1 2 3 4 5 6 
#
# 1 195.0155 24.4335 26.9821 0.0000 0.0000 0.0000
# 2 24.4335 33.7568 15.7380 0.0000 0.0000 0.0000
# 3 26.9821 15.7380 79.5790 0.0000 0.0000 0.0000
# 4 0.0000 0.0000 0.0000 109.6042 0.0000 0.0000
# 5 0.0000 0.0000 0.0000 0.0000 17.3142 0.0000
# 6 0.0000 0.0000 0.0000 0.0000 0.0000 16.7107
#
#
#
# Elastic Compliance Matrix: (Units=1/GPa)
#
#
# Indices 1 2 3 4 5 6 
#
# 1 0.005748 -0.003582 -0.001241 0.000000 0.000000 0.000000
# 2 -0.003582 0.034865 -0.005680 0.000000 0.000000 0.000000
# 3 -0.001241 -0.005680 0.014110 0.000000 0.000000 0.000000
# 4 0.000000 0.000000 0.000000 0.009124 0.000000 0.000000
# 5 0.000000 0.000000 0.000000 0.000000 0.057756 0.000000
# 6 0.000000 0.000000 0.000000 0.000000 0.000000 0.059842
#
#
# Mechanical properties :
#
#
# Convention : Reuss Voigt Hill
#
# Bulk Modulus (GPa) = 29.65888 49.18429 39.42159
# Shear Modulus (GPa) = 23.39829 44.80565 34.10197
#
# Velocity S-wave (km/s) = 3.22855 4.46767 3.89767
# Velocity P-wave (km/s) = 5.20678 6.96593 6.14958
#
# Compressibility (1/GPa) = 0.03371671
#
# Stress axis : x y z
#
# Youngs Moduli (GPa) = 173.96554 28.68210 70.87094
#
# Poissons Ratio (x) = 0.10275 0.08792
# Poissons Ratio (y) = 0.62320 0.40258
# Poissons Ratio (z) = 0.21581 0.16293
#
# Static dielectric constant tensor:
#      x y z
#    x 1.891400 0.000000 0.000000 
#    y 0.000000 1.991500 0.000000 
#    z 0.000000 0.000000 1.825640 
# 
# From -- ./inp_files/38777.got.cif
#   From: 2010.05.17/outbox.cif.g08.bks.cpg/sg52_20_cif.got.tgz:38777.got - 2010.06.03 12:15:38.
