data_PCOD9408432
_publ_section_title
;
Structure prediction by ZEFSAII (Michael W. Deem and Ramdas Pophale) SiO2 
 PCOD9408432
Probable space group: P N N A
;
_chemical_formula_sum "Si O2"
_cell_formula_units_Z 64
_cell_length_a 13.271357
_cell_length_b 7.911137
_cell_length_c 27.737085
_cell_angle_alpha 90.000000
_cell_angle_beta 90.000000
_cell_angle_gamma 90.000000
_cell_volume 2912.158809
_symmetry_space_group_name_H-M "P N N A"
_symmetry_group_IT_number 52
_symmetry_cell_setting 'orthorhombic'
loop_
_space_group_symop_operation_xyz
x,y,z
1/2-x,-y,z
x,1/2-y,1/2-z
1/2-x,1/2+y,1/2-z
-x,-y,-z
1/2+x,y,-z
-x,1/2+y,1/2+z
1/2+x,1/2-y,1/2+z
loop_
_atom_site_type_symbol
_atom_site_label
_atom_site_fract_x
_atom_site_fract_y
_atom_site_fract_z
Si Si1 0.356178 0.224308 0.890360
Si Si2 0.950963 0.909719 0.216437
Si Si3 0.758143 0.293586 0.595894
Si Si4 0.668274 0.634673 0.211479
Si Si5 0.672323 0.849503 0.800537
Si Si6 0.361314 0.829445 0.882132
Si Si7 0.535068 0.697140 0.553179
Si Si8 0.954395 0.715849 0.550620
O O1 0.374553 0.267467 0.834298
O O2 0.238805 0.268720 0.897905
O O3 0.449494 0.289456 0.920785
O O4 0.356087 0.022912 0.900236
O O5 0.962999 0.750000 0.250000
O O6 0.871785 0.861589 0.174782
O O7 0.060558 0.930001 0.191790
O O8 0.915405 0.052867 0.253563
O O9 0.750000 0.500000 0.595857
O O10 0.791079 0.251508 0.651040
O O11 0.851160 0.242422 0.561489
O O12 0.651123 0.231343 0.575081
O O13 0.750000 0.500000 0.194000
O O14 0.725744 0.750000 0.250000
O O15 0.673139 0.750000 0.750000
O O16 0.750000 0.000000 0.794524
O O17 0.462993 0.751879 0.902688
O O18 0.544041 0.491094 0.552718
O O19 0.477139 0.753823 0.505145
#
# Coordination Sequence:
#
# PCOD9408432 Si02
#       8
#     8   8   8   8   8   8   8   8
#     4  10  21  32  50  81 112 146 185 230 286 347
#     4  11  22  37  55  81 114 151 197 238 286 347
#     4   9  17  31  51  74 111 146 186 230 283 344
#     4  12  23  36  57  83 114 156 192 237 291 349
#     4  10  22  37  55  81 114 153 196 237 285 348
#     4  10  18  34  51  76 114 147 184 231 286 349
#     4   9  17  30  50  75 107 150 180 230 296 335
#     4   9  19  30  48  78 112 143 187 232 288 354
#
# _framework density 21.976823
#
# number of rings (size 3 to 8) (size 9 to 14) (size 15 to 20)
#    0.000    2.000    2.500    1.875    3.500    1.500 
#    0.000    0.000    0.000    0.000    0.000    4.375 
#    0.000    0.000    0.000    0.000    0.000    0.000 
#
# Total GULP energy -356744.919572 kJ/mol
# GULP energy per Si atom -5574.139368 kJ/mol
# Density = 2.192680 g / cm^3
# Si number density = 21.976823 Si / 1000 Ang^3
#
#
#
# Elastic Constant Matrix: (Units=GPa)
#
#
# Indices 1 2 3 4 5 6 
#
# 1 178.8451 9.5878 63.1220 0.0000 0.0000 0.0000
# 2 9.5878 18.1838 1.0867 0.0000 0.0000 0.0000
# 3 63.1220 1.0867 105.6537 0.0000 0.0000 0.0000
# 4 0.0000 0.0000 0.0000 12.0643 0.0000 0.0000
# 5 0.0000 0.0000 0.0000 0.0000 39.3978 0.0000
# 6 0.0000 0.0000 0.0000 0.0000 0.0000 -1.1651
#
#
#
# Elastic Compliance Matrix: (Units=1/GPa)
#
#
# Indices 1 2 3 4 5 6 
#
# 1 0.007313 -0.003597 -0.004332 0.000000 0.000000 0.000000
# 2 -0.003597 0.056797 0.001565 0.000000 0.000000 0.000000
# 3 -0.004332 0.001565 0.012037 0.000000 0.000000 0.000000
# 4 0.000000 0.000000 0.000000 0.082889 0.000000 0.000000
# 5 0.000000 0.000000 0.000000 0.000000 0.025382 0.000000
# 6 0.000000 0.000000 0.000000 0.000000 0.000000 -0.858315
#
#
# Mechanical properties :
#
#
# Convention : Reuss Voigt Hill
#
# Bulk Modulus (GPa) = 15.76826 50.03063 32.89945
# Shear Modulus (GPa) = -7.81217 25.31847 8.75315
#
# Velocity S-wave (km/s) = -1.88745 3.39787 1.99789
# Velocity P-wave (km/s) = 1.56224 6.18132 4.50828
#
# Compressibility (1/GPa) = 0.06341852
#
# Stress axis : x y z
#
# Youngs Moduli (GPa) = 136.73676 17.60648 83.07656
#
# Poissons Ratio (x) = 0.06333 0.35991
# Poissons Ratio (y) = 0.49187 -0.13001
# Poissons Ratio (z) = 0.59238 -0.02755
#
# Static dielectric constant tensor:
#      x y z
#    x 1.839640 0.000000 0.000000 
#    y 0.000000 1.908420 0.000000 
#    z 0.000000 0.000000 1.810940 
# 
# From -- ./inp_files/44854.got.cif
#   From: 2010.05.17/outbox.cif.g08.bks.cpg/sg52_23_cif.got.tgz:44854.got - 2010.06.03 12:15:38.
