data_PCOD9408533
_publ_section_title
;
Structure prediction by ZEFSAII (Michael W. Deem and Ramdas Pophale) SiO2 
 PCOD9408533
Probable space group: P N N A
;
_chemical_formula_sum "Si O2"
_cell_formula_units_Z 52
_cell_length_a 8.794499
_cell_length_b 20.640533
_cell_length_c 13.442535
_cell_angle_alpha 90.000000
_cell_angle_beta 90.000000
_cell_angle_gamma 90.000000
_cell_volume 2440.131255
_symmetry_space_group_name_H-M "P N N A"
_symmetry_group_IT_number 52
_symmetry_cell_setting 'orthorhombic'
loop_
_space_group_symop_operation_xyz
x,y,z
1/2-x,-y,z
x,1/2-y,1/2-z
1/2-x,1/2+y,1/2-z
-x,-y,-z
1/2+x,y,-z
-x,1/2+y,1/2+z
1/2+x,1/2-y,1/2+z
loop_
_atom_site_type_symbol
_atom_site_label
_atom_site_fract_x
_atom_site_fract_y
_atom_site_fract_z
Si Si1 0.013381 0.401793 0.590656
Si Si2 0.955773 0.095941 0.125607
Si Si3 0.438818 0.747738 0.628433
Si Si4 0.745763 0.575263 0.743253
Si Si5 0.398758 0.253613 0.631010
Si Si6 0.771638 0.793179 0.647350
Si Si7 0.750000 0.500000 0.335639
O O1 0.940365 0.425612 0.488440
O O2 0.052624 0.326082 0.589730
O O3 0.157285 0.446593 0.605153
O O4 0.912196 0.412375 0.687792
O O5 0.129983 0.090870 0.158130
O O6 0.902345 0.169229 0.118406
O O7 0.874604 0.049359 0.207214
O O8 0.437978 0.750000 0.750000
O O9 0.268622 0.773055 0.599444
O O10 0.605162 0.777351 0.600227
O O11 0.750000 0.500000 0.774296
O O12 0.771485 0.630868 0.824902
O O13 0.400602 0.250000 0.750000
O O14 0.564064 0.224899 0.598371
O O15 0.770970 0.750000 0.750000
#
# Coordination Sequence:
#
# PCOD9408533 Si02
#       7
#     8   8   8   8   8   8   4
#     4  12  23  34  50  74 107 149 183 215 253 318
#     4  12  23  34  50  74 107 149 183 215 253 318
#     4  10  19  35  55  69  95 138 181 224 266 295
#     4  12  23  36  51  74 108 145 177 218 262 318
#     4  10  19  35  55  69  95 138 181 224 266 295
#     4  10  18  36  56  72  93 138 180 222 275 300
#     4  12  24  34  44  76 112 156 184 198 264 310
#
# _framework density 21.310327999999998
#
# number of rings (size 3 to 8) (size 9 to 14) (size 15 to 20)
#    0.000    0.923    9.231    1.385    2.154    0.000 
#    0.000    0.000    0.000    0.000    0.000    0.000 
#    0.000    1.231    5.231    0.000    0.000    0.000 
#
# Total GULP energy -289521.476560 kJ/mol
# GULP energy per Si atom -5567.720703 kJ/mol
# Density = 2.126183 g / cm^3
# Si number density = 21.310328 Si / 1000 Ang^3
#
#
#
# Elastic Constant Matrix: (Units=GPa)
#
#
# Indices 1 2 3 4 5 6 
#
# 1 181.9180 32.4555 25.7508 0.0000 0.0000 0.0000
# 2 32.4555 119.4696 8.7628 0.0000 0.0000 0.0000
# 3 25.7508 8.7628 27.6821 0.0000 0.0000 0.0000
# 4 0.0000 0.0000 0.0000 13.4485 0.0000 0.0000
# 5 0.0000 0.0000 0.0000 0.0000 27.6992 0.0000
# 6 0.0000 0.0000 0.0000 0.0000 0.0000 16.4393
#
#
#
# Elastic Compliance Matrix: (Units=1/GPa)
#
#
# Indices 1 2 3 4 5 6 
#
# 1 0.006540 -0.001362 -0.005653 0.000000 0.000000 0.000000
# 2 -0.001362 0.008853 -0.001535 0.000000 0.000000 0.000000
# 3 -0.005653 -0.001535 0.041869 0.000000 0.000000 0.000000
# 4 0.000000 0.000000 0.000000 0.074357 0.000000 0.000000
# 5 0.000000 0.000000 0.000000 0.000000 0.036102 0.000000
# 6 0.000000 0.000000 0.000000 0.000000 0.000000 0.060830
#
#
# Mechanical properties :
#
#
# Convention : Reuss Voigt Hill
#
# Bulk Modulus (GPa) = 24.89942 51.44532 38.17237
# Shear Modulus (GPa) = 19.30214 28.99079 24.14646
#
# Velocity S-wave (km/s) = 3.01286 3.69238 3.36979
# Velocity P-wave (km/s) = 4.87982 6.50935 5.75258
#
# Compressibility (1/GPa) = 0.04016158
#
# Stress axis : x y z
#
# Youngs Moduli (GPa) = 152.90210 112.95639 23.88419
#
# Poissons Ratio (x) = 0.15386 0.13501
# Poissons Ratio (y) = 0.20827 0.03667
# Poissons Ratio (z) = 0.86430 0.17343
#
# Static dielectric constant tensor:
#      x y z
#    x 1.909120 0.000000 0.000000 
#    y 0.000000 1.763200 0.000000 
#    z 0.000000 0.000000 1.820110 
# 
# From -- ./inp_files/31415.got.cif
#   From: 2010.05.17/outbox.cif.g08.bks.cpg/sg52_16_cif.got.tgz:31415.got - 2010.06.03 12:15:38.
