data_PCOD9408607
_publ_section_title
;
Structure prediction by ZEFSAII (Michael W. Deem and Ramdas Pophale) SiO2 
 PCOD9408607
Probable space group: P N N A
;
_chemical_formula_sum "Si O2"
_cell_formula_units_Z 48
_cell_length_a 27.054256
_cell_length_b 8.041948
_cell_length_c 9.015378
_cell_angle_alpha 90.000000
_cell_angle_beta 90.000000
_cell_angle_gamma 90.000000
_cell_volume 1961.466054
_symmetry_space_group_name_H-M "P N N A"
_symmetry_group_IT_number 52
_symmetry_cell_setting 'orthorhombic'
loop_
_space_group_symop_operation_xyz
x,y,z
1/2-x,-y,z
x,1/2-y,1/2-z
1/2-x,1/2+y,1/2-z
-x,-y,-z
1/2+x,y,-z
-x,1/2+y,1/2+z
1/2+x,1/2-y,1/2+z
loop_
_atom_site_type_symbol
_atom_site_label
_atom_site_fract_x
_atom_site_fract_y
_atom_site_fract_z
Si Si1 0.486423 0.490387 0.744058
Si Si2 0.773854 0.261328 0.074526
Si Si3 0.680023 0.404186 0.938693
Si Si4 0.563629 0.660383 0.533399
Si Si5 0.332629 0.419414 0.349471
Si Si6 0.568594 0.057660 0.528919
O O1 0.518325 0.606416 0.636398
O O2 0.451154 0.387725 0.633627
O O3 0.453356 0.582848 0.866103
O O4 0.527155 0.397078 0.849221
O O5 0.771794 0.250000 0.250000
O O6 0.719788 0.280042 0.004268
O O7 0.805483 0.425324 0.026907
O O8 0.801104 0.110094 0.995445
O O9 0.686141 0.443061 0.764503
O O10 0.622370 0.364076 0.956705
O O11 0.611020 0.563881 0.597392
O O12 0.574447 0.856665 0.544988
O O13 0.330062 0.250000 0.250000
#
# Coordination Sequence:
#
# PCOD9408607 Si02
#       6
#     8   8   8   8   8   8
#     4  10  23  32  59 101 125 166 214 265 304 382
#     4  10  22  39  65 106 127 162 221 285 327 382
#     4  10  21  40  67  95 131 162 225 259 332 403
#     4  11  19  37  62  94 127 163 225 249 315 386
#     4  10  18  37  69  93 122 179 210 265 323 394
#     4  11  20  39  62  90 132 173 204 269 319 378
#
# _framework density 24.471492000000001
#
# number of rings (size 3 to 8) (size 9 to 14) (size 15 to 20)
#    0.000    1.667    5.000    1.000    2.333    0.000 
#    0.000   13.333    0.000   20.000    0.000    0.000 
#    0.000    0.000    0.000    0.000    0.000    0.000 
#
# Total GULP energy -268927.542361 kJ/mol
# GULP energy per Si atom -5602.657133 kJ/mol
# Density = 2.441579 g / cm^3
# Si number density = 24.471492 Si / 1000 Ang^3
#
#
#
# Elastic Constant Matrix: (Units=GPa)
#
#
# Indices 1 2 3 4 5 6 
#
# 1 119.1326 12.2816 67.5385 0.0000 0.0000 0.0000
# 2 12.2816 67.0870 33.0308 0.0000 0.0000 0.0000
# 3 67.5385 33.0308 233.5007 0.0000 0.0000 0.0000
# 4 0.0000 0.0000 0.0000 26.3306 0.0000 0.0000
# 5 0.0000 0.0000 0.0000 0.0000 39.6500 0.0000
# 6 0.0000 0.0000 0.0000 0.0000 0.0000 15.9980
#
#
#
# Elastic Compliance Matrix: (Units=1/GPa)
#
#
# Indices 1 2 3 4 5 6 
#
# 1 0.010052 -0.000439 -0.002845 0.000000 0.000000 0.000000
# 2 -0.000439 0.016041 -0.002142 0.000000 0.000000 0.000000
# 3 -0.002845 -0.002142 0.005409 0.000000 0.000000 0.000000
# 4 0.000000 0.000000 0.000000 0.037979 0.000000 0.000000
# 5 0.000000 0.000000 0.000000 0.000000 0.025221 0.000000
# 6 0.000000 0.000000 0.000000 0.000000 0.000000 0.062508
#
#
# Mechanical properties :
#
#
# Convention : Reuss Voigt Hill
#
# Bulk Modulus (GPa) = 48.42962 71.71356 60.07159
# Shear Modulus (GPa) = 28.58025 36.85368 32.71697
#
# Velocity S-wave (km/s) = 3.42116 3.88491 3.66039
# Velocity P-wave (km/s) = 5.95307 7.03505 6.51655
#
# Compressibility (1/GPa) = 0.02064852
#
# Stress axis : x y z
#
# Youngs Moduli (GPa) = 99.47827 62.33985 184.88757
#
# Poissons Ratio (x) = 0.02739 0.52609
# Poissons Ratio (y) = 0.04370 0.39605
# Poissons Ratio (z) = 0.28306 0.13354
#
# Static dielectric constant tensor:
#      x y z
#    x 1.914540 0.000000 0.000000 
#    y 0.000000 2.093280 0.000000 
#    z 0.000000 0.000000 1.885400 
# 
# From -- ./inp_files/14933.got.cif
#   From: 2010.05.17/outbox.cif.g08.bks.cpg/sg52_8_cif.got.tgz:14933.got - 2010.06.03 12:15:38.
