data_PCOD9408208
_publ_section_title
;
Structure prediction by ZEFSAII (Michael W. Deem and Ramdas Pophale) SiO2 
 PCOD9408208
Probable space group: P N N A
;
_chemical_formula_sum "Si O2"
_cell_formula_units_Z 64
_cell_length_a 23.239470
_cell_length_b 12.169580
_cell_length_c 11.886558
_cell_angle_alpha 90.000000
_cell_angle_beta 90.000000
_cell_angle_gamma 90.000000
_cell_volume 3361.692019
_symmetry_space_group_name_H-M "P N N A"
_symmetry_group_IT_number 52
_symmetry_cell_setting 'orthorhombic'
loop_
_space_group_symop_operation_xyz
x,y,z
1/2-x,-y,z
x,1/2-y,1/2-z
1/2-x,1/2+y,1/2-z
-x,-y,-z
1/2+x,y,-z
-x,1/2+y,1/2+z
1/2+x,1/2-y,1/2+z
loop_
_atom_site_type_symbol
_atom_site_label
_atom_site_fract_x
_atom_site_fract_y
_atom_site_fract_z
Si Si1 0.538557 0.926254 0.582129
Si Si2 0.895261 0.473494 0.428282
Si Si3 0.546735 0.369208 0.285117
Si Si4 0.350537 0.516082 0.202340
Si Si5 0.703430 0.900708 0.920009
Si Si6 0.513475 0.798158 0.015838
Si Si7 0.286019 0.710024 0.121619
Si Si8 0.101397 0.333922 0.390842
O O1 0.497983 0.908344 0.691234
O O2 0.546324 0.810675 0.519457
O O3 0.500000 0.000000 0.500000
O O4 0.600726 0.967725 0.621935
O O5 0.902935 0.545571 0.316084
O O6 0.837988 0.415362 0.472793
O O7 0.946115 0.385845 0.425932
O O8 0.904545 0.560668 0.529042
O O9 0.570169 0.250000 0.250000
O O10 0.509805 0.348872 0.398450
O O11 0.327923 0.430220 0.298918
O O12 0.299856 0.580509 0.135075
O O13 0.382878 0.614237 0.271131
O O14 0.732466 0.779985 0.926469
O O15 0.750000 0.000000 0.925649
O O16 0.458334 0.771881 0.093241
O O17 0.282303 0.750000 0.250000
O O18 0.344076 0.763014 0.070171
#
# Coordination Sequence:
#
# PCOD9408208 Si02
#       8
#     8   8   8   8   8   8   8   8
#     4  11  22  36  51  80 120 157 190 228 282 364
#     4  10  18  31  53  78 112 145 181 244 286 333
#     4   9  18  33  55  82 113 150 189 231 285 347
#     4  10  20  33  51  75 116 159 185 235 290 344
#     4  11  19  34  52  84 115 137 199 242 285 344
#     4  10  19  32  52  83 112 150 188 227 288 343
#     4  10  18  30  48  75 110 149 179 228 286 341
#     4   9  16  30  51  74 110 138 186 229 281 344
#
# _framework density 19.038032000000001
#
# number of rings (size 3 to 8) (size 9 to 14) (size 15 to 20)
#    0.000    2.000    3.750    4.500    0.000    1.000 
#    0.000    1.875    0.000    0.000    0.000    2.625 
#    0.000    0.000    0.000    0.000    0.000    0.000 
#
# Total GULP energy -356318.277126 kJ/mol
# GULP energy per Si atom -5567.473080 kJ/mol
# Density = 1.899470 g / cm^3
# Si number density = 19.038032 Si / 1000 Ang^3
#
#
#
# Elastic Constant Matrix: (Units=GPa)
#
#
# Indices 1 2 3 4 5 6 
#
# 1 102.6363 52.2413 32.8169 0.0000 0.0000 0.0000
# 2 52.2413 79.8271 36.9413 0.0000 0.0000 0.0000
# 3 32.8169 36.9413 36.3852 0.0000 0.0000 0.0000
# 4 0.0000 0.0000 0.0000 24.6169 0.0000 0.0000
# 5 0.0000 0.0000 0.0000 0.0000 31.7808 0.0000
# 6 0.0000 0.0000 0.0000 0.0000 0.0000 28.3946
#
#
#
# Elastic Compliance Matrix: (Units=1/GPa)
#
#
# Indices 1 2 3 4 5 6 
#
# 1 0.015485 -0.006924 -0.006937 0.000000 0.000000 0.000000
# 2 -0.006924 0.026725 -0.020888 0.000000 0.000000 0.000000
# 3 -0.006937 -0.020888 0.054948 0.000000 0.000000 0.000000
# 4 0.000000 0.000000 0.000000 0.040622 0.000000 0.000000
# 5 0.000000 0.000000 0.000000 0.000000 0.031466 0.000000
# 6 0.000000 0.000000 0.000000 0.000000 0.000000 0.035218
#
#
# Mechanical properties :
#
#
# Convention : Reuss Voigt Hill
#
# Bulk Modulus (GPa) = 36.15372 51.42751 43.79062
# Shear Modulus (GPa) = 17.65644 23.41506 20.53575
#
# Velocity S-wave (km/s) = 3.04868 3.51081 3.28787
# Velocity P-wave (km/s) = 5.60572 6.59591 6.12087
#
# Compressibility (1/GPa) = 0.02765967
#
# Stress axis : x y z
#
# Youngs Moduli (GPa) = 64.57691 37.41855 18.19898
#
# Poissons Ratio (x) = 0.25908 0.12625
# Poissons Ratio (y) = 0.44712 0.38015
# Poissons Ratio (z) = 0.44797 0.78161
#
# Static dielectric constant tensor:
#      x y z
#    x 1.738210 0.000000 0.000000 
#    y 0.000000 1.758560 0.000000 
#    z 0.000000 0.000000 1.674900 
# 
# From -- ./inp_files/22488.got.cif
#   From: 2010.05.17/outbox.cif.g08.bks.cpg/sg52_12_cif.got.tgz:22488.got - 2010.06.03 12:15:38.
