data_PCOD9408704
_publ_section_title
;
Structure prediction by ZEFSAII (Michael W. Deem and Ramdas Pophale) SiO2 
 PCOD9408704
Probable space group: P N N A
;
_chemical_formula_sum "Si O2"
_cell_formula_units_Z 64
_cell_length_a 15.059014
_cell_length_b 21.110929
_cell_length_c 8.699383
_cell_angle_alpha 90.000000
_cell_angle_beta 90.000000
_cell_angle_gamma 90.000000
_cell_volume 2765.618895
_symmetry_space_group_name_H-M "P N N A"
_symmetry_group_IT_number 52
_symmetry_cell_setting 'orthorhombic'
loop_
_space_group_symop_operation_xyz
x,y,z
1/2-x,-y,z
x,1/2-y,1/2-z
1/2-x,1/2+y,1/2-z
-x,-y,-z
1/2+x,y,-z
-x,1/2+y,1/2+z
1/2+x,1/2-y,1/2+z
loop_
_atom_site_type_symbol
_atom_site_label
_atom_site_fract_x
_atom_site_fract_y
_atom_site_fract_z
Si Si1 0.807831 0.748162 0.565108
Si Si2 0.781927 0.880343 0.374364
Si Si3 0.001265 0.791657 0.024590
Si Si4 0.103426 0.478338 0.211396
Si Si5 0.064663 0.664698 0.149783
Si Si6 0.448802 0.954015 0.637659
Si Si7 0.230104 0.590624 0.192270
Si Si8 0.838243 0.312032 0.355336
O O1 0.805414 0.750000 0.750000
O O2 0.809566 0.815677 0.469716
O O3 0.726607 0.708077 0.494769
O O4 0.900550 0.715224 0.521504
O O5 0.864760 0.915662 0.298018
O O6 0.739686 0.921586 0.509895
O O7 0.710503 0.863205 0.247898
O O8 0.046276 0.721477 0.033338
O O9 0.013741 0.818004 0.194610
O O10 0.064666 0.830603 0.912468
O O11 0.166729 0.536509 0.261015
O O12 0.167569 0.417901 0.248991
O O13 0.001239 0.497338 0.249561
O O14 0.087776 0.477735 0.026315
O O15 0.167698 0.652857 0.191192
O O16 0.020799 0.600259 0.093807
O O17 0.845307 0.250000 0.250000
#
# Coordination Sequence:
#
# PCOD9408704 Si02
#       8
#     8   8   8   8   8   8   8   8
#     4  11  23  35  52  77 114 149 191 231 270 324
#     4  10  19  34  54  76 110 147 184 223 285 329
#     4  11  22  35  51  78 115 152 193 222 271 335
#     4   8  16  28  49  82 112 127 174 238 290 318
#     4  10  19  30  54  76 108 147 185 219 279 332
#     4   9  15  30  52  79 107 136 174 230 283 331
#     4   9  17  30  50  81 110 133 180 236 281 326
#     4  10  22  36  53  74 110 155 192 225 273 328
#
# _framework density 23.141295
#
# number of rings (size 3 to 8) (size 9 to 14) (size 15 to 20)
#    0.000    2.250    1.250    2.625    7.000    0.000 
#    0.000    0.000    0.000    0.000    0.000   15.750 
#    0.000    0.000    0.000    0.000    0.000    0.000 
#
# Total GULP energy -356612.747125 kJ/mol
# GULP energy per Si atom -5572.074174 kJ/mol
# Density = 2.308862 g / cm^3
# Si number density = 23.141295 Si / 1000 Ang^3
#
#
#
# Elastic Constant Matrix: (Units=GPa)
#
#
# Indices 1 2 3 4 5 6 
#
# 1 119.6973 9.4601 27.8732 0.0000 0.0000 0.0000
# 2 9.4601 39.4253 -4.8459 0.0000 0.0000 0.0000
# 3 27.8732 -4.8459 66.0882 0.0000 0.0000 0.0000
# 4 0.0000 0.0000 0.0000 5.5335 0.0000 0.0000
# 5 0.0000 0.0000 0.0000 0.0000 24.2250 0.0000
# 6 0.0000 0.0000 0.0000 0.0000 0.0000 10.8185
#
#
#
# Elastic Compliance Matrix: (Units=1/GPa)
#
#
# Indices 1 2 3 4 5 6 
#
# 1 0.009564 -0.002816 -0.004240 0.000000 0.000000 0.000000
# 2 -0.002816 0.026424 0.003125 0.000000 0.000000 0.000000
# 3 -0.004240 0.003125 0.017149 0.000000 0.000000 0.000000
# 4 0.000000 0.000000 0.000000 0.180717 0.000000 0.000000
# 5 0.000000 0.000000 0.000000 0.000000 0.041280 0.000000
# 6 0.000000 0.000000 0.000000 0.000000 0.000000 0.092434
#
#
# Mechanical properties :
#
#
# Convention : Reuss Voigt Hill
#
# Bulk Modulus (GPa) = 22.08720 32.24284 27.16502
# Shear Modulus (GPa) = 12.80337 20.96364 16.88350
#
# Velocity S-wave (km/s) = 2.35472 3.01308 2.70401
# Velocity P-wave (km/s) = 4.11803 5.10570 4.63823
#
# Compressibility (1/GPa) = 0.04527510
#
# Stress axis : x y z
#
# Youngs Moduli (GPa) = 104.55434 37.84396 58.31293
#
# Poissons Ratio (x) = 0.10658 0.24727
# Poissons Ratio (y) = 0.29444 -0.18225
# Poissons Ratio (z) = 0.44335 -0.11827
#
# Static dielectric constant tensor:
#      x y z
#    x 1.954320 0.000000 0.000000 
#    y 0.000000 2.216070 0.000000 
#    z 0.000000 0.000000 1.852980 
# 
# From -- ./inp_files/11034.got.cif
#   From: 2010.05.17/outbox.cif.g08.bks.cpg/sg52_6_cif.got.tgz:11034.got - 2010.06.03 12:15:38.
