data_PCOD9408553
_publ_section_title
;
Structure prediction by ZEFSAII (Michael W. Deem and Ramdas Pophale) SiO2 
 PCOD9408553
Probable space group: P N N A
;
_chemical_formula_sum "Si O2"
_cell_formula_units_Z 36
_cell_length_a 9.636577
_cell_length_b 13.871427
_cell_length_c 11.144021
_cell_angle_alpha 90.000000
_cell_angle_beta 90.000000
_cell_angle_gamma 90.000000
_cell_volume 1489.655548
_symmetry_space_group_name_H-M "P N N A"
_symmetry_group_IT_number 52
_symmetry_cell_setting 'orthorhombic'
loop_
_space_group_symop_operation_xyz
x,y,z
1/2-x,-y,z
x,1/2-y,1/2-z
1/2-x,1/2+y,1/2-z
-x,-y,-z
1/2+x,y,-z
-x,1/2+y,1/2+z
1/2+x,1/2-y,1/2+z
loop_
_atom_site_type_symbol
_atom_site_label
_atom_site_fract_x
_atom_site_fract_y
_atom_site_fract_z
Si Si1 0.622042 0.363045 0.218458
Si Si2 0.877301 0.433803 0.646076
Si Si3 0.262070 0.750000 0.250000
Si Si4 0.574698 0.280208 0.972015
Si Si5 0.312981 0.153408 0.919133
O O1 0.591293 0.250000 0.250000
O O2 0.519933 0.438873 0.282260
O O3 0.772191 0.373373 0.283047
O O4 0.595053 0.360156 0.075437
O O5 0.750000 0.500000 0.684562
O O6 0.829964 0.326092 0.681019
O O7 0.876417 0.430729 0.501399
O O8 0.354432 0.694208 0.153337
O O9 0.422450 0.240721 0.938082
O O10 0.666351 0.189521 0.023268
#
# Coordination Sequence:
#
# PCOD9408553 Si02
#       5
#     8   8   4   8   8
#     4  10  18  36  60  83 128 162 203 263 321 367
#     4  11  21  39  63  87 128 172 209 267 330 377
#     4  10  22  40  60  94 126 164 228 260 316 404
#     4  10  20  35  64  89 125 163 214 260 321 377
#     4  10  19  35  58  92 121 162 204 263 311 382
#
# _framework density 24.166661000000001
#
# number of rings (size 3 to 8) (size 9 to 14) (size 15 to 20)
#    0.000    1.778    5.556    1.333    4.667    0.889 
#    0.000    1.111    0.000    1.333    0.000    0.000 
#    0.000    0.000    0.000    0.000    0.000    0.000 
#
# Total GULP energy -200573.124003 kJ/mol
# GULP energy per Si atom -5571.475667 kJ/mol
# Density = 2.411166 g / cm^3
# Si number density = 24.166661 Si / 1000 Ang^3
#
#
#
# Elastic Constant Matrix: (Units=GPa)
#
#
# Indices 1 2 3 4 5 6 
#
# 1 124.6877 23.8252 63.5640 0.0000 0.0000 0.0000
# 2 23.8252 42.0931 8.5348 0.0000 0.0000 0.0000
# 3 63.5640 8.5348 178.8862 0.0000 0.0000 0.0000
# 4 0.0000 0.0000 0.0000 16.6153 0.0000 0.0000
# 5 0.0000 0.0000 0.0000 0.0000 7.5825 0.0000
# 6 0.0000 0.0000 0.0000 0.0000 0.0000 40.1145
#
#
#
# Elastic Compliance Matrix: (Units=1/GPa)
#
#
# Indices 1 2 3 4 5 6 
#
# 1 0.010902 -0.005438 -0.003614 0.000000 0.000000 0.000000
# 2 -0.005438 0.026701 0.000658 0.000000 0.000000 0.000000
# 3 -0.003614 0.000658 0.006843 0.000000 0.000000 0.000000
# 4 0.000000 0.000000 0.000000 0.060185 0.000000 0.000000
# 5 0.000000 0.000000 0.000000 0.000000 0.131883 0.000000
# 6 0.000000 0.000000 0.000000 0.000000 0.000000 0.024929
#
#
# Mechanical properties :
#
#
# Convention : Reuss Voigt Hill
#
# Bulk Modulus (GPa) = 36.15526 59.72390 47.93958
# Shear Modulus (GPa) = 17.39438 29.51200 23.45319
#
# Velocity S-wave (km/s) = 2.68576 3.49834 3.11863
# Velocity P-wave (km/s) = 4.96095 6.40974 5.73131
#
# Compressibility (1/GPa) = 0.02765849
#
# Stress axis : x y z
#
# Youngs Moduli (GPa) = 91.73018 37.45152 146.13486
#
# Poissons Ratio (x) = 0.20365 0.52817
# Poissons Ratio (y) = 0.49879 -0.09619
# Poissons Ratio (z) = 0.33153 -0.02465
#
# Static dielectric constant tensor:
#      x y z
#    x 2.024080 0.000000 0.000000 
#    y 0.000000 1.957090 0.000000 
#    z 0.000000 0.000000 2.096380 
# 
# From -- ./inp_files/17935.got.cif
#   From: 2010.05.17/outbox.cif.g08.bks.cpg/sg52_9_cif.got.tgz:17935.got - 2010.06.03 12:15:38.
