data_PCOD9408390
_publ_section_title
;
Structure prediction by ZEFSAII (Michael W. Deem and Ramdas Pophale) SiO2 
 PCOD9408390
Probable space group: P N N A
;
_chemical_formula_sum "Si O2"
_cell_formula_units_Z 48
_cell_length_a 15.969829
_cell_length_b 11.426734
_cell_length_c 13.821570
_cell_angle_alpha 90.000000
_cell_angle_beta 90.000000
_cell_angle_gamma 90.000000
_cell_volume 2522.201393
_symmetry_space_group_name_H-M "P N N A"
_symmetry_group_IT_number 52
_symmetry_cell_setting 'orthorhombic'
loop_
_space_group_symop_operation_xyz
x,y,z
1/2-x,-y,z
x,1/2-y,1/2-z
1/2-x,1/2+y,1/2-z
-x,-y,-z
1/2+x,y,-z
-x,1/2+y,1/2+z
1/2+x,1/2-y,1/2+z
loop_
_atom_site_type_symbol
_atom_site_label
_atom_site_fract_x
_atom_site_fract_y
_atom_site_fract_z
Si Si1 0.541137 0.991849 0.831892
Si Si2 0.085569 0.699006 0.647911
Si Si3 0.048455 0.892960 0.375024
Si Si4 0.313494 0.820156 0.152153
Si Si5 0.563006 0.153129 0.548377
Si Si6 0.855144 0.324582 0.553246
O O1 0.460359 0.074107 0.839981
O O2 0.618779 0.081584 0.820427
O O3 0.534343 0.909486 0.738353
O O4 0.567869 0.911862 0.922302
O O5 0.115136 0.750000 0.750000
O O6 0.151623 0.688965 0.561598
O O7 0.014115 0.788364 0.607956
O O8 0.119501 0.799136 0.399607
O O9 0.967575 0.852774 0.437483
O O10 0.073407 0.020724 0.415454
O O11 0.294386 0.750000 0.250000
O O12 0.358434 0.732782 0.075798
O O13 0.228976 0.865849 0.104296
#
# Coordination Sequence:
#
# PCOD9408390 Si02
#       6
#     8   8   8   8   8   8
#     4  11  19  36  58  80 108 143 183 230 272 326
#     4  10  19  38  58  74 100 147 192 221 264 329
#     4  10  18  33  54  84 111 135 181 227 267 320
#     4  11  20  36  54  80 114 150 175 218 288 339
#     4   9  18  33  57  82 104 140 182 222 263 327
#     4  11  24  31  52  86 113 138 176 231 282 330
#
# _framework density 19.030995000000001
#
# number of rings (size 3 to 8) (size 9 to 14) (size 15 to 20)
#    0.000    1.667    3.333    3.500    0.000    0.667 
#    0.000    0.000    0.000   10.000    0.000    0.000 
#    0.000    0.000    0.000    0.000    0.000    0.000 
#
# Total GULP energy -267914.570699 kJ/mol
# GULP energy per Si atom -5581.553556 kJ/mol
# Density = 1.898768 g / cm^3
# Si number density = 19.030995 Si / 1000 Ang^3
#
#
#
# Elastic Constant Matrix: (Units=GPa)
#
#
# Indices 1 2 3 4 5 6 
#
# 1 36.3163 10.1741 17.3767 0.0000 0.0000 0.0000
# 2 10.1741 65.9588 27.2620 0.0000 0.0000 0.0000
# 3 17.3767 27.2620 130.3997 0.0000 0.0000 0.0000
# 4 0.0000 0.0000 0.0000 29.1291 0.0000 0.0000
# 5 0.0000 0.0000 0.0000 0.0000 14.5096 0.0000
# 6 0.0000 0.0000 0.0000 0.0000 0.0000 13.3771
#
#
#
# Elastic Compliance Matrix: (Units=1/GPa)
#
#
# Indices 1 2 3 4 5 6 
#
# 1 0.030038 -0.003261 -0.003321 0.000000 0.000000 0.000000
# 2 -0.003261 0.016949 -0.003109 0.000000 0.000000 0.000000
# 3 -0.003321 -0.003109 0.008761 0.000000 0.000000 0.000000
# 4 0.000000 0.000000 0.000000 0.034330 0.000000 0.000000
# 5 0.000000 0.000000 0.000000 0.000000 0.068920 0.000000
# 6 0.000000 0.000000 0.000000 0.000000 0.000000 0.074755
#
#
# Mechanical properties :
#
#
# Convention : Reuss Voigt Hill
#
# Bulk Modulus (GPa) = 27.49737 38.03336 32.76536
# Shear Modulus (GPa) = 18.84967 23.26065 21.05516
#
# Velocity S-wave (km/s) = 3.15059 3.49986 3.32981
# Velocity P-wave (km/s) = 5.26451 6.02996 5.66019
#
# Compressibility (1/GPa) = 0.03636712
#
# Stress axis : x y z
#
# Youngs Moduli (GPa) = 33.29066 59.00085 114.13892
#
# Poissons Ratio (x) = 0.19238 0.37907
# Poissons Ratio (y) = 0.10855 0.35485
# Poissons Ratio (z) = 0.11056 0.18343
#
# Static dielectric constant tensor:
#      x y z
#    x 1.640210 0.000000 0.000000 
#    y 0.000000 1.681350 0.000000 
#    z 0.000000 0.000000 1.672320 
# 
# From -- ./inp_files/20596.got.cif
#   From: 2010.05.17/outbox.cif.g08.bks.cpg/sg52_11_cif.got.tgz:20596.got - 2010.06.03 12:15:38.
