data_PCOD9408480
_publ_section_title
;
Structure prediction by ZEFSAII (Michael W. Deem and Ramdas Pophale) SiO2 
 PCOD9408480
Probable space group: P N N A
;
_chemical_formula_sum "Si O2"
_cell_formula_units_Z 44
_cell_length_a 10.267364
_cell_length_b 24.925591
_cell_length_c 8.221257
_cell_angle_alpha 90.000000
_cell_angle_beta 90.000000
_cell_angle_gamma 90.000000
_cell_volume 2103.985043
_symmetry_space_group_name_H-M "P N N A"
_symmetry_group_IT_number 52
_symmetry_cell_setting 'orthorhombic'
loop_
_space_group_symop_operation_xyz
x,y,z
1/2-x,-y,z
x,1/2-y,1/2-z
1/2-x,1/2+y,1/2-z
-x,-y,-z
1/2+x,y,-z
-x,1/2+y,1/2+z
1/2+x,1/2-y,1/2+z
loop_
_atom_site_type_symbol
_atom_site_label
_atom_site_fract_x
_atom_site_fract_y
_atom_site_fract_z
Si Si1 0.242151 0.936588 0.959360
Si Si2 0.478686 0.882339 0.123196
Si Si3 0.432823 0.347301 0.976297
Si Si4 0.813636 0.634100 0.167911
Si Si5 0.055286 0.239733 0.069098
Si Si6 0.780283 0.750000 0.250000
O O1 0.295583 0.916603 0.783647
O O2 0.093290 0.916299 0.960795
O O3 0.250000 0.000000 0.977154
O O4 0.338655 0.907796 0.086276
O O5 0.508661 0.875490 0.314729
O O6 0.480869 0.821833 0.054210
O O7 0.284670 0.367233 0.986753
O O8 0.437336 0.282383 0.945198
O O9 0.536151 0.359023 0.118227
O O10 0.750766 0.685309 0.265686
O O11 0.111125 0.250000 0.250000
O O12 0.145916 0.255399 0.921935
#
# Coordination Sequence:
#
# PCOD9408480 Si02
#       6
#     8   8   8   8   8   4
#     4  11  23  40  61  84 116 161 206 249 296 355
#     4  10  21  38  58  85 117 154 198 250 298 356
#     4   9  21  35  59  87 120 154 188 248 309 364
#     4  10  21  38  60  86 123 155 202 245 306 363
#     4   9  18  34  58  89 125 155 195 246 306 370
#     4  10  18  34  62  86 122 166 196 240 316 368
#
# _framework density 20.912696
#
# number of rings (size 3 to 8) (size 9 to 14) (size 15 to 20)
#    0.000    2.182    1.818    0.545    6.364    1.455 
#    0.000    4.545   18.000    0.000    0.000    0.000 
#    0.000    0.000    0.000    0.000    0.000    0.000 
#
# Total GULP energy -244936.820500 kJ/mol
# GULP energy per Si atom -5566.745920 kJ/mol
# Density = 2.086510 g / cm^3
# Si number density = 20.912696 Si / 1000 Ang^3
#
#
#
# Elastic Constant Matrix: (Units=GPa)
#
#
# Indices 1 2 3 4 5 6 
#
# 1 39.6576 16.9591 5.9781 0.0000 0.0000 0.0000
# 2 16.9591 102.3502 16.4649 0.0000 0.0000 0.0000
# 3 5.9781 16.4649 40.3898 0.0000 0.0000 0.0000
# 4 0.0000 0.0000 0.0000 18.7922 0.0000 0.0000
# 5 0.0000 0.0000 0.0000 0.0000 11.3663 0.0000
# 6 0.0000 0.0000 0.0000 0.0000 0.0000 19.1446
#
#
#
# Elastic Compliance Matrix: (Units=1/GPa)
#
#
# Indices 1 2 3 4 5 6 
#
# 1 0.027347 -0.004152 -0.002355 0.000000 0.000000 0.000000
# 2 -0.004152 0.011087 -0.003905 0.000000 0.000000 0.000000
# 3 -0.002355 -0.003905 0.026699 0.000000 0.000000 0.000000
# 4 0.000000 0.000000 0.000000 0.053214 0.000000 0.000000
# 5 0.000000 0.000000 0.000000 0.000000 0.087979 0.000000
# 6 0.000000 0.000000 0.000000 0.000000 0.000000 0.052234
#
#
# Mechanical properties :
#
#
# Convention : Reuss Voigt Hill
#
# Bulk Modulus (GPa) = 22.56929 29.02243 25.79586
# Shear Modulus (GPa) = 16.99797 19.39365 18.19581
#
# Velocity S-wave (km/s) = 2.85407 3.04857 2.95292
# Velocity P-wave (km/s) = 4.65581 5.12832 4.89777
#
# Compressibility (1/GPa) = 0.04430799
#
# Stress axis : x y z
#
# Youngs Moduli (GPa) = 36.56765 90.19912 37.45451
#
# Poissons Ratio (x) = 0.37454 0.08820
# Poissons Ratio (y) = 0.15184 0.14625
# Poissons Ratio (z) = 0.08611 0.35221
#
# Static dielectric constant tensor:
#      x y z
#    x 1.825320 0.000000 0.000000 
#    y 0.000000 1.758290 0.000000 
#    z 0.000000 0.000000 1.784160 
# 
# From -- ./inp_files/8813.got.cif
#   From: 2010.05.17/outbox.cif.g08.bks.cpg/sg52_5_cif.got.tgz:8813.got - 2010.06.03 12:15:38.
