data_PCOD9408981
_publ_section_title
;
Structure prediction by ZEFSAII (Michael W. Deem and Ramdas Pophale) SiO2 
 PCOD9408981
Probable space group: P N N A
;
_chemical_formula_sum "Si O2"
_cell_formula_units_Z 40
_cell_length_a 24.362243
_cell_length_b 9.162819
_cell_length_c 8.936686
_cell_angle_alpha 90.000000
_cell_angle_beta 90.000000
_cell_angle_gamma 90.000000
_cell_volume 1994.908024
_symmetry_space_group_name_H-M "P N N A"
_symmetry_group_IT_number 52
_symmetry_cell_setting 'orthorhombic'
loop_
_space_group_symop_operation_xyz
x,y,z
1/2-x,-y,z
x,1/2-y,1/2-z
1/2-x,1/2+y,1/2-z
-x,-y,-z
1/2+x,y,-z
-x,1/2+y,1/2+z
1/2+x,1/2-y,1/2+z
loop_
_atom_site_type_symbol
_atom_site_label
_atom_site_fract_x
_atom_site_fract_y
_atom_site_fract_z
Si Si1 0.257673 0.270600 0.073153
Si Si2 0.050495 0.587876 0.572018
Si Si3 0.050830 0.921998 0.571234
Si Si4 0.829862 0.400282 0.353295
Si Si5 0.828575 0.537866 0.050261
O O1 0.256299 0.250000 0.250000
O O2 0.284757 0.143528 0.974146
O O3 0.197834 0.314900 0.011435
O O4 0.297537 0.407711 0.036757
O O5 0.051358 0.755005 0.517464
O O6 0.042605 0.582189 0.750613
O O7 0.115095 0.546247 0.561935
O O8 0.000000 0.500000 0.500000
O O9 0.106986 0.007638 0.536122
O O10 0.000000 0.000000 0.500000
O O11 0.841493 0.250000 0.250000
O O12 0.814842 0.516049 0.225794
#
# Coordination Sequence:
#
# PCOD9408981 Si02
#       5
#     8   8   8   8   8
#     4  10  19  34  63  93 120 154 210 267 312 368
#     4  10  19  36  62  94 116 156 217 248 303 386
#     4  10  20  39  62  86 127 163 196 262 316 368
#     4   9  16  38  65  82 120 166 203 251 315 384
#     4   9  19  39  62  83 118 166 210 243 316 397
#
# _framework density 20.051048999999999
#
# number of rings (size 3 to 8) (size 9 to 14) (size 15 to 20)
#    0.000    2.400    6.000    0.000    0.000    2.400 
#    3.600   12.000   48.400    0.000    0.000    0.000 
#    0.000    0.000    0.000    0.000    0.000    0.000 
#
# Total GULP energy -223008.396473 kJ/mol
# GULP energy per Si atom -5575.209912 kJ/mol
# Density = 2.000541 g / cm^3
# Si number density = 20.051049 Si / 1000 Ang^3
#
#
#
# Elastic Constant Matrix: (Units=GPa)
#
#
# Indices 1 2 3 4 5 6 
#
# 1 183.0445 63.6591 82.0013 0.0000 0.0000 0.0000
# 2 63.6591 36.1385 50.6394 0.0000 0.0000 0.0000
# 3 82.0013 50.6394 109.7067 0.0000 0.0000 0.0000
# 4 0.0000 0.0000 0.0000 21.6383 0.0000 0.0000
# 5 0.0000 0.0000 0.0000 0.0000 39.7274 0.0000
# 6 0.0000 0.0000 0.0000 0.0000 0.0000 41.9353
#
#
#
# Elastic Compliance Matrix: (Units=1/GPa)
#
#
# Indices 1 2 3 4 5 6 
#
# 1 0.014374 -0.029064 0.002672 0.000000 0.000000 0.000000
# 2 -0.029064 0.137113 -0.041565 0.000000 0.000000 0.000000
# 3 0.002672 -0.041565 0.026304 0.000000 0.000000 0.000000
# 4 0.000000 0.000000 0.000000 0.046214 0.000000 0.000000
# 5 0.000000 0.000000 0.000000 0.000000 0.025172 0.000000
# 6 0.000000 0.000000 0.000000 0.000000 0.000000 0.023846
#
#
# Mechanical properties :
#
#
# Convention : Reuss Voigt Hill
#
# Bulk Modulus (GPa) = 23.88040 80.16545 52.02292
# Shear Modulus (GPa) = 11.82318 29.49955 20.66136
#
# Velocity S-wave (km/s) = 2.43091 3.83981 3.21353
# Velocity P-wave (km/s) = 4.45138 7.72828 6.30639
#
# Compressibility (1/GPa) = 0.04187534
#
# Stress axis : x y z
#
# Youngs Moduli (GPa) = 69.56862 7.29327 38.01646
#
# Poissons Ratio (x) = 0.21197 -0.10156
# Poissons Ratio (y) = 2.02196 1.58016
# Poissons Ratio (z) = -0.18586 0.30315
#
# Static dielectric constant tensor:
#      x y z
#    x 1.736300 0.000000 0.000000 
#    y 0.000000 1.831930 0.000000 
#    z 0.000000 0.000000 1.692510 
# 
# From -- ./inp_files/13991.got.cif
#   From: 2010.05.17/outbox.cif.g08.bks.cpg/sg52_7_cif.got.tgz:13991.got - 2010.06.03 12:15:38.
