data_PCOD9408279
_publ_section_title
;
Structure prediction by ZEFSAII (Michael W. Deem and Ramdas Pophale) SiO2 
 PCOD9408279
Probable space group: P N N A
;
_chemical_formula_sum "Si O2"
_cell_formula_units_Z 44
_cell_length_a 10.423840
_cell_length_b 12.320976
_cell_length_c 16.720543
_cell_angle_alpha 90.000000
_cell_angle_beta 90.000000
_cell_angle_gamma 90.000000
_cell_volume 2147.450813
_symmetry_space_group_name_H-M "P N N A"
_symmetry_group_IT_number 52
_symmetry_cell_setting 'orthorhombic'
loop_
_space_group_symop_operation_xyz
x,y,z
1/2-x,-y,z
x,1/2-y,1/2-z
1/2-x,1/2+y,1/2-z
-x,-y,-z
1/2+x,y,-z
-x,1/2+y,1/2+z
1/2+x,1/2-y,1/2+z
loop_
_atom_site_type_symbol
_atom_site_label
_atom_site_fract_x
_atom_site_fract_y
_atom_site_fract_z
Si Si1 0.497275 0.123328 0.737054
Si Si2 0.065582 0.082400 0.098680
Si Si3 0.648401 0.413949 0.431706
Si Si4 0.478074 0.322448 0.939478
Si Si5 0.750000 0.500000 0.208855
Si Si6 0.316462 0.830879 0.577132
O O1 0.471611 0.250000 0.750000
O O2 0.595999 0.089417 0.807037
O O3 0.522951 0.117063 0.642123
O O4 0.366705 0.058322 0.752644
O O5 0.988476 0.971041 0.083330
O O6 0.984271 0.192420 0.078930
O O7 0.168476 0.095204 0.028191
O O8 0.750000 0.500000 0.402301
O O9 0.664043 0.294438 0.397318
O O10 0.328730 0.345837 0.956152
O O11 0.574012 0.350808 0.011198
O O12 0.682503 0.410454 0.152180
#
# Coordination Sequence:
#
# PCOD9408279 Si02
#       6
#     8   8   8   8   4   8
#     4   9  19  33  51  75 105 139 177 215 267 324
#     4   9  18  31  52  82 104 135 177 224 269 319
#     4  10  18  31  55  80 104 138 176 226 268 311
#     4   9  18  34  55  79 104 143 178 221 265 318
#     4  10  22  34  54  82 108 140 178 230 266 314
#     4  10  20  34  53  82 108 138 184 221 262 320
#
# _framework density 20.489411
#
# number of rings (size 3 to 8) (size 9 to 14) (size 15 to 20)
#    0.000    2.545    1.818    0.000    1.273    2.909 
#    0.000    0.000    6.000    0.000    0.000    0.000 
#    0.000    0.000    0.000    0.000    0.000    0.000 
#
# Total GULP energy -245019.260771 kJ/mol
# GULP energy per Si atom -5568.619563 kJ/mol
# Density = 2.044278 g / cm^3
# Si number density = 20.489411 Si / 1000 Ang^3
#
#
#
# Elastic Constant Matrix: (Units=GPa)
#
#
# Indices 1 2 3 4 5 6 
#
# 1 30.1898 -0.9651 12.1721 0.0000 0.0000 0.0000
# 2 -0.9651 77.4597 30.7486 0.0000 0.0000 0.0000
# 3 12.1721 30.7486 82.3670 0.0000 0.0000 0.0000
# 4 0.0000 0.0000 0.0000 5.1135 0.0000 0.0000
# 5 0.0000 0.0000 0.0000 0.0000 15.0027 0.0000
# 6 0.0000 0.0000 0.0000 0.0000 0.0000 22.9872
#
#
#
# Elastic Compliance Matrix: (Units=1/GPa)
#
#
# Indices 1 2 3 4 5 6 
#
# 1 0.035802 0.002989 -0.006407 0.000000 0.000000 0.000000
# 2 0.002989 0.015406 -0.006193 0.000000 0.000000 0.000000
# 3 -0.006407 -0.006193 0.015399 0.000000 0.000000 0.000000
# 4 0.000000 0.000000 0.000000 0.195560 0.000000 0.000000
# 5 0.000000 0.000000 0.000000 0.000000 0.066655 0.000000
# 6 0.000000 0.000000 0.000000 0.000000 0.000000 0.043502
#
#
# Mechanical properties :
#
#
# Convention : Reuss Voigt Hill
#
# Bulk Modulus (GPa) = 21.10292 30.43642 25.76967
# Shear Modulus (GPa) = 12.27474 18.49141 15.38307
#
# Velocity S-wave (km/s) = 2.45026 3.00740 2.74301
# Velocity P-wave (km/s) = 4.28098 5.19098 4.75779
#
# Compressibility (1/GPa) = 0.04738681
#
# Stress axis : x y z
#
# Youngs Moduli (GPa) = 27.93107 64.91184 64.93749
#
# Poissons Ratio (x) = -0.19404 0.41604
# Poissons Ratio (y) = -0.08350 0.40215
# Poissons Ratio (z) = 0.17895 0.40199
#
# Static dielectric constant tensor:
#      x y z
#    x 1.744260 0.000000 0.000000 
#    y 0.000000 1.761880 0.000000 
#    z 0.000000 0.000000 1.817710 
# 
# From -- ./inp_files/26021.got.cif
#   From: 2010.05.17/outbox.cif.g08.bks.cpg/sg52_14_cif.got.tgz:26021.got - 2010.06.03 12:15:38.
