data_PCOD9408851
_publ_section_title
;
Structure prediction by ZEFSAII (Michael W. Deem and Ramdas Pophale) SiO2 
 PCOD9408851
Probable space group: P N N A
;
_chemical_formula_sum "Si O2"
_cell_formula_units_Z 32
_cell_length_a 21.933797
_cell_length_b 4.935321
_cell_length_c 13.888154
_cell_angle_alpha 90.000000
_cell_angle_beta 90.000000
_cell_angle_gamma 90.000000
_cell_volume 1503.397239
_symmetry_space_group_name_H-M "P N N A"
_symmetry_group_IT_number 52
_symmetry_cell_setting 'orthorhombic'
loop_
_space_group_symop_operation_xyz
x,y,z
1/2-x,-y,z
x,1/2-y,1/2-z
1/2-x,1/2+y,1/2-z
-x,-y,-z
1/2+x,y,-z
-x,1/2+y,1/2+z
1/2+x,1/2-y,1/2+z
loop_
_atom_site_type_symbol
_atom_site_label
_atom_site_fract_x
_atom_site_fract_y
_atom_site_fract_z
Si Si1 0.583447 0.776475 0.138963
Si Si2 0.126044 0.806044 0.057657
Si Si3 0.499320 0.771064 0.638826
Si Si4 0.808508 0.671355 0.860823
O O1 0.603684 0.750000 0.250000
O O2 0.525951 0.573321 0.123253
O O3 0.559329 0.080663 0.127405
O O4 0.631591 0.725982 0.054267
O O5 0.139551 0.552171 0.126596
O O6 0.054123 0.845657 0.075752
O O7 0.168641 0.058508 0.085678
O O8 0.519007 0.750000 0.750000
O O9 0.750000 0.500000 0.897004
O O10 0.797694 0.750000 0.750000
#
# Coordination Sequence:
#
# PCOD9408851 Si02
#       4
#     8   8   8   8
#     4  10  21  36  56  87 126 160 194 237 281 343
#     4  12  22  37  62  87 117 160 199 234 293 357
#     4  10  19  33  54  86 125 160 194 233 284 349
#     4  12  25  42  61  86 115 146 192 252 308 355
#
# _framework density 21.285125000000001
#
# number of rings (size 3 to 8) (size 9 to 14) (size 15 to 20)
#    0.000    1.000    0.000    9.000    0.000    2.000 
#    0.000    0.000    0.000    3.000    0.000    1.750 
#    0.000    0.000    0.000    0.000    0.000    0.000 
#
# Total GULP energy -178668.217203 kJ/mol
# GULP energy per Si atom -5583.381788 kJ/mol
# Density = 2.123668 g / cm^3
# Si number density = 21.285125 Si / 1000 Ang^3
#
#
#
# Elastic Constant Matrix: (Units=GPa)
#
#
# Indices 1 2 3 4 5 6 
#
# 1 36.5544 18.1883 33.3969 0.0000 0.0000 0.0000
# 2 18.1883 114.2037 30.1550 0.0000 0.0000 0.0000
# 3 33.3969 30.1550 102.9304 0.0000 0.0000 0.0000
# 4 0.0000 0.0000 0.0000 21.4286 0.0000 0.0000
# 5 0.0000 0.0000 0.0000 0.0000 13.9868 0.0000
# 6 0.0000 0.0000 0.0000 0.0000 0.0000 17.1824
#
#
#
# Elastic Compliance Matrix: (Units=1/GPa)
#
#
# Indices 1 2 3 4 5 6 
#
# 1 0.039923 -0.003184 -0.012021 0.000000 0.000000 0.000000
# 2 -0.003184 0.009744 -0.001822 0.000000 0.000000 0.000000
# 3 -0.012021 -0.001822 0.014149 0.000000 0.000000 0.000000
# 4 0.000000 0.000000 0.000000 0.046667 0.000000 0.000000
# 5 0.000000 0.000000 0.000000 0.000000 0.071496 0.000000
# 6 0.000000 0.000000 0.000000 0.000000 0.000000 0.058199
#
#
# Mechanical properties :
#
#
# Convention : Reuss Voigt Hill
#
# Bulk Modulus (GPa) = 33.59783 46.35209 39.97496
# Shear Modulus (GPa) = 17.59616 21.98278 19.78947
#
# Velocity S-wave (km/s) = 2.87834 3.21717 3.05246
# Velocity P-wave (km/s) = 5.18318 5.96861 5.58971
#
# Compressibility (1/GPa) = 0.02976382
#
# Stress axis : x y z
#
# Youngs Moduli (GPa) = 25.04806 102.62308 70.67537
#
# Poissons Ratio (x) = 0.32678 0.84957
# Poissons Ratio (y) = 0.07976 0.12874
# Poissons Ratio (z) = 0.30109 0.18694
#
# Static dielectric constant tensor:
#      x y z
#    x 1.825180 0.000000 0.000000 
#    y 0.000000 1.780340 0.000000 
#    z 0.000000 0.000000 1.846040 
# 
# From -- ./inp_files/27705.got.cif
#   From: 2010.05.17/outbox.cif.g08.bks.cpg/sg52_14_cif.got.tgz:27705.got - 2010.06.03 12:15:38.
