data_PCOD9408079
_publ_section_title
;
Structure prediction by ZEFSAII (Michael W. Deem and Ramdas Pophale) SiO2 
 PCOD9408079
Probable space group: P N N A
;
_chemical_formula_sum "Si O2"
_cell_formula_units_Z 40
_cell_length_a 9.725130
_cell_length_b 8.559394
_cell_length_c 24.306810
_cell_angle_alpha 90.000000
_cell_angle_beta 90.000000
_cell_angle_gamma 90.000000
_cell_volume 2023.328503
_symmetry_space_group_name_H-M "P N N A"
_symmetry_group_IT_number 52
_symmetry_cell_setting 'orthorhombic'
loop_
_space_group_symop_operation_xyz
x,y,z
1/2-x,-y,z
x,1/2-y,1/2-z
1/2-x,1/2+y,1/2-z
-x,-y,-z
1/2+x,y,-z
-x,1/2+y,1/2+z
1/2+x,1/2-y,1/2+z
loop_
_atom_site_type_symbol
_atom_site_label
_atom_site_fract_x
_atom_site_fract_y
_atom_site_fract_z
Si Si1 0.544689 0.375604 0.881535
Si Si2 0.883560 0.089708 0.273157
Si Si3 0.347621 0.270846 0.099041
Si Si4 0.878933 0.117303 0.483844
Si Si5 0.609367 0.899791 0.790727
O O1 0.488647 0.364218 0.820784
O O2 0.586815 0.558111 0.889080
O O3 0.684412 0.281864 0.890867
O O4 0.427258 0.324007 0.924519
O O5 0.826854 0.250000 0.250000
O O6 0.750000 0.000000 0.294826
O O7 0.974811 0.993243 0.229562
O O8 0.404128 0.155260 0.145631
O O9 0.365965 0.256561 0.032954
O O10 0.750000 0.000000 0.481495
O O11 0.000000 0.000000 0.500000
O O12 0.622212 0.750000 0.750000
O O13 0.750000 0.000000 0.785070
#
# Coordination Sequence:
#
# PCOD9408079 Si02
#       5
#     8   8   8   8   8
#     4  10  19  36  60  91 123 161 210 268 304 369
#     4  12  26  43  61  92 129 165 210 262 325 385
#     4  10  19  34  59  91 122 153 210 260 313 364
#     4  10  17  32  56  91 121 158 209 267 306 362
#     4  12  23  39  65  90 123 168 214 263 316 380
#
# _framework density 19.769404000000002
#
# number of rings (size 3 to 8) (size 9 to 14) (size 15 to 20)
#    0.000    1.200    6.000    4.200    0.000    0.000 
#    0.000    0.000    0.000    6.000    0.000    0.000 
#    0.000    0.000    0.000    0.000    0.000    0.000 
#
# Total GULP energy -223080.339995 kJ/mol
# GULP energy per Si atom -5577.008500 kJ/mol
# Density = 1.972441 g / cm^3
# Si number density = 19.769404 Si / 1000 Ang^3
#
#
#
# Elastic Constant Matrix: (Units=GPa)
#
#
# Indices 1 2 3 4 5 6 
#
# 1 76.2470 -1.9316 18.8839 0.0000 0.0000 0.0000
# 2 -1.9316 36.1800 18.2792 0.0000 0.0000 0.0000
# 3 18.8839 18.2792 123.8998 0.0000 0.0000 0.0000
# 4 0.0000 0.0000 0.0000 15.3462 0.0000 0.0000
# 5 0.0000 0.0000 0.0000 0.0000 35.4367 0.0000
# 6 0.0000 0.0000 0.0000 0.0000 0.0000 16.7656
#
#
#
# Elastic Compliance Matrix: (Units=1/GPa)
#
#
# Indices 1 2 3 4 5 6 
#
# 1 0.013754 0.001938 -0.002382 0.000000 0.000000 0.000000
# 2 0.001938 0.030139 -0.004742 0.000000 0.000000 0.000000
# 3 -0.002382 -0.004742 0.009134 0.000000 0.000000 0.000000
# 4 0.000000 0.000000 0.000000 0.065163 0.000000 0.000000
# 5 0.000000 0.000000 0.000000 0.000000 0.028219 0.000000
# 6 0.000000 0.000000 0.000000 0.000000 0.000000 0.059646
#
#
# Mechanical properties :
#
#
# Convention : Reuss Voigt Hill
#
# Bulk Modulus (GPa) = 23.44418 34.08776 28.76597
# Shear Modulus (GPa) = 21.67832 26.91607 24.29720
#
# Velocity S-wave (km/s) = 3.31503 3.69386 3.50956
# Velocity P-wave (km/s) = 5.15142 5.95591 5.56821
#
# Compressibility (1/GPa) = 0.04265450
#
# Stress axis : x y z
#
# Youngs Moduli (GPa) = 72.70422 33.17994 109.48487
#
# Poissons Ratio (x) = -0.06430 0.26082
# Poissons Ratio (y) = -0.14089 0.51915
# Poissons Ratio (z) = 0.17320 0.15733
#
# Static dielectric constant tensor:
#      x y z
#    x 1.667890 0.000000 0.000000 
#    y 0.000000 1.692440 0.000000 
#    z 0.000000 0.000000 1.778090 
# 
# From -- ./inp_files/39219.got.cif
#   From: 2010.05.17/outbox.cif.g08.bks.cpg/sg52_20_cif.got.tgz:39219.got - 2010.06.03 12:15:38.
