data_PCOD9408703
_publ_section_title
;
Structure prediction by ZEFSAII (Michael W. Deem and Ramdas Pophale) SiO2 
 PCOD9408703
Probable space group: P N N A
;
_chemical_formula_sum "Si O2"
_cell_formula_units_Z 60
_cell_length_a 10.888866
_cell_length_b 9.266261
_cell_length_c 28.515862
_cell_angle_alpha 90.000000
_cell_angle_beta 90.000000
_cell_angle_gamma 90.000000
_cell_volume 2877.224080
_symmetry_space_group_name_H-M "P N N A"
_symmetry_group_IT_number 52
_symmetry_cell_setting 'orthorhombic'
loop_
_space_group_symop_operation_xyz
x,y,z
1/2-x,-y,z
x,1/2-y,1/2-z
1/2-x,1/2+y,1/2-z
-x,-y,-z
1/2+x,y,-z
-x,1/2+y,1/2+z
1/2+x,1/2-y,1/2+z
loop_
_atom_site_type_symbol
_atom_site_label
_atom_site_fract_x
_atom_site_fract_y
_atom_site_fract_z
Si Si1 0.824021 0.645017 0.844959
Si Si2 0.242778 0.175455 0.956528
Si Si3 0.807258 0.250000 0.750000
Si Si4 0.542233 0.929964 0.815858
Si Si5 0.015404 0.827354 0.007668
Si Si6 0.707714 0.168814 0.151191
Si Si7 0.192356 0.644061 0.408253
Si Si8 0.448559 0.247618 0.694379
O O1 0.750000 0.500000 0.853194
O O2 0.770466 0.708244 0.795691
O O3 0.794727 0.745513 0.889740
O O4 0.967275 0.633846 0.833080
O O5 0.208948 0.212071 0.903122
O O6 0.126216 0.225246 0.988383
O O7 0.250000 0.000000 0.958506
O O8 0.380477 0.225166 0.970762
O O9 0.890169 0.116857 0.768279
O O10 0.423852 0.830305 0.824384
O O11 0.628950 0.903939 0.860035
O O12 0.502823 0.095280 0.818756
O O13 0.087438 0.801750 0.056731
O O14 0.000000 0.000000 0.000000
O O15 0.808740 0.259115 0.178597
O O16 0.750000 0.000000 0.152541
O O17 0.250000 0.500000 0.430442
O O18 0.456448 0.250000 0.750000
#
# Coordination Sequence:
#
# PCOD9408703 Si02
#       8
#     8   8   4   8   8   8   8   8
#     4  11  23  37  56  83 120 153 195 247 299 355
#     4   9  17  30  48  77 117 148 176 229 293 347
#     4  10  22  32  58  74 112 154 196 238 300 336
#     4  10  20  36  53  79 115 150 196 245 291 349
#     4  10  19  30  52  87 122 148 185 238 296 360
#     4   9  19  33  51  75 111 151 184 236 294 344
#     4  11  20  34  58  87 113 153 194 241 298 355
#     4  11  21  34  56  77 113 152 204 240 293 352
#
# _framework density 20.853432000000002
#
# number of rings (size 3 to 8) (size 9 to 14) (size 15 to 20)
#    0.000    1.867    3.333    2.000    2.800    1.067 
#    0.000    0.000    0.000    0.000    0.000    8.400 
#    0.000    0.000    0.000    0.000    0.000    0.000 
#
# Total GULP energy -334658.070997 kJ/mol
# GULP energy per Si atom -5577.634517 kJ/mol
# Density = 2.080597 g / cm^3
# Si number density = 20.853432 Si / 1000 Ang^3
#
#
#
# Elastic Constant Matrix: (Units=GPa)
#
#
# Indices 1 2 3 4 5 6 
#
# 1 125.5373 2.0280 11.9777 0.0000 0.0000 0.0000
# 2 2.0280 15.6119 -4.3899 0.0000 0.0000 0.0000
# 3 11.9777 -4.3899 63.3975 0.0000 0.0000 0.0000
# 4 0.0000 0.0000 0.0000 8.1793 0.0000 0.0000
# 5 0.0000 0.0000 0.0000 0.0000 70.5823 0.0000
# 6 0.0000 0.0000 0.0000 0.0000 0.0000 17.0679
#
#
#
# Elastic Compliance Matrix: (Units=1/GPa)
#
#
# Indices 1 2 3 4 5 6 
#
# 1 0.008147 -0.001521 -0.001645 0.000000 0.000000 0.000000
# 2 -0.001521 0.065609 0.004830 0.000000 0.000000 0.000000
# 3 -0.001645 0.004830 0.016419 0.000000 0.000000 0.000000
# 4 0.000000 0.000000 0.000000 0.122259 0.000000 0.000000
# 5 0.000000 0.000000 0.000000 0.000000 0.014168 0.000000
# 6 0.000000 0.000000 0.000000 0.000000 0.000000 0.058590
#
#
# Mechanical properties :
#
#
# Convention : Reuss Voigt Hill
#
# Bulk Modulus (GPa) = 10.69457 24.86426 17.77941
# Shear Modulus (GPa) = 15.97288 32.16130 24.06709
#
# Velocity S-wave (km/s) = 2.77060 3.93142 3.40090
# Velocity P-wave (km/s) = 3.92104 5.70590 4.89550
#
# Compressibility (1/GPa) = 0.09350536
#
# Stress axis : x y z
#
# Youngs Moduli (GPa) = 122.74098 15.24173 60.90627
#
# Poissons Ratio (x) = 0.02318 0.10016
# Poissons Ratio (y) = 0.18666 -0.29420
# Poissons Ratio (z) = 0.20186 -0.07362
#
# Static dielectric constant tensor:
#      x y z
#    x 1.796610 0.000000 0.000000 
#    y 0.000000 1.772280 0.000000 
#    z 0.000000 0.000000 1.739820 
# 
# From -- ./inp_files/44817.got.cif
#   From: 2010.05.17/outbox.cif.g08.bks.cpg/sg52_23_cif.got.tgz:44817.got - 2010.06.03 12:15:38.
