data_PCOD9408217
_publ_section_title
;
Structure prediction by ZEFSAII (Michael W. Deem and Ramdas Pophale) SiO2 
 PCOD9408217
Probable space group: P N N A
;
_chemical_formula_sum "Si O2"
_cell_formula_units_Z 40
_cell_length_a 8.122888
_cell_length_b 16.786125
_cell_length_c 15.996746
_cell_angle_alpha 90.000000
_cell_angle_beta 90.000000
_cell_angle_gamma 90.000000
_cell_volume 2181.185324
_symmetry_space_group_name_H-M "P N N A"
_symmetry_group_IT_number 52
_symmetry_cell_setting 'orthorhombic'
loop_
_space_group_symop_operation_xyz
x,y,z
1/2-x,-y,z
x,1/2-y,1/2-z
1/2-x,1/2+y,1/2-z
-x,-y,-z
1/2+x,y,-z
-x,1/2+y,1/2+z
1/2+x,1/2-y,1/2+z
loop_
_atom_site_type_symbol
_atom_site_label
_atom_site_fract_x
_atom_site_fract_y
_atom_site_fract_z
Si Si1 0.820017 0.766037 0.527940
Si Si2 0.052940 0.493488 0.403943
Si Si3 0.884769 0.325361 0.398156
Si Si4 0.527490 0.690725 0.874252
Si Si5 0.933342 0.854122 0.196325
O O1 0.723792 0.690094 0.484033
O O2 0.699366 0.821959 0.579901
O O3 0.969340 0.737306 0.586193
O O4 0.892146 0.810024 0.446870
O O5 0.250000 0.500000 0.394776
O O6 0.000000 0.500000 0.500000
O O7 0.977628 0.407966 0.382334
O O8 0.968516 0.564449 0.351843
O O9 0.750174 0.322426 0.324683
O O10 0.541739 0.782621 0.842331
O O11 0.476010 0.640955 0.793751
#
# Coordination Sequence:
#
# PCOD9408217 Si02
#       5
#     8   8   8   8   8
#     4   9  17  33  55  74 100 137 174 208 254 311
#     4  12  21  31  48  73 104 140 171 203 255 316
#     4  10  18  30  50  76 100 132 169 207 254 306
#     4   9  18  34  50  74 104 134 173 215 257 306
#     4  10  20  32  48  74 109 138 167 215 258 308
#
# _framework density 18.338652
#
# number of rings (size 3 to 8) (size 9 to 14) (size 15 to 20)
#    0.000    2.000    0.000    7.800    0.000    0.000 
#    0.000   22.000    0.000    0.000    0.000    9.800 
#    0.000    0.000    0.000    0.000    0.000    0.000 
#
# Total GULP energy -222746.021481 kJ/mol
# GULP energy per Si atom -5568.650537 kJ/mol
# Density = 1.829691 g / cm^3
# Si number density = 18.338652 Si / 1000 Ang^3
#
#
#
# Elastic Constant Matrix: (Units=GPa)
#
#
# Indices 1 2 3 4 5 6 
#
# 1 115.2942 12.7808 61.3350 0.0000 0.0000 0.0000
# 2 12.7808 32.2791 35.4649 0.0000 0.0000 0.0000
# 3 61.3350 35.4649 142.8495 0.0000 0.0000 0.0000
# 4 0.0000 0.0000 0.0000 27.6234 0.0000 0.0000
# 5 0.0000 0.0000 0.0000 0.0000 8.7878 0.0000
# 6 0.0000 0.0000 0.0000 0.0000 0.0000 10.9882
#
#
#
# Elastic Compliance Matrix: (Units=1/GPa)
#
#
# Indices 1 2 3 4 5 6 
#
# 1 0.011273 0.001175 -0.005132 0.000000 0.000000 0.000000
# 2 0.001175 0.042722 -0.011111 0.000000 0.000000 0.000000
# 3 -0.005132 -0.011111 0.011962 0.000000 0.000000 0.000000
# 4 0.000000 0.000000 0.000000 0.036201 0.000000 0.000000
# 5 0.000000 0.000000 0.000000 0.000000 0.113794 0.000000
# 6 0.000000 0.000000 0.000000 0.000000 0.000000 0.091007
#
#
# Mechanical properties :
#
#
# Convention : Reuss Voigt Hill
#
# Bulk Modulus (GPa) = 27.91602 56.62045 42.26824
# Shear Modulus (GPa) = 14.32512 21.53602 17.93057
#
# Velocity S-wave (km/s) = 2.79793 3.43060 3.13029
# Velocity P-wave (km/s) = 5.06887 6.82891 6.01362
#
# Compressibility (1/GPa) = 0.03582172
#
# Stress axis : x y z
#
# Youngs Moduli (GPa) = 88.70397 23.40701 83.59472
#
# Poissons Ratio (x) = -0.02750 0.42902
# Poissons Ratio (y) = -0.10423 0.92883
# Poissons Ratio (z) = 0.45524 0.26008
#
# Static dielectric constant tensor:
#      x y z
#    x 1.708910 0.000000 0.000000 
#    y 0.000000 1.668980 0.000000 
#    z 0.000000 0.000000 1.662070 
# 
# From -- ./inp_files/24432.got.cif
#   From: 2010.05.17/outbox.cif.g08.bks.cpg/sg52_13_cif.got.tgz:24432.got - 2010.06.03 12:15:38.
