data_PCOD9408561
_publ_section_title
;
Structure prediction by ZEFSAII (Michael W. Deem and Ramdas Pophale) SiO2 
 PCOD9408561
Probable space group: P N N A
;
_chemical_formula_sum "Si O2"
_cell_formula_units_Z 40
_cell_length_a 22.994645
_cell_length_b 14.139201
_cell_length_c 5.604340
_cell_angle_alpha 90.000000
_cell_angle_beta 90.000000
_cell_angle_gamma 90.000000
_cell_volume 1822.116129
_symmetry_space_group_name_H-M "P N N A"
_symmetry_group_IT_number 52
_symmetry_cell_setting 'orthorhombic'
loop_
_space_group_symop_operation_xyz
x,y,z
1/2-x,-y,z
x,1/2-y,1/2-z
1/2-x,1/2+y,1/2-z
-x,-y,-z
1/2+x,y,-z
-x,1/2+y,1/2+z
1/2+x,1/2-y,1/2+z
loop_
_atom_site_type_symbol
_atom_site_label
_atom_site_fract_x
_atom_site_fract_y
_atom_site_fract_z
Si Si1 0.571041 0.106537 0.564379
Si Si2 0.344261 0.573551 0.455597
Si Si3 0.955771 0.196335 0.493224
Si Si4 0.643023 0.933342 0.340224
Si Si5 0.138055 0.250000 0.750000
Si Si6 0.250000 0.500000 0.110600
O O1 0.593619 0.097187 0.834836
O O2 0.503650 0.113101 0.500301
O O3 0.598634 0.201306 0.451976
O O4 0.603685 0.019407 0.440876
O O5 0.349802 0.468640 0.569186
O O6 0.329821 0.659726 0.634387
O O7 0.292586 0.565030 0.266618
O O8 0.975292 0.250000 0.250000
O O9 0.892429 0.157534 0.421242
O O10 0.955684 0.250000 0.750000
O O11 0.706607 0.938213 0.452121
#
# Coordination Sequence:
#
# PCOD9408561 Si02
#       6
#     8   8   8   8   4   4
#     4  10  21  40  68  97 136 170 223 274 339 411
#     4  10  21  38  69  94 131 172 230 282 343 402
#     4  12  27  44  69 103 147 179 219 281 348 422
#     4  10  24  43  68  95 129 181 232 280 340 409
#     4  10  18  36  62 104 124 164 218 282 332 406
#     4  10  22  44  66  86 130 178 230 284 328 404
#
# _framework density 21.952499
#
# number of rings (size 3 to 8) (size 9 to 14) (size 15 to 20)
#    0.000    1.600    1.000    3.000    8.400    0.800 
#    0.000    8.000    8.800    0.000    0.000    0.000 
#    0.000    0.000    0.000    0.000    0.000    0.000 
#
# Total GULP energy -222966.102415 kJ/mol
# GULP energy per Si atom -5574.152560 kJ/mol
# Density = 2.190253 g / cm^3
# Si number density = 21.952499 Si / 1000 Ang^3
#
#
#
# Elastic Constant Matrix: (Units=GPa)
#
#
# Indices 1 2 3 4 5 6 
#
# 1 131.6860 15.4215 38.0267 0.0000 0.0000 0.0000
# 2 15.4215 46.1638 27.1330 0.0000 0.0000 0.0000
# 3 38.0267 27.1330 108.0392 0.0000 0.0000 0.0000
# 4 0.0000 0.0000 0.0000 9.9863 0.0000 0.0000
# 5 0.0000 0.0000 0.0000 0.0000 57.9345 0.0000
# 6 0.0000 0.0000 0.0000 0.0000 0.0000 26.8001
#
#
#
# Elastic Compliance Matrix: (Units=1/GPa)
#
#
# Indices 1 2 3 4 5 6 
#
# 1 0.008516 -0.001271 -0.002678 0.000000 0.000000 0.000000
# 2 -0.001271 0.025603 -0.005983 0.000000 0.000000 0.000000
# 3 -0.002678 -0.005983 0.011701 0.000000 0.000000 0.000000
# 4 0.000000 0.000000 0.000000 0.100137 0.000000 0.000000
# 5 0.000000 0.000000 0.000000 0.000000 0.017261 0.000000
# 6 0.000000 0.000000 0.000000 0.000000 0.000000 0.037313
#
#
# Mechanical properties :
#
#
# Convention : Reuss Voigt Hill
#
# Bulk Modulus (GPa) = 38.52575 49.67237 44.09906
# Shear Modulus (GPa) = 21.82962 32.63138 27.23050
#
# Velocity S-wave (km/s) = 3.15684 3.85964 3.52579
# Velocity P-wave (km/s) = 5.55654 6.52217 6.05863
#
# Compressibility (1/GPa) = 0.02595666
#
# Stress axis : x y z
#
# Youngs Moduli (GPa) = 117.42556 39.05820 85.46238
#
# Poissons Ratio (x) = 0.04963 0.22889
# Poissons Ratio (y) = 0.14921 0.51129
# Poissons Ratio (z) = 0.31450 0.23367
#
# Static dielectric constant tensor:
#      x y z
#    x 1.806370 0.000000 0.000000 
#    y 0.000000 1.861020 0.000000 
#    z 0.000000 0.000000 1.937210 
# 
# From -- ./inp_files/5063.got.cif
#   From: 2010.05.17/outbox.cif.g08.bks.cpg/sg52_3_cif.got.tgz:5063.got - 2010.06.03 12:15:38.
