data_PCOD9408195
_publ_section_title
;
Structure prediction by ZEFSAII (Michael W. Deem and Ramdas Pophale) SiO2 
 PCOD9408195
Probable space group: P N N A
;
_chemical_formula_sum "Si O2"
_cell_formula_units_Z 44
_cell_length_a 10.441402
_cell_length_b 9.600200
_cell_length_c 25.855549
_cell_angle_alpha 90.000000
_cell_angle_beta 90.000000
_cell_angle_gamma 90.000000
_cell_volume 2591.748532
_symmetry_space_group_name_H-M "P N N A"
_symmetry_group_IT_number 52
_symmetry_cell_setting 'orthorhombic'
loop_
_space_group_symop_operation_xyz
x,y,z
1/2-x,-y,z
x,1/2-y,1/2-z
1/2-x,1/2+y,1/2-z
-x,-y,-z
1/2+x,y,-z
-x,1/2+y,1/2+z
1/2+x,1/2-y,1/2+z
loop_
_atom_site_type_symbol
_atom_site_label
_atom_site_fract_x
_atom_site_fract_y
_atom_site_fract_z
Si Si1 0.435209 0.250000 0.250000
Si Si2 0.764701 0.168739 0.652598
Si Si3 0.400441 0.027815 0.758238
Si Si4 0.619805 0.588939 0.064981
Si Si5 0.472169 0.265660 0.834943
Si Si6 0.128717 0.895657 0.450319
O O1 0.346192 0.221282 0.299316
O O2 0.522930 0.115717 0.240546
O O3 0.623296 0.232113 0.653745
O O4 0.836014 0.199245 0.598418
O O5 0.750000 0.000000 0.656614
O O6 0.430023 0.122795 0.808096
O O7 0.444599 0.115434 0.708013
O O8 0.250000 0.000000 0.754496
O O9 0.750000 0.500000 0.070806
O O10 0.600649 0.692157 0.112774
O O11 0.498760 0.482846 0.063491
O O12 0.616611 0.661784 0.008441
O O13 0.250000 0.000000 0.454109
#
# Coordination Sequence:
#
# PCOD9408195 Si02
#       6
#     4   8   8   8   8   8
#     4  12  22  36  60  82 110 158 190 230 290 352
#     4  11  20  35  57  84 117 144 193 239 281 342
#     4  11  24  38  55  83 118 150 191 235 291 349
#     4  10  18  29  55  83 115 150 191 232 300 333
#     4  11  21  37  58  83 117 149 186 243 290 339
#     4   9  17  32  50  83 116 147 185 246 280 336
#
# _framework density 16.976956000000001
#
# number of rings (size 3 to 8) (size 9 to 14) (size 15 to 20)
#    0.000    1.455    5.455    2.727    0.000    1.455 
#    0.000    0.000    0.000    1.091    0.000    0.000 
#    0.000    0.000    0.000    0.000    0.000    0.000 
#
# Total GULP energy -245476.198806 kJ/mol
# GULP energy per Si atom -5579.004518 kJ/mol
# Density = 1.693832 g / cm^3
# Si number density = 16.976956 Si / 1000 Ang^3
#
#
#
# Elastic Constant Matrix: (Units=GPa)
#
#
# Indices 1 2 3 4 5 6 
#
# 1 127.5143 27.8096 53.9278 0.0000 0.0000 0.0000
# 2 27.8096 72.2119 50.0568 0.0000 0.0000 0.0000
# 3 53.9278 50.0568 185.1712 0.0000 0.0000 0.0000
# 4 0.0000 0.0000 0.0000 18.8932 0.0000 0.0000
# 5 0.0000 0.0000 0.0000 0.0000 31.0356 0.0000
# 6 0.0000 0.0000 0.0000 0.0000 0.0000 -1.6725
#
#
#
# Elastic Compliance Matrix: (Units=1/GPa)
#
#
# Indices 1 2 3 4 5 6 
#
# 1 0.009189 -0.002072 -0.002116 0.000000 0.000000 0.000000
# 2 -0.002072 0.017509 -0.004130 0.000000 0.000000 0.000000
# 3 -0.002116 -0.004130 0.007133 0.000000 0.000000 0.000000
# 4 0.000000 0.000000 0.000000 0.052929 0.000000 0.000000
# 5 0.000000 0.000000 0.000000 0.000000 0.032221 0.000000
# 6 0.000000 0.000000 0.000000 0.000000 0.000000 -0.597919
#
#
# Mechanical properties :
#
#
# Convention : Reuss Voigt Hill
#
# Bulk Modulus (GPa) = 58.15491 72.05396 65.10443
# Shear Modulus (GPa) = -10.95120 26.52483 7.78681
#
# Velocity S-wave (km/s) = -2.54256 3.95701 2.14398
# Velocity P-wave (km/s) = 5.07051 7.96314 6.67539
#
# Compressibility (1/GPa) = 0.01719545
#
# Stress axis : x y z
#
# Youngs Moduli (GPa) = 108.82530 57.11435 140.19313
#
# Poissons Ratio (x) = 0.11834 0.29665
# Poissons Ratio (y) = 0.22549 0.57895
# Poissons Ratio (z) = 0.23028 0.23586
#
# Static dielectric constant tensor:
#      x y z
#    x 1.566660 0.000000 0.000000 
#    y 0.000000 1.541770 0.000000 
#    z 0.000000 0.000000 1.609540 
# 
# From -- ./inp_files/39382.got.cif
#   From: 2010.05.17/outbox.cif.g08.bks.cpg/sg52_20_cif.got.tgz:39382.got - 2010.06.03 12:15:38.
