data_PCOD9408930
_publ_section_title
;
Structure prediction by ZEFSAII (Michael W. Deem and Ramdas Pophale) SiO2 
 PCOD9408930
Probable space group: P N N A
;
_chemical_formula_sum "Si O2"
_cell_formula_units_Z 40
_cell_length_a 14.303942
_cell_length_b 9.824081
_cell_length_c 14.523260
_cell_angle_alpha 90.000000
_cell_angle_beta 90.000000
_cell_angle_gamma 90.000000
_cell_volume 2040.853297
_symmetry_space_group_name_H-M "P N N A"
_symmetry_group_IT_number 52
_symmetry_cell_setting 'orthorhombic'
loop_
_space_group_symop_operation_xyz
x,y,z
1/2-x,-y,z
x,1/2-y,1/2-z
1/2-x,1/2+y,1/2-z
-x,-y,-z
1/2+x,y,-z
-x,1/2+y,1/2+z
1/2+x,1/2-y,1/2+z
loop_
_atom_site_type_symbol
_atom_site_label
_atom_site_fract_x
_atom_site_fract_y
_atom_site_fract_z
Si Si1 0.390080 0.035389 0.997791
Si Si2 0.332369 0.235741 0.643520
Si Si3 0.628120 0.254658 0.426200
Si Si4 0.860395 0.022053 0.509502
Si Si5 0.924272 0.246783 0.855808
O O1 0.372746 0.127002 0.087429
O O2 0.365552 0.130279 0.911107
O O3 0.500000 0.000000 0.000000
O O4 0.344436 0.888436 0.984460
O O5 0.357740 0.250000 0.750000
O O6 0.219937 0.220493 0.632750
O O7 0.372439 0.108521 0.585195
O O8 0.535726 0.279751 0.366238
O O9 0.602284 0.129177 0.492804
O O10 0.900991 0.112919 0.591296
O O11 0.750000 0.000000 0.525201
O O12 0.897713 0.250000 0.750000
#
# Coordination Sequence:
#
# PCOD9408930 Si02
#       5
#     8   8   8   8   8
#     4   9  20  36  52  77 112 145 178 218 268 329
#     4  10  20  34  55  83 111 139 176 226 281 336
#     4  10  19  34  56  80 108 139 176 227 286 330
#     4   9  20  36  52  75 107 141 179 222 270 329
#     4  10  20  36  55  77 107 144 184 225 271 328
#
# _framework density 19.599644000000001
#
# number of rings (size 3 to 8) (size 9 to 14) (size 15 to 20)
#    0.000    2.400    0.000    1.800    0.000    8.000 
#    0.000    7.000    0.000    0.000    0.000    1.400 
#    0.000    0.000    0.000    0.000    0.000    0.000 
#
# Total GULP energy -223096.573200 kJ/mol
# GULP energy per Si atom -5577.414330 kJ/mol
# Density = 1.955503 g / cm^3
# Si number density = 19.599644 Si / 1000 Ang^3
#
#
#
# Elastic Constant Matrix: (Units=GPa)
#
#
# Indices 1 2 3 4 5 6 
#
# 1 47.1060 -4.5561 17.6550 0.0000 0.0000 0.0000
# 2 -4.5561 152.6306 72.8138 0.0000 0.0000 0.0000
# 3 17.6550 72.8138 181.4897 0.0000 0.0000 0.0000
# 4 0.0000 0.0000 0.0000 5.0933 0.0000 0.0000
# 5 0.0000 0.0000 0.0000 0.0000 16.6749 0.0000
# 6 0.0000 0.0000 0.0000 0.0000 0.0000 64.8843
#
#
#
# Elastic Compliance Matrix: (Units=1/GPa)
#
#
# Indices 1 2 3 4 5 6 
#
# 1 0.022578 0.002129 -0.003051 0.000000 0.000000 0.000000
# 2 0.002129 0.008303 -0.003538 0.000000 0.000000 0.000000
# 3 -0.003051 -0.003538 0.007226 0.000000 0.000000 0.000000
# 4 0.000000 0.000000 0.000000 0.196337 0.000000 0.000000
# 5 0.000000 0.000000 0.000000 0.000000 0.059970 0.000000
# 6 0.000000 0.000000 0.000000 0.000000 0.000000 0.015412
#
#
# Mechanical properties :
#
#
# Convention : Reuss Voigt Hill
#
# Bulk Modulus (GPa) = 34.26045 61.45017 47.85531
# Shear Modulus (GPa) = 15.22181 37.01807 26.11994
#
# Velocity S-wave (km/s) = 2.78984 4.35065 3.65454
# Velocity P-wave (km/s) = 5.28164 7.52717 6.50208
#
# Compressibility (1/GPa) = 0.02918818
#
# Stress axis : x y z
#
# Youngs Moduli (GPa) = 44.29086 120.43292 138.38257
#
# Poissons Ratio (x) = -0.25644 0.42215
# Poissons Ratio (y) = -0.09431 0.48966
# Poissons Ratio (z) = 0.13511 0.42615
#
# Static dielectric constant tensor:
#      x y z
#    x 1.750210 0.000000 0.000000 
#    y 0.000000 1.734700 0.000000 
#    z 0.000000 0.000000 1.651330 
# 
# From -- ./inp_files/20268.got.cif
#   From: 2010.05.17/outbox.cif.g08.bks.cpg/sg52_11_cif.got.tgz:20268.got - 2010.06.03 12:15:38.
