data_PCOD9408338
_publ_section_title
;
Structure prediction by ZEFSAII (Michael W. Deem and Ramdas Pophale) SiO2 
 PCOD9408338
Probable space group: P N N A
;
_chemical_formula_sum "Si O2"
_cell_formula_units_Z 28
_cell_length_a 5.447493
_cell_length_b 32.662501
_cell_length_c 7.272186
_cell_angle_alpha 90.000000
_cell_angle_beta 90.000000
_cell_angle_gamma 90.000000
_cell_volume 1293.930932
_symmetry_space_group_name_H-M "P N N A"
_symmetry_group_IT_number 52
_symmetry_cell_setting 'orthorhombic'
loop_
_space_group_symop_operation_xyz
x,y,z
1/2-x,-y,z
x,1/2-y,1/2-z
1/2-x,1/2+y,1/2-z
-x,-y,-z
1/2+x,y,-z
-x,1/2+y,1/2+z
1/2+x,1/2-y,1/2+z
loop_
_atom_site_type_symbol
_atom_site_label
_atom_site_fract_x
_atom_site_fract_y
_atom_site_fract_z
Si Si1 0.303715 0.202620 0.783156
Si Si2 0.303382 0.329890 0.294365
Si Si3 0.718683 0.076461 0.885227
Si Si4 0.250000 0.500000 0.115582
O O1 0.249239 0.250000 0.750000
O O2 0.572371 0.192724 0.704629
O O3 0.071701 0.177070 0.711320
O O4 0.325416 0.189397 0.998725
O O5 0.240960 0.377604 0.307589
O O6 0.747303 0.040708 0.738585
O O7 0.450628 0.072453 0.977213
O O8 0.500000 0.500000 0.000000
#
# Coordination Sequence:
#
# PCOD9408338 Si02
#       4
#     8   8   8   4
#     4  10  18  32  56  82 122 155 202 267 330 353
#     4  10  19  35  58  88 117 164 213 275 306 380
#     4  12  21  43  75 101 126 177 238 272 320 408
#     4  12  28  46  68 102 146 172 206 284 356 410
#
# _framework density 21.639485000000001
#
# number of rings (size 3 to 8) (size 9 to 14) (size 15 to 20)
#    0.000    1.143    5.714    3.429    0.000    0.000 
#    0.000    0.000   37.714    0.000    0.000    0.000 
#    0.000    0.000    0.000    0.000    0.000    0.000 
#
# Total GULP energy -156464.007079 kJ/mol
# GULP energy per Si atom -5588.000253 kJ/mol
# Density = 2.159023 g / cm^3
# Si number density = 21.639485 Si / 1000 Ang^3
#
#
#
# Elastic Constant Matrix: (Units=GPa)
#
#
# Indices 1 2 3 4 5 6 
#
# 1 122.0266 -37.3462 -27.4837 0.0000 0.0000 0.0000
# 2 -37.3462 122.5486 9.9123 0.0000 0.0000 0.0000
# 3 -27.4837 9.9123 22.0664 0.0000 0.0000 0.0000
# 4 0.0000 0.0000 0.0000 42.8594 0.0000 0.0000
# 5 0.0000 0.0000 0.0000 0.0000 16.5824 0.0000
# 6 0.0000 0.0000 0.0000 0.0000 0.0000 34.3884
#
#
#
# Elastic Compliance Matrix: (Units=1/GPa)
#
#
# Indices 1 2 3 4 5 6 
#
# 1 0.012121 0.002566 0.013944 0.000000 0.000000 0.000000
# 2 0.002566 0.009011 -0.000852 0.000000 0.000000 0.000000
# 3 0.013944 -0.000852 0.063067 0.000000 0.000000 0.000000
# 4 0.000000 0.000000 0.000000 0.023332 0.000000 0.000000
# 5 0.000000 0.000000 0.000000 0.000000 0.060305 0.000000
# 6 0.000000 0.000000 0.000000 0.000000 0.000000 0.029080
#
#
# Mechanical properties :
#
#
# Convention : Reuss Voigt Hill
#
# Bulk Modulus (GPa) = 8.65692 17.42296 13.03994
# Shear Modulus (GPa) = 24.49719 40.20330 32.35025
#
# Velocity S-wave (km/s) = 3.36826 4.31498 3.87067
# Velocity P-wave (km/s) = 4.37448 5.73535 5.10051
#
# Compressibility (1/GPa) = 0.11551452
#
# Stress axis : x y z
#
# Youngs Moduli (GPa) = 82.50328 110.97693 15.85604
#
# Poissons Ratio (x) = -0.28476 -0.22109
# Poissons Ratio (y) = -0.21170 0.01351
# Poissons Ratio (z) = -1.15040 0.09454
#
# Static dielectric constant tensor:
#      x y z
#    x 1.854700 0.000000 0.000000 
#    y 0.000000 1.642970 0.000000 
#    z 0.000000 0.000000 1.728930 
# 
# From -- ./inp_files/6673.got.cif
#   From: 2010.05.17/outbox.cif.g08.bks.cpg/sg52_4_cif.got.tgz:6673.got - 2010.06.03 12:15:38.
