data_PCOD9408297
_publ_section_title
;
Structure prediction by ZEFSAII (Michael W. Deem and Ramdas Pophale) SiO2 
 PCOD9408297
Probable space group: P N N A
;
_chemical_formula_sum "Si O2"
_cell_formula_units_Z 36
_cell_length_a 14.967821
_cell_length_b 5.030497
_cell_length_c 19.897837
_cell_angle_alpha 90.000000
_cell_angle_beta 90.000000
_cell_angle_gamma 90.000000
_cell_volume 1498.219151
_symmetry_space_group_name_H-M "P N N A"
_symmetry_group_IT_number 52
_symmetry_cell_setting 'orthorhombic'
loop_
_space_group_symop_operation_xyz
x,y,z
1/2-x,-y,z
x,1/2-y,1/2-z
1/2-x,1/2+y,1/2-z
-x,-y,-z
1/2+x,y,-z
-x,1/2+y,1/2+z
1/2+x,1/2-y,1/2+z
loop_
_atom_site_type_symbol
_atom_site_label
_atom_site_fract_x
_atom_site_fract_y
_atom_site_fract_z
Si Si1 0.250000 0.000000 0.346886
Si Si2 0.437966 0.804147 0.852217
Si Si3 0.250000 0.500000 0.705538
Si Si4 0.750000 0.500000 0.560720
Si Si5 0.922252 0.785586 0.997785
Si Si6 0.444803 0.842035 0.347743
O O1 0.226031 0.745657 0.391927
O O2 0.345961 0.902533 0.316506
O O3 0.420652 0.680991 0.926972
O O4 0.485739 0.553211 0.817208
O O5 0.340617 0.905135 0.830990
O O6 0.509376 0.049375 0.847040
O O7 0.278093 0.250000 0.750000
O O8 0.831421 0.562089 0.513756
O O9 0.929276 0.616249 0.929140
O O10 0.000000 0.000000 0.000000
#
# Coordination Sequence:
#
# PCOD9408297 Si02
#       6
#     4   8   4   4   8   8
#     4  10  18  32  49  80 122 156 183 218 274 364
#     4  11  22  38  60  86 114 158 207 258 316 363
#     4  12  27  48  67  88 118 162 225 284 315 350
#     4  10  19  28  44  70 112 166 194 218 273 340
#     4   9  18  32  51  82 122 157 195 241 293 374
#     4  10  20  34  57  90 125 159 192 235 306 392
#
# _framework density 24.028527
#
# number of rings (size 3 to 8) (size 9 to 14) (size 15 to 20)
#    0.000    1.778    0.000    6.667    0.000    5.333 
#    0.000    5.556    0.000    0.000    0.000   15.556 
#    0.000    0.000    0.000    0.000    0.000    0.000 
#
# Total GULP energy -200665.119355 kJ/mol
# GULP energy per Si atom -5574.031093 kJ/mol
# Density = 2.397384 g / cm^3
# Si number density = 24.028527 Si / 1000 Ang^3
#
#
#
# Elastic Constant Matrix: (Units=GPa)
#
#
# Indices 1 2 3 4 5 6 
#
# 1 213.4549 28.8912 21.7255 0.0000 0.0000 0.0000
# 2 28.8912 98.0336 8.5284 0.0000 0.0000 0.0000
# 3 21.7255 8.5284 67.8006 0.0000 0.0000 0.0000
# 4 0.0000 0.0000 0.0000 15.6524 0.0000 0.0000
# 5 0.0000 0.0000 0.0000 0.0000 8.4014 0.0000
# 6 0.0000 0.0000 0.0000 0.0000 0.0000 49.6100
#
#
#
# Elastic Compliance Matrix: (Units=1/GPa)
#
#
# Indices 1 2 3 4 5 6 
#
# 1 0.005014 -0.001353 -0.001437 0.000000 0.000000 0.000000
# 2 -0.001353 0.010678 -0.000910 0.000000 0.000000 0.000000
# 3 -0.001437 -0.000910 0.015324 0.000000 0.000000 0.000000
# 4 0.000000 0.000000 0.000000 0.063888 0.000000 0.000000
# 5 0.000000 0.000000 0.000000 0.000000 0.119028 0.000000
# 6 0.000000 0.000000 0.000000 0.000000 0.000000 0.020157
#
#
# Mechanical properties :
#
#
# Convention : Reuss Voigt Hill
#
# Bulk Modulus (GPa) = 42.33987 55.28657 48.81322
# Shear Modulus (GPa) = 20.05129 36.07569 28.06349
#
# Velocity S-wave (km/s) = 2.89187 3.87895 3.42120
# Velocity P-wave (km/s) = 5.36744 6.56661 5.99708
#
# Compressibility (1/GPa) = 0.02361840
#
# Stress axis : x y z
#
# Youngs Moduli (GPa) = 199.43624 93.64716 65.25763
#
# Poissons Ratio (x) = 0.12668 0.09374
# Poissons Ratio (y) = 0.26978 0.05937
# Poissons Ratio (z) = 0.28650 0.08519
#
# Static dielectric constant tensor:
#      x y z
#    x 2.074600 0.000000 0.000000 
#    y 0.000000 1.924860 0.000000 
#    z 0.000000 0.000000 2.152340 
# 
# From -- ./inp_files/37092.got.cif
#   From: 2010.05.17/outbox.cif.g08.bks.cpg/sg52_19_cif.got.tgz:37092.got - 2010.06.03 12:15:38.
