data_PCOD9408750
_publ_section_title
;
Structure prediction by ZEFSAII (Michael W. Deem and Ramdas Pophale) SiO2 
 PCOD9408750
Probable space group: P N N A
;
_chemical_formula_sum "Si O2"
_cell_formula_units_Z 36
_cell_length_a 15.025388
_cell_length_b 5.363428
_cell_length_c 23.294024
_cell_angle_alpha 90.000000
_cell_angle_beta 90.000000
_cell_angle_gamma 90.000000
_cell_volume 1877.209179
_symmetry_space_group_name_H-M "P N N A"
_symmetry_group_IT_number 52
_symmetry_cell_setting 'orthorhombic'
loop_
_space_group_symop_operation_xyz
x,y,z
1/2-x,-y,z
x,1/2-y,1/2-z
1/2-x,1/2+y,1/2-z
-x,-y,-z
1/2+x,y,-z
-x,1/2+y,1/2+z
1/2+x,1/2-y,1/2+z
loop_
_atom_site_type_symbol
_atom_site_label
_atom_site_fract_x
_atom_site_fract_y
_atom_site_fract_z
Si Si1 0.841718 0.887784 0.197419
Si Si2 0.250000 0.000000 0.612236
Si Si3 0.568523 0.497007 0.947020
Si Si4 0.854021 0.002037 0.990056
Si Si5 0.918027 0.282237 0.400372
O O1 0.889248 0.750000 0.250000
O O2 0.802860 0.696014 0.151088
O O3 0.750000 0.000000 0.222973
O O4 0.895900 0.088599 0.160264
O O5 0.170187 0.868708 0.579820
O O6 0.618202 0.761788 0.949989
O O7 0.501485 0.402976 0.896976
O O8 0.630669 0.259794 0.958437
O O9 0.500000 0.500000 0.000000
O O10 0.750000 0.000000 0.005984
O O11 0.917703 0.018361 0.047244
#
# Coordination Sequence:
#
# PCOD9408750 Si02
#       5
#     8   4   8   8   8
#     4  10  19  32  46  70 101 143 186 225 267 318
#     4  10  20  30  52  66 106 138 190 212 260 322
#     4  10  22  35  53  75 109 139 184 232 275 315
#     4  11  22  36  54  77 106 144 189 229 278 328
#     4  10  22  31  51  74 101 146 187 225 271 321
#
# _framework density 19.177403999999999
#
# number of rings (size 3 to 8) (size 9 to 14) (size 15 to 20)
#    0.000    1.778    1.111    5.333   15.556    0.000 
#    0.000    0.000    0.000    0.000    0.000    0.000 
#    0.000    0.000    7.556    0.222    0.000    0.444 
#
# Total GULP energy -200645.917312 kJ/mol
# GULP energy per Si atom -5573.497703 kJ/mol
# Density = 1.913376 g / cm^3
# Si number density = 19.177404 Si / 1000 Ang^3
#
#
#
# Elastic Constant Matrix: (Units=GPa)
#
#
# Indices 1 2 3 4 5 6 
#
# 1 56.0715 27.0620 15.2453 0.0000 0.0000 0.0000
# 2 27.0620 108.0478 17.8201 0.0000 0.0000 0.0000
# 3 15.2453 17.8201 47.3432 0.0000 0.0000 0.0000
# 4 0.0000 0.0000 0.0000 35.5617 0.0000 0.0000
# 5 0.0000 0.0000 0.0000 0.0000 13.0970 0.0000
# 6 0.0000 0.0000 0.0000 0.0000 0.0000 33.1706
#
#
#
# Elastic Compliance Matrix: (Units=1/GPa)
#
#
# Indices 1 2 3 4 5 6 
#
# 1 0.021425 -0.004508 -0.005202 0.000000 0.000000 0.000000
# 2 -0.004508 0.010816 -0.002620 0.000000 0.000000 0.000000
# 3 -0.005202 -0.002620 0.023784 0.000000 0.000000 0.000000
# 4 0.000000 0.000000 0.000000 0.028120 0.000000 0.000000
# 5 0.000000 0.000000 0.000000 0.000000 0.076353 0.000000
# 6 0.000000 0.000000 0.000000 0.000000 0.000000 0.030147
#
#
# Mechanical properties :
#
#
# Convention : Reuss Voigt Hill
#
# Bulk Modulus (GPa) = 31.88302 36.85748 34.37025
# Shear Modulus (GPa) = 22.14743 26.45486 24.30114
#
# Velocity S-wave (km/s) = 3.40203 3.71817 3.56360
# Velocity P-wave (km/s) = 5.66508 6.13954 5.90707
#
# Compressibility (1/GPa) = 0.03136466
#
# Stress axis : x y z
#
# Youngs Moduli (GPa) = 46.67544 92.45294 42.04578
#
# Poissons Ratio (x) = 0.41678 0.21873
# Poissons Ratio (y) = 0.21042 0.11014
# Poissons Ratio (z) = 0.24282 0.24219
#
# Static dielectric constant tensor:
#      x y z
#    x 1.719730 0.000000 0.000000 
#    y 0.000000 1.879030 0.000000 
#    z 0.000000 0.000000 1.729580 
# 
# From -- ./inp_files/40417.got.cif
#   From: 2010.05.17/outbox.cif.g08.bks.cpg/sg52_21_cif.got.tgz:40417.got - 2010.06.03 12:15:38.
