data_PCOD9408479
_publ_section_title
;
Structure prediction by ZEFSAII (Michael W. Deem and Ramdas Pophale) SiO2 
 PCOD9408479
Probable space group: P N N A
;
_chemical_formula_sum "Si O2"
_cell_formula_units_Z 60
_cell_length_a 16.786065
_cell_length_b 18.421437
_cell_length_c 9.011238
_cell_angle_alpha 90.000000
_cell_angle_beta 90.000000
_cell_angle_gamma 90.000000
_cell_volume 2786.486003
_symmetry_space_group_name_H-M "P N N A"
_symmetry_group_IT_number 52
_symmetry_cell_setting 'orthorhombic'
loop_
_space_group_symop_operation_xyz
x,y,z
1/2-x,-y,z
x,1/2-y,1/2-z
1/2-x,1/2+y,1/2-z
-x,-y,-z
1/2+x,y,-z
-x,1/2+y,1/2+z
1/2+x,1/2-y,1/2+z
loop_
_atom_site_type_symbol
_atom_site_label
_atom_site_fract_x
_atom_site_fract_y
_atom_site_fract_z
Si Si1 0.504812 0.547036 0.760730
Si Si2 0.640171 0.976702 0.165981
Si Si3 0.788616 0.250000 0.250000
Si Si4 0.399704 0.362709 0.902837
Si Si5 0.929488 0.911552 0.571228
Si Si6 0.805332 0.834543 0.762933
Si Si7 0.226849 0.115807 0.929035
Si Si8 0.384709 0.165803 0.257290
O O1 0.450459 0.501159 0.648724
O O2 0.560192 0.488711 0.846408
O O3 0.552864 0.611435 0.681389
O O4 0.447034 0.577216 0.895520
O O5 0.638286 0.931172 0.318699
O O6 0.685550 0.922288 0.053283
O O7 0.685634 0.053066 0.166440
O O8 0.848327 0.294241 0.145680
O O9 0.738772 0.191705 0.155580
O O10 0.494381 0.363996 0.871502
O O11 0.392008 0.364282 0.076924
O O12 0.847880 0.875773 0.627355
O O13 0.827698 0.750000 0.750000
O O14 0.709158 0.836969 0.772482
O O15 0.823651 0.871160 0.921984
O O16 0.409481 0.250000 0.250000
#
# Coordination Sequence:
#
# PCOD9408479 Si02
#       8
#     8   8   4   8   8   8   8   8
#     4   9  19  40  63  90 122 160 208 260 300 377
#     4   9  20  40  60  83 124 160 208 260 302 361
#     4  10  18  34  62  86 120 164 210 266 314 368
#     4   9  19  38  62  86 120 168 207 254 315 381
#     4   9  20  38  62  90 121 159 215 250 307 383
#     4  11  24  40  58  88 129 165 198 261 319 376
#     4  10  22  39  58  90 125 163 217 263 309 378
#     4  10  21  39  61  93 130 164 207 254 323 384
#
# _framework density 21.532496999999999
#
# number of rings (size 3 to 8) (size 9 to 14) (size 15 to 20)
#    0.000    2.400    0.000    2.400    0.933    6.933 
#    6.000    7.333    0.000    0.000    0.000    0.000 
#    0.000    0.000    0.000    0.000    0.000    0.000 
#
# Total GULP energy -334177.903926 kJ/mol
# GULP energy per Si atom -5569.631732 kJ/mol
# Density = 2.148349 g / cm^3
# Si number density = 21.532497 Si / 1000 Ang^3
#
#
#
# Elastic Constant Matrix: (Units=GPa)
#
#
# Indices 1 2 3 4 5 6 
#
# 1 31.1080 37.7460 18.8982 0.0000 0.0000 0.0000
# 2 37.7460 127.3322 24.9536 0.0000 0.0000 0.0000
# 3 18.8982 24.9536 37.3187 0.0000 0.0000 0.0000
# 4 0.0000 0.0000 0.0000 10.7966 0.0000 0.0000
# 5 0.0000 0.0000 0.0000 0.0000 25.4610 0.0000
# 6 0.0000 0.0000 0.0000 0.0000 0.0000 36.1659
#
#
#
# Elastic Compliance Matrix: (Units=1/GPa)
#
#
# Indices 1 2 3 4 5 6 
#
# 1 0.063132 -0.014327 -0.022390 0.000000 0.000000 0.000000
# 2 -0.014327 0.012289 -0.000962 0.000000 0.000000 0.000000
# 3 -0.022390 -0.000962 0.038778 0.000000 0.000000 0.000000
# 4 0.000000 0.000000 0.000000 0.092621 0.000000 0.000000
# 5 0.000000 0.000000 0.000000 0.000000 0.039276 0.000000
# 6 0.000000 0.000000 0.000000 0.000000 0.000000 0.027650
#
#
# Mechanical properties :
#
#
# Convention : Reuss Voigt Hill
#
# Bulk Modulus (GPa) = 25.74618 39.88381 32.81500
# Shear Modulus (GPa) = 13.81014 22.09546 17.95280
#
# Velocity S-wave (km/s) = 2.53526 3.20682 2.89061
# Velocity P-wave (km/s) = 4.53353 5.68106 5.13942
#
# Compressibility (1/GPa) = 0.03884072
#
# Stress axis : x y z
#
# Youngs Moduli (GPa) = 15.83970 81.37334 25.78777
#
# Poissons Ratio (x) = 1.16583 0.57740
# Poissons Ratio (y) = 0.22693 0.02481
# Poissons Ratio (z) = 0.35466 0.07828
#
# Static dielectric constant tensor:
#      x y z
#    x 1.890650 0.000000 0.000000 
#    y 0.000000 1.834460 0.000000 
#    z 0.000000 0.000000 1.967450 
# 
# From -- ./inp_files/12427.got.cif
#   From: 2010.05.17/outbox.cif.g08.bks.cpg/sg52_7_cif.got.tgz:12427.got - 2010.06.03 12:15:38.
