data_PCOD9408393
_publ_section_title
;
Structure prediction by ZEFSAII (Michael W. Deem and Ramdas Pophale) SiO2 
 PCOD9408393
Probable space group: P N N A
;
_chemical_formula_sum "Si O2"
_cell_formula_units_Z 64
_cell_length_a 11.821478
_cell_length_b 15.100846
_cell_length_c 17.296063
_cell_angle_alpha 90.000000
_cell_angle_beta 90.000000
_cell_angle_gamma 90.000000
_cell_volume 3087.594904
_symmetry_space_group_name_H-M "P N N A"
_symmetry_group_IT_number 52
_symmetry_cell_setting 'orthorhombic'
loop_
_space_group_symop_operation_xyz
x,y,z
1/2-x,-y,z
x,1/2-y,1/2-z
1/2-x,1/2+y,1/2-z
-x,-y,-z
1/2+x,y,-z
-x,1/2+y,1/2+z
1/2+x,1/2-y,1/2+z
loop_
_atom_site_type_symbol
_atom_site_label
_atom_site_fract_x
_atom_site_fract_y
_atom_site_fract_z
Si Si1 0.905564 0.153258 0.679721
Si Si2 0.779340 0.905502 0.886990
Si Si3 0.165400 0.280650 0.135271
Si Si4 0.750532 0.780687 0.456523
Si Si5 0.077577 0.428470 0.924734
Si Si6 0.966534 0.115929 0.418125
Si Si7 0.678646 0.414041 0.437626
Si Si8 0.459358 0.352792 0.351936
O O1 0.772442 0.173287 0.675796
O O2 0.966251 0.246967 0.659631
O O3 0.937751 0.117927 0.763920
O O4 0.957796 0.089877 0.616488
O O5 0.840589 0.824090 0.843890
O O6 0.653116 0.868246 0.901675
O O7 0.750000 0.000000 0.848522
O O8 0.838924 0.922985 0.969311
O O9 0.048848 0.334251 0.141619
O O10 0.201312 0.278413 0.044126
O O11 0.829114 0.852201 0.411201
O O12 0.622341 0.814459 0.452947
O O13 0.760316 0.680784 0.425812
O O14 0.104999 0.527969 0.898298
O O15 0.051331 0.419765 0.015602
O O16 0.750000 0.500000 0.413611
O O17 0.562314 0.401285 0.392112
#
# Coordination Sequence:
#
# PCOD9408393 Si02
#       8
#     8   8   8   8   8   8   8   8
#     4  10  19  38  60  80 112 161 200 226 278 365
#     4   9  20  35  56  87 113 142 188 246 297 351
#     4   9  19  32  54  85 116 154 193 239 290 339
#     4  10  18  33  55  83 122 148 194 242 295 335
#     4  10  19  33  54  82 116 159 197 228 278 343
#     4  10  20  31  52  88 122 149 193 243 289 326
#     4  10  21  35  59  90 110 145 196 248 298 342
#     4  10  21  38  60  84 111 157 195 233 289 358
#
# _framework density 20.728107000000001
#
# number of rings (size 3 to 8) (size 9 to 14) (size 15 to 20)
#    0.000    2.250    2.500    0.375    0.000    3.500 
#    2.250    1.250    0.000    0.000   16.250    0.000 
#    0.000    0.000    0.000    0.000    0.000    0.000 
#
# Total GULP energy -356415.184568 kJ/mol
# GULP energy per Si atom -5568.987259 kJ/mol
# Density = 2.068093 g / cm^3
# Si number density = 20.728107 Si / 1000 Ang^3
#
#
#
# Elastic Constant Matrix: (Units=GPa)
#
#
# Indices 1 2 3 4 5 6 
#
# 1 60.7331 34.9894 19.3448 0.0000 0.0000 0.0000
# 2 34.9894 121.7985 16.6243 0.0000 0.0000 0.0000
# 3 19.3448 16.6243 51.7129 0.0000 0.0000 0.0000
# 4 0.0000 0.0000 0.0000 4.7812 0.0000 0.0000
# 5 0.0000 0.0000 0.0000 0.0000 18.0980 0.0000
# 6 0.0000 0.0000 0.0000 0.0000 0.0000 24.6223
#
#
#
# Elastic Compliance Matrix: (Units=1/GPa)
#
#
# Indices 1 2 3 4 5 6 
#
# 1 0.021557 -0.005326 -0.006352 0.000000 0.000000 0.000000
# 2 -0.005326 0.009903 -0.001191 0.000000 0.000000 0.000000
# 3 -0.006352 -0.001191 0.022097 0.000000 0.000000 0.000000
# 4 0.000000 0.000000 0.000000 0.209154 0.000000 0.000000
# 5 0.000000 0.000000 0.000000 0.000000 0.055255 0.000000
# 6 0.000000 0.000000 0.000000 0.000000 0.000000 0.040614
#
#
# Mechanical properties :
#
#
# Convention : Reuss Voigt Hill
#
# Bulk Modulus (GPa) = 35.94722 41.79569 38.87146
# Shear Modulus (GPa) = 12.70359 20.38602 16.54481
#
# Velocity S-wave (km/s) = 2.47830 3.13948 2.82828
# Velocity P-wave (km/s) = 5.05660 5.77489 5.42764
#
# Compressibility (1/GPa) = 0.02781856
#
# Stress axis : x y z
#
# Youngs Moduli (GPa) = 46.38865 100.98136 45.25576
#
# Poissons Ratio (x) = 0.53780 0.28746
# Poissons Ratio (y) = 0.24705 0.05391
# Poissons Ratio (z) = 0.29466 0.12029
#
# Static dielectric constant tensor:
#      x y z
#    x 1.742040 0.000000 0.000000 
#    y 0.000000 1.865910 0.000000 
#    z 0.000000 0.000000 1.767860 
# 
# From -- ./inp_files/32407.got.cif
#   From: 2010.05.17/outbox.cif.g08.bks.cpg/sg52_17_cif.got.tgz:32407.got - 2010.06.03 12:15:38.
