data_PCOD9408410
_publ_section_title
;
Structure prediction by ZEFSAII (Michael W. Deem and Ramdas Pophale) SiO2 
 PCOD9408410
Probable space group: P N N A
;
_chemical_formula_sum "Si O2"
_cell_formula_units_Z 64
_cell_length_a 27.053485
_cell_length_b 12.692134
_cell_length_c 8.599241
_cell_angle_alpha 90.000000
_cell_angle_beta 90.000000
_cell_angle_gamma 90.000000
_cell_volume 2952.690913
_symmetry_space_group_name_H-M "P N N A"
_symmetry_group_IT_number 52
_symmetry_cell_setting 'orthorhombic'
loop_
_space_group_symop_operation_xyz
x,y,z
1/2-x,-y,z
x,1/2-y,1/2-z
1/2-x,1/2+y,1/2-z
-x,-y,-z
1/2+x,y,-z
-x,1/2+y,1/2+z
1/2+x,1/2-y,1/2+z
loop_
_atom_site_type_symbol
_atom_site_label
_atom_site_fract_x
_atom_site_fract_y
_atom_site_fract_z
Si Si1 0.852189 0.048042 0.273800
Si Si2 0.267695 0.311336 0.915770
Si Si3 0.663166 0.656310 0.540418
Si Si4 0.919887 0.171056 0.453501
Si Si5 0.092667 0.954041 0.242248
Si Si6 0.084140 0.319508 0.388616
Si Si7 0.994121 0.182353 0.905419
Si Si8 0.843889 0.678324 0.097246
O O1 0.807908 0.097460 0.379991
O O2 0.836443 0.066941 0.095118
O O3 0.901521 0.118142 0.296526
O O4 0.863511 0.932734 0.337272
O O5 0.267098 0.250000 0.750000
O O6 0.287304 0.223778 0.035994
O O7 0.212396 0.343806 0.956077
O O8 0.622175 0.743887 0.496172
O O9 0.642926 0.606641 0.696805
O O10 0.919405 0.078003 0.582018
O O11 0.969615 0.235397 0.473642
O O12 0.046945 0.904192 0.142598
O O13 0.101240 0.073747 0.195442
O O14 0.061695 0.250000 0.250000
O O15 0.044485 0.354586 0.517990
O O16 0.124449 0.244385 0.472620
O O17 0.004065 0.250000 0.750000
O O18 0.841199 0.750000 0.250000
#
# Coordination Sequence:
#
# PCOD9408410 Si02
#       8
#     8   8   8   8   8   8   8   8
#     4  10  18  33  57  86 112 143 181 228 281 326
#     4   8  17  33  56  83 109 138 183 234 273 315
#     4   9  17  32  59  88 108 135 187 236 272 322
#     4   9  18  35  59  85 110 136 177 234 284 326
#     4  10  20  38  59  81 111 149 180 221 280 335
#     4  12  25  39  53  79 116 150 183 224 273 333
#     4   9  20  39  61  81 104 138 186 231 274 329
#     4  11  22  37  54  77 114 155 187 222 269 330
#
# _framework density 21.675144
#
# number of rings (size 3 to 8) (size 9 to 14) (size 15 to 20)
#    0.000    2.250    0.000    4.875    0.000    2.000 
#    0.000   12.500    0.000    0.000    0.000    0.000 
#    0.000    0.000    0.000    0.000    0.000    0.000 
#
# Total GULP energy -356882.403813 kJ/mol
# GULP energy per Si atom -5576.287560 kJ/mol
# Density = 2.162581 g / cm^3
# Si number density = 21.675144 Si / 1000 Ang^3
#
#
#
# Elastic Constant Matrix: (Units=GPa)
#
#
# Indices 1 2 3 4 5 6 
#
# 1 43.1013 1.2949 19.9347 0.0000 0.0000 0.0000
# 2 1.2949 101.0535 19.6221 0.0000 0.0000 0.0000
# 3 19.9347 19.6221 49.9188 0.0000 0.0000 0.0000
# 4 0.0000 0.0000 0.0000 33.8301 0.0000 0.0000
# 5 0.0000 0.0000 0.0000 0.0000 21.2964 0.0000
# 6 0.0000 0.0000 0.0000 0.0000 0.0000 8.6933
#
#
#
# Elastic Compliance Matrix: (Units=1/GPa)
#
#
# Indices 1 2 3 4 5 6 
#
# 1 0.028833 0.002021 -0.012309 0.000000 0.000000 0.000000
# 2 0.002021 0.010855 -0.005074 0.000000 0.000000 0.000000
# 3 -0.012309 -0.005074 0.026942 0.000000 0.000000 0.000000
# 4 0.000000 0.000000 0.000000 0.029560 0.000000 0.000000
# 5 0.000000 0.000000 0.000000 0.000000 0.046956 0.000000
# 6 0.000000 0.000000 0.000000 0.000000 0.000000 0.115031
#
#
# Mechanical properties :
#
#
# Convention : Reuss Voigt Hill
#
# Bulk Modulus (GPa) = 27.84975 30.64188 29.24582
# Shear Modulus (GPa) = 16.61850 22.97876 19.79863
#
# Velocity S-wave (km/s) = 2.77195 3.25952 3.02557
# Velocity P-wave (km/s) = 4.80849 5.32292 5.07223
#
# Compressibility (1/GPa) = 0.03590696
#
# Stress axis : x y z
#
# Youngs Moduli (GPa) = 34.68214 92.12297 37.11639
#
# Poissons Ratio (x) = -0.18614 0.45685
# Poissons Ratio (y) = -0.07008 0.18832
# Poissons Ratio (z) = 0.42689 0.46741
#
# Static dielectric constant tensor:
#      x y z
#    x 1.800760 0.000000 0.000000 
#    y 0.000000 1.814140 0.000000 
#    z 0.000000 0.000000 1.819870 
# 
# From -- ./inp_files/15735.got.cif
#   From: 2010.05.17/outbox.cif.g08.bks.cpg/sg52_8_cif.got.tgz:15735.got - 2010.06.03 12:15:38.
