data_PCOD9408488
_publ_section_title
;
Structure prediction by ZEFSAII (Michael W. Deem and Ramdas Pophale) SiO2 
 PCOD9408488
Probable space group: P N N A
;
_chemical_formula_sum "Si O2"
_cell_formula_units_Z 60
_cell_length_a 9.732247
_cell_length_b 15.820299
_cell_length_c 23.548647
_cell_angle_alpha 90.000000
_cell_angle_beta 90.000000
_cell_angle_gamma 90.000000
_cell_volume 3625.715886
_symmetry_space_group_name_H-M "P N N A"
_symmetry_group_IT_number 52
_symmetry_cell_setting 'orthorhombic'
loop_
_space_group_symop_operation_xyz
x,y,z
1/2-x,-y,z
x,1/2-y,1/2-z
1/2-x,1/2+y,1/2-z
-x,-y,-z
1/2+x,y,-z
-x,1/2+y,1/2+z
1/2+x,1/2-y,1/2+z
loop_
_atom_site_type_symbol
_atom_site_label
_atom_site_fract_x
_atom_site_fract_y
_atom_site_fract_z
Si Si1 0.855133 0.833366 0.217080
Si Si2 0.400594 0.750000 0.250000
Si Si3 0.468942 0.028963 0.145716
Si Si4 0.117339 0.749428 0.647008
Si Si5 0.491037 0.122805 0.941536
Si Si6 0.132723 0.062472 0.255661
Si Si7 0.836845 0.421444 0.186969
Si Si8 0.798050 0.093481 0.953537
O O1 0.918555 0.750000 0.250000
O O2 0.942385 0.905262 0.183969
O O3 0.754760 0.792762 0.170788
O O4 0.755434 0.880449 0.262352
O O5 0.501662 0.740031 0.303952
O O6 0.323475 0.839058 0.256367
O O7 0.364858 0.084852 0.108507
O O8 0.528918 0.962767 0.097883
O O9 0.398731 0.967775 0.191646
O O10 0.070687 0.699890 0.592788
O O11 0.141876 0.848605 0.641060
O O12 0.652750 0.139868 0.950596
O O13 0.411696 0.117612 0.000807
O O14 0.986817 0.055961 0.288139
O O15 0.250000 0.000000 0.278352
O O16 0.750000 0.500000 0.165907
O O17 0.750000 0.000000 0.970988
#
# Coordination Sequence:
#
# PCOD9408488 Si02
#       8
#     8   4   8   8   8   8   8   8
#     4  10  19  32  49  83 109 146 190 220 257 325
#     4  10  18  36  48  76 102 150 190 218 252 354
#     4  11  20  32  54  74 115 150 176 226 273 313
#     4  10  19  32  55  75 106 145 184 218 276 318
#     4  11  22  37  54  77 108 148 187 227 276 327
#     4  11  20  32  51  74 105 151 183 213 275 318
#     4  10  18  35  52  78 107 138 184 225 254 333
#     4  10  23  37  50  79 109 142 195 224 265 335
#
# _framework density 16.548456000000002
#
# number of rings (size 3 to 8) (size 9 to 14) (size 15 to 20)
#    0.000    1.600    6.000    2.800    3.733    0.000 
#    1.200    0.000    0.000    0.000    0.000    0.933 
#    0.000    0.000    0.000    0.000    0.000    0.000 
#
# Total GULP energy -334165.456017 kJ/mol
# GULP energy per Si atom -5569.424267 kJ/mol
# Density = 1.651079 g / cm^3
# Si number density = 16.548456 Si / 1000 Ang^3
#
#
#
# Elastic Constant Matrix: (Units=GPa)
#
#
# Indices 1 2 3 4 5 6 
#
# 1 73.2824 56.3599 35.8569 0.0000 0.0000 0.0000
# 2 56.3599 111.8228 23.5263 0.0000 0.0000 0.0000
# 3 35.8569 23.5263 52.9510 0.0000 0.0000 0.0000
# 4 0.0000 0.0000 0.0000 12.1546 0.0000 0.0000
# 5 0.0000 0.0000 0.0000 0.0000 20.5923 0.0000
# 6 0.0000 0.0000 0.0000 0.0000 0.0000 24.3049
#
#
#
# Elastic Compliance Matrix: (Units=1/GPa)
#
#
# Indices 1 2 3 4 5 6 
#
# 1 0.030416 -0.012131 -0.015207 0.000000 0.000000 0.000000
# 2 -0.012131 0.014703 0.001682 0.000000 0.000000 0.000000
# 3 -0.015207 0.001682 0.028436 0.000000 0.000000 0.000000
# 4 0.000000 0.000000 0.000000 0.082274 0.000000 0.000000
# 5 0.000000 0.000000 0.000000 0.000000 0.048562 0.000000
# 6 0.000000 0.000000 0.000000 0.000000 0.000000 0.041144
#
#
# Mechanical properties :
#
#
# Convention : Reuss Voigt Hill
#
# Bulk Modulus (GPa) = 44.95761 52.17138 48.56449
# Shear Modulus (GPa) = 16.43328 19.56456 17.99892
#
# Velocity S-wave (km/s) = 3.15467 3.44213 3.30153
# Velocity P-wave (km/s) = 6.36361 6.88422 6.62903
#
# Compressibility (1/GPa) = 0.02224318
#
# Stress axis : x y z
#
# Youngs Moduli (GPa) = 32.87723 68.01414 35.16666
#
# Poissons Ratio (x) = 0.82506 0.53479
# Poissons Ratio (y) = 0.39882 -0.05915
# Poissons Ratio (z) = 0.49997 -0.11440
#
# Static dielectric constant tensor:
#      x y z
#    x 1.620470 0.000000 0.000000 
#    y 0.000000 1.604710 0.000000 
#    z 0.000000 0.000000 1.538710 
# 
# From -- ./inp_files/39629.got.cif
#   From: 2010.05.17/outbox.cif.g08.bks.cpg/sg52_20_cif.got.tgz:39629.got - 2010.06.03 12:15:38.
