data_PCOD9408782
_publ_section_title
;
Structure prediction by ZEFSAII (Michael W. Deem and Ramdas Pophale) SiO2 
 PCOD9408782
Probable space group: P N N A
;
_chemical_formula_sum "Si O2"
_cell_formula_units_Z 48
_cell_length_a 18.222092
_cell_length_b 19.465110
_cell_length_c 5.387536
_cell_angle_alpha 90.000000
_cell_angle_beta 90.000000
_cell_angle_gamma 90.000000
_cell_volume 1910.932217
_symmetry_space_group_name_H-M "P N N A"
_symmetry_group_IT_number 52
_symmetry_cell_setting 'orthorhombic'
loop_
_space_group_symop_operation_xyz
x,y,z
1/2-x,-y,z
x,1/2-y,1/2-z
1/2-x,1/2+y,1/2-z
-x,-y,-z
1/2+x,y,-z
-x,1/2+y,1/2+z
1/2+x,1/2-y,1/2+z
loop_
_atom_site_type_symbol
_atom_site_label
_atom_site_fract_x
_atom_site_fract_y
_atom_site_fract_z
Si Si1 0.403913 0.949901 0.346792
Si Si2 0.849562 0.173820 0.851694
Si Si3 0.670317 0.031963 0.152473
Si Si4 0.816194 0.834253 0.891882
Si Si5 0.989441 0.142424 0.591032
Si Si6 0.913117 0.250000 0.250000
Si Si7 0.604003 0.250000 0.250000
O O1 0.386164 0.983100 0.077010
O O2 0.482239 0.925664 0.454181
O O3 0.360918 0.984283 0.576210
O O4 0.369270 0.874000 0.294143
O O5 0.866825 0.250000 0.750000
O O6 0.766200 0.160581 0.789623
O O7 0.915861 0.128655 0.749337
O O8 0.860530 0.190536 0.139730
O O9 0.684266 0.113330 0.127662
O O10 0.750000 0.000000 0.105217
O O11 0.843995 0.763336 0.010686
O O12 0.967898 0.202694 0.404243
O O13 0.051136 0.182441 0.751346
#
# Coordination Sequence:
#
# PCOD9408782 Si02
#       7
#     8   8   8   8   8   4   4
#     4  10  22  38  65  91 114 160 208 260 305 362
#     4  10  22  35  51  86 128 168 201 241 312 374
#     4  10  22  41  64  90 118 155 213 268 318 359
#     4  10  24  35  61  91 125 164 203 260 305 374
#     4  11  20  35  54  86 123 163 205 245 307 374
#     4  10  19  32  54  73 130 170 196 236 297 376
#     4  12  19  38  56  93 130 162 212 248 303 376
#
# _framework density 25.118628000000001
#
# number of rings (size 3 to 8) (size 9 to 14) (size 15 to 20)
#    1.000    0.667    4.167    2.000    4.667    2.667 
#    0.000    0.000    0.000    2.000    0.000    0.000 
#    0.000    0.000    0.000    0.000    0.000    0.000 
#
# Total GULP energy -267473.881017 kJ/mol
# GULP energy per Si atom -5572.372521 kJ/mol
# Density = 2.506146 g / cm^3
# Si number density = 25.118628 Si / 1000 Ang^3
#
#
#
# Elastic Constant Matrix: (Units=GPa)
#
#
# Indices 1 2 3 4 5 6 
#
# 1 104.0913 28.4526 5.2924 0.0000 0.0000 0.0000
# 2 28.4526 70.5485 11.6837 0.0000 0.0000 0.0000
# 3 5.2924 11.6837 89.4277 0.0000 0.0000 0.0000
# 4 0.0000 0.0000 0.0000 14.4612 0.0000 0.0000
# 5 0.0000 0.0000 0.0000 0.0000 65.1485 0.0000
# 6 0.0000 0.0000 0.0000 0.0000 0.0000 37.3611
#
#
#
# Elastic Compliance Matrix: (Units=1/GPa)
#
#
# Indices 1 2 3 4 5 6 
#
# 1 0.010798 -0.004343 -0.000072 0.000000 0.000000 0.000000
# 2 -0.004343 0.016235 -0.001864 0.000000 0.000000 0.000000
# 3 -0.000072 -0.001864 0.011430 0.000000 0.000000 0.000000
# 4 0.000000 0.000000 0.000000 0.069151 0.000000 0.000000
# 5 0.000000 0.000000 0.000000 0.000000 0.015350 0.000000
# 6 0.000000 0.000000 0.000000 0.000000 0.000000 0.026766
#
#
# Mechanical properties :
#
#
# Convention : Reuss Voigt Hill
#
# Bulk Modulus (GPa) = 38.60201 39.43609 39.01905
# Shear Modulus (GPa) = 29.25332 37.97008 33.61170
#
# Velocity S-wave (km/s) = 3.41634 3.89219 3.66200
# Velocity P-wave (km/s) = 5.56444 5.99440 5.78342
#
# Compressibility (1/GPa) = 0.02590539
#
# Stress axis : x y z
#
# Youngs Moduli (GPa) = 92.61236 61.59578 87.48908
#
# Poissons Ratio (x) = 0.26750 0.00627
# Poissons Ratio (y) = 0.40221 0.16309
# Poissons Ratio (z) = 0.00663 0.11482
#
# Static dielectric constant tensor:
#      x y z
#    x 2.077250 0.000000 0.000000 
#    y 0.000000 2.095450 0.000000 
#    z 0.000000 0.000000 3.938920 
# 
# From -- ./inp_files/3528.got.cif
#   From: 2010.05.17/outbox.cif.g08.bks.cpg/sg52_2_cif.got.tgz:3528.got - 2010.06.03 12:15:38.
