data_PCOD9408029
_publ_section_title
;
Structure prediction by ZEFSAII (Michael W. Deem and Ramdas Pophale) SiO2 
 PCOD9408029
Probable space group: P N N A
;
_chemical_formula_sum "Si O2"
_cell_formula_units_Z 48
_cell_length_a 16.050075
_cell_length_b 12.231442
_cell_length_c 9.857908
_cell_angle_alpha 90.000000
_cell_angle_beta 90.000000
_cell_angle_gamma 90.000000
_cell_volume 1935.260744
_symmetry_space_group_name_H-M "P N N A"
_symmetry_group_IT_number 52
_symmetry_cell_setting 'orthorhombic'
loop_
_space_group_symop_operation_xyz
x,y,z
1/2-x,-y,z
x,1/2-y,1/2-z
1/2-x,1/2+y,1/2-z
-x,-y,-z
1/2+x,y,-z
-x,1/2+y,1/2+z
1/2+x,1/2-y,1/2+z
loop_
_atom_site_type_symbol
_atom_site_label
_atom_site_fract_x
_atom_site_fract_y
_atom_site_fract_z
Si Si1 0.132764 0.535872 0.381500
Si Si2 0.096503 0.294901 0.100041
Si Si3 0.155926 0.515854 0.070030
Si Si4 0.024335 0.161591 0.850456
Si Si5 0.197108 0.403899 0.646492
Si Si6 0.286871 0.242907 0.475649
O O1 0.159771 0.501509 0.233123
O O2 0.165054 0.458285 0.502079
O O3 0.170675 0.655219 0.403853
O O4 0.034494 0.558559 0.375064
O O5 0.072106 0.250000 0.250000
O O6 0.088576 0.420505 0.045534
O O7 0.197848 0.284362 0.092960
O O8 0.050255 0.219605 0.990514
O O9 0.250000 0.500000 0.015936
O O10 0.148117 0.642668 0.026663
O O11 0.984604 0.250000 0.750000
O O12 0.111743 0.126058 0.781917
O O13 0.250000 0.500000 0.712483
O O14 0.254150 0.299536 0.614296
#
# Coordination Sequence:
#
# PCOD9408029 Si02
#       6
#     8   8   8   8   8   8
#     4  11  19  32  56  84 112 145 185 234 287 344
#     4  10  20  36  57  81 112 151 192 234 278 336
#     4  10  17  29  55  87 113 139 180 241 296 330
#     4  11  23  38  55  82 117 150 185 232 286 339
#     4   9  19  36  57  78 107 150 195 230 274 343
#     4   9  17  31  55  88 113 137 184 241 289 336
#
# _framework density 24.802862000000001
#
# number of rings (size 3 to 8) (size 9 to 14) (size 15 to 20)
#    0.000    2.000    0.000    7.500    0.000    0.000 
#    0.000    7.500    0.000   11.000    0.000    0.000 
#    0.000    0.000    0.000    0.000    0.000    0.000 
#
# Total GULP energy -267789.047045 kJ/mol
# GULP energy per Si atom -5578.938480 kJ/mol
# Density = 2.474641 g / cm^3
# Si number density = 24.802862 Si / 1000 Ang^3
#
#
#
# Elastic Constant Matrix: (Units=GPa)
#
#
# Indices 1 2 3 4 5 6 
#
# 1 71.6393 11.4754 17.1314 0.0000 0.0000 0.0000
# 2 11.4754 124.6840 35.8955 0.0000 0.0000 0.0000
# 3 17.1314 35.8955 117.5522 0.0000 0.0000 0.0000
# 4 0.0000 0.0000 0.0000 1.1560 0.0000 0.0000
# 5 0.0000 0.0000 0.0000 0.0000 8.5393 0.0000
# 6 0.0000 0.0000 0.0000 0.0000 0.0000 37.5124
#
#
#
# Elastic Compliance Matrix: (Units=1/GPa)
#
#
# Indices 1 2 3 4 5 6 
#
# 1 0.014535 -0.000798 -0.001875 0.000000 0.000000 0.000000
# 2 -0.000798 0.008837 -0.002582 0.000000 0.000000 0.000000
# 3 -0.001875 -0.002582 0.009569 0.000000 0.000000 0.000000
# 4 0.000000 0.000000 0.000000 0.865046 0.000000 0.000000
# 5 0.000000 0.000000 0.000000 0.000000 0.117106 0.000000
# 6 0.000000 0.000000 0.000000 0.000000 0.000000 0.026658
#
#
# Mechanical properties :
#
#
# Convention : Reuss Voigt Hill
#
# Bulk Modulus (GPa) = 44.58114 49.20888 46.89501
# Shear Modulus (GPa) = 4.71815 26.06641 15.39228
#
# Velocity S-wave (km/s) = 1.38072 3.24534 2.49386
# Velocity P-wave (km/s) = 4.53377 5.82461 5.21925
#
# Compressibility (1/GPa) = 0.02243101
#
# Stress axis : x y z
#
# Youngs Moduli (GPa) = 68.79981 113.15913 104.50920
#
# Poissons Ratio (x) = 0.09031 0.19591
# Poissons Ratio (y) = 0.05491 0.26986
# Poissons Ratio (z) = 0.12897 0.29220
#
# Static dielectric constant tensor:
#      x y z
#    x 2.006160 0.000000 0.000000 
#    y 0.000000 2.254630 0.000000 
#    z 0.000000 0.000000 1.963440 
# 
# From -- ./inp_files/20603.got.cif
#   From: 2010.05.17/outbox.cif.g08.bks.cpg/sg52_11_cif.got.tgz:20603.got - 2010.06.03 12:15:38.
