data_PCOD9408525
_publ_section_title
;
Structure prediction by ZEFSAII (Michael W. Deem and Ramdas Pophale) SiO2 
 PCOD9408525
Probable space group: P N N A
;
_chemical_formula_sum "Si O2"
_cell_formula_units_Z 52
_cell_length_a 19.228629
_cell_length_b 8.880492
_cell_length_c 14.424764
_cell_angle_alpha 90.000000
_cell_angle_beta 90.000000
_cell_angle_gamma 90.000000
_cell_volume 2463.168171
_symmetry_space_group_name_H-M "P N N A"
_symmetry_group_IT_number 52
_symmetry_cell_setting 'orthorhombic'
loop_
_space_group_symop_operation_xyz
x,y,z
1/2-x,-y,z
x,1/2-y,1/2-z
1/2-x,1/2+y,1/2-z
-x,-y,-z
1/2+x,y,-z
-x,1/2+y,1/2+z
1/2+x,1/2-y,1/2+z
loop_
_atom_site_type_symbol
_atom_site_label
_atom_site_fract_x
_atom_site_fract_y
_atom_site_fract_z
Si Si1 0.750000 0.000000 0.920708
Si Si2 0.629782 0.904241 0.043027
Si Si3 0.577330 0.021729 0.590867
Si Si4 0.918111 0.414553 0.103655
Si Si5 0.089734 0.094604 0.789720
Si Si6 0.825250 0.530158 0.748356
Si Si7 0.564572 0.836157 0.862034
O O1 0.799002 0.095741 0.986136
O O2 0.704484 0.100646 0.848146
O O3 0.616038 0.746916 0.092454
O O4 0.625846 0.034388 0.118265
O O5 0.573071 0.917571 0.960965
O O6 0.501772 0.096625 0.592920
O O7 0.625008 0.091041 0.671571
O O8 0.603734 0.018517 0.484607
O O9 0.568714 0.842466 0.616041
O O10 0.905056 0.481079 0.204244
O O11 0.118178 0.250000 0.750000
O O12 0.008473 0.121033 0.816164
O O13 0.750000 0.500000 0.795101
O O14 0.871886 0.396265 0.701874
#
# Coordination Sequence:
#
# PCOD9408525 Si02
#       7
#     4   8   8   8   8   8   8
#     4   8  20  40  64  90 126 178 220 274 340 408
#     4  10  22  39  65  90 131 167 230 279 337 400
#     4  10  18  35  63  91 135 170 219 270 338 408
#     4  10  21  35  63  95 129 175 216 273 339 399
#     4  12  21  37  63  94 127 171 223 278 336 400
#     4   9  17  32  64  90 127 173 224 267 328 405
#     4  10  18  36  63  92 125 174 216 274 344 403
#
# _framework density 21.111021999999998
#
# number of rings (size 3 to 8) (size 9 to 14) (size 15 to 20)
#    0.462    1.538    3.077    1.385    0.000    0.000 
#    0.000    1.538   22.000    0.000    0.000    0.000 
#    0.000    0.000    0.000    0.000    0.000    0.000 
#
# Total GULP energy -289649.185167 kJ/mol
# GULP energy per Si atom -5570.176638 kJ/mol
# Density = 2.106297 g / cm^3
# Si number density = 21.111022 Si / 1000 Ang^3
#
#
#
# Elastic Constant Matrix: (Units=GPa)
#
#
# Indices 1 2 3 4 5 6 
#
# 1 62.5084 27.9978 34.6052 0.0000 0.0000 0.0000
# 2 27.9978 46.9132 42.4314 0.0000 0.0000 0.0000
# 3 34.6052 42.4314 172.3498 0.0000 0.0000 0.0000
# 4 0.0000 0.0000 0.0000 2.3784 0.0000 0.0000
# 5 0.0000 0.0000 0.0000 0.0000 36.0710 0.0000
# 6 0.0000 0.0000 0.0000 0.0000 0.0000 11.7740
#
#
#
# Elastic Compliance Matrix: (Units=1/GPa)
#
#
# Indices 1 2 3 4 5 6 
#
# 1 0.022145 -0.011829 -0.001534 0.000000 0.000000 0.000000
# 2 -0.011829 0.033740 -0.005932 0.000000 0.000000 0.000000
# 3 -0.001534 -0.005932 0.007571 0.000000 0.000000 0.000000
# 4 0.000000 0.000000 0.000000 0.420450 0.000000 0.000000
# 5 0.000000 0.000000 0.000000 0.000000 0.027723 0.000000
# 6 0.000000 0.000000 0.000000 0.000000 0.000000 0.084933
#
#
# Mechanical properties :
#
#
# Convention : Reuss Voigt Hill
#
# Bulk Modulus (GPa) = 40.21391 54.64891 47.43141
# Shear Modulus (GPa) = 7.77074 21.82715 14.79894
#
# Velocity S-wave (km/s) = 1.92065 3.21895 2.65052
# Velocity P-wave (km/s) = 4.89986 6.30541 5.64654
#
# Compressibility (1/GPa) = 0.02486702
#
# Stress axis : x y z
#
# Youngs Moduli (GPa) = 45.15615 29.63825 132.09090
#
# Poissons Ratio (x) = 0.35058 0.20267
# Poissons Ratio (y) = 0.53413 0.78351
# Poissons Ratio (z) = 0.06928 0.17580
#
# Static dielectric constant tensor:
#      x y z
#    x 1.779710 0.000000 0.000000 
#    y 0.000000 1.811330 0.000000 
#    z 0.000000 0.000000 1.800100 
# 
# From -- ./inp_files/28686.got.cif
#   From: 2010.05.17/outbox.cif.g08.bks.cpg/sg52_15_cif.got.tgz:28686.got - 2010.06.03 12:15:38.
