data_PCOD9408801
_publ_section_title
;
Structure prediction by ZEFSAII (Michael W. Deem and Ramdas Pophale) SiO2 
 PCOD9408801
Probable space group: P N N A
;
_chemical_formula_sum "Si O2"
_cell_formula_units_Z 52
_cell_length_a 13.839428
_cell_length_b 8.822944
_cell_length_c 21.256621
_cell_angle_alpha 90.000000
_cell_angle_beta 90.000000
_cell_angle_gamma 90.000000
_cell_volume 2595.529041
_symmetry_space_group_name_H-M "P N N A"
_symmetry_group_IT_number 52
_symmetry_cell_setting 'orthorhombic'
loop_
_space_group_symop_operation_xyz
x,y,z
1/2-x,-y,z
x,1/2-y,1/2-z
1/2-x,1/2+y,1/2-z
-x,-y,-z
1/2+x,y,-z
-x,1/2+y,1/2+z
1/2+x,1/2-y,1/2+z
loop_
_atom_site_type_symbol
_atom_site_label
_atom_site_fract_x
_atom_site_fract_y
_atom_site_fract_z
Si Si1 0.966726 0.027559 0.598474
Si Si2 0.350474 0.577260 0.221308
Si Si3 0.915046 0.763224 0.952157
Si Si4 0.750000 0.500000 0.445407
Si Si5 0.915769 0.805148 0.093318
Si Si6 0.806516 0.263391 0.550129
Si Si7 0.095564 0.532968 0.354834
O O1 0.886054 0.133963 0.563587
O O2 0.063451 0.127896 0.604172
O O3 0.923000 0.960168 0.663763
O O4 0.983658 0.877777 0.558473
O O5 0.250000 0.500000 0.200680
O O6 0.342421 0.750000 0.250000
O O7 0.382852 0.487709 0.282881
O O8 0.803408 0.705636 0.954543
O O9 0.916024 0.880681 0.895402
O O10 0.939422 0.833532 0.019378
O O11 0.814004 0.611545 0.402884
O O12 0.810185 0.384907 0.491886
O O13 0.994809 0.882581 0.136306
O O14 0.821851 0.367452 0.611788
#
# Coordination Sequence:
#
# PCOD9408801 Si02
#       7
#     8   8   8   4   8   8   8
#     4  11  24  35  55  90 127 160 200 253 304 366
#     4  12  26  39  59  90 129 171 204 240 301 381
#     4  11  18  36  53  85 122 161 198 243 306 355
#     4  10  20  40  62  84 114 160 212 256 326 366
#     4  10  23  36  60  85 116 158 204 257 306 371
#     4  10  19  32  57  81 121 162 200 240 289 369
#     4  11  21  35  59  85 119 167 203 245 292 375
#
# _framework density 20.034452999999999
#
# number of rings (size 3 to 8) (size 9 to 14) (size 15 to 20)
#    0.000    1.231    4.615    3.231    6.462    0.000 
#    0.000    0.000    0.000    0.000    4.000    0.000 
#    4.615    0.000    0.000    0.000    0.000    0.000 
#
# Total GULP energy -289901.463734 kJ/mol
# GULP energy per Si atom -5575.028149 kJ/mol
# Density = 1.998885 g / cm^3
# Si number density = 20.034453 Si / 1000 Ang^3
#
#
#
# Elastic Constant Matrix: (Units=GPa)
#
#
# Indices 1 2 3 4 5 6 
#
# 1 41.2227 21.5530 13.1545 0.0000 0.0000 0.0000
# 2 21.5530 87.5025 -2.5846 0.0000 0.0000 0.0000
# 3 13.1545 -2.5846 52.8371 0.0000 0.0000 0.0000
# 4 0.0000 0.0000 0.0000 20.8180 0.0000 0.0000
# 5 0.0000 0.0000 0.0000 0.0000 78.8642 0.0000
# 6 0.0000 0.0000 0.0000 0.0000 0.0000 33.2260
#
#
#
# Elastic Compliance Matrix: (Units=1/GPa)
#
#
# Indices 1 2 3 4 5 6 
#
# 1 0.030951 -0.007863 -0.008090 0.000000 0.000000 0.000000
# 2 -0.007863 0.013442 0.002615 0.000000 0.000000 0.000000
# 3 -0.008090 0.002615 0.021068 0.000000 0.000000 0.000000
# 4 0.000000 0.000000 0.000000 0.048035 0.000000 0.000000
# 5 0.000000 0.000000 0.000000 0.000000 0.012680 0.000000
# 6 0.000000 0.000000 0.000000 0.000000 0.000000 0.030097
#
#
# Mechanical properties :
#
#
# Convention : Reuss Voigt Hill
#
# Bulk Modulus (GPa) = 25.78268 27.31199 26.54734
# Shear Modulus (GPa) = 25.52610 36.54427 31.03518
#
# Velocity S-wave (km/s) = 3.57334 4.27555 3.94012
# Velocity P-wave (km/s) = 5.47011 6.16732 5.82915
#
# Compressibility (1/GPa) = 0.03878572
#
# Stress axis : x y z
#
# Youngs Moduli (GPa) = 32.30911 74.39290 47.46492
#
# Poissons Ratio (x) = 0.58492 0.38400
# Poissons Ratio (y) = 0.25403 -0.12412
# Poissons Ratio (z) = 0.26139 -0.19454
#
# Static dielectric constant tensor:
#      x y z
#    x 1.788250 0.000000 0.000000 
#    y 0.000000 1.812920 0.000000 
#    z 0.000000 0.000000 1.685480 
# 
# From -- ./inp_files/37271.got.cif
#   From: 2010.05.17/outbox.cif.g08.bks.cpg/sg52_19_cif.got.tgz:37271.got - 2010.06.03 12:15:38.
