data_PCOD9408238
_publ_section_title
;
Structure prediction by ZEFSAII (Michael W. Deem and Ramdas Pophale) SiO2 
 PCOD9408238
Probable space group: P N N A
;
_chemical_formula_sum "Si O2"
_cell_formula_units_Z 56
_cell_length_a 14.549142
_cell_length_b 11.299965
_cell_length_c 13.070956
_cell_angle_alpha 90.000000
_cell_angle_beta 90.000000
_cell_angle_gamma 90.000000
_cell_volume 2148.927847
_symmetry_space_group_name_H-M "P N N A"
_symmetry_group_IT_number 52
_symmetry_cell_setting 'orthorhombic'
loop_
_space_group_symop_operation_xyz
x,y,z
1/2-x,-y,z
x,1/2-y,1/2-z
1/2-x,1/2+y,1/2-z
-x,-y,-z
1/2+x,y,-z
-x,1/2+y,1/2+z
1/2+x,1/2-y,1/2+z
loop_
_atom_site_type_symbol
_atom_site_label
_atom_site_fract_x
_atom_site_fract_y
_atom_site_fract_z
Si Si1 0.001230 0.990134 0.123086
Si Si2 0.379844 0.904035 0.552453
Si Si3 0.758897 0.131872 0.635082
Si Si4 0.843318 0.160709 0.161770
Si Si5 0.364145 0.823740 0.863369
Si Si6 0.317568 0.888260 0.099487
Si Si7 0.415583 0.155967 0.506456
O O1 0.908704 0.049709 0.164038
O O2 0.091947 0.059405 0.156462
O O3 0.971099 0.859107 0.155035
O O4 0.000000 0.000000 0.000000
O O5 0.302192 0.892116 0.466596
O O6 0.359608 0.818992 0.646770
O O7 0.475833 0.857147 0.504993
O O8 0.388512 0.042127 0.575326
O O9 0.727268 0.271541 0.651836
O O10 0.864994 0.139658 0.601796
O O11 0.750000 0.000000 0.690909
O O12 0.871128 0.250000 0.250000
O O13 0.736530 0.133913 0.171012
O O14 0.872442 0.227829 0.056798
O O15 0.350369 0.848743 0.986558
O O16 0.250000 0.000000 0.085141
#
# Coordination Sequence:
#
# PCOD9408238 Si02
#       7
#     8   8   8   8   8   8   8
#     4  10  21  36  58  82 120 157 215 269 307 371
#     4   9  18  31  53  77 102 157 195 262 296 359
#     4   9  17  29  46  75 113 143 184 249 319 368
#     4  12  23  36  54  86 125 169 196 251 324 411
#     4  10  19  34  50  79 116 155 202 248 313 376
#     4  10  18  30  57  86 112 148 201 276 321 353
#     4  10  18  32  52  76 115 146 203 244 308 370
#
# _framework density 26.059507
#
# number of rings (size 3 to 8) (size 9 to 14) (size 15 to 20)
#    0.000    2.000    2.857    4.714    2.000    0.000 
#    5.143    0.000    0.000    0.000    0.000   13.000 
#    0.000    0.000    0.000    0.000    0.000    0.000 
#
# Total GULP energy -312255.217170 kJ/mol
# GULP energy per Si atom -5575.986021 kJ/mol
# Density = 2.600019 g / cm^3
# Si number density = 26.059507 Si / 1000 Ang^3
#
#
#
# Elastic Constant Matrix: (Units=GPa)
#
#
# Indices 1 2 3 4 5 6 
#
# 1 155.9227 39.2144 2.2662 0.0000 0.0000 0.0000
# 2 39.2144 144.3735 -23.3257 0.0000 0.0000 0.0000
# 3 2.2662 -23.3257 23.8906 0.0000 0.0000 0.0000
# 4 0.0000 0.0000 0.0000 -198.2584 0.0000 0.0000
# 5 0.0000 0.0000 0.0000 0.0000 5.6711 0.0000
# 6 0.0000 0.0000 0.0000 0.0000 0.0000 47.5019
#
#
#
# Elastic Compliance Matrix: (Units=1/GPa)
#
#
# Indices 1 2 3 4 5 6 
#
# 1 0.007062 -0.002406 -0.003019 0.000000 0.000000 0.000000
# 2 -0.002406 0.009043 0.009058 0.000000 0.000000 0.000000
# 3 -0.003019 0.009058 0.050987 0.000000 0.000000 0.000000
# 4 0.000000 0.000000 0.000000 -0.005044 0.000000 0.000000
# 5 0.000000 0.000000 0.000000 0.000000 0.176332 0.000000
# 6 0.000000 0.000000 0.000000 0.000000 0.000000 0.021052
#
#
# Mechanical properties :
#
#
# Convention : Reuss Voigt Hill
#
# Bulk Modulus (GPa) = 13.44832 40.05518 26.75175
# Shear Modulus (GPa) = 18.05356 -8.61493 4.71931
#
# Velocity S-wave (km/s) = 2.63493 -1.82018 1.34718
# Velocity P-wave (km/s) = 3.79855 3.31461 3.56480
#
# Compressibility (1/GPa) = 0.07435873
#
# Stress axis : x y z
#
# Youngs Moduli (GPa) = 141.59416 110.57743 19.61265
#
# Poissons Ratio (x) = 0.26606 0.05921
# Poissons Ratio (y) = 0.34068 -0.17765
# Poissons Ratio (z) = 0.42749 -1.00159
#
# Static dielectric constant tensor:
#      x y z
#    x 1.936800 0.000000 0.000000 
#    y 0.000000 2.191810 0.000000 
#    z 0.000000 0.000000 2.076340 
# 
# From -- ./inp_files/27269.got.cif
#   From: 2010.05.17/outbox.cif.g08.bks.cpg/sg52_14_cif.got.tgz:27269.got - 2010.06.03 12:15:38.
