data_PCOD9408976
_publ_section_title
;
Structure prediction by ZEFSAII (Michael W. Deem and Ramdas Pophale) SiO2 
 PCOD9408976
Probable space group: P N N A
;
_chemical_formula_sum "Si O2"
_cell_formula_units_Z 44
_cell_length_a 13.677530
_cell_length_b 13.588358
_cell_length_c 9.785210
_cell_angle_alpha 90.000000
_cell_angle_beta 90.000000
_cell_angle_gamma 90.000000
_cell_volume 1818.631909
_symmetry_space_group_name_H-M "P N N A"
_symmetry_group_IT_number 52
_symmetry_cell_setting 'orthorhombic'
loop_
_space_group_symop_operation_xyz
x,y,z
1/2-x,-y,z
x,1/2-y,1/2-z
1/2-x,1/2+y,1/2-z
-x,-y,-z
1/2+x,y,-z
-x,1/2+y,1/2+z
1/2+x,1/2-y,1/2+z
loop_
_atom_site_type_symbol
_atom_site_label
_atom_site_fract_x
_atom_site_fract_y
_atom_site_fract_z
Si Si1 0.044101 0.092733 0.217719
Si Si2 0.292526 0.772602 0.607638
Si Si3 0.143964 0.486858 0.812862
Si Si4 0.150106 0.638890 0.069509
Si Si5 0.250000 0.500000 0.285453
Si Si6 0.531193 0.237521 0.525410
O O1 0.062707 0.153470 0.361346
O O2 0.994709 0.173409 0.119280
O O3 0.959468 0.011701 0.243869
O O4 0.148419 0.051659 0.161908
O O5 0.242491 0.750000 0.750000
O O6 0.220070 0.775197 0.483221
O O7 0.384817 0.710610 0.564348
O O8 0.344733 0.878065 0.628221
O O9 0.250000 0.500000 0.736678
O O10 0.147245 0.561793 0.942336
O O11 0.045258 0.687097 0.074979
O O12 0.198526 0.584244 0.193886
#
# Coordination Sequence:
#
# PCOD9408976 Si02
#       6
#     8   8   8   8   4   8
#     4  10  21  35  64  87 124 152 200 259 313 367
#     4  11  21  35  57  86 119 154 202 249 297 362
#     4   9  18  35  56  86 114 154 203 249 297 354
#     4  10  19  34  62  87 118 154 205 254 296 361
#     4  12  18  36  62  98 122 158 208 264 312 366
#     4  10  21  38  56  92 118 157 198 248 314 361
#
# _framework density 24.194009999999999
#
# number of rings (size 3 to 8) (size 9 to 14) (size 15 to 20)
#    0.000    1.818    4.545    1.091    7.636    2.909 
#    0.000    4.545    6.000    0.000    0.000    0.000 
#    0.000    0.000    0.000    0.000    0.000    0.000 
#
# Total GULP energy -245083.205457 kJ/mol
# GULP energy per Si atom -5570.072851 kJ/mol
# Density = 2.413894 g / cm^3
# Si number density = 24.194010 Si / 1000 Ang^3
#
#
#
# Elastic Constant Matrix: (Units=GPa)
#
#
# Indices 1 2 3 4 5 6 
#
# 1 138.5245 26.4946 2.4391 0.0000 0.0000 0.0000
# 2 26.4946 30.0341 2.5948 0.0000 0.0000 0.0000
# 3 2.4391 2.5948 14.0419 0.0000 0.0000 0.0000
# 4 0.0000 0.0000 0.0000 9.7236 0.0000 0.0000
# 5 0.0000 0.0000 0.0000 0.0000 7.1320 0.0000
# 6 0.0000 0.0000 0.0000 0.0000 0.0000 11.2827
#
#
#
# Elastic Compliance Matrix: (Units=1/GPa)
#
#
# Indices 1 2 3 4 5 6 
#
# 1 0.008684 -0.007653 -0.000094 0.000000 0.000000 0.000000
# 2 -0.007653 0.040579 -0.006169 0.000000 0.000000 0.000000
# 3 -0.000094 -0.006169 0.072372 0.000000 0.000000 0.000000
# 4 0.000000 0.000000 0.000000 0.102843 0.000000 0.000000
# 5 0.000000 0.000000 0.000000 0.000000 0.140213 0.000000
# 6 0.000000 0.000000 0.000000 0.000000 0.000000 0.088632
#
#
# Mechanical properties :
#
#
# Convention : Reuss Voigt Hill
#
# Bulk Modulus (GPa) = 10.66069 27.29527 18.97798
# Shear Modulus (GPa) = 9.75757 15.69912 12.72835
#
# Velocity S-wave (km/s) = 2.01042 2.55008 2.29616
# Velocity P-wave (km/s) = 3.13129 4.46955 3.85888
#
# Compressibility (1/GPa) = 0.09380260
#
# Stress axis : x y z
#
# Youngs Moduli (GPa) = 115.15065 24.64313 13.81756
#
# Poissons Ratio (x) = 0.18859 0.00130
# Poissons Ratio (y) = 0.88121 0.08524
# Poissons Ratio (z) = 0.01086 0.15203
#
# Static dielectric constant tensor:
#      x y z
#    x 2.079330 0.000000 0.000000 
#    y 0.000000 2.043710 0.000000 
#    z 0.000000 0.000000 1.945120 
# 
# From -- ./inp_files/19429.got.cif
#   From: 2010.05.17/outbox.cif.g08.bks.cpg/sg52_10_cif.got.tgz:19429.got - 2010.06.03 12:15:38.
