data_PCOD9408321
_publ_section_title
;
Structure prediction by ZEFSAII (Michael W. Deem and Ramdas Pophale) SiO2 
 PCOD9408321
Probable space group: P N N A
;
_chemical_formula_sum "Si O2"
_cell_formula_units_Z 48
_cell_length_a 24.622713
_cell_length_b 6.933244
_cell_length_c 12.298812
_cell_angle_alpha 90.000000
_cell_angle_beta 90.000000
_cell_angle_gamma 90.000000
_cell_volume 2099.595099
_symmetry_space_group_name_H-M "P N N A"
_symmetry_group_IT_number 52
_symmetry_cell_setting 'orthorhombic'
loop_
_space_group_symop_operation_xyz
x,y,z
1/2-x,-y,z
x,1/2-y,1/2-z
1/2-x,1/2+y,1/2-z
-x,-y,-z
1/2+x,y,-z
-x,1/2+y,1/2+z
1/2+x,1/2-y,1/2+z
loop_
_atom_site_type_symbol
_atom_site_label
_atom_site_fract_x
_atom_site_fract_y
_atom_site_fract_z
Si Si1 0.599343 0.472165 0.220834
Si Si2 0.587839 0.587332 0.451255
Si Si3 0.507698 0.336702 0.859550
Si Si4 0.289389 0.744600 0.377530
Si Si5 0.107646 0.133947 0.492239
Si Si6 0.827142 0.302307 0.621699
O O1 0.604817 0.250000 0.250000
O O2 0.614418 0.590753 0.329036
O O3 0.537003 0.521379 0.191562
O O4 0.624890 0.476813 0.101512
O O5 0.528500 0.678679 0.425879
O O6 0.591145 0.359575 0.481785
O O7 0.619926 0.701920 0.545082
O O8 0.535188 0.250000 0.750000
O O9 0.552915 0.433646 0.933432
O O10 0.281589 0.750000 0.250000
O O11 0.340627 0.868057 0.414596
O O12 0.229291 0.793572 0.420206
O O13 0.308901 0.525582 0.394315
O O14 0.837184 0.250000 0.750000
#
# Coordination Sequence:
#
# PCOD9408321 Si02
#       6
#     8   8   8   8   8   8
#     4   9  19  34  52  73 104 143 179 217 262 315
#     4   9  19  34  51  73 105 139 175 219 261 313
#     4  10  19  32  51  76 107 139 173 216 265 319
#     4   9  18  32  53  79 107 136 171 220 269 320
#     4  10  18  32  53  77 105 139 173 211 266 323
#     4   9  18  34  54  77 105 138 176 221 272 317
#
# _framework density 22.861552
#
# number of rings (size 3 to 8) (size 9 to 14) (size 15 to 20)
#    0.000    2.667    0.000    1.500    0.000    1.333 
#    0.000    9.167    0.000   29.000    0.000    0.000 
#    0.000    0.000    0.000    0.000    0.000    0.000 
#
# Total GULP energy -267446.086635 kJ/mol
# GULP energy per Si atom -5571.793472 kJ/mol
# Density = 2.280952 g / cm^3
# Si number density = 22.861552 Si / 1000 Ang^3
#
#
#
# Elastic Constant Matrix: (Units=GPa)
#
#
# Indices 1 2 3 4 5 6 
#
# 1 101.9958 19.7505 59.9469 0.0000 0.0000 0.0000
# 2 19.7505 53.6295 15.9190 0.0000 0.0000 0.0000
# 3 59.9469 15.9190 119.7416 0.0000 0.0000 0.0000
# 4 0.0000 0.0000 0.0000 39.9150 0.0000 0.0000
# 5 0.0000 0.0000 0.0000 0.0000 24.9515 0.0000
# 6 0.0000 0.0000 0.0000 0.0000 0.0000 35.6093
#
#
#
# Elastic Compliance Matrix: (Units=1/GPa)
#
#
# Indices 1 2 3 4 5 6 
#
# 1 0.014432 -0.003301 -0.006786 0.000000 0.000000 0.000000
# 2 -0.003301 0.020167 -0.001029 0.000000 0.000000 0.000000
# 3 -0.006786 -0.001029 0.011886 0.000000 0.000000 0.000000
# 4 0.000000 0.000000 0.000000 0.025053 0.000000 0.000000
# 5 0.000000 0.000000 0.000000 0.000000 0.040078 0.000000
# 6 0.000000 0.000000 0.000000 0.000000 0.000000 0.028083
#
#
# Mechanical properties :
#
#
# Convention : Reuss Voigt Hill
#
# Bulk Modulus (GPa) = 41.23109 51.84441 46.53775
# Shear Modulus (GPa) = 29.40922 32.07851 30.74387
#
# Velocity S-wave (km/s) = 3.59054 3.74995 3.67111
# Velocity P-wave (km/s) = 5.93831 6.44021 6.19435
#
# Compressibility (1/GPa) = 0.02425355
#
# Stress axis : x y z
#
# Youngs Moduli (GPa) = 69.29002 49.58507 84.13533
#
# Poissons Ratio (x) = 0.16366 0.57098
# Poissons Ratio (y) = 0.22870 0.08655
# Poissons Ratio (z) = 0.47023 0.05101
#
# Static dielectric constant tensor:
#      x y z
#    x 1.818310 0.000000 0.000000 
#    y 0.000000 1.942320 0.000000 
#    z 0.000000 0.000000 1.876630 
# 
# From -- ./inp_files/22297.got.cif
#   From: 2010.05.17/outbox.cif.g08.bks.cpg/sg52_12_cif.got.tgz:22297.got - 2010.06.03 12:15:38.
