data_PCOD9408022
_publ_section_title
;
Structure prediction by ZEFSAII (Michael W. Deem and Ramdas Pophale) SiO2 
 PCOD9408022
Probable space group: P N N A
;
_chemical_formula_sum "Si O2"
_cell_formula_units_Z 56
_cell_length_a 9.329315
_cell_length_b 13.582154
_cell_length_c 27.957134
_cell_angle_alpha 90.000000
_cell_angle_beta 90.000000
_cell_angle_gamma 90.000000
_cell_volume 3542.509760
_symmetry_space_group_name_H-M "P N N A"
_symmetry_group_IT_number 52
_symmetry_cell_setting 'orthorhombic'
loop_
_space_group_symop_operation_xyz
x,y,z
1/2-x,-y,z
x,1/2-y,1/2-z
1/2-x,1/2+y,1/2-z
-x,-y,-z
1/2+x,y,-z
-x,1/2+y,1/2+z
1/2+x,1/2-y,1/2+z
loop_
_atom_site_type_symbol
_atom_site_label
_atom_site_fract_x
_atom_site_fract_y
_atom_site_fract_z
Si Si1 0.857683 0.215008 0.318335
Si Si2 0.454876 0.084627 0.302826
Si Si3 0.845719 0.861879 0.674423
Si Si4 0.519044 0.385992 0.015550
Si Si5 0.273077 0.619363 0.063439
Si Si6 0.181557 0.392515 0.886593
Si Si7 0.214068 0.393796 0.735272
O O1 0.802220 0.184119 0.370184
O O2 0.767317 0.307833 0.299555
O O3 0.808299 0.126733 0.282907
O O4 0.028978 0.216571 0.315205
O O5 0.306020 0.143240 0.299016
O O6 0.548737 0.115566 0.349388
O O7 0.553680 0.103504 0.256473
O O8 0.411573 0.970376 0.313092
O O9 0.802957 0.857260 0.618491
O O10 0.371236 0.344764 0.036866
O O11 0.628728 0.381599 0.059670
O O12 0.500000 0.500000 0.000000
O O13 0.593724 0.344180 0.968361
O O14 0.250000 0.500000 0.062805
O O15 0.250000 0.500000 0.881236
O O16 0.250000 0.500000 0.714903
#
# Coordination Sequence:
#
# PCOD9408022 Si02
#       7
#     8   8   8   8   8   8   8
#     4  10  21  30  52  73  90 132 171 208 254 313
#     4  10  17  29  50  64  94 132 159 210 251 295
#     4  11  17  30  48  74  96 129 172 209 248 300
#     4  10  19  27  37  65  98 146 167 198 227 291
#     4  10  18  26  39  63 101 134 176 189 235 287
#     4  11  17  29  44  65  99 139 170 194 241 297
#     4  10  19  37  50  70  96 125 172 215 260 312
#
# _framework density 15.808002
#
# number of rings (size 3 to 8) (size 9 to 14) (size 15 to 20)
#    0.000    1.714    5.714    3.000    2.000    0.000 
#    0.000    5.714    0.000    0.000    0.000    0.000 
#    0.000    1.143    0.000    0.000    0.000    0.286 
#
# Total GULP energy -311752.743364 kJ/mol
# GULP energy per Si atom -5567.013274 kJ/mol
# Density = 1.577202 g / cm^3
# Si number density = 15.808002 Si / 1000 Ang^3
#
#
#
# Elastic Constant Matrix: (Units=GPa)
#
#
# Indices 1 2 3 4 5 6 
#
# 1 121.4831 22.0375 35.7578 0.0000 0.0000 0.0000
# 2 22.0375 35.0997 15.8382 0.0000 0.0000 0.0000
# 3 35.7578 15.8382 57.1959 0.0000 0.0000 0.0000
# 4 0.0000 0.0000 0.0000 8.2427 0.0000 0.0000
# 5 0.0000 0.0000 0.0000 0.0000 23.5262 0.0000
# 6 0.0000 0.0000 0.0000 0.0000 0.0000 11.4857
#
#
#
# Elastic Compliance Matrix: (Units=1/GPa)
#
#
# Indices 1 2 3 4 5 6 
#
# 1 0.010601 -0.004189 -0.005468 0.000000 0.000000 0.000000
# 2 -0.004189 0.034214 -0.006855 0.000000 0.000000 0.000000
# 3 -0.005468 -0.006855 0.022800 0.000000 0.000000 0.000000
# 4 0.000000 0.000000 0.000000 0.121320 0.000000 0.000000
# 5 0.000000 0.000000 0.000000 0.000000 0.042506 0.000000
# 6 0.000000 0.000000 0.000000 0.000000 0.000000 0.087065
#
#
# Mechanical properties :
#
#
# Convention : Reuss Voigt Hill
#
# Bulk Modulus (GPa) = 28.90893 40.11619 34.51256
# Shear Modulus (GPa) = 13.77188 17.99393 15.88290
#
# Velocity S-wave (km/s) = 2.95481 3.37750 3.17320
# Velocity P-wave (km/s) = 5.47434 6.37513 5.94183
#
# Compressibility (1/GPa) = 0.03459138
#
# Stress axis : x y z
#
# Youngs Moduli (GPa) = 94.33282 29.22821 43.85897
#
# Poissons Ratio (x) = 0.12243 0.23980
# Poissons Ratio (y) = 0.39512 0.30068
# Poissons Ratio (z) = 0.51577 0.20037
#
# Static dielectric constant tensor:
#      x y z
#    x 1.597030 0.000000 0.000000 
#    y 0.000000 1.519170 0.000000 
#    z 0.000000 0.000000 1.542550 
# 
# From -- ./inp_files/44636.got.cif
#   From: 2010.05.17/outbox.cif.g08.bks.cpg/sg52_23_cif.got.tgz:44636.got - 2010.06.03 12:15:38.
