data_PCOD9408174
_publ_section_title
;
Structure prediction by ZEFSAII (Michael W. Deem and Ramdas Pophale) SiO2 
 PCOD9408174
Probable space group: P N N A
;
_chemical_formula_sum "Si O2"
_cell_formula_units_Z 64
_cell_length_a 13.888685
_cell_length_b 16.220440
_cell_length_c 17.568414
_cell_angle_alpha 90.000000
_cell_angle_beta 90.000000
_cell_angle_gamma 90.000000
_cell_volume 3957.822526
_symmetry_space_group_name_H-M "P N N A"
_symmetry_group_IT_number 52
_symmetry_cell_setting 'orthorhombic'
loop_
_space_group_symop_operation_xyz
x,y,z
1/2-x,-y,z
x,1/2-y,1/2-z
1/2-x,1/2+y,1/2-z
-x,-y,-z
1/2+x,y,-z
-x,1/2+y,1/2+z
1/2+x,1/2-y,1/2+z
loop_
_atom_site_type_symbol
_atom_site_label
_atom_site_fract_x
_atom_site_fract_y
_atom_site_fract_z
Si Si1 0.719324 0.224079 0.436101
Si Si2 0.333738 0.067318 0.297252
Si Si3 0.666455 0.167203 0.197706
Si Si4 0.554042 0.675399 0.688898
Si Si5 0.295561 0.085740 0.677599
Si Si6 0.041160 0.116669 0.517355
Si Si7 0.646827 0.797881 0.575828
Si Si8 0.992926 0.030540 0.372594
O O1 0.706185 0.304561 0.384077
O O2 0.773373 0.157233 0.382953
O O3 0.615811 0.184573 0.454641
O O4 0.775820 0.231728 0.514782
O O5 0.367306 0.111487 0.219876
O O6 0.312353 0.140276 0.358818
O O7 0.250000 0.000000 0.291285
O O8 0.429197 0.020438 0.326146
O O9 0.662449 0.250000 0.250000
O O10 0.554940 0.139919 0.188058
O O11 0.738521 0.108691 0.244765
O O12 0.550042 0.750000 0.750000
O O13 0.591410 0.721146 0.613903
O O14 0.410180 0.071481 0.678389
O O15 0.250000 0.000000 0.650696
O O16 0.933765 0.148133 0.532989
O O17 0.047156 0.093589 0.428899
O O18 0.055749 0.035115 0.568882
#
# Coordination Sequence:
#
# PCOD9408174 Si02
#       8
#     8   8   8   8   8   8   8   8
#     4  11  19  31  50  74 105 134 169 210 254 308
#     4  10  20  32  51  76 105 135 175 209 252 311
#     4   9  19  31  50  73 100 134 174 212 253 304
#     4   9  17  33  52  71  98 136 180 209 243 308
#     4  11  19  29  48  76 102 132 166 208 261 306
#     4  10  18  29  45  74 108 135 163 196 250 319
#     4  10  19  31  52  74 102 139 171 209 251 308
#     4  10  19  29  46  74 108 137 159 203 259 306
#
# _framework density 16.170507000000001
#
# number of rings (size 3 to 8) (size 9 to 14) (size 15 to 20)
#    0.000    2.000    3.750    1.500    3.500    0.500 
#    0.000    0.000    2.750    3.000    0.000    2.625 
#    0.000    0.000    0.000    0.000    0.000    0.000 
#
# Total GULP energy -356500.262440 kJ/mol
# GULP energy per Si atom -5570.316601 kJ/mol
# Density = 1.613370 g / cm^3
# Si number density = 16.170507 Si / 1000 Ang^3
#
#
#
# Elastic Constant Matrix: (Units=GPa)
#
#
# Indices 1 2 3 4 5 6 
#
# 1 77.6950 24.0187 28.7000 0.0000 0.0000 0.0000
# 2 24.0187 32.3039 25.8584 0.0000 0.0000 0.0000
# 3 28.7000 25.8584 57.8662 0.0000 0.0000 0.0000
# 4 0.0000 0.0000 0.0000 18.1971 0.0000 0.0000
# 5 0.0000 0.0000 0.0000 0.0000 19.8021 0.0000
# 6 0.0000 0.0000 0.0000 0.0000 0.0000 22.6967
#
#
#
# Elastic Compliance Matrix: (Units=1/GPa)
#
#
# Indices 1 2 3 4 5 6 
#
# 1 0.017415 -0.009395 -0.004439 0.000000 0.000000 0.000000
# 2 -0.009395 0.053264 -0.019142 0.000000 0.000000 0.000000
# 3 -0.004439 -0.019142 0.028037 0.000000 0.000000 0.000000
# 4 0.000000 0.000000 0.000000 0.054954 0.000000 0.000000
# 5 0.000000 0.000000 0.000000 0.000000 0.050500 0.000000
# 6 0.000000 0.000000 0.000000 0.000000 0.000000 0.044059
#
#
# Mechanical properties :
#
#
# Convention : Reuss Voigt Hill
#
# Bulk Modulus (GPa) = 30.52181 36.11326 33.31754
# Shear Modulus (GPa) = 15.37974 18.09172 16.73573
#
# Velocity S-wave (km/s) = 3.08733 3.34849 3.22056
# Velocity P-wave (km/s) = 5.62359 6.10992 5.87179
#
# Compressibility (1/GPa) = 0.03276345
#
# Stress axis : x y z
#
# Youngs Moduli (GPa) = 57.42172 18.77423 35.66735
#
# Poissons Ratio (x) = 0.17639 0.15833
# Poissons Ratio (y) = 0.53949 0.68275
# Poissons Ratio (z) = 0.25489 0.35938
#
# Static dielectric constant tensor:
#      x y z
#    x 1.557190 0.000000 0.000000 
#    y 0.000000 1.548540 0.000000 
#    z 0.000000 0.000000 1.550640 
# 
# From -- ./inp_files/33347.got.cif
#   From: 2010.05.17/outbox.cif.g08.bks.cpg/sg52_17_cif.got.tgz:33347.got - 2010.06.03 12:15:38.
