data_PCOD9408997
_publ_section_title
;
Structure prediction by ZEFSAII (Michael W. Deem and Ramdas Pophale) SiO2 
 PCOD9408997
Probable space group: P N N A
;
_chemical_formula_sum "Si O2"
_cell_formula_units_Z 48
_cell_length_a 17.310213
_cell_length_b 13.782980
_cell_length_c 10.364591
_cell_angle_alpha 90.000000
_cell_angle_beta 90.000000
_cell_angle_gamma 90.000000
_cell_volume 2472.849621
_symmetry_space_group_name_H-M "P N N A"
_symmetry_group_IT_number 52
_symmetry_cell_setting 'orthorhombic'
loop_
_space_group_symop_operation_xyz
x,y,z
1/2-x,-y,z
x,1/2-y,1/2-z
1/2-x,1/2+y,1/2-z
-x,-y,-z
1/2+x,y,-z
-x,1/2+y,1/2+z
1/2+x,1/2-y,1/2+z
loop_
_atom_site_type_symbol
_atom_site_label
_atom_site_fract_x
_atom_site_fract_y
_atom_site_fract_z
Si Si1 0.708222 0.097553 0.211771
Si Si2 0.250000 0.000000 0.212628
Si Si3 0.846499 0.317688 0.129069
Si Si4 0.590073 0.446786 0.840597
Si Si5 0.369159 0.750000 0.250000
Si Si6 0.430445 0.521071 0.867579
Si Si7 0.748970 0.195099 0.957048
O O1 0.764954 0.136387 0.323167
O O2 0.750000 0.000000 0.164095
O O3 0.625905 0.070690 0.266595
O O4 0.708101 0.168152 0.091379
O O5 0.173476 0.012627 0.299588
O O6 0.261571 0.096071 0.124290
O O7 0.871473 0.250000 0.250000
O O8 0.902901 0.408771 0.111902
O O9 0.825042 0.253825 0.003374
O O10 0.582050 0.347864 0.758714
O O11 0.517959 0.518052 0.818269
O O12 0.582023 0.429291 0.993818
O O13 0.310744 0.745070 0.129148
#
# Coordination Sequence:
#
# PCOD9408997 Si02
#       7
#     8   4   8   8   4   8   8
#     4   9  17  33  58  84 112 141 186 237 285 335
#     4  10  22  38  58  76 122 156 194 234 290 362
#     4   9  19  32  59  88 113 144 190 241 284 337
#     4  10  23  39  56  84 114 153 197 236 298 354
#     4  10  22  36  56  78 116 152 184 236 288 352
#     4  10  21  37  60  85 114 149 194 248 290 345
#     4  10  19  35  55  86 108 150 194 231 283 354
#
# _framework density 19.410803000000001
#
# number of rings (size 3 to 8) (size 9 to 14) (size 15 to 20)
#    0.000    2.333    0.833    1.000    9.333    0.000 
#    0.000    5.000    0.000    4.000    0.000    0.000 
#    0.000    0.000    0.000    0.000    0.000    0.000 
#
# Total GULP energy -267614.571444 kJ/mol
# GULP energy per Si atom -5575.303572 kJ/mol
# Density = 1.936662 g / cm^3
# Si number density = 19.410803 Si / 1000 Ang^3
#
#
#
# Elastic Constant Matrix: (Units=GPa)
#
#
# Indices 1 2 3 4 5 6 
#
# 1 108.0904 13.4955 35.7125 0.0000 0.0000 0.0000
# 2 13.4955 49.3273 3.2178 0.0000 0.0000 0.0000
# 3 35.7125 3.2178 42.5346 0.0000 0.0000 0.0000
# 4 0.0000 0.0000 0.0000 24.2120 0.0000 0.0000
# 5 0.0000 0.0000 0.0000 0.0000 6.1570 0.0000
# 6 0.0000 0.0000 0.0000 0.0000 0.0000 25.5193
#
#
#
# Elastic Compliance Matrix: (Units=1/GPa)
#
#
# Indices 1 2 3 4 5 6 
#
# 1 0.013204 -0.002904 -0.010867 0.000000 0.000000 0.000000
# 2 -0.002904 0.021012 0.000848 0.000000 0.000000 0.000000
# 3 -0.010867 0.000848 0.032570 0.000000 0.000000 0.000000
# 4 0.000000 0.000000 0.000000 0.041302 0.000000 0.000000
# 5 0.000000 0.000000 0.000000 0.000000 0.162417 0.000000
# 6 0.000000 0.000000 0.000000 0.000000 0.000000 0.039186
#
#
# Mechanical properties :
#
#
# Convention : Reuss Voigt Hill
#
# Bulk Modulus (GPa) = 24.42486 33.86711 29.14599
# Shear Modulus (GPa) = 14.31916 21.01275 17.66595
#
# Velocity S-wave (km/s) = 2.71899 3.29375 3.02007
# Velocity P-wave (km/s) = 4.74001 5.65248 5.21623
#
# Compressibility (1/GPa) = 0.04094189
#
# Stress axis : x y z
#
# Youngs Moduli (GPa) = 75.73218 47.59225 30.70301
#
# Poissons Ratio (x) = 0.13819 0.33365
# Poissons Ratio (y) = 0.21990 -0.02605
# Poissons Ratio (z) = 0.82298 -0.04038
#
# Static dielectric constant tensor:
#      x y z
#    x 1.671880 0.000000 0.000000 
#    y 0.000000 1.829660 0.000000 
#    z 0.000000 0.000000 1.677570 
# 
# From -- ./inp_files/12136.got.cif
#   From: 2010.05.17/outbox.cif.g08.bks.cpg/sg52_7_cif.got.tgz:12136.got - 2010.06.03 12:15:38.
