data_PCOD9408815
_publ_section_title
;
Structure prediction by ZEFSAII (Michael W. Deem and Ramdas Pophale) SiO2 
 PCOD9408815
Probable space group: P N N A
;
_chemical_formula_sum "Si O2"
_cell_formula_units_Z 44
_cell_length_a 8.765866
_cell_length_b 24.004935
_cell_length_c 9.589572
_cell_angle_alpha 90.000000
_cell_angle_beta 90.000000
_cell_angle_gamma 90.000000
_cell_volume 2017.876516
_symmetry_space_group_name_H-M "P N N A"
_symmetry_group_IT_number 52
_symmetry_cell_setting 'orthorhombic'
loop_
_space_group_symop_operation_xyz
x,y,z
1/2-x,-y,z
x,1/2-y,1/2-z
1/2-x,1/2+y,1/2-z
-x,-y,-z
1/2+x,y,-z
-x,1/2+y,1/2+z
1/2+x,1/2-y,1/2+z
loop_
_atom_site_type_symbol
_atom_site_label
_atom_site_fract_x
_atom_site_fract_y
_atom_site_fract_z
Si Si1 0.077152 0.770016 0.445358
Si Si2 0.084382 0.065481 0.366235
Si Si3 0.439417 0.436838 0.171805
Si Si4 0.412601 0.168505 0.742283
Si Si5 0.070215 0.166379 0.802646
Si Si6 0.154401 0.250000 0.250000
O O1 0.095641 0.796183 0.597354
O O2 0.241169 0.773679 0.371631
O O3 0.967061 0.808549 0.351253
O O4 0.019663 0.707622 0.405986
O O5 0.263005 0.080799 0.352887
O O6 0.036730 0.067942 0.528882
O O7 0.969839 0.107121 0.290199
O O8 0.064335 0.003283 0.305587
O O9 0.510816 0.396859 0.289446
O O10 0.251923 0.170245 0.819690
O O11 0.553263 0.200518 0.810991
#
# Coordination Sequence:
#
# PCOD9408815 Si02
#       6
#     8   8   8   8   8   4
#     4  10  21  35  51  74 108 149 184 232 274 322
#     4  10  20  30  52  74 108 149 174 219 283 329
#     4  10  19  33  47  78 108 144 181 217 272 345
#     4  12  21  35  55  79 110 151 183 231 275 334
#     4  10  20  33  51  75 108 144 186 222 270 327
#     4  10  22  34  52  76 104 146 194 222 282 330
#
# _framework density 21.805099999999999
#
# number of rings (size 3 to 8) (size 9 to 14) (size 15 to 20)
#    0.000    1.818    1.818    5.455    0.000    2.182 
#    0.000    0.000    0.000    0.000    0.000    1.273 
#    0.000    8.727    0.000    3.455    0.000    0.000 
#
# Total GULP energy -245788.909263 kJ/mol
# GULP energy per Si atom -5586.111574 kJ/mol
# Density = 2.175547 g / cm^3
# Si number density = 21.805100 Si / 1000 Ang^3
#
#
#
# Elastic Constant Matrix: (Units=GPa)
#
#
# Indices 1 2 3 4 5 6 
#
# 1 147.8755 47.8895 2.5622 0.0000 0.0000 0.0000
# 2 47.8895 132.9064 17.0617 0.0000 0.0000 0.0000
# 3 2.5622 17.0617 40.8810 0.0000 0.0000 0.0000
# 4 0.0000 0.0000 0.0000 24.2378 0.0000 0.0000
# 5 0.0000 0.0000 0.0000 0.0000 8.0050 0.0000
# 6 0.0000 0.0000 0.0000 0.0000 0.0000 37.1283
#
#
#
# Elastic Compliance Matrix: (Units=1/GPa)
#
#
# Indices 1 2 3 4 5 6 
#
# 1 0.007675 -0.002857 0.000711 0.000000 0.000000 0.000000
# 2 -0.002857 0.009013 -0.003583 0.000000 0.000000 0.000000
# 3 0.000711 -0.003583 0.025912 0.000000 0.000000 0.000000
# 4 0.000000 0.000000 0.000000 0.041258 0.000000 0.000000
# 5 0.000000 0.000000 0.000000 0.000000 0.124922 0.000000
# 6 0.000000 0.000000 0.000000 0.000000 0.000000 0.026934
#
#
# Mechanical properties :
#
#
# Convention : Reuss Voigt Hill
#
# Bulk Modulus (GPa) = 32.10894 50.74331 41.42613
# Shear Modulus (GPa) = 19.41352 30.81751 25.11552
#
# Velocity S-wave (km/s) = 2.98706 3.76349 3.39753
# Velocity P-wave (km/s) = 5.16276 6.49669 5.86775
#
# Compressibility (1/GPa) = 0.03114398
#
# Stress axis : x y z
#
# Youngs Moduli (GPa) = 130.28745 110.94546 38.59235
#
# Poissons Ratio (x) = 0.31696 -0.02745
# Poissons Ratio (y) = 0.37222 0.13826
# Poissons Ratio (z) = -0.09267 0.39748
#
# Static dielectric constant tensor:
#      x y z
#    x 1.821140 0.000000 0.000000 
#    y 0.000000 1.843820 0.000000 
#    z 0.000000 0.000000 1.888190 
# 
# From -- ./inp_files/16891.got.cif
#   From: 2010.05.17/outbox.cif.g08.bks.cpg/sg52_9_cif.got.tgz:16891.got - 2010.06.03 12:15:38.
