data_PCOD9408655
_publ_section_title
;
Structure prediction by ZEFSAII (Michael W. Deem and Ramdas Pophale) SiO2 
 PCOD9408655
Probable space group: P N N A
;
_chemical_formula_sum "Si O2"
_cell_formula_units_Z 60
_cell_length_a 13.254208
_cell_length_b 9.242926
_cell_length_c 24.927590
_cell_angle_alpha 90.000000
_cell_angle_beta 90.000000
_cell_angle_gamma 90.000000
_cell_volume 3053.820813
_symmetry_space_group_name_H-M "P N N A"
_symmetry_group_IT_number 52
_symmetry_cell_setting 'orthorhombic'
loop_
_space_group_symop_operation_xyz
x,y,z
1/2-x,-y,z
x,1/2-y,1/2-z
1/2-x,1/2+y,1/2-z
-x,-y,-z
1/2+x,y,-z
-x,1/2+y,1/2+z
1/2+x,1/2-y,1/2+z
loop_
_atom_site_type_symbol
_atom_site_label
_atom_site_fract_x
_atom_site_fract_y
_atom_site_fract_z
Si Si1 0.330451 0.123560 0.851322
Si Si2 0.468191 0.448425 0.342987
Si Si3 0.101961 0.394790 0.941149
Si Si4 0.452389 0.373672 0.463720
Si Si5 0.950856 0.873943 0.318741
Si Si6 0.830595 0.301687 0.041646
Si Si7 0.149239 0.576805 0.242096
Si Si8 0.286002 0.750000 0.750000
O O1 0.347987 0.231387 0.900342
O O2 0.280480 0.194454 0.799138
O O3 0.250000 0.000000 0.869103
O O4 0.438075 0.055251 0.838932
O O5 0.432886 0.433621 0.404223
O O6 0.514262 0.292743 0.326091
O O7 0.381875 0.483459 0.300469
O O8 0.088410 0.418863 0.876996
O O9 0.099614 0.555998 0.965426
O O10 0.213738 0.342998 0.956474
O O11 0.027806 0.263913 0.956717
O O12 0.500000 0.500000 0.500000
O O13 0.356844 0.311039 0.495226
O O14 0.860582 0.871043 0.275627
O O15 0.051538 0.948163 0.295874
O O16 0.250000 0.500000 0.222072
O O17 0.164195 0.750000 0.250000
#
# Coordination Sequence:
#
# PCOD9408655 Si02
#       8
#     8   8   8   8   8   8   8   4
#     4  12  21  35  59  96 128 165 219 258 320 404
#     4  10  20  39  60  88 123 161 213 269 306 378
#     4  10  23  42  63  95 132 164 210 264 332 396
#     4  11  22  40  67  87 122 172 217 266 317 376
#     4  10  18  40  67  88 126 173 197 254 329 393
#     4  11  23  39  63  92 128 167 208 269 326 382
#     4  10  21  42  65  86 121 164 214 263 324 374
#     4  12  20  32  62  98 134 172 204 254 330 408
#
# _framework density 19.647518999999999
#
# number of rings (size 3 to 8) (size 9 to 14) (size 15 to 20)
#    0.000    1.333    6.000    1.200    0.000    2.133 
#    6.000    0.000   32.267    0.000    0.000    0.000 
#    0.000    0.000    0.000    0.000    0.000    0.000 
#
# Total GULP energy -334926.675079 kJ/mol
# GULP energy per Si atom -5582.111251 kJ/mol
# Density = 1.960280 g / cm^3
# Si number density = 19.647519 Si / 1000 Ang^3
#
#
#
# Elastic Constant Matrix: (Units=GPa)
#
#
# Indices 1 2 3 4 5 6 
#
# 1 103.3927 32.0663 58.4360 0.0000 0.0000 0.0000
# 2 32.0663 52.9330 28.0922 0.0000 0.0000 0.0000
# 3 58.4360 28.0922 124.5673 0.0000 0.0000 0.0000
# 4 0.0000 0.0000 0.0000 23.7318 0.0000 0.0000
# 5 0.0000 0.0000 0.0000 0.0000 40.1503 0.0000
# 6 0.0000 0.0000 0.0000 0.0000 0.0000 31.9740
#
#
#
# Elastic Compliance Matrix: (Units=1/GPa)
#
#
# Indices 1 2 3 4 5 6 
#
# 1 0.014636 -0.005933 -0.005528 0.000000 0.000000 0.000000
# 2 -0.005933 0.023865 -0.002599 0.000000 0.000000 0.000000
# 3 -0.005528 -0.002599 0.011207 0.000000 0.000000 0.000000
# 4 0.000000 0.000000 0.000000 0.042137 0.000000 0.000000
# 5 0.000000 0.000000 0.000000 0.000000 0.024906 0.000000
# 6 0.000000 0.000000 0.000000 0.000000 0.000000 0.031275
#
#
# Mechanical properties :
#
#
# Convention : Reuss Voigt Hill
#
# Bulk Modulus (GPa) = 46.31970 57.56466 51.94218
# Shear Modulus (GPa) = 27.27121 29.99111 28.63116
#
# Velocity S-wave (km/s) = 3.72966 3.91123 3.82152
# Velocity P-wave (km/s) = 6.49413 7.05402 6.77986
#
# Compressibility (1/GPa) = 0.02158908
#
# Stress axis : x y z
#
# Youngs Moduli (GPa) = 68.32360 41.90236 89.22841
#
# Poissons Ratio (x) = 0.24859 0.49326
# Poissons Ratio (y) = 0.40534 0.23190
# Poissons Ratio (z) = 0.37770 0.10890
#
# Static dielectric constant tensor:
#      x y z
#    x 1.692840 0.000000 0.000000 
#    y 0.000000 1.712400 0.000000 
#    z 0.000000 0.000000 1.695460 
# 
# From -- ./inp_files/42795.got.cif
#   From: 2010.05.17/outbox.cif.g08.bks.cpg/sg52_22_cif.got.tgz:42795.got - 2010.06.03 12:15:38.
