data_PCOD9408765
_publ_section_title
;
Structure prediction by ZEFSAII (Michael W. Deem and Ramdas Pophale) SiO2 
 PCOD9408765
Probable space group: P N N A
;
_chemical_formula_sum "Si O2"
_cell_formula_units_Z 32
_cell_length_a 13.559887
_cell_length_b 6.482910
_cell_length_c 20.478974
_cell_angle_alpha 90.000000
_cell_angle_beta 90.000000
_cell_angle_gamma 90.000000
_cell_volume 1800.255960
_symmetry_space_group_name_H-M "P N N A"
_symmetry_group_IT_number 52
_symmetry_cell_setting 'orthorhombic'
loop_
_space_group_symop_operation_xyz
x,y,z
1/2-x,-y,z
x,1/2-y,1/2-z
1/2-x,1/2+y,1/2-z
-x,-y,-z
1/2+x,y,-z
-x,1/2+y,1/2+z
1/2+x,1/2-y,1/2+z
loop_
_atom_site_type_symbol
_atom_site_label
_atom_site_fract_x
_atom_site_fract_y
_atom_site_fract_z
Si Si1 0.457806 0.316410 0.902873
Si Si2 0.145114 0.091567 0.696353
Si Si3 0.862655 0.944526 0.524072
Si Si4 0.143351 0.098087 0.923730
O O1 0.416203 0.403184 0.834457
O O2 0.563824 0.422648 0.915114
O O3 0.438508 0.071576 0.905421
O O4 0.397853 0.396936 0.967408
O O5 0.103715 0.250000 0.750000
O O6 0.158404 0.235190 0.633079
O O7 0.250000 0.000000 0.719818
O O8 0.877674 0.723637 0.489143
O O9 0.750000 0.000000 0.539447
O O10 0.250000 0.000000 0.931797
#
# Coordination Sequence:
#
# PCOD9408765 Si02
#       4
#     8   8   8   8
#     4  10  20  33  49  76 108 136 171 216 258 315
#     4  11  22  33  50  75 102 136 172 215 264 320
#     4  10  19  32  51  76 107 139 170 209 260 320
#     4  11  17  32  51  75 108 136 167 209 268 320
#
# _framework density 17.77525
#
# number of rings (size 3 to 8) (size 9 to 14) (size 15 to 20)
#    0.000    1.500    5.000    3.000    0.000    0.000 
#    0.000    0.000    0.000    0.000    6.500    0.000 
#    0.000    0.000    0.000    0.000    0.000    0.000 
#
# Total GULP energy -178216.355397 kJ/mol
# GULP energy per Si atom -5569.261106 kJ/mol
# Density = 1.773479 g / cm^3
# Si number density = 17.775250 Si / 1000 Ang^3
#
#
#
# Elastic Constant Matrix: (Units=GPa)
#
#
# Indices 1 2 3 4 5 6 
#
# 1 78.4968 5.8194 4.1646 0.0000 0.0000 0.0000
# 2 5.8194 72.3176 -1.8383 0.0000 0.0000 0.0000
# 3 4.1646 -1.8383 32.7975 0.0000 0.0000 0.0000
# 4 0.0000 0.0000 0.0000 16.4840 0.0000 0.0000
# 5 0.0000 0.0000 0.0000 0.0000 11.3055 0.0000
# 6 0.0000 0.0000 0.0000 0.0000 0.0000 0.3913
#
#
#
# Elastic Compliance Matrix: (Units=1/GPa)
#
#
# Indices 1 2 3 4 5 6 
#
# 1 0.012910 -0.001082 -0.001700 0.000000 0.000000 0.000000
# 2 -0.001082 0.013938 0.000919 0.000000 0.000000 0.000000
# 3 -0.001700 0.000919 0.030757 0.000000 0.000000 0.000000
# 4 0.000000 0.000000 0.000000 0.060665 0.000000 0.000000
# 5 0.000000 0.000000 0.000000 0.000000 0.088452 0.000000
# 6 0.000000 0.000000 0.000000 0.000000 0.000000 2.555581
#
#
# Mechanical properties :
#
#
# Convention : Reuss Voigt Hill
#
# Bulk Modulus (GPa) = 18.56016 22.21149 20.38582
# Shear Modulus (GPa) = 1.79598 17.33393 9.56496
#
# Velocity S-wave (km/s) = 1.00627 3.12616 2.32223
# Velocity P-wave (km/s) = 3.43720 5.05504 4.32248
#
# Compressibility (1/GPa) = 0.05387885
#
# Stress axis : x y z
#
# Youngs Moduli (GPa) = 77.46071 71.74473 32.51245
#
# Poissons Ratio (x) = 0.07763 0.05527
# Poissons Ratio (y) = 0.08382 -0.02987
# Poissons Ratio (z) = 0.13168 -0.06591
#
# Static dielectric constant tensor:
#      x y z
#    x 1.659190 0.000000 0.000000 
#    y 0.000000 1.696140 0.000000 
#    z 0.000000 0.000000 1.624720 
# 
# From -- ./inp_files/32579.got.cif
#   From: 2010.05.17/outbox.cif.g08.bks.cpg/sg52_17_cif.got.tgz:32579.got - 2010.06.03 12:15:38.
