data_PCOD9408527
_publ_section_title
;
Structure prediction by ZEFSAII (Michael W. Deem and Ramdas Pophale) SiO2 
 PCOD9408527
Probable space group: P N N A
;
_chemical_formula_sum "Si O2"
_cell_formula_units_Z 64
_cell_length_a 10.102254
_cell_length_b 19.307763
_cell_length_c 19.689070
_cell_angle_alpha 90.000000
_cell_angle_beta 90.000000
_cell_angle_gamma 90.000000
_cell_volume 3840.391025
_symmetry_space_group_name_H-M "P N N A"
_symmetry_group_IT_number 52
_symmetry_cell_setting 'orthorhombic'
loop_
_space_group_symop_operation_xyz
x,y,z
1/2-x,-y,z
x,1/2-y,1/2-z
1/2-x,1/2+y,1/2-z
-x,-y,-z
1/2+x,y,-z
-x,1/2+y,1/2+z
1/2+x,1/2-y,1/2+z
loop_
_atom_site_type_symbol
_atom_site_label
_atom_site_fract_x
_atom_site_fract_y
_atom_site_fract_z
Si Si1 0.231601 0.727171 0.059050
Si Si2 0.224107 0.893724 0.066069
Si Si3 0.963954 0.394027 0.439745
Si Si4 0.117979 0.544210 0.703600
Si Si5 0.779515 0.179925 0.709496
Si Si6 0.962801 0.273006 0.062398
Si Si7 0.536938 0.822969 0.286816
Si Si8 0.864796 0.050833 0.786960
O O1 0.219612 0.810020 0.071361
O O2 0.198189 0.690876 0.129924
O O3 0.385019 0.712577 0.043053
O O4 0.136942 0.707628 0.997330
O O5 0.379263 0.911495 0.053436
O O6 0.174278 0.926269 0.136433
O O7 0.124763 0.912808 0.005035
O O8 0.903927 0.429047 0.373155
O O9 0.954775 0.310641 0.429028
O O10 0.250000 0.500000 0.711019
O O11 0.106993 0.611545 0.752134
O O12 0.998144 0.491791 0.716553
O O13 0.809561 0.250000 0.750000
O O14 0.622158 0.166256 0.720939
O O15 0.863066 0.118549 0.741133
O O16 0.934688 0.310488 0.133712
O O17 0.568470 0.750000 0.250000
O O18 0.750000 0.000000 0.762193
#
# Coordination Sequence:
#
# PCOD9408527 Si02
#       8
#     8   8   8   8   8   8   8   8
#     4   9  18  34  57  87 114 143 189 239 285 333
#     4  10  20  34  56  82 115 155 192 230 277 339
#     4  10  20  36  55  82 115 155 192 228 278 340
#     4  12  26  40  54  85 122 153 193 237 293 343
#     4  10  18  35  64  87 108 148 200 242 278 333
#     4   9  18  34  61  85 111 144 190 240 280 337
#     4  10  18  37  65  83 107 154 201 231 279 347
#     4  12  22  38  58  84 115 149 193 240 283 335
#
# _framework density 16.66497
#
# number of rings (size 3 to 8) (size 9 to 14) (size 15 to 20)
#    0.000    1.750    5.000    0.000    1.750    1.000 
#    2.250    0.625    0.000    1.500    0.000    0.000 
#    0.000    0.000    0.000    0.000    0.000    0.000 
#
# Total GULP energy -357231.498798 kJ/mol
# GULP energy per Si atom -5581.742169 kJ/mol
# Density = 1.662704 g / cm^3
# Si number density = 16.664970 Si / 1000 Ang^3
#
#
#
# Elastic Constant Matrix: (Units=GPa)
#
#
# Indices 1 2 3 4 5 6 
#
# 1 110.0054 57.2274 72.2537 0.0000 0.0000 0.0000
# 2 57.2274 89.5834 67.2080 0.0000 0.0000 0.0000
# 3 72.2537 67.2080 115.4701 0.0000 0.0000 0.0000
# 4 0.0000 0.0000 0.0000 26.6640 0.0000 0.0000
# 5 0.0000 0.0000 0.0000 0.0000 34.7354 0.0000
# 6 0.0000 0.0000 0.0000 0.0000 0.0000 27.2181
#
#
#
# Elastic Compliance Matrix: (Units=1/GPa)
#
#
# Indices 1 2 3 4 5 6 
#
# 1 0.016603 -0.004992 -0.007483 0.000000 0.000000 0.000000
# 2 -0.004992 0.021316 -0.009283 0.000000 0.000000 0.000000
# 3 -0.007483 -0.009283 0.018746 0.000000 0.000000 0.000000
# 4 0.000000 0.000000 0.000000 0.037504 0.000000 0.000000
# 5 0.000000 0.000000 0.000000 0.000000 0.028789 0.000000
# 6 0.000000 0.000000 0.000000 0.000000 0.000000 0.036740
#
#
# Mechanical properties :
#
#
# Convention : Reuss Voigt Hill
#
# Bulk Modulus (GPa) = 76.05765 78.71524 77.38644
# Shear Modulus (GPa) = 24.08507 25.61483 24.84995
#
# Velocity S-wave (km/s) = 3.80577 3.92477 3.86573
# Velocity P-wave (km/s) = 8.06537 8.23862 8.15246
#
# Compressibility (1/GPa) = 0.01314792
#
# Stress axis : x y z
#
# Youngs Moduli (GPa) = 60.23187 46.91264 53.34429
#
# Poissons Ratio (x) = 0.23417 0.39920
# Poissons Ratio (y) = 0.30066 0.49521
# Poissons Ratio (z) = 0.45074 0.43551
#
# Static dielectric constant tensor:
#      x y z
#    x 1.540360 0.000000 0.000000 
#    y 0.000000 1.559630 0.000000 
#    z 0.000000 0.000000 1.544540 
# 
# From -- ./inp_files/32423.got.cif
#   From: 2010.05.17/outbox.cif.g08.bks.cpg/sg52_17_cif.got.tgz:32423.got - 2010.06.03 12:15:38.
