data_PCOD9408552
_publ_section_title
;
Structure prediction by ZEFSAII (Michael W. Deem and Ramdas Pophale) SiO2 
 PCOD9408552
Probable space group: P N N A
;
_chemical_formula_sum "Si O2"
_cell_formula_units_Z 36
_cell_length_a 11.886787
_cell_length_b 16.396618
_cell_length_c 7.128030
_cell_angle_alpha 90.000000
_cell_angle_beta 90.000000
_cell_angle_gamma 90.000000
_cell_volume 1389.275184
_symmetry_space_group_name_H-M "P N N A"
_symmetry_group_IT_number 52
_symmetry_cell_setting 'orthorhombic'
loop_
_space_group_symop_operation_xyz
x,y,z
1/2-x,-y,z
x,1/2-y,1/2-z
1/2-x,1/2+y,1/2-z
-x,-y,-z
1/2+x,y,-z
-x,1/2+y,1/2+z
1/2+x,1/2-y,1/2+z
loop_
_atom_site_type_symbol
_atom_site_label
_atom_site_fract_x
_atom_site_fract_y
_atom_site_fract_z
Si Si1 0.600154 0.587039 0.336052
Si Si2 0.124770 0.341441 0.285970
Si Si3 0.536488 0.574390 0.762352
Si Si4 0.170843 0.157899 0.778947
Si Si5 0.750000 0.500000 0.887875
O O1 0.509062 0.650109 0.255960
O O2 0.601238 0.595883 0.565821
O O3 0.545983 0.499541 0.296094
O O4 0.723927 0.598594 0.251528
O O5 0.166465 0.250000 0.250000
O O6 0.138124 0.354720 0.506725
O O7 0.190914 0.415463 0.190099
O O8 0.446212 0.641740 0.828222
O O9 0.626295 0.544107 0.913360
O O10 0.209098 0.250000 0.750000
#
# Coordination Sequence:
#
# PCOD9408552 Si02
#       5
#     8   8   8   8   4
#     4   9  17  32  55  78 106 144 189 234 278 329
#     4  10  21  36  57  81 113 150 191 232 280 342
#     4   9  18  30  54  82 105 138 193 237 271 324
#     4  11  21  33  54  85 116 142 183 239 288 327
#     4  10  18  36  60  82 108 150 194 232 270 330
#
# _framework density 25.912793000000001
#
# number of rings (size 3 to 8) (size 9 to 14) (size 15 to 20)
#    0.000    2.222    2.222    2.667    0.000    0.889 
#    0.000    0.000    4.889    2.667    0.000    0.000 
#    0.000    0.000    0.000    0.000    0.000    0.000 
#
# Total GULP energy -200755.409110 kJ/mol
# GULP energy per Si atom -5576.539142 kJ/mol
# Density = 2.585381 g / cm^3
# Si number density = 25.912793 Si / 1000 Ang^3
#
#
#
# Elastic Constant Matrix: (Units=GPa)
#
#
# Indices 1 2 3 4 5 6 
#
# 1 187.6441 29.7492 22.4022 0.0000 0.0000 0.0000
# 2 29.7492 122.4031 -4.3556 0.0000 0.0000 0.0000
# 3 22.4022 -4.3556 82.9555 0.0000 0.0000 0.0000
# 4 0.0000 0.0000 0.0000 13.9724 0.0000 0.0000
# 5 0.0000 0.0000 0.0000 0.0000 67.5124 0.0000
# 6 0.0000 0.0000 0.0000 0.0000 0.0000 26.4270
#
#
#
# Elastic Compliance Matrix: (Units=1/GPa)
#
#
# Indices 1 2 3 4 5 6 
#
# 1 0.005755 -0.001457 -0.001631 0.000000 0.000000 0.000000
# 2 -0.001457 0.008554 0.000842 0.000000 0.000000 0.000000
# 3 -0.001631 0.000842 0.012539 0.000000 0.000000 0.000000
# 4 0.000000 0.000000 0.000000 0.071570 0.000000 0.000000
# 5 0.000000 0.000000 0.000000 0.000000 0.014812 0.000000
# 6 0.000000 0.000000 0.000000 0.000000 0.000000 0.037840
#
#
# Mechanical properties :
#
#
# Convention : Reuss Voigt Hill
#
# Bulk Modulus (GPa) = 44.72622 54.28826 49.50724
# Shear Modulus (GPa) = 30.67257 44.59615 37.63436
#
# Velocity S-wave (km/s) = 3.44420 4.15301 3.81510
# Velocity P-wave (km/s) = 5.75452 6.63268 6.20914
#
# Compressibility (1/GPa) = 0.02235825
#
# Stress axis : x y z
#
# Youngs Moduli (GPa) = 173.76641 116.90785 79.74974
#
# Poissons Ratio (x) = 0.17030 0.13004
# Poissons Ratio (y) = 0.25313 -0.06719
# Poissons Ratio (z) = 0.28334 -0.09849
#
# Static dielectric constant tensor:
#      x y z
#    x 2.042100 0.000000 0.000000 
#    y 0.000000 2.090350 0.000000 
#    z 0.000000 0.000000 2.318570 
# 
# From -- ./inp_files/17928.got.cif
#   From: 2010.05.17/outbox.cif.g08.bks.cpg/sg52_9_cif.got.tgz:17928.got - 2010.06.03 12:15:38.
