data_PCOD9408751
_publ_section_title
;
Structure prediction by ZEFSAII (Michael W. Deem and Ramdas Pophale) SiO2 
 PCOD9408751
Probable space group: P N N A
;
_chemical_formula_sum "Si O2"
_cell_formula_units_Z 32
_cell_length_a 5.144586
_cell_length_b 12.142640
_cell_length_c 28.698510
_cell_angle_alpha 90.000000
_cell_angle_beta 90.000000
_cell_angle_gamma 90.000000
_cell_volume 1792.763081
_symmetry_space_group_name_H-M "P N N A"
_symmetry_group_IT_number 52
_symmetry_cell_setting 'orthorhombic'
loop_
_space_group_symop_operation_xyz
x,y,z
1/2-x,-y,z
x,1/2-y,1/2-z
1/2-x,1/2+y,1/2-z
-x,-y,-z
1/2+x,y,-z
-x,1/2+y,1/2+z
1/2+x,1/2-y,1/2+z
loop_
_atom_site_type_symbol
_atom_site_label
_atom_site_fract_x
_atom_site_fract_y
_atom_site_fract_z
Si Si1 0.115072 0.381637 0.870102
Si Si2 0.582817 0.290216 0.824855
Si Si3 0.999403 0.376055 0.978620
Si Si4 0.498345 0.575453 0.267789
O O1 0.250000 0.500000 0.858727
O O2 0.361632 0.301788 0.863949
O O3 0.022306 0.385672 0.923480
O O4 0.862858 0.341129 0.840310
O O5 0.470589 0.358740 0.780708
O O6 0.580722 0.165277 0.806695
O O7 0.242515 0.319908 0.002850
O O8 0.000000 0.500000 0.000000
O O9 0.250000 0.500000 0.261070
O O10 0.750000 0.500000 0.277616
#
# Coordination Sequence:
#
# PCOD9408751 Si02
#       4
#     8   8   8   8
#     4  12  21  33  54  80 121 149 184 225 269 342
#     4  11  24  35  55  87 105 146 204 229 269 353
#     4  10  19  32  47  73 111 161 169 202 280 344
#     4  11  22  41  57  74 114 150 185 240 296 315
#
# _framework density 17.849540000000001
#
# number of rings (size 3 to 8) (size 9 to 14) (size 15 to 20)
#    0.000    1.000    2.500    7.500    3.500    4.000 
#    0.000    0.000    0.000    0.000    0.000    0.000 
#    0.000   70.000    0.000    0.000    0.000    0.000 
#
# Total GULP energy -178324.730192 kJ/mol
# GULP energy per Si atom -5572.647818 kJ/mol
# Density = 1.780891 g / cm^3
# Si number density = 17.849540 Si / 1000 Ang^3
#
#
#
# Elastic Constant Matrix: (Units=GPa)
#
#
# Indices 1 2 3 4 5 6 
#
# 1 148.3771 21.1864 23.1843 0.0000 0.0000 0.0000
# 2 21.1864 60.1234 25.8884 0.0000 0.0000 0.0000
# 3 23.1843 25.8884 69.8012 0.0000 0.0000 0.0000
# 4 0.0000 0.0000 0.0000 43.4193 0.0000 0.0000
# 5 0.0000 0.0000 0.0000 0.0000 35.7600 0.0000
# 6 0.0000 0.0000 0.0000 0.0000 0.0000 14.8391
#
#
#
# Elastic Compliance Matrix: (Units=1/GPa)
#
#
# Indices 1 2 3 4 5 6 
#
# 1 0.007271 -0.001811 -0.001743 0.000000 0.000000 0.000000
# 2 -0.001811 0.020245 -0.006907 0.000000 0.000000 0.000000
# 3 -0.001743 -0.006907 0.017467 0.000000 0.000000 0.000000
# 4 0.000000 0.000000 0.000000 0.023031 0.000000 0.000000
# 5 0.000000 0.000000 0.000000 0.000000 0.027964 0.000000
# 6 0.000000 0.000000 0.000000 0.000000 0.000000 0.067389
#
#
# Mechanical properties :
#
#
# Convention : Reuss Voigt Hill
#
# Bulk Modulus (GPa) = 41.56342 46.53553 44.04948
# Shear Modulus (GPa) = 25.99969 32.67320 29.33644
#
# Velocity S-wave (km/s) = 3.82069 4.28305 4.05846
# Velocity P-wave (km/s) = 6.54213 7.11245 6.83324
#
# Compressibility (1/GPa) = 0.02405962
#
# Stress axis : x y z
#
# Youngs Moduli (GPa) = 137.54028 49.39542 57.25072
#
# Poissons Ratio (x) = 0.08948 0.09979
# Poissons Ratio (y) = 0.24915 0.39542
# Poissons Ratio (z) = 0.23974 0.34117
#
# Static dielectric constant tensor:
#      x y z
#    x 1.592410 0.000000 0.000000 
#    y 0.000000 1.581760 0.000000 
#    z 0.000000 0.000000 1.631370 
# 
# From -- ./inp_files/38534.got.cif
#   From: 2010.05.17/outbox.cif.g08.bks.cpg/sg52_20_cif.got.tgz:38534.got - 2010.06.03 12:15:38.
