data_PCOD9408671
_publ_section_title
;
Structure prediction by ZEFSAII (Michael W. Deem and Ramdas Pophale) SiO2 
 PCOD9408671
Probable space group: P N N A
;
_chemical_formula_sum "Si O2"
_cell_formula_units_Z 56
_cell_length_a 5.358840
_cell_length_b 26.986475
_cell_length_c 17.551049
_cell_angle_alpha 90.000000
_cell_angle_beta 90.000000
_cell_angle_gamma 90.000000
_cell_volume 2538.166042
_symmetry_space_group_name_H-M "P N N A"
_symmetry_group_IT_number 52
_symmetry_cell_setting 'orthorhombic'
loop_
_space_group_symop_operation_xyz
x,y,z
1/2-x,-y,z
x,1/2-y,1/2-z
1/2-x,1/2+y,1/2-z
-x,-y,-z
1/2+x,y,-z
-x,1/2+y,1/2+z
1/2+x,1/2-y,1/2+z
loop_
_atom_site_type_symbol
_atom_site_label
_atom_site_fract_x
_atom_site_fract_y
_atom_site_fract_z
Si Si1 0.782615 0.274719 0.455664
Si Si2 0.205876 0.829516 0.307831
Si Si3 0.775331 0.167096 0.520126
Si Si4 0.715246 0.946667 0.710519
Si Si5 0.723038 0.555270 0.476022
Si Si6 0.720783 0.567384 0.303549
Si Si7 0.283844 0.317167 0.712901
O O1 0.530528 0.292201 0.498896
O O2 0.777806 0.215049 0.465377
O O3 0.791058 0.287708 0.366427
O O4 0.225502 0.812108 0.394508
O O5 0.181994 0.889983 0.319899
O O6 0.455095 0.815641 0.260058
O O7 0.959554 0.808651 0.265947
O O8 0.525385 0.138187 0.500129
O O9 0.472597 0.952594 0.764893
O O10 0.974968 0.941378 0.754860
O O11 0.750000 0.000000 0.667488
O O12 0.750000 0.500000 0.512214
O O13 0.487293 0.581013 0.513265
O O14 0.672510 0.548927 0.387896
O O15 0.751929 0.626004 0.311127
#
# Coordination Sequence:
#
# PCOD9408671 Si02
#       7
#     8   8   8   8   8   8   8
#     4  10  21  38  57  83 116 152 192 234 287 343
#     4  10  21  38  60  86 115 149 192 238 282 337
#     4  10  21  40  61  85 116 153 187 227 291 348
#     4  10  19  33  55  79 105 138 179 230 281 329
#     4  10  19  28  39  59  89 127 170 211 255 313
#     4  10  20  32  49  73 102 140 178 226 281 325
#     4  10  21  37  57  83 113 147 193 238 280 333
#
# _framework density 22.063172999999999
#
# number of rings (size 3 to 8) (size 9 to 14) (size 15 to 20)
#    0.000    2.000    0.000    3.857    0.000    2.286 
#    0.000   17.143    0.000    0.857    0.000    0.000 
#    0.000    0.000    0.000    0.000    0.000    0.000 
#
# Total GULP energy -312309.200268 kJ/mol
# GULP energy per Si atom -5576.950005 kJ/mol
# Density = 2.201296 g / cm^3
# Si number density = 22.063173 Si / 1000 Ang^3
#
#
#
# Elastic Constant Matrix: (Units=GPa)
#
#
# Indices 1 2 3 4 5 6 
#
# 1 188.0025 -16.3044 43.9054 0.0000 0.0000 0.0000
# 2 -16.3044 86.0463 2.0274 0.0000 0.0000 0.0000
# 3 43.9054 2.0274 94.8820 0.0000 0.0000 0.0000
# 4 0.0000 0.0000 0.0000 9.9673 0.0000 0.0000
# 5 0.0000 0.0000 0.0000 0.0000 28.1720 0.0000
# 6 0.0000 0.0000 0.0000 0.0000 0.0000 7.5336
#
#
#
# Elastic Compliance Matrix: (Units=1/GPa)
#
#
# Indices 1 2 3 4 5 6 
#
# 1 0.006089 0.001221 -0.002844 0.000000 0.000000 0.000000
# 2 0.001221 0.011872 -0.000819 0.000000 0.000000 0.000000
# 3 -0.002844 -0.000819 0.011873 0.000000 0.000000 0.000000
# 4 0.000000 0.000000 0.000000 0.100328 0.000000 0.000000
# 5 0.000000 0.000000 0.000000 0.000000 0.035496 0.000000
# 6 0.000000 0.000000 0.000000 0.000000 0.000000 0.132738
#
#
# Mechanical properties :
#
#
# Convention : Reuss Voigt Hill
#
# Bulk Modulus (GPa) = 40.07842 47.57639 43.82741
# Shear Modulus (GPa) = 16.04638 31.75475 23.90057
#
# Velocity S-wave (km/s) = 2.69976 3.79788 3.29489
# Velocity P-wave (km/s) = 5.28422 6.39080 5.86368
#
# Compressibility (1/GPa) = 0.02495108
#
# Stress axis : x y z
#
# Youngs Moduli (GPa) = 164.22894 84.22997 84.22622
#
# Poissons Ratio (x) = -0.10283 0.23952
# Poissons Ratio (y) = -0.20049 0.06895
# Poissons Ratio (z) = 0.46702 0.06895
#
# Static dielectric constant tensor:
#      x y z
#    x 1.927890 0.000000 0.000000 
#    y 0.000000 1.861930 0.000000 
#    z 0.000000 0.000000 1.743030 
# 
# From -- ./inp_files/23765.got.cif
#   From: 2010.05.17/outbox.cif.g08.bks.cpg/sg52_12_cif.got.tgz:23765.got - 2010.06.03 12:15:38.
