data_PCOD9408798
_publ_section_title
;
Structure prediction by ZEFSAII (Michael W. Deem and Ramdas Pophale) SiO2 
 PCOD9408798
Probable space group: P N N A
;
_chemical_formula_sum "Si O2"
_cell_formula_units_Z 48
_cell_length_a 9.780110
_cell_length_b 14.640033
_cell_length_c 16.460461
_cell_angle_alpha 90.000000
_cell_angle_beta 90.000000
_cell_angle_gamma 90.000000
_cell_volume 2356.827458
_symmetry_space_group_name_H-M "P N N A"
_symmetry_group_IT_number 52
_symmetry_cell_setting 'orthorhombic'
loop_
_space_group_symop_operation_xyz
x,y,z
1/2-x,-y,z
x,1/2-y,1/2-z
1/2-x,1/2+y,1/2-z
-x,-y,-z
1/2+x,y,-z
-x,1/2+y,1/2+z
1/2+x,1/2-y,1/2+z
loop_
_atom_site_type_symbol
_atom_site_label
_atom_site_fract_x
_atom_site_fract_y
_atom_site_fract_z
Si Si1 0.014493 0.152944 0.702408
Si Si2 0.727335 0.213211 0.418445
Si Si3 0.995117 0.864493 0.052730
Si Si4 0.414089 0.495375 0.673662
Si Si5 0.009777 0.695916 0.633605
Si Si6 0.722788 0.775054 0.604364
O O1 0.036067 0.250000 0.750000
O O2 0.127455 0.147996 0.631267
O O3 0.033071 0.067850 0.760807
O O4 0.866446 0.159496 0.660763
O O5 0.641019 0.307718 0.423206
O O6 0.755014 0.187852 0.512394
O O7 0.865232 0.233390 0.369458
O O8 0.974359 0.963722 0.089469
O O9 0.126100 0.814292 0.092269
O O10 0.009566 0.846525 0.957631
O O11 0.250000 0.500000 0.670284
O O12 0.461491 0.391893 0.688652
O O13 0.865596 0.745354 0.642954
#
# Coordination Sequence:
#
# PCOD9408798 Si02
#       6
#     8   8   8   8   8   8
#     4  11  20  38  58  82 123 159 194 245 300 346
#     4   9  17  35  59  83 114 159 205 233 282 365
#     4   9  17  33  53  83 122 155 181 222 292 365
#     4  12  21  34  56  86 120 160 193 233 293 363
#     4  10  19  32  56  87 117 152 198 230 290 363
#     4   9  19  34  58  86 116 159 189 242 304 349
#
# _framework density 20.366361000000001
#
# number of rings (size 3 to 8) (size 9 to 14) (size 15 to 20)
#    0.000    2.000    5.000    1.500    0.000    0.667 
#    0.000    2.500    0.000    1.000    0.000    0.000 
#    0.000    0.000    0.000    0.000    0.000    0.000 
#
# Total GULP energy -267935.830764 kJ/mol
# GULP energy per Si atom -5581.996474 kJ/mol
# Density = 2.032001 g / cm^3
# Si number density = 20.366361 Si / 1000 Ang^3
#
#
#
# Elastic Constant Matrix: (Units=GPa)
#
#
# Indices 1 2 3 4 5 6 
#
# 1 105.4627 11.6935 -9.3840 0.0000 0.0000 0.0000
# 2 11.6935 27.2384 14.9227 0.0000 0.0000 0.0000
# 3 -9.3840 14.9227 39.1773 0.0000 0.0000 0.0000
# 4 0.0000 0.0000 0.0000 24.9298 0.0000 0.0000
# 5 0.0000 0.0000 0.0000 0.0000 25.0983 0.0000
# 6 0.0000 0.0000 0.0000 0.0000 0.0000 11.0210
#
#
#
# Elastic Compliance Matrix: (Units=1/GPa)
#
#
# Indices 1 2 3 4 5 6 
#
# 1 0.010823 -0.007666 0.005512 0.000000 0.000000 0.000000
# 2 -0.007666 0.051824 -0.021576 0.000000 0.000000 0.000000
# 3 0.005512 -0.021576 0.035064 0.000000 0.000000 0.000000
# 4 0.000000 0.000000 0.000000 0.040113 0.000000 0.000000
# 5 0.000000 0.000000 0.000000 0.000000 0.039843 0.000000
# 6 0.000000 0.000000 0.000000 0.000000 0.000000 0.090736
#
#
# Mechanical properties :
#
#
# Convention : Reuss Voigt Hill
#
# Bulk Modulus (GPa) = 19.90020 22.92698 21.41359
# Shear Modulus (GPa) = 15.03250 22.51957 18.77603
#
# Velocity S-wave (km/s) = 2.71975 3.32885 3.03960
# Velocity P-wave (km/s) = 4.43340 5.10458 4.78078
#
# Compressibility (1/GPa) = 0.05025076
#
# Stress axis : x y z
#
# Youngs Moduli (GPa) = 92.40005 19.29589 28.51956
#
# Poissons Ratio (x) = 0.14792 -0.15721
# Poissons Ratio (y) = 0.70834 0.61534
# Poissons Ratio (z) = -0.50933 0.41633
#
# Static dielectric constant tensor:
#      x y z
#    x 1.729730 0.000000 0.000000 
#    y 0.000000 1.688790 0.000000 
#    z 0.000000 0.000000 1.806840 
# 
# From -- ./inp_files/31364.got.cif
#   From: 2010.05.17/outbox.cif.g08.bks.cpg/sg52_16_cif.got.tgz:31364.got - 2010.06.03 12:15:38.
