data_PCOD9408579
_publ_section_title
;
Structure prediction by ZEFSAII (Michael W. Deem and Ramdas Pophale) SiO2 
 PCOD9408579
Probable space group: P N N A
;
_chemical_formula_sum "Si O2"
_cell_formula_units_Z 60
_cell_length_a 14.740758
_cell_length_b 9.758112
_cell_length_c 19.152003
_cell_angle_alpha 90.000000
_cell_angle_beta 90.000000
_cell_angle_gamma 90.000000
_cell_volume 2754.861794
_symmetry_space_group_name_H-M "P N N A"
_symmetry_group_IT_number 52
_symmetry_cell_setting 'orthorhombic'
loop_
_space_group_symop_operation_xyz
x,y,z
1/2-x,-y,z
x,1/2-y,1/2-z
1/2-x,1/2+y,1/2-z
-x,-y,-z
1/2+x,y,-z
-x,1/2+y,1/2+z
1/2+x,1/2-y,1/2+z
loop_
_atom_site_type_symbol
_atom_site_label
_atom_site_fract_x
_atom_site_fract_y
_atom_site_fract_z
Si Si1 0.750000 0.000000 0.846924
Si Si2 0.090810 0.435813 0.707380
Si Si3 0.755061 0.291822 0.527274
Si Si4 0.817621 0.127598 0.117485
Si Si5 0.583734 0.159110 0.472136
Si Si6 0.393893 0.081844 0.424958
Si Si7 0.389070 0.407861 0.238751
Si Si8 0.321938 0.839928 0.659331
O O1 0.754401 0.126341 0.900676
O O2 0.833846 0.001699 0.793757
O O3 0.096821 0.569897 0.659020
O O4 0.113087 0.295075 0.666270
O O5 0.161492 0.427662 0.772039
O O6 0.993521 0.421775 0.741353
O O7 0.816226 0.358453 0.465840
O O8 0.653546 0.278736 0.495321
O O9 0.803563 0.148163 0.543071
O O10 0.775190 0.268126 0.147807
O O11 0.750000 0.000000 0.132518
O O12 0.481469 0.178565 0.443735
O O13 0.640471 0.087208 0.409312
O O14 0.580721 0.059777 0.538249
O O15 0.379819 0.061691 0.342914
O O16 0.360014 0.250000 0.250000
#
# Coordination Sequence:
#
# PCOD9408579 Si02
#       8
#     4   8   8   8   8   8   8   8
#     4  12  28  40  66 102 128 178 230 280 336 396
#     4  10  18  36  66  92 128 172 217 264 319 408
#     4  11  23  43  63  97 138 173 221 279 340 398
#     4   9  19  35  59  91 129 164 211 264 322 386
#     4  10  22  41  69  96 130 171 227 276 331 405
#     4  11  23  42  69  97 127 179 224 280 335 403
#     4  12  23  42  67  95 128 174 228 270 336 396
#     4   9  17  35  61  95 125 169 209 262 323 395
#
# _framework density 21.779677
#
# number of rings (size 3 to 8) (size 9 to 14) (size 15 to 20)
#    0.000    1.600    4.667    0.400    1.867    1.067 
#    0.000   16.000    0.000    0.000    0.000    0.000 
#    0.000    0.000    0.000    0.000    0.000    0.000 
#
# Total GULP energy -334718.406569 kJ/mol
# GULP energy per Si atom -5578.640109 kJ/mol
# Density = 2.173011 g / cm^3
# Si number density = 21.779677 Si / 1000 Ang^3
#
#
#
# Elastic Constant Matrix: (Units=GPa)
#
#
# Indices 1 2 3 4 5 6 
#
# 1 58.5290 15.8655 27.9595 0.0000 0.0000 0.0000
# 2 15.8655 31.8418 32.9371 0.0000 0.0000 0.0000
# 3 27.9595 32.9371 180.2918 0.0000 0.0000 0.0000
# 4 0.0000 0.0000 0.0000 62.2631 0.0000 0.0000
# 5 0.0000 0.0000 0.0000 0.0000 24.5891 0.0000
# 6 0.0000 0.0000 0.0000 0.0000 0.0000 21.7865
#
#
#
# Elastic Compliance Matrix: (Units=1/GPa)
#
#
# Indices 1 2 3 4 5 6 
#
# 1 0.020116 -0.008380 -0.001589 0.000000 0.000000 0.000000
# 2 -0.008380 0.042213 -0.006412 0.000000 0.000000 0.000000
# 3 -0.001589 -0.006412 0.006964 0.000000 0.000000 0.000000
# 4 0.000000 0.000000 0.000000 0.016061 0.000000 0.000000
# 5 0.000000 0.000000 0.000000 0.000000 0.040668 0.000000
# 6 0.000000 0.000000 0.000000 0.000000 0.000000 0.045900
#
#
# Mechanical properties :
#
#
# Convention : Reuss Voigt Hill
#
# Bulk Modulus (GPa) = 27.37301 47.13187 37.25244
# Shear Modulus (GPa) = 23.05613 34.65443 28.85528
#
# Velocity S-wave (km/s) = 3.25715 3.99323 3.64383
# Velocity P-wave (km/s) = 5.17115 6.55351 5.90294
#
# Compressibility (1/GPa) = 0.03653234
#
# Stress axis : x y z
#
# Youngs Moduli (GPa) = 49.71172 23.68916 143.58750
#
# Poissons Ratio (x) = 0.19851 0.22812
# Poissons Ratio (y) = 0.41657 0.92073
# Poissons Ratio (z) = 0.07898 0.15190
#
# Static dielectric constant tensor:
#      x y z
#    x 1.922430 0.000000 0.000000 
#    y 0.000000 1.866790 0.000000 
#    z 0.000000 0.000000 1.816150 
# 
# From -- ./inp_files/33267.got.cif
#   From: 2010.05.17/outbox.cif.g08.bks.cpg/sg52_17_cif.got.tgz:33267.got - 2010.06.03 12:15:38.
