data_PCOD9408813
_publ_section_title
;
Structure prediction by ZEFSAII (Michael W. Deem and Ramdas Pophale) SiO2 
 PCOD9408813
Probable space group: P N N A
;
_chemical_formula_sum "Si O2"
_cell_formula_units_Z 48
_cell_length_a 9.590813
_cell_length_b 8.707073
_cell_length_c 29.082634
_cell_angle_alpha 90.000000
_cell_angle_beta 90.000000
_cell_angle_gamma 90.000000
_cell_volume 2428.629951
_symmetry_space_group_name_H-M "P N N A"
_symmetry_group_IT_number 52
_symmetry_cell_setting 'orthorhombic'
loop_
_space_group_symop_operation_xyz
x,y,z
1/2-x,-y,z
x,1/2-y,1/2-z
1/2-x,1/2+y,1/2-z
-x,-y,-z
1/2+x,y,-z
-x,1/2+y,1/2+z
1/2+x,1/2-y,1/2+z
loop_
_atom_site_type_symbol
_atom_site_label
_atom_site_fract_x
_atom_site_fract_y
_atom_site_fract_z
Si Si1 0.122512 0.618644 0.986084
Si Si2 0.283304 0.180456 0.702920
Si Si3 0.610446 0.251178 0.801817
Si Si4 0.919938 0.250464 0.579072
Si Si5 0.236571 0.184030 0.601439
Si Si6 0.250000 0.500000 0.362362
Si Si7 0.750000 0.000000 0.633003
O O1 0.250000 0.500000 0.987651
O O2 0.125306 0.744025 0.026107
O O3 0.139986 0.703685 0.936552
O O4 0.000000 0.500000 0.000000
O O5 0.222020 0.250000 0.750000
O O6 0.447703 0.213552 0.702678
O O7 0.238916 0.247570 0.653371
O O8 0.250000 0.000000 0.704710
O O9 0.670079 0.250000 0.750000
O O10 0.649125 0.097261 0.829040
O O11 0.672468 0.383052 0.833767
O O12 0.845782 0.388284 0.606470
O O13 0.087528 0.238211 0.581868
O O14 0.858135 0.094795 0.601993
O O15 0.250000 0.000000 0.608505
#
# Coordination Sequence:
#
# PCOD9408813 Si02
#       7
#     8   8   8   8   8   4   4
#     4  11  20  34  64  94 120 160 218 276 315 374
#     4  10  22  39  63  92 127 166 211 268 328 393
#     4  10  21  39  60  88 124 167 217 267 323 389
#     4  11  21  38  59  92 125 169 210 274 320 394
#     4  10  20  36  60  92 124 155 219 271 321 366
#     4  10  25  40  60  88 136 168 205 262 340 392
#     4  10  19  32  62  86 116 166 223 264 318 372
#
# _framework density 19.764229
#
# number of rings (size 3 to 8) (size 9 to 14) (size 15 to 20)
#    0.000    1.667    4.167    2.500    0.000    2.667 
#    0.000    5.000    1.833    0.000    0.000    0.000 
#    0.000    0.000    0.000    0.000    0.000    0.000 
#
# Total GULP energy -267344.232490 kJ/mol
# GULP energy per Si atom -5569.671510 kJ/mol
# Density = 1.971924 g / cm^3
# Si number density = 19.764229 Si / 1000 Ang^3
#
#
#
# Elastic Constant Matrix: (Units=GPa)
#
#
# Indices 1 2 3 4 5 6 
#
# 1 65.1771 19.3615 19.7264 0.0000 0.0000 0.0000
# 2 19.3615 72.8421 40.5083 0.0000 0.0000 0.0000
# 3 19.7264 40.5083 193.8687 0.0000 0.0000 0.0000
# 4 0.0000 0.0000 0.0000 24.5524 0.0000 0.0000
# 5 0.0000 0.0000 0.0000 0.0000 8.4294 0.0000
# 6 0.0000 0.0000 0.0000 0.0000 0.0000 19.2476
#
#
#
# Elastic Compliance Matrix: (Units=1/GPa)
#
#
# Indices 1 2 3 4 5 6 
#
# 1 0.016789 -0.003974 -0.000878 0.000000 0.000000 0.000000
# 2 -0.003974 0.016474 -0.003038 0.000000 0.000000 0.000000
# 3 -0.000878 -0.003038 0.005882 0.000000 0.000000 0.000000
# 4 0.000000 0.000000 0.000000 0.040729 0.000000 0.000000
# 5 0.000000 0.000000 0.000000 0.000000 0.118632 0.000000
# 6 0.000000 0.000000 0.000000 0.000000 0.000000 0.051954
#
#
# Mechanical properties :
#
#
# Convention : Reuss Voigt Hill
#
# Bulk Modulus (GPa) = 42.79851 54.56446 48.68149
# Shear Modulus (GPa) = 18.24618 27.26534 22.75576
#
# Velocity S-wave (km/s) = 3.04170 3.71823 3.39685
# Velocity P-wave (km/s) = 5.83417 6.78979 6.33004
#
# Compressibility (1/GPa) = 0.02336530
#
# Stress axis : x y z
#
# Youngs Moduli (GPa) = 59.56230 60.70148 170.00450
#
# Poissons Ratio (x) = 0.24125 0.14924
# Poissons Ratio (y) = 0.23672 0.51644
# Poissons Ratio (z) = 0.05229 0.18440
#
# Static dielectric constant tensor:
#      x y z
#    x 1.706770 0.000000 0.000000 
#    y 0.000000 1.733750 0.000000 
#    z 0.000000 0.000000 1.806290 
# 
# From -- ./inp_files/44436.got.cif
#   From: 2010.05.17/outbox.cif.g08.bks.cpg/sg52_23_cif.got.tgz:44436.got - 2010.06.03 12:15:38.
