data_PCOD9408084
_publ_section_title
;
Structure prediction by ZEFSAII (Michael W. Deem and Ramdas Pophale) SiO2 
 PCOD9408084
Probable space group: P N N A
;
_chemical_formula_sum "Si O2"
_cell_formula_units_Z 48
_cell_length_a 31.591993
_cell_length_b 5.644421
_cell_length_c 14.432666
_cell_angle_alpha 90.000000
_cell_angle_beta 90.000000
_cell_angle_gamma 90.000000
_cell_volume 2573.611478
_symmetry_space_group_name_H-M "P N N A"
_symmetry_group_IT_number 52
_symmetry_cell_setting 'orthorhombic'
loop_
_space_group_symop_operation_xyz
x,y,z
1/2-x,-y,z
x,1/2-y,1/2-z
1/2-x,1/2+y,1/2-z
-x,-y,-z
1/2+x,y,-z
-x,1/2+y,1/2+z
1/2+x,1/2-y,1/2+z
loop_
_atom_site_type_symbol
_atom_site_label
_atom_site_fract_x
_atom_site_fract_y
_atom_site_fract_z
Si Si1 0.121112 0.126644 0.551520
Si Si2 0.466267 0.171399 0.546362
Si Si3 0.346639 0.396555 0.116523
Si Si4 0.103840 0.250000 0.250000
Si Si5 0.418434 0.014641 0.080102
Si Si6 0.224917 0.750000 0.250000
Si Si7 0.897252 0.750000 0.250000
Si Si8 0.450722 0.250000 0.750000
O O1 0.104997 0.350306 0.493828
O O2 0.129262 0.204556 0.656390
O O3 0.080108 0.953806 0.553088
O O4 0.156559 0.007344 0.486451
O O5 0.458222 0.380829 0.473358
O O6 0.475571 0.231575 0.652909
O O7 0.500000 0.000000 0.500000
O O8 0.364746 0.588076 0.189182
O O9 0.384706 0.211309 0.109683
O O10 0.305328 0.281633 0.160457
O O11 0.074474 0.376990 0.325057
O O12 0.250000 0.500000 0.257762
O O13 0.924313 0.502022 0.260668
#
# Coordination Sequence:
#
# PCOD9408084 Si02
#       8
#     8   8   8   4   8   4   4   4
#     4   9  20  34  62  78 116 154 198 265 305 361
#     4  10  21  37  55  81 114 157 209 255 328 384
#     4  10  20  36  55  85 121 163 202 243 290 365
#     4  10  17  32  59  76 118 160 205 248 295 358
#     4  10  18  34  57  81 109 159 198 261 301 355
#     4  12  25  38  60  94 136 172 200 244 304 366
#     4  10  18  38  60  91 108 145 201 252 333 348
#     4  10  20  38  57  77 118 155 190 276 314 372
#
# _framework density 18.650835000000001
#
# number of rings (size 3 to 8) (size 9 to 14) (size 15 to 20)
#    0.000    2.000    3.333    0.500    2.333    0.667 
#    0.000    9.167   18.333    0.000    0.000    0.000 
#    5.000    0.000    0.000    0.000    0.000    0.000 
#
# Total GULP energy -267448.041870 kJ/mol
# GULP energy per Si atom -5571.834206 kJ/mol
# Density = 1.860838 g / cm^3
# Si number density = 18.650835 Si / 1000 Ang^3
#
#
#
# Elastic Constant Matrix: (Units=GPa)
#
#
# Indices 1 2 3 4 5 6 
#
# 1 63.8341 30.6797 46.6400 0.0000 0.0000 0.0000
# 2 30.6797 91.2002 56.5331 0.0000 0.0000 0.0000
# 3 46.6400 56.5331 213.7283 0.0000 0.0000 0.0000
# 4 0.0000 0.0000 0.0000 34.5379 0.0000 0.0000
# 5 0.0000 0.0000 0.0000 0.0000 148.8853 0.0000
# 6 0.0000 0.0000 0.0000 0.0000 0.0000 19.2298
#
#
#
# Elastic Compliance Matrix: (Units=1/GPa)
#
#
# Indices 1 2 3 4 5 6 
#
# 1 0.020307 -0.004885 -0.003139 0.000000 0.000000 0.000000
# 2 -0.004885 0.014291 -0.002714 0.000000 0.000000 0.000000
# 3 -0.003139 -0.002714 0.006082 0.000000 0.000000 0.000000
# 4 0.000000 0.000000 0.000000 0.028954 0.000000 0.000000
# 5 0.000000 0.000000 0.000000 0.000000 0.006717 0.000000
# 6 0.000000 0.000000 0.000000 0.000000 0.000000 0.052003
#
#
# Mechanical properties :
#
#
# Convention : Reuss Voigt Hill
#
# Bulk Modulus (GPa) = 52.07645 70.71871 61.39758
# Shear Modulus (GPa) = 32.00397 56.19125 44.09761
#
# Velocity S-wave (km/s) = 4.14690 5.49485 4.86776
# Velocity P-wave (km/s) = 7.13523 8.84632 8.03644
#
# Compressibility (1/GPa) = 0.01920254
#
# Stress axis : x y z
#
# Youngs Moduli (GPa) = 49.24344 69.97593 164.42666
#
# Poissons Ratio (x) = 0.34186 0.51618
# Poissons Ratio (y) = 0.24057 0.44624
# Poissons Ratio (z) = 0.15459 0.18991
#
# Static dielectric constant tensor:
#      x y z
#    x 1.635500 0.000000 0.000000 
#    y 0.000000 1.714530 0.000000 
#    z 0.000000 0.000000 1.664470 
# 
# From -- ./inp_files/29502.got.cif
#   From: 2010.05.17/outbox.cif.g08.bks.cpg/sg52_15_cif.got.tgz:29502.got - 2010.06.03 12:15:38.
