data_PCOD9408109
_publ_section_title
;
Structure prediction by ZEFSAII (Michael W. Deem and Ramdas Pophale) SiO2 
 PCOD9408109
Probable space group: P N N A
;
_chemical_formula_sum "Si O2"
_cell_formula_units_Z 32
_cell_length_a 9.801527
_cell_length_b 9.765935
_cell_length_c 15.635558
_cell_angle_alpha 90.000000
_cell_angle_beta 90.000000
_cell_angle_gamma 90.000000
_cell_volume 1496.652429
_symmetry_space_group_name_H-M "P N N A"
_symmetry_group_IT_number 52
_symmetry_cell_setting 'orthorhombic'
loop_
_space_group_symop_operation_xyz
x,y,z
1/2-x,-y,z
x,1/2-y,1/2-z
1/2-x,1/2+y,1/2-z
-x,-y,-z
1/2+x,y,-z
-x,1/2+y,1/2+z
1/2+x,1/2-y,1/2+z
loop_
_atom_site_type_symbol
_atom_site_label
_atom_site_fract_x
_atom_site_fract_y
_atom_site_fract_z
Si Si1 0.593084 0.845090 0.175693
Si Si2 0.190529 0.204712 0.100461
Si Si3 0.250000 0.000000 0.964046
Si Si4 0.750000 0.500000 0.882489
Si Si5 0.434407 0.104986 0.230717
O O1 0.654464 0.750000 0.250000
O O2 0.448634 0.775910 0.152144
O O3 0.681778 0.882280 0.093293
O O4 0.545067 0.996947 0.201968
O O5 0.227034 0.357406 0.068395
O O6 0.311125 0.144776 0.163094
O O7 0.159691 0.091480 0.028666
O O8 0.631367 0.540776 0.815664
O O9 0.500039 0.250000 0.250000
#
# Coordination Sequence:
#
# PCOD9408109 Si02
#       5
#     8   8   4   4   8
#     4  12  22  42  64  87 127 173 209 254 315 381
#     4  11  20  38  64  98 125 158 208 271 312 366
#     4  12  27  38  61  92 132 168 206 256 325 378
#     4  10  17  34  63  98 118 154 214 262 307 362
#     4  10  18  33  64  97 120 156 214 261 302 371
#
# _framework density 21.381050999999999
#
# number of rings (size 3 to 8) (size 9 to 14) (size 15 to 20)
#    0.000    1.000    7.500    1.500    0.000    1.000 
#    0.000    5.000    0.000    0.000    0.000    0.000 
#    0.000    0.000    0.000    0.000    0.000    0.000 
#
# Total GULP energy -178253.718100 kJ/mol
# GULP energy per Si atom -5570.428691 kJ/mol
# Density = 2.133239 g / cm^3
# Si number density = 21.381051 Si / 1000 Ang^3
#
#
#
# Elastic Constant Matrix: (Units=GPa)
#
#
# Indices 1 2 3 4 5 6 
#
# 1 26.1352 7.4758 18.9523 0.0000 0.0000 0.0000
# 2 7.4758 155.7461 27.0657 0.0000 0.0000 0.0000
# 3 18.9523 27.0657 61.4208 0.0000 0.0000 0.0000
# 4 0.0000 0.0000 0.0000 49.9681 0.0000 0.0000
# 5 0.0000 0.0000 0.0000 0.0000 -1.2075 0.0000
# 6 0.0000 0.0000 0.0000 0.0000 0.0000 -12.1780
#
#
#
# Elastic Compliance Matrix: (Units=1/GPa)
#
#
# Indices 1 2 3 4 5 6 
#
# 1 0.049305 0.000300 -0.015346 0.000000 0.000000 0.000000
# 2 0.000300 0.006955 -0.003157 0.000000 0.000000 0.000000
# 3 -0.015346 -0.003157 0.022408 0.000000 0.000000 0.000000
# 4 0.000000 0.000000 0.000000 0.020013 0.000000 0.000000
# 5 0.000000 0.000000 0.000000 0.000000 -0.828142 0.000000
# 6 0.000000 0.000000 0.000000 0.000000 0.000000 -0.082115
#
#
# Mechanical properties :
#
#
# Convention : Reuss Voigt Hill
#
# Bulk Modulus (GPa) = 23.66237 38.92107 31.29172
# Shear Modulus (GPa) = -6.56958 19.97040 6.70041
#
# Velocity S-wave (km/s) = -1.75479 3.05950 1.77218
# Velocity P-wave (km/s) = 2.64297 5.54290 4.34218
#
# Compressibility (1/GPa) = 0.04226119
#
# Stress axis : x y z
#
# Youngs Moduli (GPa) = 20.28192 143.78150 44.62746
#
# Poissons Ratio (x) = -0.04316 0.68486
# Poissons Ratio (y) = -0.00609 0.14091
# Poissons Ratio (z) = 0.31125 0.45398
#
# Static dielectric constant tensor:
#      x y z
#    x 1.823850 0.000000 0.000000 
#    y 0.000000 1.801860 0.000000 
#    z 0.000000 0.000000 1.842780 
# 
# From -- ./inp_files/25618.got.cif
#   From: 2010.05.17/outbox.cif.g08.bks.cpg/sg52_13_cif.got.tgz:25618.got - 2010.06.03 12:15:38.
