data_PCOD9408683
_publ_section_title
;
Structure prediction by ZEFSAII (Michael W. Deem and Ramdas Pophale) SiO2 
 PCOD9408683
Probable space group: P N N A
;
_chemical_formula_sum "Si O2"
_cell_formula_units_Z 64
_cell_length_a 9.867422
_cell_length_b 9.599448
_cell_length_c 29.849939
_cell_angle_alpha 90.000000
_cell_angle_beta 90.000000
_cell_angle_gamma 90.000000
_cell_volume 2827.440083
_symmetry_space_group_name_H-M "P N N A"
_symmetry_group_IT_number 52
_symmetry_cell_setting 'orthorhombic'
loop_
_space_group_symop_operation_xyz
x,y,z
1/2-x,-y,z
x,1/2-y,1/2-z
1/2-x,1/2+y,1/2-z
-x,-y,-z
1/2+x,y,-z
-x,1/2+y,1/2+z
1/2+x,1/2-y,1/2+z
loop_
_atom_site_type_symbol
_atom_site_label
_atom_site_fract_x
_atom_site_fract_y
_atom_site_fract_z
Si Si1 0.540357 0.834125 0.402416
Si Si2 0.374467 0.310697 0.511867
Si Si3 0.942789 0.653702 0.111596
Si Si4 0.258525 0.341251 0.066464
Si Si5 0.078170 0.085858 0.937372
Si Si6 0.040017 0.304408 0.701584
Si Si7 0.510201 0.929234 0.150064
Si Si8 0.774307 0.646885 0.714760
O O1 0.582150 0.807857 0.453875
O O2 0.375609 0.821366 0.404166
O O3 0.581527 0.712252 0.367329
O O4 0.584988 0.990267 0.391761
O O5 0.261951 0.261308 0.476364
O O6 0.357539 0.443103 0.543917
O O7 0.491484 0.358376 0.478400
O O8 0.100324 0.670640 0.094218
O O9 0.920446 0.701356 0.162098
O O10 0.861161 0.768697 0.081980
O O11 0.250000 0.500000 0.049350
O O12 0.995594 0.024408 0.894481
O O13 0.085938 0.250000 0.750000
O O14 0.874672 0.301033 0.701968
O O15 0.076659 0.462494 0.685793
O O16 0.369955 0.885426 0.173136
O O17 0.750000 0.500000 0.739065
O O18 0.841078 0.750000 0.750000
#
# Coordination Sequence:
#
# PCOD9408683 Si02
#       8
#     8   8   8   8   8   8   8   8
#     4  10  19  29  46  66  84 114 153 191 225 266
#     4   9  17  31  46  62  84 110 149 187 222 267
#     4   9  17  29  43  60  84 113 150 188 223 261
#     4   9  18  29  44  65  88 114 146 188 229 265
#     4   8  16  30  44  57  80 110 140 184 226 259
#     4   9  17  28  39  54  81 115 147 185 224 254
#     4   9  17  28  41  57  78 109 151 185 216 259
#     4   9  17  26  37  54  78 110 146 185 222 252
#
# _framework density 22.635314000000001
#
# number of rings (size 3 to 8) (size 9 to 14) (size 15 to 20)
#    0.000    3.000    0.000    0.750    0.000   10.500 
#    0.000   17.500    0.000    0.000    0.000    0.000 
#    0.000    0.000    0.000    0.000    0.000  396.250 
#
# Total GULP energy -356554.668254 kJ/mol
# GULP energy per Si atom -5571.166691 kJ/mol
# Density = 2.258380 g / cm^3
# Si number density = 22.635314 Si / 1000 Ang^3
#
#
#
# Elastic Constant Matrix: (Units=GPa)
#
#
# Indices 1 2 3 4 5 6 
#
# 1 39.0807 12.2509 7.2168 0.0000 0.0000 0.0000
# 2 12.2509 197.3980 93.1024 0.0000 0.0000 0.0000
# 3 7.2168 93.1024 131.2379 0.0000 0.0000 0.0000
# 4 0.0000 0.0000 0.0000 37.1899 0.0000 0.0000
# 5 0.0000 0.0000 0.0000 0.0000 -62.9542 0.0000
# 6 0.0000 0.0000 0.0000 0.0000 0.0000 11.3655
#
#
#
# Elastic Compliance Matrix: (Units=1/GPa)
#
#
# Indices 1 2 3 4 5 6 
#
# 1 0.026112 -0.001418 -0.000430 0.000000 0.000000 0.000000
# 2 -0.001418 0.007690 -0.005378 0.000000 0.000000 0.000000
# 3 -0.000430 -0.005378 0.011458 0.000000 0.000000 0.000000
# 4 0.000000 0.000000 0.000000 0.026889 0.000000 0.000000
# 5 0.000000 0.000000 0.000000 0.000000 -0.015885 0.000000
# 6 0.000000 0.000000 0.000000 0.000000 0.000000 0.087986
#
#
# Mechanical properties :
#
#
# Convention : Reuss Voigt Hill
#
# Bulk Modulus (GPa) = 32.45743 65.87301 49.16522
# Shear Modulus (GPa) = 29.59081 14.12999 21.86040
#
# Velocity S-wave (km/s) = 3.61956 2.50120 3.11105
# Velocity P-wave (km/s) = 5.64258 6.12425 5.88834
#
# Compressibility (1/GPa) = 0.03080959
#
# Stress axis : x y z
#
# Youngs Moduli (GPa) = 38.29667 130.03497 87.27232
#
# Poissons Ratio (x) = 0.18435 0.03754
# Poissons Ratio (y) = 0.05429 0.46932
# Poissons Ratio (z) = 0.01647 0.69928
#
# Static dielectric constant tensor:
#      x y z
#    x 1.932050 0.000000 0.000000 
#    y 0.000000 1.861230 0.000000 
#    z 0.000000 0.000000 1.798430 
# 
# From -- ./inp_files/44846.got.cif
#   From: 2010.05.17/outbox.cif.g08.bks.cpg/sg52_23_cif.got.tgz:44846.got - 2010.06.03 12:15:38.
