data_PCOD9408613
_publ_section_title
;
Structure prediction by ZEFSAII (Michael W. Deem and Ramdas Pophale) SiO2 
 PCOD9408613
Probable space group: P N N A
;
_chemical_formula_sum "Si O2"
_cell_formula_units_Z 44
_cell_length_a 8.925019
_cell_length_b 16.396378
_cell_length_c 16.752790
_cell_angle_alpha 90.000000
_cell_angle_beta 90.000000
_cell_angle_gamma 90.000000
_cell_volume 2451.569535
_symmetry_space_group_name_H-M "P N N A"
_symmetry_group_IT_number 52
_symmetry_cell_setting 'orthorhombic'
loop_
_space_group_symop_operation_xyz
x,y,z
1/2-x,-y,z
x,1/2-y,1/2-z
1/2-x,1/2+y,1/2-z
-x,-y,-z
1/2+x,y,-z
-x,1/2+y,1/2+z
1/2+x,1/2-y,1/2+z
loop_
_atom_site_type_symbol
_atom_site_label
_atom_site_fract_x
_atom_site_fract_y
_atom_site_fract_z
Si Si1 0.925596 0.592680 0.688355
Si Si2 0.250000 0.000000 0.048756
Si Si3 0.750000 0.500000 0.822301
Si Si4 0.607247 0.251743 0.009511
Si Si5 0.144849 0.862161 0.929226
Si Si6 0.249717 0.250000 0.250000
Si Si7 0.143491 0.837488 0.400107
O O1 0.850501 0.552826 0.609522
O O2 0.878853 0.535738 0.762889
O O3 0.851577 0.679071 0.711408
O O4 0.094827 0.607011 0.658168
O O5 0.164067 0.936920 0.991195
O O6 0.817402 0.429364 0.877175
O O7 0.703438 0.190583 0.065045
O O8 0.511348 0.318525 0.056674
O O9 0.487838 0.196955 0.960896
O O10 0.724116 0.297215 0.952408
O O11 0.351435 0.210817 0.317324
#
# Coordination Sequence:
#
# PCOD9408613 Si02
#       7
#     8   4   4   8   8   4   8
#     4  10  19  34  57  83 109 153 192 230 294 359
#     4  11  20  32  56  88 117 138 190 244 297 344
#     4   9  22  36  62  82 113 156 202 248 293 344
#     4  10  21  35  62  85 116 151 205 234 294 349
#     4  11  19  35  54  89 116 152 183 245 293 357
#     4  10  18  38  60  78 118 156 192 228 290 374
#     4  10  20  39  60  90 110 157 199 245 292 349
#
# _framework density 17.947685
#
# number of rings (size 3 to 8) (size 9 to 14) (size 15 to 20)
#    0.000    1.818    3.636    1.636    0.000    0.727 
#    0.000    0.909    0.000    0.000    0.000    0.000 
#    0.000    0.000    0.000    0.000    0.000    0.000 
#
# Total GULP energy -245308.442033 kJ/mol
# GULP energy per Si atom -5575.191864 kJ/mol
# Density = 1.790684 g / cm^3
# Si number density = 17.947685 Si / 1000 Ang^3
#
#
#
# Elastic Constant Matrix: (Units=GPa)
#
#
# Indices 1 2 3 4 5 6 
#
# 1 74.3809 26.3636 29.6636 0.0000 0.0000 0.0000
# 2 26.3636 110.5276 37.9062 0.0000 0.0000 0.0000
# 3 29.6636 37.9062 58.0329 0.0000 0.0000 0.0000
# 4 0.0000 0.0000 0.0000 28.1944 0.0000 0.0000
# 5 0.0000 0.0000 0.0000 0.0000 -8.5006 0.0000
# 6 0.0000 0.0000 0.0000 0.0000 0.0000 14.9438
#
#
#
# Elastic Compliance Matrix: (Units=1/GPa)
#
#
# Indices 1 2 3 4 5 6 
#
# 1 0.017051 -0.001389 -0.007808 0.000000 0.000000 0.000000
# 2 -0.001389 0.011773 -0.006980 0.000000 0.000000 0.000000
# 3 -0.007808 -0.006980 0.025782 0.000000 0.000000 0.000000
# 4 0.000000 0.000000 0.000000 0.035468 0.000000 0.000000
# 5 0.000000 0.000000 0.000000 0.000000 -0.117639 0.000000
# 6 0.000000 0.000000 0.000000 0.000000 0.000000 0.066917
#
#
# Mechanical properties :
#
#
# Convention : Reuss Voigt Hill
#
# Bulk Modulus (GPa) = 44.94140 47.86760 46.40450
# Shear Modulus (GPa) = 63.19370 16.86139 40.02755
#
# Velocity S-wave (km/s) = 5.94023 3.06841 4.72766
# Velocity P-wave (km/s) = 8.49371 6.26754 7.46409
#
# Compressibility (1/GPa) = 0.02225120
#
# Stress axis : x y z
#
# Youngs Moduli (GPa) = 58.64899 84.94325 38.78726
#
# Poissons Ratio (x) = 0.11800 0.30285
# Poissons Ratio (y) = 0.08147 0.27072
# Poissons Ratio (z) = 0.45793 0.59287
#
# Static dielectric constant tensor:
#      x y z
#    x 1.626570 0.000000 0.000000 
#    y 0.000000 1.635140 0.000000 
#    z 0.000000 0.000000 1.611410 
# 
# From -- ./inp_files/24673.got.cif
#   From: 2010.05.17/outbox.cif.g08.bks.cpg/sg52_13_cif.got.tgz:24673.got - 2010.06.03 12:15:38.
