data_PCOD9408871
_publ_section_title
;
Structure prediction by ZEFSAII (Michael W. Deem and Ramdas Pophale) SiO2 
 PCOD9408871
Probable space group: P N N A
;
_chemical_formula_sum "Si O2"
_cell_formula_units_Z 40
_cell_length_a 5.278361
_cell_length_b 18.851109
_cell_length_c 20.001251
_cell_angle_alpha 90.000000
_cell_angle_beta 90.000000
_cell_angle_gamma 90.000000
_cell_volume 1990.183649
_symmetry_space_group_name_H-M "P N N A"
_symmetry_group_IT_number 52
_symmetry_cell_setting 'orthorhombic'
loop_
_space_group_symop_operation_xyz
x,y,z
1/2-x,-y,z
x,1/2-y,1/2-z
1/2-x,1/2+y,1/2-z
-x,-y,-z
1/2+x,y,-z
-x,1/2+y,1/2+z
1/2+x,1/2-y,1/2+z
loop_
_atom_site_type_symbol
_atom_site_label
_atom_site_fract_x
_atom_site_fract_y
_atom_site_fract_z
Si Si1 0.987017 0.544447 0.167657
Si Si2 0.213906 0.592442 0.968342
Si Si3 0.159778 0.761589 0.963197
Si Si4 0.832690 0.334725 0.735272
Si Si5 0.329938 0.194311 0.812525
O O1 0.750000 0.500000 0.199988
O O2 0.854330 0.569575 0.098945
O O3 0.250000 0.500000 0.162934
O O4 0.070205 0.616922 0.204612
O O5 0.188147 0.676873 0.970996
O O6 0.421922 0.568986 0.023658
O O7 0.110281 0.773172 0.884529
O O8 0.425539 0.789052 0.992618
O O9 0.804325 0.250000 0.750000
O O10 0.557514 0.356362 0.709638
O O11 0.055436 0.340416 0.681634
O O12 0.303545 0.250000 0.750000
#
# Coordination Sequence:
#
# PCOD9408871 Si02
#       5
#     8   8   8   8   8
#     4  12  25  39  56  82 119 155 199 253 294 338
#     4  10  21  35  53  76 111 164 210 236 271 330
#     4  10  20  34  54  85 121 152 193 246 290 336
#     4  10  21  37  59  81 107 147 195 239 293 348
#     4  10  19  33  57  82 112 151 194 237 292 351
#
# _framework density 20.098647
#
# number of rings (size 3 to 8) (size 9 to 14) (size 15 to 20)
#    0.000    1.600    0.000    6.000    0.000   12.000 
#    0.000    0.000    0.000    0.000    0.000    0.000 
#    0.000   56.000    0.000    0.000    0.000    0.000 
#
# Total GULP energy -222735.192036 kJ/mol
# GULP energy per Si atom -5568.379801 kJ/mol
# Density = 2.005290 g / cm^3
# Si number density = 20.098647 Si / 1000 Ang^3
#
#
#
# Elastic Constant Matrix: (Units=GPa)
#
#
# Indices 1 2 3 4 5 6 
#
# 1 134.7066 11.6046 20.5679 0.0000 0.0000 0.0000
# 2 11.6046 41.6590 15.2868 0.0000 0.0000 0.0000
# 3 20.5679 15.2868 91.3519 0.0000 0.0000 0.0000
# 4 0.0000 0.0000 0.0000 17.2887 0.0000 0.0000
# 5 0.0000 0.0000 0.0000 0.0000 18.2657 0.0000
# 6 0.0000 0.0000 0.0000 0.0000 0.0000 25.9722
#
#
#
# Elastic Compliance Matrix: (Units=1/GPa)
#
#
# Indices 1 2 3 4 5 6 
#
# 1 0.007790 -0.001626 -0.001482 0.000000 0.000000 0.000000
# 2 -0.001626 0.025914 -0.003970 0.000000 0.000000 0.000000
# 3 -0.001482 -0.003970 0.011945 0.000000 0.000000 0.000000
# 4 0.000000 0.000000 0.000000 0.057841 0.000000 0.000000
# 5 0.000000 0.000000 0.000000 0.000000 0.054747 0.000000
# 6 0.000000 0.000000 0.000000 0.000000 0.000000 0.038503
#
#
# Mechanical properties :
#
#
# Convention : Reuss Voigt Hill
#
# Bulk Modulus (GPa) = 31.75385 40.29288 36.02337
# Shear Modulus (GPa) = 22.58412 26.98919 24.78666
#
# Velocity S-wave (km/s) = 3.35575 3.66845 3.51558
# Velocity P-wave (km/s) = 5.55410 6.16721 5.86866
#
# Compressibility (1/GPa) = 0.03149224
#
# Stress axis : x y z
#
# Youngs Moduli (GPa) = 128.37171 38.58871 83.71915
#
# Poissons Ratio (x) = 0.06275 0.12405
# Poissons Ratio (y) = 0.20876 0.33239
# Poissons Ratio (z) = 0.19022 0.15321
#
# Static dielectric constant tensor:
#      x y z
#    x 1.817890 0.000000 0.000000 
#    y 0.000000 1.707010 0.000000 
#    z 0.000000 0.000000 1.749750 
# 
# From -- ./inp_files/30130.got.cif
#   From: 2010.05.17/outbox.cif.g08.bks.cpg/sg52_16_cif.got.tgz:30130.got - 2010.06.03 12:15:38.
