data_PCOD9408035
_publ_section_title
;
Structure prediction by ZEFSAII (Michael W. Deem and Ramdas Pophale) SiO2 
 PCOD9408035
Probable space group: P N N A
;
_chemical_formula_sum "Si O2"
_cell_formula_units_Z 44
_cell_length_a 18.575005
_cell_length_b 5.528563
_cell_length_c 22.863461
_cell_angle_alpha 90.000000
_cell_angle_beta 90.000000
_cell_angle_gamma 90.000000
_cell_volume 2347.919352
_symmetry_space_group_name_H-M "P N N A"
_symmetry_group_IT_number 52
_symmetry_cell_setting 'orthorhombic'
loop_
_space_group_symop_operation_xyz
x,y,z
1/2-x,-y,z
x,1/2-y,1/2-z
1/2-x,1/2+y,1/2-z
-x,-y,-z
1/2+x,y,-z
-x,1/2+y,1/2+z
1/2+x,1/2-y,1/2+z
loop_
_atom_site_type_symbol
_atom_site_label
_atom_site_fract_x
_atom_site_fract_y
_atom_site_fract_z
Si Si1 0.005145 0.250332 0.869816
Si Si2 0.125197 0.706858 0.037474
Si Si3 0.931964 0.250000 0.750000
Si Si4 0.180380 0.376674 0.192674
Si Si5 0.966770 0.245277 0.079168
Si Si6 0.637348 0.203842 0.927859
O O1 0.932192 0.275456 0.908676
O O2 0.982100 0.179993 0.804402
O O3 0.038528 0.519150 0.878519
O O4 0.048985 0.020619 0.894602
O O5 0.165302 0.455035 0.046110
O O6 0.166380 0.958533 0.044734
O O7 0.081063 0.706952 0.977504
O O8 0.880613 0.451467 0.779691
O O9 0.250000 0.500000 0.164692
O O10 0.211416 0.250000 0.250000
O O11 0.147827 0.208920 0.142286
O O12 0.050964 0.221161 0.060307
#
# Coordination Sequence:
#
# PCOD9408035 Si02
#       6
#     8   8   4   8   8   8
#     4  10  19  28  45  64  87 113 140 188 233 275
#     4  10  17  31  49  67  84 104 136 194 247 286
#     4  12  22  36  44  62  92 124 166 200 244 268
#     4  12  24  35  48  60  85 128 171 208 239 272
#     4  10  17  30  48  67  85 104 139 188 246 284
#     4  10  19  31  45  66  84 104 146 192 244 269
#
# _framework density 18.739996999999999
#
# number of rings (size 3 to 8) (size 9 to 14) (size 15 to 20)
#    0.000    1.455    4.545    7.636    0.000    0.000 
#    0.000    0.000    0.000    0.000    0.000    0.000 
#    0.000    0.000    0.000    0.000    0.000    0.000 
#
# Total GULP energy -245280.615354 kJ/mol
# GULP energy per Si atom -5574.559440 kJ/mol
# Density = 1.869734 g / cm^3
# Si number density = 18.739997 Si / 1000 Ang^3
#
#
#
# Elastic Constant Matrix: (Units=GPa)
#
#
# Indices 1 2 3 4 5 6 
#
# 1 18.1520 1.3243 15.1880 0.0000 0.0000 0.0000
# 2 1.3243 142.0458 4.1239 0.0000 0.0000 0.0000
# 3 15.1880 4.1239 74.8566 0.0000 0.0000 0.0000
# 4 0.0000 0.0000 0.0000 9.6270 0.0000 0.0000
# 5 0.0000 0.0000 0.0000 0.0000 14.8380 0.0000
# 6 0.0000 0.0000 0.0000 0.0000 0.0000 3.6113
#
#
#
# Elastic Compliance Matrix: (Units=1/GPa)
#
#
# Indices 1 2 3 4 5 6 
#
# 1 0.066362 -0.000228 -0.013452 0.000000 0.000000 0.000000
# 2 -0.000228 0.007052 -0.000342 0.000000 0.000000 0.000000
# 3 -0.013452 -0.000342 0.016107 0.000000 0.000000 0.000000
# 4 0.000000 0.000000 0.000000 0.103874 0.000000 0.000000
# 5 0.000000 0.000000 0.000000 0.000000 0.067395 0.000000
# 6 0.000000 0.000000 0.000000 0.000000 0.000000 0.276905
#
#
# Mechanical properties :
#
#
# Convention : Reuss Voigt Hill
#
# Bulk Modulus (GPa) = 16.26630 30.70297 23.48463
# Shear Modulus (GPa) = 8.52904 19.90982 14.21943
#
# Velocity S-wave (km/s) = 2.13568 3.26302 2.75757
# Velocity P-wave (km/s) = 3.84452 5.53314 4.76424
#
# Compressibility (1/GPa) = 0.06147680
#
# Stress axis : x y z
#
# Youngs Moduli (GPa) = 15.06876 141.80288 62.08445
#
# Poissons Ratio (x) = 0.03235 0.83516
# Poissons Ratio (y) = 0.00344 0.02125
# Poissons Ratio (z) = 0.20271 0.04853
#
# Static dielectric constant tensor:
#      x y z
#    x 1.625580 0.000000 0.000000 
#    y 0.000000 1.842170 0.000000 
#    z 0.000000 0.000000 1.611100 
# 
# From -- ./inp_files/37780.got.cif
#   From: 2010.05.17/outbox.cif.g08.bks.cpg/sg52_19_cif.got.tgz:37780.got - 2010.06.03 12:15:38.
