data_PCOD9408075
_publ_section_title
;
Structure prediction by ZEFSAII (Michael W. Deem and Ramdas Pophale) SiO2 
 PCOD9408075
Probable space group: P N N A
;
_chemical_formula_sum "Si O2"
_cell_formula_units_Z 48
_cell_length_a 29.725384
_cell_length_b 9.077443
_cell_length_c 8.057851
_cell_angle_alpha 90.000000
_cell_angle_beta 90.000000
_cell_angle_gamma 90.000000
_cell_volume 2174.253794
_symmetry_space_group_name_H-M "P N N A"
_symmetry_group_IT_number 52
_symmetry_cell_setting 'orthorhombic'
loop_
_space_group_symop_operation_xyz
x,y,z
1/2-x,-y,z
x,1/2-y,1/2-z
1/2-x,1/2+y,1/2-z
-x,-y,-z
1/2+x,y,-z
-x,1/2+y,1/2+z
1/2+x,1/2-y,1/2+z
loop_
_atom_site_type_symbol
_atom_site_label
_atom_site_fract_x
_atom_site_fract_y
_atom_site_fract_z
Si Si1 0.849456 0.903291 0.191218
Si Si2 0.939316 0.062236 0.105506
Si Si3 0.235922 0.171641 0.930954
Si Si4 0.818904 0.148675 0.414449
Si Si5 0.914915 0.160477 0.578491
Si Si6 0.031976 0.075533 0.242813
O O1 0.869858 0.750000 0.250000
O O2 0.817428 0.853452 0.037389
O O3 0.889980 0.013369 0.159491
O O4 0.818434 0.986514 0.330415
O O5 0.979651 0.028601 0.230919
O O6 0.938197 0.234383 0.056803
O O7 0.948895 0.975482 0.935304
O O8 0.234225 0.250000 0.750000
O O9 0.275112 0.278168 0.005656
O O10 0.250000 0.000000 0.936530
O O11 0.825193 0.250000 0.250000
O O12 0.862907 0.147639 0.527630
O O13 0.917571 0.250000 0.750000
O O14 0.940465 0.008924 0.615086
O O15 0.035842 0.250000 0.250000
#
# Coordination Sequence:
#
# PCOD9408075 Si02
#       6
#     8   8   8   8   8   8
#     4  11  23  34  61  95 125 160 210 274 313 382
#     4  10  22  42  58  91 125 168 220 257 327 386
#     4  10  17  32  53  90 122 150 198 261 311 368
#     4  11  20  37  63  94 124 164 212 256 330 392
#     4  10  22  41  63  89 127 176 210 266 327 391
#     4  10  24  40  63  88 127 171 216 269 316 384
#
# _framework density 22.076539
#
# number of rings (size 3 to 8) (size 9 to 14) (size 15 to 20)
#    0.000    1.667    5.000    0.000    4.667    4.000 
#    0.000    0.000    0.000    1.000   30.333    0.000 
#    0.000    0.000    0.000    0.000    0.000    0.000 
#
# Total GULP energy -267243.696864 kJ/mol
# GULP energy per Si atom -5567.577018 kJ/mol
# Density = 2.202629 g / cm^3
# Si number density = 22.076539 Si / 1000 Ang^3
#
#
#
# Elastic Constant Matrix: (Units=GPa)
#
#
# Indices 1 2 3 4 5 6 
#
# 1 125.6523 45.0255 -7.6710 0.0000 0.0000 0.0000
# 2 45.0255 148.7734 16.3180 0.0000 0.0000 0.0000
# 3 -7.6710 16.3180 8.4749 0.0000 0.0000 0.0000
# 4 0.0000 0.0000 0.0000 18.2979 0.0000 0.0000
# 5 0.0000 0.0000 0.0000 0.0000 43.5000 0.0000
# 6 0.0000 0.0000 0.0000 0.0000 0.0000 24.9495
#
#
#
# Elastic Compliance Matrix: (Units=1/GPa)
#
#
# Indices 1 2 3 4 5 6 
#
# 1 0.011333 -0.005774 0.021376 0.000000 0.000000 0.000000
# 2 -0.005774 0.011463 -0.027299 0.000000 0.000000 0.000000
# 3 0.021376 -0.027299 0.189906 0.000000 0.000000 0.000000
# 4 0.000000 0.000000 0.000000 0.054651 0.000000 0.000000
# 5 0.000000 0.000000 0.000000 0.000000 0.022989 0.000000
# 6 0.000000 0.000000 0.000000 0.000000 0.000000 0.040081
#
#
# Mechanical properties :
#
#
# Convention : Reuss Voigt Hill
#
# Bulk Modulus (GPa) = 5.28241 43.36064 24.32153
# Shear Modulus (GPa) = 11.99269 32.63132 22.31201
#
# Velocity S-wave (km/s) = 2.33326 3.84878 3.18255
# Velocity P-wave (km/s) = 3.10754 6.27969 4.95435
#
# Compressibility (1/GPa) = 0.18930740
#
# Stress axis : x y z
#
# Youngs Moduli (GPa) = 88.24107 87.23371 5.26575
#
# Poissons Ratio (x) = 0.50372 -0.11256
# Poissons Ratio (y) = 0.50953 0.14375
# Poissons Ratio (z) = -1.88622 2.38139
#
# Static dielectric constant tensor:
#      x y z
#    x 1.938840 0.000000 0.000000 
#    y 0.000000 1.863560 0.000000 
#    z 0.000000 0.000000 1.858910 
# 
# From -- ./inp_files/15502.got.cif
#   From: 2010.05.17/outbox.cif.g08.bks.cpg/sg52_8_cif.got.tgz:15502.got - 2010.06.03 12:15:38.
