data_PCOD9408941
_publ_section_title
;
Structure prediction by ZEFSAII (Michael W. Deem and Ramdas Pophale) SiO2 
 PCOD9408941
Probable space group: P N N A
;
_chemical_formula_sum "Si O2"
_cell_formula_units_Z 44
_cell_length_a 11.347530
_cell_length_b 11.536988
_cell_length_c 19.059446
_cell_angle_alpha 90.000000
_cell_angle_beta 90.000000
_cell_angle_gamma 90.000000
_cell_volume 2495.192483
_symmetry_space_group_name_H-M "P N N A"
_symmetry_group_IT_number 52
_symmetry_cell_setting 'orthorhombic'
loop_
_space_group_symop_operation_xyz
x,y,z
1/2-x,-y,z
x,1/2-y,1/2-z
1/2-x,1/2+y,1/2-z
-x,-y,-z
1/2+x,y,-z
-x,1/2+y,1/2+z
1/2+x,1/2-y,1/2+z
loop_
_atom_site_type_symbol
_atom_site_label
_atom_site_fract_x
_atom_site_fract_y
_atom_site_fract_z
Si Si1 0.750000 0.000000 0.896929
Si Si2 0.878180 0.039621 0.412530
Si Si3 0.960182 0.617253 0.537577
Si Si4 0.297367 0.227124 0.170864
Si Si5 0.014926 0.260657 0.168432
Si Si6 0.052954 0.834573 0.452207
O O1 0.674393 0.086012 0.944779
O O2 0.816244 0.091121 0.847373
O O3 0.868079 0.108077 0.486549
O O4 0.951615 0.126006 0.362625
O O5 0.750000 0.000000 0.386930
O O6 0.957137 0.927803 0.428362
O O7 0.013885 0.655720 0.613529
O O8 0.000000 0.500000 0.500000
O O9 0.987673 0.724300 0.486961
O O10 0.336415 0.250000 0.250000
O O11 0.158443 0.262424 0.166636
O O12 0.368868 0.297255 0.113158
O O13 0.981611 0.250000 0.250000
#
# Coordination Sequence:
#
# PCOD9408941 Si02
#       6
#     4   8   8   8   8   8
#     4  10  20  34  56  84 118 148 192 232 296 350
#     4  10  23  38  60  82 117 155 198 242 288 349
#     4  10  19  34  57  84 114 149 188 243 281 348
#     4  10  21  36  59  90 118 149 191 241 299 351
#     4   9  21  39  61  83 118 158 190 241 302 353
#     4  10  22  36  57  89 115 150 196 243 291 344
#
# _framework density 17.633911000000001
#
# number of rings (size 3 to 8) (size 9 to 14) (size 15 to 20)
#    0.000    2.182    1.818    0.000   10.182    4.364 
#    0.000    0.909    2.000    0.000    0.000    0.000 
#    0.000    0.000    0.000    0.000    0.000    0.000 
#
# Total GULP energy -245018.266678 kJ/mol
# GULP energy per Si atom -5568.596970 kJ/mol
# Density = 1.759378 g / cm^3
# Si number density = 17.633911 Si / 1000 Ang^3
#
#
#
# Elastic Constant Matrix: (Units=GPa)
#
#
# Indices 1 2 3 4 5 6 
#
# 1 41.9880 32.7802 39.0582 0.0000 0.0000 0.0000
# 2 32.7802 126.0458 69.1931 0.0000 0.0000 0.0000
# 3 39.0582 69.1931 158.4269 0.0000 0.0000 0.0000
# 4 0.0000 0.0000 0.0000 20.2777 0.0000 0.0000
# 5 0.0000 0.0000 0.0000 0.0000 25.0336 0.0000
# 6 0.0000 0.0000 0.0000 0.0000 0.0000 22.5573
#
#
#
# Elastic Compliance Matrix: (Units=1/GPa)
#
#
# Indices 1 2 3 4 5 6 
#
# 1 0.033580 -0.005509 -0.005873 0.000000 0.000000 0.000000
# 2 -0.005509 0.011339 -0.003594 0.000000 0.000000 0.000000
# 3 -0.005873 -0.003594 0.009330 0.000000 0.000000 0.000000
# 4 0.000000 0.000000 0.000000 0.049315 0.000000 0.000000
# 5 0.000000 0.000000 0.000000 0.000000 0.039946 0.000000
# 6 0.000000 0.000000 0.000000 0.000000 0.000000 0.044331
#
#
# Mechanical properties :
#
#
# Convention : Reuss Voigt Hill
#
# Bulk Modulus (GPa) = 41.15717 67.61372 54.38545
# Shear Modulus (GPa) = 22.13428 25.93569 24.03499
#
# Velocity S-wave (km/s) = 3.54674 3.83924 3.69589
# Velocity P-wave (km/s) = 6.33742 7.62098 7.00865
#
# Compressibility (1/GPa) = 0.02429710
#
# Stress axis : x y z
#
# Youngs Moduli (GPa) = 29.77933 88.18738 107.18477
#
# Poissons Ratio (x) = 0.48585 0.62945
# Poissons Ratio (y) = 0.16406 0.38525
# Poissons Ratio (z) = 0.17488 0.31697
#
# Static dielectric constant tensor:
#      x y z
#    x 1.642490 0.000000 0.000000 
#    y 0.000000 1.590240 0.000000 
#    z 0.000000 0.000000 1.629350 
# 
# From -- ./inp_files/32147.got.cif
#   From: 2010.05.17/outbox.cif.g08.bks.cpg/sg52_17_cif.got.tgz:32147.got - 2010.06.03 12:15:38.
