data_PCOD9408160
_publ_section_title
;
Structure prediction by ZEFSAII (Michael W. Deem and Ramdas Pophale) SiO2 
 PCOD9408160
Probable space group: P N N A
;
_chemical_formula_sum "Si O2"
_cell_formula_units_Z 64
_cell_length_a 16.479522
_cell_length_b 9.129732
_cell_length_c 21.942794
_cell_angle_alpha 90.000000
_cell_angle_beta 90.000000
_cell_angle_gamma 90.000000
_cell_volume 3301.372776
_symmetry_space_group_name_H-M "P N N A"
_symmetry_group_IT_number 52
_symmetry_cell_setting 'orthorhombic'
loop_
_space_group_symop_operation_xyz
x,y,z
1/2-x,-y,z
x,1/2-y,1/2-z
1/2-x,1/2+y,1/2-z
-x,-y,-z
1/2+x,y,-z
-x,1/2+y,1/2+z
1/2+x,1/2-y,1/2+z
loop_
_atom_site_type_symbol
_atom_site_label
_atom_site_fract_x
_atom_site_fract_y
_atom_site_fract_z
Si Si1 0.102560 0.976542 0.214381
Si Si2 0.153672 0.508936 0.154420
Si Si3 0.679213 0.304166 0.627896
Si Si4 0.314816 0.866195 0.695019
Si Si5 0.651891 0.017849 0.988368
Si Si6 0.626522 0.783892 0.896919
Si Si7 0.661550 0.423569 0.376804
Si Si8 0.425644 0.419887 0.735963
O O1 0.138196 0.925818 0.278678
O O2 0.084338 0.859779 0.161127
O O3 0.166119 0.083165 0.182240
O O4 0.021337 0.063188 0.230066
O O5 0.250000 0.500000 0.143789
O O6 0.132184 0.340649 0.147986
O O7 0.110263 0.612358 0.105786
O O8 0.640985 0.364402 0.565366
O O9 0.775920 0.293398 0.616645
O O10 0.293167 0.750000 0.750000
O O11 0.329583 0.748418 0.641294
O O12 0.250000 0.000000 0.686733
O O13 0.393203 0.961209 0.714739
O O14 0.750000 0.000000 0.992138
O O15 0.614209 0.870710 0.959266
O O16 0.624596 0.058881 0.055749
O O17 0.750000 0.500000 0.376423
O O18 0.612831 0.516178 0.326357
O O19 0.403872 0.250000 0.750000
#
# Coordination Sequence:
#
# PCOD9408160 Si02
#       8
#     8   8   8   8   8   8   8   8
#     4  11  20  31  49  72 101 138 171 202 247 298
#     4  10  18  28  47  76 104 134 170 206 245 287
#     4   9  17  32  49  71 104 136 167 207 245 283
#     4  10  19  34  55  78 102 127 154 200 258 309
#     4   8  16  33  52  71  96 130 167 201 241 293
#     4   9  18  31  50  73 103 135 169 209 243 282
#     4  10  20  36  58  77  97 130 165 200 249 311
#     4  11  22  35  51  76 105 130 162 209 256 299
#
# _framework density 19.385874999999999
#
# number of rings (size 3 to 8) (size 9 to 14) (size 15 to 20)
#    0.000    2.250    0.000    6.000    0.000    5.000 
#    0.000    8.125    0.000    0.000    0.000    7.000 
#    0.000    0.000    0.000    0.000    0.000    0.000 
#
# Total GULP energy -356311.723339 kJ/mol
# GULP energy per Si atom -5567.370677 kJ/mol
# Density = 1.934175 g / cm^3
# Si number density = 19.385875 Si / 1000 Ang^3
#
#
#
# Elastic Constant Matrix: (Units=GPa)
#
#
# Indices 1 2 3 4 5 6 
#
# 1 26.4683 15.2479 2.7162 0.0000 0.0000 0.0000
# 2 15.2479 139.2985 55.8540 0.0000 0.0000 0.0000
# 3 2.7162 55.8540 105.4421 0.0000 0.0000 0.0000
# 4 0.0000 0.0000 0.0000 12.3724 0.0000 0.0000
# 5 0.0000 0.0000 0.0000 0.0000 -2.8321 0.0000
# 6 0.0000 0.0000 0.0000 0.0000 0.0000 -3.0410
#
#
#
# Elastic Compliance Matrix: (Units=1/GPa)
#
#
# Indices 1 2 3 4 5 6 
#
# 1 0.040551 -0.005104 0.001659 0.000000 0.000000 0.000000
# 2 -0.005104 0.009757 -0.005037 0.000000 0.000000 0.000000
# 3 0.001659 -0.005037 0.012109 0.000000 0.000000 0.000000
# 4 0.000000 0.000000 0.000000 0.080825 0.000000 0.000000
# 5 0.000000 0.000000 0.000000 0.000000 -0.353093 0.000000
# 6 0.000000 0.000000 0.000000 0.000000 0.000000 -0.328842
#
#
# Mechanical properties :
#
#
# Convention : Reuss Voigt Hill
#
# Bulk Modulus (GPa) = 22.00044 46.53835 34.26940
# Shear Modulus (GPa) = -9.87016 14.45926 2.29455
#
# Velocity S-wave (km/s) = -2.25886 2.73402 1.08912
# Velocity P-wave (km/s) = 2.13777 5.83309 4.39289
#
# Compressibility (1/GPa) = 0.04545363
#
# Stress axis : x y z
#
# Youngs Moduli (GPa) = 24.66024 102.48833 82.58104
#
# Poissons Ratio (x) = 0.52310 -0.13701
# Poissons Ratio (y) = 0.12587 0.41596
# Poissons Ratio (z) = -0.04091 0.51624
#
# Static dielectric constant tensor:
#      x y z
#    x 1.699020 0.000000 0.000000 
#    y 0.000000 1.746330 0.000000 
#    z 0.000000 0.000000 1.684710 
# 
# From -- ./inp_files/40901.got.cif
#   From: 2010.05.17/outbox.cif.g08.bks.cpg/sg52_21_cif.got.tgz:40901.got - 2010.06.03 12:15:38.
