data_PCOD9408559
_publ_section_title
;
Structure prediction by ZEFSAII (Michael W. Deem and Ramdas Pophale) SiO2 
 PCOD9408559
Probable space group: P N N A
;
_chemical_formula_sum "Si O2"
_cell_formula_units_Z 64
_cell_length_a 18.901595
_cell_length_b 19.753401
_cell_length_c 8.862744
_cell_angle_alpha 90.000000
_cell_angle_beta 90.000000
_cell_angle_gamma 90.000000
_cell_volume 3309.089690
_symmetry_space_group_name_H-M "P N N A"
_symmetry_group_IT_number 52
_symmetry_cell_setting 'orthorhombic'
loop_
_space_group_symop_operation_xyz
x,y,z
1/2-x,-y,z
x,1/2-y,1/2-z
1/2-x,1/2+y,1/2-z
-x,-y,-z
1/2+x,y,-z
-x,1/2+y,1/2+z
1/2+x,1/2-y,1/2+z
loop_
_atom_site_type_symbol
_atom_site_label
_atom_site_fract_x
_atom_site_fract_y
_atom_site_fract_z
Si Si1 0.538620 0.195006 0.380482
Si Si2 0.608836 0.506132 0.072358
Si Si3 0.375539 0.115144 0.049748
Si Si4 0.322910 0.373602 0.769609
Si Si5 0.592308 0.729434 0.038326
Si Si6 0.022081 0.549844 0.221348
Si Si7 0.686372 0.362654 0.069953
Si Si8 0.708404 0.677181 0.809781
O O1 0.526701 0.250000 0.250000
O O2 0.489788 0.211699 0.523627
O O3 0.509967 0.122820 0.323002
O O4 0.620785 0.188215 0.418244
O O5 0.659554 0.567282 0.113604
O O6 0.546106 0.499175 0.198732
O O7 0.652227 0.436887 0.069359
O O8 0.573790 0.523065 0.910893
O O9 0.434222 0.065856 0.125202
O O10 0.315860 0.128413 0.176096
O O11 0.340210 0.095087 0.892503
O O12 0.402159 0.190964 0.002390
O O13 0.372166 0.310204 0.820607
O O14 0.241608 0.353204 0.792653
O O15 0.636760 0.694635 0.902117
O O16 0.732923 0.351118 0.921336
O O17 0.733635 0.750000 0.750000
#
# Coordination Sequence:
#
# PCOD9408559 Si02
#       8
#     8   8   8   8   8   8   8   8
#     4  11  18  34  64  89 114 144 195 249 298 346
#     4  10  21  38  61  80 117 154 209 239 282 355
#     4  11  20  34  62  86 115 149 194 248 302 346
#     4  11  22  37  56  86 123 156 198 239 291 359
#     4  10  18  36  61  85 110 149 196 238 287 361
#     4  10  19  36  62  90 103 152 201 249 289 338
#     4  10  23  37  59  84 117 162 195 236 292 358
#     4   9  18  36  60  83 113 147 191 235 289 356
#
# _framework density 19.340668000000001
#
# number of rings (size 3 to 8) (size 9 to 14) (size 15 to 20)
#    0.000    1.750    3.750    1.875    0.000    3.500 
#    0.000    3.750    5.500    0.000    0.000    0.000 
#    0.000    0.000    0.000    0.000    0.000    0.000 
#
# Total GULP energy -356602.863599 kJ/mol
# GULP energy per Si atom -5571.919744 kJ/mol
# Density = 1.929665 g / cm^3
# Si number density = 19.340668 Si / 1000 Ang^3
#
#
#
# Elastic Constant Matrix: (Units=GPa)
#
#
# Indices 1 2 3 4 5 6 
#
# 1 123.9521 16.4691 38.3295 0.0000 0.0000 0.0000
# 2 16.4691 49.0749 4.2368 0.0000 0.0000 0.0000
# 3 38.3295 4.2368 87.6997 0.0000 0.0000 0.0000
# 4 0.0000 0.0000 0.0000 25.4579 0.0000 0.0000
# 5 0.0000 0.0000 0.0000 0.0000 2.7576 0.0000
# 6 0.0000 0.0000 0.0000 0.0000 0.0000 0.8632
#
#
#
# Elastic Compliance Matrix: (Units=1/GPa)
#
#
# Indices 1 2 3 4 5 6 
#
# 1 0.009725 -0.002909 -0.004110 0.000000 0.000000 0.000000
# 2 -0.002909 0.021332 0.000241 0.000000 0.000000 0.000000
# 3 -0.004110 0.000241 0.013187 0.000000 0.000000 0.000000
# 4 0.000000 0.000000 0.000000 0.039281 0.000000 0.000000
# 5 0.000000 0.000000 0.000000 0.000000 0.362636 0.000000
# 6 0.000000 0.000000 0.000000 0.000000 0.000000 1.158487
#
#
# Mechanical properties :
#
#
# Convention : Reuss Voigt Hill
#
# Bulk Modulus (GPa) = 32.58523 42.08862 37.33693
# Shear Modulus (GPa) = 3.07044 19.26181 11.16612
#
# Velocity S-wave (km/s) = 1.26135 3.15925 2.40539
# Velocity P-wave (km/s) = 4.35958 5.92594 5.20205
#
# Compressibility (1/GPa) = 0.03068875
#
# Stress axis : x y z
#
# Youngs Moduli (GPa) = 102.82782 46.87699 75.83143
#
# Poissons Ratio (x) = 0.13636 0.31165
# Poissons Ratio (y) = 0.29911 -0.01826
# Poissons Ratio (z) = 0.42260 -0.01129
#
# Static dielectric constant tensor:
#      x y z
#    x 1.696130 0.000000 0.000000 
#    y 0.000000 1.682670 0.000000 
#    z 0.000000 0.000000 1.721810 
# 
# From -- ./inp_files/12607.got.cif
#   From: 2010.05.17/outbox.cif.g08.bks.cpg/sg52_7_cif.got.tgz:12607.got - 2010.06.03 12:15:38.
