data_PCOD9408403
_publ_section_title
;
Structure prediction by ZEFSAII (Michael W. Deem and Ramdas Pophale) SiO2 
 PCOD9408403
Probable space group: P N N A
;
_chemical_formula_sum "Si O2"
_cell_formula_units_Z 60
_cell_length_a 29.875879
_cell_length_b 11.800308
_cell_length_c 9.326748
_cell_angle_alpha 90.000000
_cell_angle_beta 90.000000
_cell_angle_gamma 90.000000
_cell_volume 3288.094400
_symmetry_space_group_name_H-M "P N N A"
_symmetry_group_IT_number 52
_symmetry_cell_setting 'orthorhombic'
loop_
_space_group_symop_operation_xyz
x,y,z
1/2-x,-y,z
x,1/2-y,1/2-z
1/2-x,1/2+y,1/2-z
-x,-y,-z
1/2+x,y,-z
-x,1/2+y,1/2+z
1/2+x,1/2-y,1/2+z
loop_
_atom_site_type_symbol
_atom_site_label
_atom_site_fract_x
_atom_site_fract_y
_atom_site_fract_z
Si Si1 0.941302 0.829944 0.383292
Si Si2 0.457039 0.472020 0.688849
Si Si3 0.143044 0.121041 0.216355
Si Si4 0.856278 0.115409 0.246967
Si Si5 0.796942 0.544174 0.453289
Si Si6 0.349615 0.931164 0.529175
Si Si7 0.304788 0.750000 0.750000
Si Si8 0.544176 0.128757 0.910142
O O1 0.924822 0.750000 0.250000
O O2 0.901190 0.894950 0.458472
O O3 0.960553 0.745447 0.500989
O O4 0.968359 0.928380 0.303084
O O5 0.408849 0.416158 0.721178
O O6 0.499490 0.390769 0.680030
O O7 0.452468 0.532885 0.534110
O O8 0.153991 0.250000 0.250000
O O9 0.158916 0.059050 0.360795
O O10 0.089977 0.119430 0.179531
O O11 0.169947 0.084170 0.077164
O O12 0.850473 0.250000 0.250000
O O13 0.824975 0.051923 0.131438
O O14 0.842773 0.050470 0.392736
O O15 0.750000 0.500000 0.511192
O O16 0.784713 0.648929 0.346771
O O17 0.328027 0.829721 0.625969
#
# Coordination Sequence:
#
# PCOD9408403 Si02
#       8
#     8   8   8   8   8   8   4   8
#     4   9  15  29  53  83 111 152 200 249 290 337
#     4   9  19  34  57  84 121 162 203 247 296 365
#     4  12  21  37  63  98 123 156 200 262 315 352
#     4  10  22  43  63  85 124 168 205 243 303 370
#     4  11  24  41  66  93 124 154 203 258 309 363
#     4  10  19  35  64  92 117 153 208 255 297 353
#     4  10  18  38  66  94 110 152 206 256 294 352
#     4  10  18  33  56  88 123 157 198 252 305 359
#
# _framework density 18.247651999999999
#
# number of rings (size 3 to 8) (size 9 to 14) (size 15 to 20)
#    0.000    1.867    4.667    0.000    0.933    0.533 
#    2.400    6.000    0.000    0.000    0.000    0.000 
#    0.000    0.000    0.000    0.000    0.000    0.000 
#
# Total GULP energy -334012.702449 kJ/mol
# GULP energy per Si atom -5566.878374 kJ/mol
# Density = 1.820612 g / cm^3
# Si number density = 18.247652 Si / 1000 Ang^3
#
#
#
# Elastic Constant Matrix: (Units=GPa)
#
#
# Indices 1 2 3 4 5 6 
#
# 1 65.3104 21.4480 14.4612 0.0000 0.0000 0.0000
# 2 21.4480 114.8875 25.5867 0.0000 0.0000 0.0000
# 3 14.4612 25.5867 76.4168 0.0000 0.0000 0.0000
# 4 0.0000 0.0000 0.0000 16.1666 0.0000 0.0000
# 5 0.0000 0.0000 0.0000 0.0000 -1.3572 0.0000
# 6 0.0000 0.0000 0.0000 0.0000 0.0000 -0.7626
#
#
#
# Elastic Compliance Matrix: (Units=1/GPa)
#
#
# Indices 1 2 3 4 5 6 
#
# 1 0.016672 -0.002604 -0.002283 0.000000 0.000000 0.000000
# 2 -0.002604 0.009812 -0.002793 0.000000 0.000000 0.000000
# 3 -0.002283 -0.002793 0.014453 0.000000 0.000000 0.000000
# 4 0.000000 0.000000 0.000000 0.061856 0.000000 0.000000
# 5 0.000000 0.000000 0.000000 0.000000 -0.736803 0.000000
# 6 0.000000 0.000000 0.000000 0.000000 0.000000 -1.311271
#
#
# Mechanical properties :
#
#
# Convention : Reuss Voigt Hill
#
# Bulk Modulus (GPa) = 39.09599 42.17850 40.63724
# Shear Modulus (GPa) = -2.60228 15.81728 6.60750
#
# Velocity S-wave (km/s) = -1.19548 2.94736 1.90496
# Velocity P-wave (km/s) = 4.42336 5.89468 5.21121
#
# Compressibility (1/GPa) = 0.02557807
#
# Stress axis : x y z
#
# Youngs Moduli (GPa) = 59.98007 101.91338 69.18857
#
# Poissons Ratio (x) = 0.26538 0.15797
# Poissons Ratio (y) = 0.15619 0.19322
# Poissons Ratio (z) = 0.13694 0.28461
#
# Static dielectric constant tensor:
#      x y z
#    x 1.623560 0.000000 0.000000 
#    y 0.000000 1.634640 0.000000 
#    z 0.000000 0.000000 1.469510 
# 
# From -- ./inp_files/15706.got.cif
#   From: 2010.05.17/outbox.cif.g08.bks.cpg/sg52_8_cif.got.tgz:15706.got - 2010.06.03 12:15:38.
