data_PCOD9408130
_publ_section_title
;
Structure prediction by ZEFSAII (Michael W. Deem and Ramdas Pophale) SiO2 
 PCOD9408130
Probable space group: P N N A
;
_chemical_formula_sum "Si O2"
_cell_formula_units_Z 48
_cell_length_a 14.303540
_cell_length_b 5.749246
_cell_length_c 27.931465
_cell_angle_alpha 90.000000
_cell_angle_beta 90.000000
_cell_angle_gamma 90.000000
_cell_volume 2296.932017
_symmetry_space_group_name_H-M "P N N A"
_symmetry_group_IT_number 52
_symmetry_cell_setting 'orthorhombic'
loop_
_space_group_symop_operation_xyz
x,y,z
1/2-x,-y,z
x,1/2-y,1/2-z
1/2-x,1/2+y,1/2-z
-x,-y,-z
1/2+x,y,-z
-x,1/2+y,1/2+z
1/2+x,1/2-y,1/2+z
loop_
_atom_site_type_symbol
_atom_site_label
_atom_site_fract_x
_atom_site_fract_y
_atom_site_fract_z
Si Si1 0.250000 0.500000 0.991897
Si Si2 0.750000 0.500000 0.223339
Si Si3 0.049377 0.421641 0.607627
Si Si4 0.750000 0.000000 0.063238
Si Si5 0.250000 0.500000 0.375767
Si Si6 0.414865 0.707346 0.151560
Si Si7 0.385836 0.339631 0.069873
Si Si8 0.048012 0.100853 0.701510
O O1 0.342717 0.472843 0.024864
O O2 0.251092 0.749166 0.964354
O O3 0.757180 0.750000 0.250000
O O4 0.850037 0.482524 0.198049
O O5 0.153830 0.485107 0.592952
O O6 0.045720 0.267420 0.655584
O O7 0.992377 0.648667 0.622447
O O8 0.988088 0.280565 0.567960
O O9 0.323487 0.636134 0.342502
O O10 0.312734 0.353055 0.412499
O O11 0.384980 0.510139 0.114783
O O12 0.466060 0.587752 0.196045
O O13 0.039143 0.250000 0.750000
#
# Coordination Sequence:
#
# PCOD9408130 Si02
#       8
#     4   4   8   4   4   8   8   8
#     4  12  26  45  74  99 141 187 245 294 346 445
#     4  10  24  40  66 100 141 182 234 285 332 412
#     4  10  26  43  66 100 143 186 227 296 364 416
#     4  12  31  45  66 105 150 187 228 304 360 416
#     4  10  17  38  70 106 130 182 239 277 366 413
#     4  10  21  38  71 102 135 182 228 297 353 424
#     4  10  21  42  70 101 130 184 236 287 349 428
#     4  10  24  41  68 104 134 189 237 289 348 434
#
# _framework density 20.897441000000001
#
# number of rings (size 3 to 8) (size 9 to 14) (size 15 to 20)
#    0.000    1.667    1.667    0.500   14.000    2.000 
#    0.000    0.000    0.000    0.000  156.000    0.000 
#    0.000    0.000    0.000    0.000    0.000    0.000 
#
# Total GULP energy -267627.095767 kJ/mol
# GULP energy per Si atom -5575.564495 kJ/mol
# Density = 2.084988 g / cm^3
# Si number density = 20.897441 Si / 1000 Ang^3
#
#
#
# Elastic Constant Matrix: (Units=GPa)
#
#
# Indices 1 2 3 4 5 6 
#
# 1 172.3540 56.2275 47.5955 0.0000 0.0000 0.0000
# 2 56.2275 105.9260 35.3423 0.0000 0.0000 0.0000
# 3 47.5955 35.3423 61.3181 0.0000 0.0000 0.0000
# 4 0.0000 0.0000 0.0000 -7.3133 0.0000 0.0000
# 5 0.0000 0.0000 0.0000 0.0000 63.1037 0.0000
# 6 0.0000 0.0000 0.0000 0.0000 0.0000 51.3702
#
#
#
# Elastic Compliance Matrix: (Units=1/GPa)
#
#
# Indices 1 2 3 4 5 6 
#
# 1 0.007954 -0.002677 -0.004631 0.000000 0.000000 0.000000
# 2 -0.002677 0.012589 -0.005178 0.000000 0.000000 0.000000
# 3 -0.004631 -0.005178 0.022888 0.000000 0.000000 0.000000
# 4 0.000000 0.000000 0.000000 -0.136738 0.000000 0.000000
# 5 0.000000 0.000000 0.000000 0.000000 0.015847 0.000000
# 6 0.000000 0.000000 0.000000 0.000000 0.000000 0.019467
#
#
# Mechanical properties :
#
#
# Convention : Reuss Voigt Hill
#
# Bulk Modulus (GPa) = 54.17584 68.65875 61.41729
# Shear Modulus (GPa) = -186.10068 34.79431 -75.65319
#
# Velocity S-wave (km/s) = -9.44710 4.08487 -6.02335
# Velocity P-wave (km/s) = 9.64448 7.42796 4.34979
#
# Compressibility (1/GPa) = 0.01845841
#
# Stress axis : x y z
#
# Youngs Moduli (GPa) = 125.71901 79.43244 43.69158
#
# Poissons Ratio (x) = 0.21265 0.20234
# Poissons Ratio (y) = 0.33656 0.22624
# Poissons Ratio (z) = 0.58222 0.41132
#
# Static dielectric constant tensor:
#      x y z
#    x 1.136770 0.000000 0.000000 
#    y 0.000000 1.492190 0.000000 
#    z 0.000000 0.000000 1.654890 
# 
# From -- ./inp_files/43053.got.cif
#   From: 2010.05.17/outbox.cif.g08.bks.cpg/sg52_22_cif.got.tgz:43053.got - 2010.06.03 12:15:38.
