data_PCOD9408125
_publ_section_title
;
Structure prediction by ZEFSAII (Michael W. Deem and Ramdas Pophale) SiO2 
 PCOD9408125
Probable space group: P N N A
;
_chemical_formula_sum "Si O2"
_cell_formula_units_Z 64
_cell_length_a 24.678369
_cell_length_b 9.450912
_cell_length_c 14.228273
_cell_angle_alpha 90.000000
_cell_angle_beta 90.000000
_cell_angle_gamma 90.000000
_cell_volume 3318.504130
_symmetry_space_group_name_H-M "P N N A"
_symmetry_group_IT_number 52
_symmetry_cell_setting 'orthorhombic'
loop_
_space_group_symop_operation_xyz
x,y,z
1/2-x,-y,z
x,1/2-y,1/2-z
1/2-x,1/2+y,1/2-z
-x,-y,-z
1/2+x,y,-z
-x,1/2+y,1/2+z
1/2+x,1/2-y,1/2+z
loop_
_atom_site_type_symbol
_atom_site_label
_atom_site_fract_x
_atom_site_fract_y
_atom_site_fract_z
Si Si1 0.860693 0.485898 0.389429
Si Si2 0.055169 0.831455 0.153676
Si Si3 0.803070 0.909005 0.291708
Si Si4 0.484218 0.838212 0.501011
Si Si5 0.357700 0.801072 0.525235
Si Si6 0.486687 0.424295 0.600579
Si Si7 0.288289 0.707395 0.358403
Si Si8 0.175607 0.892037 0.078418
O O1 0.836520 0.505864 0.286945
O O2 0.858438 0.639885 0.437526
O O3 0.923028 0.440028 0.382857
O O4 0.826291 0.394364 0.464281
O O5 0.061819 0.750000 0.250000
O O6 0.114503 0.854496 0.108907
O O7 0.016407 0.737456 0.086525
O O8 0.024557 0.981972 0.167677
O O9 0.793114 0.750000 0.250000
O O10 0.833847 0.891581 0.389725
O O11 0.750000 0.000000 0.307298
O O12 0.419927 0.835013 0.509648
O O13 0.498780 0.739430 0.411776
O O14 0.500000 0.000000 0.500000
O O15 0.321841 0.804518 0.431051
O O16 0.500000 0.500000 0.500000
O O17 0.295565 0.750000 0.250000
O O18 0.224421 0.705782 0.385054
O O19 0.309906 0.547715 0.379823
#
# Coordination Sequence:
#
# PCOD9408125 Si02
#       8
#     8   8   8   8   8   8   8   8
#     4  10  18  35  68  90 119 166 218 261 302 395
#     4  11  22  37  67  96 128 167 223 267 317 405
#     4  10  24  41  63  95 127 171 222 265 325 394
#     4  11  23  41  61  95 131 167 213 271 335 391
#     4  10  21  41  63  88 131 168 206 270 335 382
#     4  10  17  37  62  91 123 170 212 258 324 391
#     4  10  22  39  64  89 127 169 223 272 329 390
#     4  10  20  38  63  96 120 169 220 265 318 386
#
# _framework density 19.285796000000001
#
# number of rings (size 3 to 8) (size 9 to 14) (size 15 to 20)
#    0.000    1.750    5.000    1.125    7.000    1.000 
#    6.750    0.625    0.000    0.000    0.000    0.000 
#    0.000    0.000    0.000    0.000    0.000    0.000 
#
# Total GULP energy -357017.163118 kJ/mol
# GULP energy per Si atom -5578.393174 kJ/mol
# Density = 1.924190 g / cm^3
# Si number density = 19.285796 Si / 1000 Ang^3
#
#
#
# Elastic Constant Matrix: (Units=GPa)
#
#
# Indices 1 2 3 4 5 6 
#
# 1 159.4737 39.2394 78.9734 0.0000 0.0000 0.0000
# 2 39.2394 64.6999 42.8092 0.0000 0.0000 0.0000
# 3 78.9734 42.8092 131.8705 0.0000 0.0000 0.0000
# 4 0.0000 0.0000 0.0000 19.5200 0.0000 0.0000
# 5 0.0000 0.0000 0.0000 0.0000 -106.6001 0.0000
# 6 0.0000 0.0000 0.0000 0.0000 0.0000 24.7379
#
#
#
# Elastic Compliance Matrix: (Units=1/GPa)
#
#
# Indices 1 2 3 4 5 6 
#
# 1 0.009213 -0.002467 -0.004717 0.000000 0.000000 0.000000
# 2 -0.002467 0.020344 -0.005127 0.000000 0.000000 0.000000
# 3 -0.004717 -0.005127 0.012072 0.000000 0.000000 0.000000
# 4 0.000000 0.000000 0.000000 0.051229 0.000000 0.000000
# 5 0.000000 0.000000 0.000000 0.000000 -0.009381 0.000000
# 6 0.000000 0.000000 0.000000 0.000000 0.000000 0.040424
#
#
# Mechanical properties :
#
#
# Convention : Reuss Voigt Hill
#
# Bulk Modulus (GPa) = 58.79350 75.34314 67.06832
# Shear Modulus (GPa) = 32.42670 0.53304 16.47987
#
# Velocity S-wave (km/s) = 4.10491 0.52630 2.92637
# Velocity P-wave (km/s) = 7.28139 6.28656 6.80218
#
# Compressibility (1/GPa) = 0.01700868
#
# Stress axis : x y z
#
# Youngs Moduli (GPa) = 108.53696 49.15336 82.83360
#
# Poissons Ratio (x) = 0.12125 0.39071
# Poissons Ratio (y) = 0.26775 0.42470
# Poissons Ratio (z) = 0.51195 0.25201
#
# Static dielectric constant tensor:
#      x y z
#    x 1.633580 0.000000 0.000000 
#    y 0.000000 1.692940 0.000000 
#    z 0.000000 0.000000 1.695680 
# 
# From -- ./inp_files/29247.got.cif
#   From: 2010.05.17/outbox.cif.g08.bks.cpg/sg52_15_cif.got.tgz:29247.got - 2010.06.03 12:15:38.
