data_PCOD9408005
_publ_section_title
;
Structure prediction by ZEFSAII (Michael W. Deem and Ramdas Pophale) SiO2 
 PCOD9408005
Probable space group: P N N A
;
_chemical_formula_sum "Si O2"
_cell_formula_units_Z 60
_cell_length_a 5.355047
_cell_length_b 28.869412
_cell_length_c 20.709953
_cell_angle_alpha 90.000000
_cell_angle_beta 90.000000
_cell_angle_gamma 90.000000
_cell_volume 3201.697808
_symmetry_space_group_name_H-M "P N N A"
_symmetry_group_IT_number 52
_symmetry_cell_setting 'orthorhombic'
loop_
_space_group_symop_operation_xyz
x,y,z
1/2-x,-y,z
x,1/2-y,1/2-z
1/2-x,1/2+y,1/2-z
-x,-y,-z
1/2+x,y,-z
-x,1/2+y,1/2+z
1/2+x,1/2-y,1/2+z
loop_
_atom_site_type_symbol
_atom_site_label
_atom_site_fract_x
_atom_site_fract_y
_atom_site_fract_z
Si Si1 0.402957 0.771554 0.029475
Si Si2 0.246447 0.897756 0.044492
Si Si3 0.750000 0.000000 0.957082
Si Si4 0.865699 0.827583 0.561635
Si Si5 0.287600 0.681348 0.347217
Si Si6 0.367355 0.850950 0.632062
Si Si7 0.633293 0.421351 0.024603
Si Si8 0.283788 0.805091 0.767367
O O1 0.391426 0.717061 0.017064
O O2 0.356090 0.776611 0.104931
O O3 0.667388 0.791911 0.008743
O O4 0.250363 0.949627 0.075288
O O5 0.271285 0.861193 0.102298
O O6 0.487310 0.893560 0.996432
O O7 0.500000 0.000000 0.000000
O O8 0.619561 0.827829 0.605212
O O9 0.858065 0.873568 0.518094
O O10 0.112690 0.829723 0.604369
O O11 0.519241 0.679041 0.297957
O O12 0.019299 0.689599 0.315417
O O13 0.373236 0.902676 0.598682
O O14 0.349375 0.838812 0.707297
O O15 0.386149 0.445539 0.998044
O O16 0.265318 0.750000 0.750000
#
# Coordination Sequence:
#
# PCOD9408005 Si02
#       8
#     8   8   4   8   8   8   8   8
#     4  12  21  31  45  62  80 103 135 186 249 290
#     4  10  19  36  57  82 107 129 158 207 273 333
#     4   8  16  30  56  84 108 130 150 186 260 350
#     4  10  17  28  44  62  75  94 134 192 243 277
#     4  12  24  36  49  67  92 125 166 206 244 296
#     4  10  18  30  43  56  77 103 138 184 230 271
#     4   8  14  23  38  56  70  86 118 174 230 264
#     4  12  24  37  47  60  87 131 173 206 238 282
#
# _framework density 18.740058000000001
#
# number of rings (size 3 to 8) (size 9 to 14) (size 15 to 20)
#    0.000    1.600    0.000    8.400    0.000    0.000 
#    0.000    0.000    0.000    0.000    0.000    0.000 
#    0.000    0.000    0.000    0.000    0.000    0.000 
#
# Total GULP energy -334382.428120 kJ/mol
# GULP energy per Si atom -5573.040469 kJ/mol
# Density = 1.869740 g / cm^3
# Si number density = 18.740058 Si / 1000 Ang^3
#
#
#
# Elastic Constant Matrix: (Units=GPa)
#
#
# Indices 1 2 3 4 5 6 
#
# 1 147.9030 18.5079 20.0898 0.0000 0.0000 0.0000
# 2 18.5079 63.5814 10.9103 0.0000 0.0000 0.0000
# 3 20.0898 10.9103 63.0552 0.0000 0.0000 0.0000
# 4 0.0000 0.0000 0.0000 6.7587 0.0000 0.0000
# 5 0.0000 0.0000 0.0000 0.0000 43.4827 0.0000
# 6 0.0000 0.0000 0.0000 0.0000 0.0000 14.1827
#
#
#
# Elastic Compliance Matrix: (Units=1/GPa)
#
#
# Indices 1 2 3 4 5 6 
#
# 1 0.007255 -0.001768 -0.002006 0.000000 0.000000 0.000000
# 2 -0.001768 0.016640 -0.002316 0.000000 0.000000 0.000000
# 3 -0.002006 -0.002316 0.016899 0.000000 0.000000 0.000000
# 4 0.000000 0.000000 0.000000 0.147956 0.000000 0.000000
# 5 0.000000 0.000000 0.000000 0.000000 0.022998 0.000000
# 6 0.000000 0.000000 0.000000 0.000000 0.000000 0.070509
#
#
# Mechanical properties :
#
#
# Convention : Reuss Voigt Hill
#
# Bulk Modulus (GPa) = 34.94660 41.50617 38.22639
# Shear Modulus (GPa) = 16.44884 27.88694 22.16789
#
# Velocity S-wave (km/s) = 2.96588 3.86176 3.44308
# Velocity P-wave (km/s) = 5.51517 6.48697 6.02071
#
# Compressibility (1/GPa) = 0.02861509
#
# Stress axis : x y z
#
# Youngs Moduli (GPa) = 137.83976 60.09677 59.17570
#
# Poissons Ratio (x) = 0.10623 0.11868
# Poissons Ratio (y) = 0.24365 0.13705
# Poissons Ratio (z) = 0.27645 0.13918
#
# Static dielectric constant tensor:
#      x y z
#    x 1.744780 0.000000 0.000000 
#    y 0.000000 1.709830 0.000000 
#    z 0.000000 0.000000 1.667100 
# 
# From -- ./inp_files/30348.got.cif
#   From: 2010.05.17/outbox.cif.g08.bks.cpg/sg52_16_cif.got.tgz:30348.got - 2010.06.03 12:15:38.
