data_PCOD9408555
_publ_section_title
;
Structure prediction by ZEFSAII (Michael W. Deem and Ramdas Pophale) SiO2 
 PCOD9408555
Probable space group: P N N A
;
_chemical_formula_sum "Si O2"
_cell_formula_units_Z 40
_cell_length_a 14.062593
_cell_length_b 17.346988
_cell_length_c 8.738817
_cell_angle_alpha 90.000000
_cell_angle_beta 90.000000
_cell_angle_gamma 90.000000
_cell_volume 2131.778759
_symmetry_space_group_name_H-M "P N N A"
_symmetry_group_IT_number 52
_symmetry_cell_setting 'orthorhombic'
loop_
_space_group_symop_operation_xyz
x,y,z
1/2-x,-y,z
x,1/2-y,1/2-z
1/2-x,1/2+y,1/2-z
-x,-y,-z
1/2+x,y,-z
-x,1/2+y,1/2+z
1/2+x,1/2-y,1/2+z
loop_
_atom_site_type_symbol
_atom_site_label
_atom_site_fract_x
_atom_site_fract_y
_atom_site_fract_z
Si Si1 0.725826 0.269579 0.918878
Si Si2 0.750000 0.000000 0.684600
Si Si3 0.973834 0.667143 0.795812
Si Si4 0.349060 0.096545 0.560729
Si Si5 0.250000 0.500000 0.679765
Si Si6 0.841137 0.604227 0.560886
O O1 0.766625 0.250000 0.750000
O O2 0.623719 0.309875 0.883937
O O3 0.703514 0.186000 0.989550
O O4 0.792638 0.326766 0.009989
O O5 0.668732 0.965849 0.573825
O O6 0.783804 0.932456 0.796337
O O7 0.018093 0.750000 0.750000
O O8 0.942029 0.624112 0.639390
O O9 0.043593 0.618069 0.899443
O O10 0.301184 0.061255 0.711575
O O11 0.172680 0.456890 0.573409
#
# Coordination Sequence:
#
# PCOD9408555 Si02
#       6
#     8   4   8   8   4   8
#     4   9  18  39  64  79 117 161 196 250 296 353
#     4  10  18  36  60  88 116 156 194 238 314 354
#     4   9  20  37  61  86 113 159 208 242 295 357
#     4  11  21  35  62  92 114 153 209 250 288 356
#     4  10  24  34  56  94 124 160 192 246 314 342
#     4   9  19  40  58  79 124 166 184 239 310 360
#
# _framework density 18.763673000000001
#
# number of rings (size 3 to 8) (size 9 to 14) (size 15 to 20)
#    0.000    2.800    4.000    0.000    2.800    1.600 
#    0.000    0.000    8.800    0.000    0.000    0.000 
#    0.000    0.000    0.000    0.000    0.000    0.000 
#
# Total GULP energy -222807.787418 kJ/mol
# GULP energy per Si atom -5570.194685 kJ/mol
# Density = 1.872097 g / cm^3
# Si number density = 18.763673 Si / 1000 Ang^3
#
#
#
# Elastic Constant Matrix: (Units=GPa)
#
#
# Indices 1 2 3 4 5 6 
#
# 1 45.1434 42.5563 34.8620 0.0000 0.0000 0.0000
# 2 42.5563 111.5618 50.3337 0.0000 0.0000 0.0000
# 3 34.8620 50.3337 98.4446 0.0000 0.0000 0.0000
# 4 0.0000 0.0000 0.0000 40.7890 0.0000 0.0000
# 5 0.0000 0.0000 0.0000 0.0000 9.4168 0.0000
# 6 0.0000 0.0000 0.0000 0.0000 0.0000 13.5630
#
#
#
# Elastic Compliance Matrix: (Units=1/GPa)
#
#
# Indices 1 2 3 4 5 6 
#
# 1 0.038954 -0.011225 -0.008056 0.000000 0.000000 0.000000
# 2 -0.011225 0.014886 -0.003636 0.000000 0.000000 0.000000
# 3 -0.008056 -0.003636 0.014870 0.000000 0.000000 0.000000
# 4 0.000000 0.000000 0.000000 0.024516 0.000000 0.000000
# 5 0.000000 0.000000 0.000000 0.000000 0.106193 0.000000
# 6 0.000000 0.000000 0.000000 0.000000 0.000000 0.073730
#
#
# Mechanical properties :
#
#
# Convention : Reuss Voigt Hill
#
# Bulk Modulus (GPa) = 43.71223 56.73931 50.22577
# Shear Modulus (GPa) = 15.30889 21.24696 18.27793
#
# Velocity S-wave (km/s) = 2.85946 3.36868 3.12446
# Velocity P-wave (km/s) = 5.85225 6.74057 6.31205
#
# Compressibility (1/GPa) = 0.02287689
#
# Stress axis : x y z
#
# Youngs Moduli (GPa) = 25.67115 67.17741 67.25073
#
# Poissons Ratio (x) = 0.75407 0.54174
# Poissons Ratio (y) = 0.28816 0.24452
# Poissons Ratio (z) = 0.20680 0.24425
#
# Static dielectric constant tensor:
#      x y z
#    x 1.640160 0.000000 0.000000 
#    y 0.000000 1.710870 0.000000 
#    z 0.000000 0.000000 1.658090 
# 
# From -- ./inp_files/10282.got.cif
#   From: 2010.05.17/outbox.cif.g08.bks.cpg/sg52_6_cif.got.tgz:10282.got - 2010.06.03 12:15:38.
