data_PCOD9408405
_publ_section_title
;
Structure prediction by ZEFSAII (Michael W. Deem and Ramdas Pophale) SiO2 
 PCOD9408405
Probable space group: P N N A
;
_chemical_formula_sum "Si O2"
_cell_formula_units_Z 52
_cell_length_a 8.225232
_cell_length_b 19.723669
_cell_length_c 14.201287
_cell_angle_alpha 90.000000
_cell_angle_beta 90.000000
_cell_angle_gamma 90.000000
_cell_volume 2303.899691
_symmetry_space_group_name_H-M "P N N A"
_symmetry_group_IT_number 52
_symmetry_cell_setting 'orthorhombic'
loop_
_space_group_symop_operation_xyz
x,y,z
1/2-x,-y,z
x,1/2-y,1/2-z
1/2-x,1/2+y,1/2-z
-x,-y,-z
1/2+x,y,-z
-x,1/2+y,1/2+z
1/2+x,1/2-y,1/2+z
loop_
_atom_site_type_symbol
_atom_site_label
_atom_site_fract_x
_atom_site_fract_y
_atom_site_fract_z
Si Si1 0.792314 0.753995 0.136018
Si Si2 0.344428 0.403288 0.400033
Si Si3 0.640736 0.744471 0.863739
Si Si4 0.717258 0.413110 0.396644
Si Si5 0.905147 0.043345 0.288492
Si Si6 0.250000 0.000000 0.253417
Si Si7 0.478550 0.804530 0.339431
O O1 0.788173 0.750000 0.250000
O O2 0.789566 0.832386 0.112876
O O3 0.624789 0.724745 0.098050
O O4 0.961681 0.721084 0.104889
O O5 0.334652 0.321887 0.397435
O O6 0.527469 0.430114 0.386052
O O7 0.280605 0.427754 0.499841
O O8 0.243542 0.434420 0.314530
O O9 0.627430 0.750000 0.750000
O O10 0.799032 0.699616 0.882677
O O11 0.837189 0.441181 0.317244
O O12 0.957384 0.119665 0.319338
O O13 0.750000 0.000000 0.329692
O O14 0.073038 0.001143 0.301566
O O15 0.467661 0.750000 0.250000
#
# Coordination Sequence:
#
# PCOD9408405 Si02
#       7
#     8   8   8   8   8   4   8
#     4   9  17  33  56  75  96 135 177 228 273 309
#     4  11  24  34  52  78 109 153 187 225 268 318
#     4   9  19  33  52  75  97 132 182 224 272 319
#     4  11  22  38  51  77 114 147 191 228 259 327
#     4  12  24  37  54  80 112 149 194 228 269 323
#     4  12  24  36  50  70 110 160 188 218 264 312
#     4  10  18  33  57  74  96 141 181 226 276 320
#
# _framework density 22.570428
#
# number of rings (size 3 to 8) (size 9 to 14) (size 15 to 20)
#    0.000    1.538    4.615    2.769    3.231    2.462 
#    0.000    0.000    0.000    0.000    0.000    0.000 
#    0.000    1.231    3.538    0.615    0.000    0.000 
#
# Total GULP energy -289940.315656 kJ/mol
# GULP energy per Si atom -5575.775301 kJ/mol
# Density = 2.251906 g / cm^3
# Si number density = 22.570428 Si / 1000 Ang^3
#
#
#
# Elastic Constant Matrix: (Units=GPa)
#
#
# Indices 1 2 3 4 5 6 
#
# 1 209.0085 26.8808 11.9859 0.0000 0.0000 0.0000
# 2 26.8808 76.8516 5.4189 0.0000 0.0000 0.0000
# 3 11.9859 5.4189 23.2572 0.0000 0.0000 0.0000
# 4 0.0000 0.0000 0.0000 -0.1005 0.0000 0.0000
# 5 0.0000 0.0000 0.0000 0.0000 25.0418 0.0000
# 6 0.0000 0.0000 0.0000 0.0000 0.0000 25.2659
#
#
#
# Elastic Compliance Matrix: (Units=1/GPa)
#
#
# Indices 1 2 3 4 5 6 
#
# 1 0.005124 -0.001633 -0.002260 0.000000 0.000000 0.000000
# 2 -0.001633 0.013750 -0.002362 0.000000 0.000000 0.000000
# 3 -0.002260 -0.002362 0.044713 0.000000 0.000000 0.000000
# 4 0.000000 0.000000 0.000000 -9.949949 0.000000 0.000000
# 5 0.000000 0.000000 0.000000 0.000000 0.039933 0.000000
# 6 0.000000 0.000000 0.000000 0.000000 0.000000 0.039579
#
#
# Mechanical properties :
#
#
# Convention : Reuss Voigt Hill
#
# Bulk Modulus (GPa) = 19.57872 44.18761 31.88317
# Shear Modulus (GPa) = -0.51139 27.69689 13.59275
#
# Velocity S-wave (km/s) = -0.47651 3.50684 2.45671
# Velocity P-wave (km/s) = 2.89665 6.00145 4.71211
#
# Compressibility (1/GPa) = 0.05107585
#
# Stress axis : x y z
#
# Youngs Moduli (GPa) = 195.15519 72.72828 22.36505
#
# Poissons Ratio (x) = 0.11876 0.05055
# Poissons Ratio (y) = 0.31867 0.05283
# Poissons Ratio (z) = 0.44111 0.17179
#
# Static dielectric constant tensor:
#      x y z
#    x 1.918800 0.000000 0.000000 
#    y 0.000000 1.882210 0.000000 
#    z 0.000000 0.000000 1.831310 
# 
# From -- ./inp_files/31440.got.cif
#   From: 2010.05.17/outbox.cif.g08.bks.cpg/sg52_16_cif.got.tgz:31440.got - 2010.06.03 12:15:38.
