data_PCOD9408186
_publ_section_title
;
Structure prediction by ZEFSAII (Michael W. Deem and Ramdas Pophale) SiO2 
 PCOD9408186
Probable space group: P N N A
;
_chemical_formula_sum "Si O2"
_cell_formula_units_Z 52
_cell_length_a 21.147115
_cell_length_b 21.403015
_cell_length_c 6.607125
_cell_angle_alpha 90.000000
_cell_angle_beta 90.000000
_cell_angle_gamma 90.000000
_cell_volume 2990.464190
_symmetry_space_group_name_H-M "P N N A"
_symmetry_group_IT_number 52
_symmetry_cell_setting 'orthorhombic'
loop_
_space_group_symop_operation_xyz
x,y,z
1/2-x,-y,z
x,1/2-y,1/2-z
1/2-x,1/2+y,1/2-z
-x,-y,-z
1/2+x,y,-z
-x,1/2+y,1/2+z
1/2+x,1/2-y,1/2+z
loop_
_atom_site_type_symbol
_atom_site_label
_atom_site_fract_x
_atom_site_fract_y
_atom_site_fract_z
Si Si1 0.117828 0.309086 0.375431
Si Si2 0.031828 0.073935 0.223122
Si Si3 0.185476 0.250000 0.750000
Si Si4 0.781409 0.648454 0.947950
Si Si5 0.192991 0.951788 0.263350
Si Si6 0.120233 0.455918 0.937584
Si Si7 0.409169 0.467867 0.548876
O O1 0.090459 0.250000 0.250000
O O2 0.070878 0.367715 0.365867
O O3 0.140260 0.288291 0.596509
O O4 0.180479 0.327540 0.248432
O O5 0.054966 0.066440 0.455465
O O6 0.958353 0.077154 0.164516
O O7 0.054982 0.009794 0.118193
O O8 0.226282 0.204418 0.606747
O O9 0.722269 0.608947 0.869434
O O10 0.830150 0.600266 0.052515
O O11 0.250000 0.000000 0.208235
O O12 0.151020 0.989757 0.424988
O O13 0.150041 0.938179 0.067803
O O14 0.112473 0.482547 0.716197
#
# Coordination Sequence:
#
# PCOD9408186 Si02
#       7
#     8   8   4   8   8   8   8
#     4   9  18  32  49  74  96 122 163 214 255 287
#     4   9  18  31  47  74 105 123 158 210 248 301
#     4  10  18  30  52  76  88 130 174 204 262 294
#     4   9  18  31  47  72 105 126 165 216 248 290
#     4   9  19  31  44  71 104 134 163 202 246 301
#     4   9  17  30  48  73 103 131 160 199 252 306
#     4  10  18  29  49  74 102 134 160 190 259 307
#
# _framework density 17.388604000000001
#
# number of rings (size 3 to 8) (size 9 to 14) (size 15 to 20)
#    0.000    2.769    0.000    2.308    0.000    3.077 
#    0.000    0.000    0.000    0.000   26.000    0.000 
#    0.000    0.000    0.000    0.000    0.000    0.000 
#
# Total GULP energy -289619.139979 kJ/mol
# GULP energy per Si atom -5569.598846 kJ/mol
# Density = 1.734903 g / cm^3
# Si number density = 17.388604 Si / 1000 Ang^3
#
#
#
# Elastic Constant Matrix: (Units=GPa)
#
#
# Indices 1 2 3 4 5 6 
#
# 1 49.4443 18.6457 22.8808 0.0000 0.0000 0.0000
# 2 18.6457 71.2822 17.1633 0.0000 0.0000 0.0000
# 3 22.8808 17.1633 72.8750 0.0000 0.0000 0.0000
# 4 0.0000 0.0000 0.0000 27.3410 0.0000 0.0000
# 5 0.0000 0.0000 0.0000 0.0000 13.8615 0.0000
# 6 0.0000 0.0000 0.0000 0.0000 0.0000 10.2791
#
#
#
# Elastic Compliance Matrix: (Units=1/GPa)
#
#
# Indices 1 2 3 4 5 6 
#
# 1 0.025223 -0.004973 -0.006748 0.000000 0.000000 0.000000
# 2 -0.004973 0.015853 -0.002172 0.000000 0.000000 0.000000
# 3 -0.006748 -0.002172 0.016352 0.000000 0.000000 0.000000
# 4 0.000000 0.000000 0.000000 0.036575 0.000000 0.000000
# 5 0.000000 0.000000 0.000000 0.000000 0.072142 0.000000
# 6 0.000000 0.000000 0.000000 0.000000 0.000000 0.097285
#
#
# Mechanical properties :
#
#
# Convention : Reuss Voigt Hill
#
# Bulk Modulus (GPa) = 33.73651 34.55346 34.14499
# Shear Modulus (GPa) = 16.60593 19.29043 17.94818
#
# Velocity S-wave (km/s) = 3.09364 3.33434 3.21624
# Velocity P-wave (km/s) = 5.67490 5.89391 5.78544
#
# Compressibility (1/GPa) = 0.02964147
#
# Stress axis : x y z
#
# Youngs Moduli (GPa) = 39.64664 63.08135 61.15300
#
# Poissons Ratio (x) = 0.31370 0.41267
# Poissons Ratio (y) = 0.19716 0.13284
# Poissons Ratio (z) = 0.26754 0.13702
#
# Static dielectric constant tensor:
#      x y z
#    x 1.613690 0.000000 0.000000 
#    y 0.000000 1.610970 0.000000 
#    z 0.000000 0.000000 1.603510 
# 
# From -- ./inp_files/4433.got.cif
#   From: 2010.05.17/outbox.cif.g08.bks.cpg/sg52_3_cif.got.tgz:4433.got - 2010.06.03 12:15:38.
