data_PCOD9408797
_publ_section_title
;
Structure prediction by ZEFSAII (Michael W. Deem and Ramdas Pophale) SiO2 
 PCOD9408797
Probable space group: P N N A
;
_chemical_formula_sum "Si O2"
_cell_formula_units_Z 48
_cell_length_a 9.223723
_cell_length_b 17.635894
_cell_length_c 16.694599
_cell_angle_alpha 90.000000
_cell_angle_beta 90.000000
_cell_angle_gamma 90.000000
_cell_volume 2715.687065
_symmetry_space_group_name_H-M "P N N A"
_symmetry_group_IT_number 52
_symmetry_cell_setting 'orthorhombic'
loop_
_space_group_symop_operation_xyz
x,y,z
1/2-x,-y,z
x,1/2-y,1/2-z
1/2-x,1/2+y,1/2-z
-x,-y,-z
1/2+x,y,-z
-x,1/2+y,1/2+z
1/2+x,1/2-y,1/2+z
loop_
_atom_site_type_symbol
_atom_site_label
_atom_site_fract_x
_atom_site_fract_y
_atom_site_fract_z
Si Si1 0.408015 0.983008 0.124863
Si Si2 0.630289 0.445807 0.967928
Si Si3 0.836630 0.423407 0.276738
Si Si4 0.771382 0.195781 0.089638
Si Si5 0.487342 0.879722 0.979722
Si Si6 0.645852 0.629596 0.096401
O O1 0.503613 0.942339 0.191289
O O2 0.250000 0.000000 0.155933
O O3 0.475153 0.060868 0.090291
O O4 0.402234 0.928488 0.046988
O O5 0.750000 0.500000 0.923543
O O6 0.524768 0.385258 0.924716
O O7 0.500000 0.500000 0.000000
O O8 0.734905 0.407184 0.035070
O O9 0.750000 0.500000 0.296389
O O10 0.781458 0.352518 0.328744
O O11 0.829004 0.406661 0.183293
O O12 0.610314 0.186995 0.055239
O O13 0.822406 0.281236 0.099341
O O14 0.874801 0.153144 0.025878
#
# Coordination Sequence:
#
# PCOD9408797 Si02
#       6
#     8   8   8   8   8   8
#     4  10  19  33  55  86 117 150 197 240 278 345
#     4   9  19  38  62  82 103 145 199 247 284 338
#     4  11  22  36  56  84 117 156 199 237 291 359
#     4  11  21  35  56  86 122 158 184 246 299 348
#     4  10  19  32  56  84 118 150 197 232 284 350
#     4  11  22  38  59  88 116 148 201 249 303 351
#
# _framework density 17.675084999999999
#
# number of rings (size 3 to 8) (size 9 to 14) (size 15 to 20)
#    0.000    1.667    3.333    3.000    0.000    0.667 
#    0.000    0.000    0.000    0.000    4.333    0.000 
#    0.000    0.000    0.000    0.000    0.000    0.000 
#
# Total GULP energy -267373.876478 kJ/mol
# GULP energy per Si atom -5570.289093 kJ/mol
# Density = 1.763486 g / cm^3
# Si number density = 17.675085 Si / 1000 Ang^3
#
#
#
# Elastic Constant Matrix: (Units=GPa)
#
#
# Indices 1 2 3 4 5 6 
#
# 1 91.9644 24.1211 29.7035 0.0000 0.0000 0.0000
# 2 24.1211 104.3728 23.0091 0.0000 0.0000 0.0000
# 3 29.7035 23.0091 62.6501 0.0000 0.0000 0.0000
# 4 0.0000 0.0000 0.0000 19.0288 0.0000 0.0000
# 5 0.0000 0.0000 0.0000 0.0000 11.2909 0.0000
# 6 0.0000 0.0000 0.0000 0.0000 0.0000 35.1348
#
#
#
# Elastic Compliance Matrix: (Units=1/GPa)
#
#
# Indices 1 2 3 4 5 6 
#
# 1 0.013147 -0.001811 -0.005568 0.000000 0.000000 0.000000
# 2 -0.001811 0.010675 -0.003062 0.000000 0.000000 0.000000
# 3 -0.005568 -0.003062 0.019726 0.000000 0.000000 0.000000
# 4 0.000000 0.000000 0.000000 0.052552 0.000000 0.000000
# 5 0.000000 0.000000 0.000000 0.000000 0.088567 0.000000
# 6 0.000000 0.000000 0.000000 0.000000 0.000000 0.028462
#
#
# Mechanical properties :
#
#
# Convention : Reuss Voigt Hill
#
# Bulk Modulus (GPa) = 44.11883 45.85051 44.98467
# Shear Modulus (GPa) = 20.69830 25.23448 22.96639
#
# Velocity S-wave (km/s) = 3.42576 3.78257 3.60858
# Velocity P-wave (km/s) = 6.37676 6.71373 6.54741
#
# Compressibility (1/GPa) = 0.02266606
#
# Stress axis : x y z
#
# Youngs Moduli (GPa) = 76.06169 93.68105 50.69412
#
# Poissons Ratio (x) = 0.16964 0.28228
# Poissons Ratio (y) = 0.13774 0.15522
# Poissons Ratio (z) = 0.42353 0.28683
#
# Static dielectric constant tensor:
#      x y z
#    x 1.615180 0.000000 0.000000 
#    y 0.000000 1.620900 0.000000 
#    z 0.000000 0.000000 1.593720 
# 
# From -- ./inp_files/24709.got.cif
#   From: 2010.05.17/outbox.cif.g08.bks.cpg/sg52_13_cif.got.tgz:24709.got - 2010.06.03 12:15:38.
