data_PCOD9408437
_publ_section_title
;
Structure prediction by ZEFSAII (Michael W. Deem and Ramdas Pophale) SiO2 
 PCOD9408437
Probable space group: P N N A
;
_chemical_formula_sum "Si O2"
_cell_formula_units_Z 40
_cell_length_a 7.928670
_cell_length_b 12.252461
_cell_length_c 22.030338
_cell_angle_alpha 90.000000
_cell_angle_beta 90.000000
_cell_angle_gamma 90.000000
_cell_volume 2140.153046
_symmetry_space_group_name_H-M "P N N A"
_symmetry_group_IT_number 52
_symmetry_cell_setting 'orthorhombic'
loop_
_space_group_symop_operation_xyz
x,y,z
1/2-x,-y,z
x,1/2-y,1/2-z
1/2-x,1/2+y,1/2-z
-x,-y,-z
1/2+x,y,-z
-x,1/2+y,1/2+z
1/2+x,1/2-y,1/2+z
loop_
_atom_site_type_symbol
_atom_site_label
_atom_site_fract_x
_atom_site_fract_y
_atom_site_fract_z
Si Si1 0.252468 0.736623 0.178926
Si Si2 0.407033 0.346548 0.876758
Si Si3 0.813162 0.378877 0.571631
Si Si4 0.537734 0.396425 0.114262
Si Si5 0.035958 0.248578 0.497857
O O1 0.226392 0.750000 0.250000
O O2 0.447493 0.705908 0.164944
O O3 0.201930 0.845838 0.141776
O O4 0.126051 0.647413 0.149398
O O5 0.455112 0.473332 0.886084
O O6 0.211656 0.349330 0.856524
O O7 0.417806 0.284609 0.941262
O O8 0.750000 0.500000 0.561506
O O9 0.701682 0.286577 0.537810
O O10 0.989426 0.352909 0.539766
O O11 0.539855 0.350605 0.045387
#
# Coordination Sequence:
#
# PCOD9408437 Si02
#       5
#     8   8   8   8   8
#     4  10  23  39  56  79 113 153 195 241 276 329
#     4  10  20  35  58  86 114 146 184 233 290 342
#     4  10  20  33  54  77 107 149 185 227 280 337
#     4  10  20  35  58  86 114 146 184 233 290 342
#     4  10  18  34  52  82 118 140 180 230 286 342
#
# _framework density 18.690252999999998
#
# number of rings (size 3 to 8) (size 9 to 14) (size 15 to 20)
#    0.000    2.000    2.000    1.800    0.000    2.400 
#    0.000    0.000    0.000    0.000    0.000    0.000 
#    0.000    0.000    0.000    0.000    0.000    0.000 
#
# Total GULP energy -222770.264902 kJ/mol
# GULP energy per Si atom -5569.256623 kJ/mol
# Density = 1.864771 g / cm^3
# Si number density = 18.690253 Si / 1000 Ang^3
#
#
#
# Elastic Constant Matrix: (Units=GPa)
#
#
# Indices 1 2 3 4 5 6 
#
# 1 55.7480 -6.6967 20.8409 0.0000 0.0000 0.0000
# 2 -6.6967 44.7500 5.6871 0.0000 0.0000 0.0000
# 3 20.8409 5.6871 112.0121 0.0000 0.0000 0.0000
# 4 0.0000 0.0000 0.0000 7.6259 0.0000 0.0000
# 5 0.0000 0.0000 0.0000 0.0000 22.0080 0.0000
# 6 0.0000 0.0000 0.0000 0.0000 0.0000 15.1021
#
#
#
# Elastic Compliance Matrix: (Units=1/GPa)
#
#
# Indices 1 2 3 4 5 6 
#
# 1 0.019795 0.003453 -0.003858 0.000000 0.000000 0.000000
# 2 0.003453 0.023094 -0.001815 0.000000 0.000000 0.000000
# 3 -0.003858 -0.001815 0.009738 0.000000 0.000000 0.000000
# 4 0.000000 0.000000 0.000000 0.131132 0.000000 0.000000
# 5 0.000000 0.000000 0.000000 0.000000 0.045438 0.000000
# 6 0.000000 0.000000 0.000000 0.000000 0.000000 0.066216
#
#
# Mechanical properties :
#
#
# Convention : Reuss Voigt Hill
#
# Bulk Modulus (GPa) = 20.75334 28.01919 24.38627
# Shear Modulus (GPa) = 15.82705 21.79247 18.80976
#
# Velocity S-wave (km/s) = 2.91315 3.41835 3.17581
# Velocity P-wave (km/s) = 4.73743 5.53209 5.15011
#
# Compressibility (1/GPa) = 0.04818501
#
# Stress axis : x y z
#
# Youngs Moduli (GPa) = 50.51782 43.30192 102.69442
#
# Poissons Ratio (x) = -0.14950 0.39623
# Poissons Ratio (y) = -0.17442 0.18638
# Poissons Ratio (z) = 0.19491 0.07859
#
# Static dielectric constant tensor:
#      x y z
#    x 1.793030 0.000000 0.000000 
#    y 0.000000 1.622250 0.000000 
#    z 0.000000 0.000000 1.636790 
# 
# From -- ./inp_files/30839.got.cif
#   From: 2010.05.17/outbox.cif.g08.bks.cpg/sg52_16_cif.got.tgz:30839.got - 2010.06.03 12:15:38.
