data_PCOD9408672
_publ_section_title
;
Structure prediction by ZEFSAII (Michael W. Deem and Ramdas Pophale) SiO2 
 PCOD9408672
Probable space group: P N N A
;
_chemical_formula_sum "Si O2"
_cell_formula_units_Z 44
_cell_length_a 7.197264
_cell_length_b 8.172498
_cell_length_c 28.828046
_cell_angle_alpha 90.000000
_cell_angle_beta 90.000000
_cell_angle_gamma 90.000000
_cell_volume 1695.654874
_symmetry_space_group_name_H-M "P N N A"
_symmetry_group_IT_number 52
_symmetry_cell_setting 'orthorhombic'
loop_
_space_group_symop_operation_xyz
x,y,z
1/2-x,-y,z
x,1/2-y,1/2-z
1/2-x,1/2+y,1/2-z
-x,-y,-z
1/2+x,y,-z
-x,1/2+y,1/2+z
1/2+x,1/2-y,1/2+z
loop_
_atom_site_type_symbol
_atom_site_label
_atom_site_fract_x
_atom_site_fract_y
_atom_site_fract_z
Si Si1 0.581329 0.193229 0.545184
Si Si2 0.979501 0.836632 0.442952
Si Si3 0.358431 0.750000 0.750000
Si Si4 0.922914 0.700132 0.642471
Si Si5 0.452523 0.920921 0.278384
Si Si6 0.525992 0.339007 0.347835
O O1 0.576746 0.244761 0.491738
O O2 0.796811 0.164638 0.556558
O O3 0.533998 0.307544 0.587892
O O4 0.451073 0.032755 0.551587
O O5 0.917296 0.741683 0.397055
O O6 0.428457 0.562254 0.756407
O O7 0.349524 0.732557 0.693098
O O8 0.981470 0.866658 0.668447
O O9 0.700015 0.697739 0.655061
O O10 0.019048 0.533772 0.657825
O O11 0.481619 0.750000 0.250000
O O12 0.250000 0.000000 0.273411
#
# Coordination Sequence:
#
# PCOD9408672 Si02
#       6
#     8   8   4   8   8   8
#     4   9  18  32  50  70  99 130 171 211 255 305
#     4   9  18  33  50  71  98 133 168 211 257 302
#     4  12  20  28  42  64 100 134 166 206 254 312
#     4  10  19  28  41  67  94 129 165 203 248 306
#     4  12  19  26  40  63  95 135 171 203 252 311
#     4  10  19  28  43  65  97 129 164 202 254 302
#
# _framework density 25.948675999999999
#
# number of rings (size 3 to 8) (size 9 to 14) (size 15 to 20)
#    0.000    1.818    4.545    1.091    2.545    0.727 
#    0.000    0.000    0.000    0.000    0.000    0.000 
#    2.727    0.727    0.000    0.000    0.000    0.000 
#
# Total GULP energy -245025.113099 kJ/mol
# GULP energy per Si atom -5568.752570 kJ/mol
# Density = 2.588962 g / cm^3
# Si number density = 25.948676 Si / 1000 Ang^3
#
#
#
# Elastic Constant Matrix: (Units=GPa)
#
#
# Indices 1 2 3 4 5 6 
#
# 1 75.4886 1.5524 8.8963 0.0000 0.0000 0.0000
# 2 1.5524 83.0642 6.2846 0.0000 0.0000 0.0000
# 3 8.8963 6.2846 135.8265 0.0000 0.0000 0.0000
# 4 0.0000 0.0000 0.0000 -72.5962 0.0000 0.0000
# 5 0.0000 0.0000 0.0000 0.0000 16.8919 0.0000
# 6 0.0000 0.0000 0.0000 0.0000 0.0000 10.7240
#
#
#
# Elastic Compliance Matrix: (Units=1/GPa)
#
#
# Indices 1 2 3 4 5 6 
#
# 1 0.013353 -0.000184 -0.000866 0.000000 0.000000 0.000000
# 2 -0.000184 0.012084 -0.000547 0.000000 0.000000 0.000000
# 3 -0.000866 -0.000547 0.007444 0.000000 0.000000 0.000000
# 4 0.000000 0.000000 0.000000 -0.013775 0.000000 0.000000
# 5 0.000000 0.000000 0.000000 0.000000 0.059200 0.000000
# 6 0.000000 0.000000 0.000000 0.000000 0.000000 0.093249
#
#
# Mechanical properties :
#
#
# Convention : Reuss Voigt Hill
#
# Bulk Modulus (GPa) = 33.68516 36.42734 35.05625
# Shear Modulus (GPa) = 27.07899 9.51367 18.29633
#
# Velocity S-wave (km/s) = 3.23392 1.91685 2.65825
# Velocity P-wave (km/s) = 5.19172 4.35520 4.79175
#
# Compressibility (1/GPa) = 0.02968666
#
# Stress axis : x y z
#
# Youngs Moduli (GPa) = 74.89019 82.75604 134.32970
#
# Poissons Ratio (x) = 0.01523 0.11634
# Poissons Ratio (y) = 0.01378 0.07349
# Poissons Ratio (z) = 0.06486 0.04527
#
# Static dielectric constant tensor:
#      x y z
#    x 2.315860 0.000000 0.000000 
#    y 0.000000 1.569360 0.000000 
#    z 0.000000 0.000000 2.047850 
# 
# From -- ./inp_files/40086.got.cif
#   From: 2010.05.17/outbox.cif.g08.bks.cpg/sg52_21_cif.got.tgz:40086.got - 2010.06.03 12:15:38.
