data_PCOD9408277
_publ_section_title
;
Structure prediction by ZEFSAII (Michael W. Deem and Ramdas Pophale) SiO2 
 PCOD9408277
Probable space group: P N N A
;
_chemical_formula_sum "Si O2"
_cell_formula_units_Z 48
_cell_length_a 7.541387
_cell_length_b 14.643861
_cell_length_c 19.929118
_cell_angle_alpha 90.000000
_cell_angle_beta 90.000000
_cell_angle_gamma 90.000000
_cell_volume 2200.872604
_symmetry_space_group_name_H-M "P N N A"
_symmetry_group_IT_number 52
_symmetry_cell_setting 'orthorhombic'
loop_
_space_group_symop_operation_xyz
x,y,z
1/2-x,-y,z
x,1/2-y,1/2-z
1/2-x,1/2+y,1/2-z
-x,-y,-z
1/2+x,y,-z
-x,1/2+y,1/2+z
1/2+x,1/2-y,1/2+z
loop_
_atom_site_type_symbol
_atom_site_label
_atom_site_fract_x
_atom_site_fract_y
_atom_site_fract_z
Si Si1 0.433511 0.388637 0.067373
Si Si2 0.250000 0.000000 0.222493
Si Si3 0.019888 0.736518 0.825058
Si Si4 0.617221 0.680536 0.800634
Si Si5 0.750000 0.000000 0.006255
Si Si6 0.509445 0.407762 0.923294
Si Si7 0.541398 0.085874 0.899643
O O1 0.488948 0.329318 0.130442
O O2 0.533314 0.485649 0.071536
O O3 0.223361 0.403048 0.079177
O O4 0.455896 0.357096 0.991626
O O5 0.166376 0.918259 0.267677
O O6 0.393147 0.957220 0.170903
O O7 0.088988 0.750000 0.750000
O O8 0.804907 0.729161 0.817651
O O9 0.070642 0.641443 0.859252
O O10 0.043501 0.818650 0.877291
O O11 0.525474 0.750000 0.750000
O O12 0.595544 0.973668 0.057744
O O13 0.795923 0.917428 0.953641
#
# Coordination Sequence:
#
# PCOD9408277 Si02
#       7
#     8   4   8   8   4   8   8
#     4   9  18  32  53  76 104 144 172 233 279 326
#     4  11  18  34  60  84 113 150 188 252 277 346
#     4  10  18  32  55  86 105 146 194 231 278 343
#     4  10  18  31  54  85 108 140 196 229 277 339
#     4   9  22  40  54  88 109 154 190 234 301 348
#     4   9  18  32  52  76 106 134 184 224 275 333
#     4  10  20  36  61  81 116 148 191 240 291 349
#
# _framework density 21.809532000000001
#
# number of rings (size 3 to 8) (size 9 to 14) (size 15 to 20)
#    0.000    2.333    3.333    2.000    0.000    2.667 
#    3.000    0.000    3.667    0.000    0.000    0.000 
#    0.000    0.000    0.000    0.000    0.000    0.000 
#
# Total GULP energy -267424.522798 kJ/mol
# GULP energy per Si atom -5571.344225 kJ/mol
# Density = 2.175989 g / cm^3
# Si number density = 21.809532 Si / 1000 Ang^3
#
#
#
# Elastic Constant Matrix: (Units=GPa)
#
#
# Indices 1 2 3 4 5 6 
#
# 1 30.5539 -15.4558 -3.4334 0.0000 0.0000 0.0000
# 2 -15.4558 52.7519 36.8565 0.0000 0.0000 0.0000
# 3 -3.4334 36.8565 163.3610 0.0000 0.0000 0.0000
# 4 0.0000 0.0000 0.0000 46.1043 0.0000 0.0000
# 5 0.0000 0.0000 0.0000 0.0000 15.0899 0.0000
# 6 0.0000 0.0000 0.0000 0.0000 0.0000 5.0643
#
#
#
# Elastic Compliance Matrix: (Units=1/GPa)
#
#
# Indices 1 2 3 4 5 6 
#
# 1 0.039015 0.012890 -0.002088 0.000000 0.000000 0.000000
# 2 0.012890 0.026763 -0.005767 0.000000 0.000000 0.000000
# 3 -0.002088 -0.005767 0.007379 0.000000 0.000000 0.000000
# 4 0.000000 0.000000 0.000000 0.021690 0.000000 0.000000
# 5 0.000000 0.000000 0.000000 0.000000 0.066269 0.000000
# 6 0.000000 0.000000 0.000000 0.000000 0.000000 0.197462
#
#
# Mechanical properties :
#
#
# Convention : Reuss Voigt Hill
#
# Bulk Modulus (GPa) = 12.01560 31.40019 21.70789
# Shear Modulus (GPa) = 13.28904 28.49832 20.89368
#
# Velocity S-wave (km/s) = 2.47112 3.61874 3.09853
# Velocity P-wave (km/s) = 3.69638 5.64704 4.77244
#
# Compressibility (1/GPa) = 0.08322514
#
# Stress axis : x y z
#
# Youngs Moduli (GPa) = 25.63136 37.36559 135.52580
#
# Poissons Ratio (x) = -0.48164 0.28300
# Poissons Ratio (y) = -0.33038 0.78159
# Poissons Ratio (z) = 0.05352 0.21549
#
# Static dielectric constant tensor:
#      x y z
#    x 1.894730 0.000000 0.000000 
#    y 0.000000 1.846060 0.000000 
#    z 0.000000 0.000000 1.831240 
# 
# From -- ./inp_files/35934.got.cif
#   From: 2010.05.17/outbox.cif.g08.bks.cpg/sg52_18_cif.got.tgz:35934.got - 2010.06.03 12:15:38.
