data_PCOD9408523
_publ_section_title
;
Structure prediction by ZEFSAII (Michael W. Deem and Ramdas Pophale) SiO2 
 PCOD9408523
Probable space group: P N N A
;
_chemical_formula_sum "Si O2"
_cell_formula_units_Z 32
_cell_length_a 9.182547
_cell_length_b 10.429544
_cell_length_c 16.492993
_cell_angle_alpha 90.000000
_cell_angle_beta 90.000000
_cell_angle_gamma 90.000000
_cell_volume 1579.530278
_symmetry_space_group_name_H-M "P N N A"
_symmetry_group_IT_number 52
_symmetry_cell_setting 'orthorhombic'
loop_
_space_group_symop_operation_xyz
x,y,z
1/2-x,-y,z
x,1/2-y,1/2-z
1/2-x,1/2+y,1/2-z
-x,-y,-z
1/2+x,y,-z
-x,1/2+y,1/2+z
1/2+x,1/2-y,1/2+z
loop_
_atom_site_type_symbol
_atom_site_label
_atom_site_fract_x
_atom_site_fract_y
_atom_site_fract_z
Si Si1 0.179657 0.684706 0.645310
Si Si2 0.988420 0.217579 0.663793
Si Si3 0.129349 0.590827 0.468601
Si Si4 0.592444 0.551614 0.193906
O O1 0.344253 0.727692 0.668174
O O2 0.190486 0.643178 0.553296
O O3 0.113357 0.581458 0.709241
O O4 0.076531 0.809161 0.654583
O O5 0.917179 0.250000 0.750000
O O6 0.917879 0.294086 0.589841
O O7 0.989847 0.062696 0.664587
O O8 0.250000 0.500000 0.427870
O O9 0.000000 0.500000 0.500000
O O10 0.750000 0.500000 0.167455
#
# Coordination Sequence:
#
# PCOD9408523 Si02
#       4
#     8   8   8   8
#     4  10  18  35  62  97 119 159 214 260 307 384
#     4  11  20  36  64  90 124 167 212 261 318 378
#     4  12  24  38  62  91 126 161 211 265 315 374
#     4   9  16  31  60  91 120 154 214 261 295 373
#
# _framework density 20.259188000000002
#
# number of rings (size 3 to 8) (size 9 to 14) (size 15 to 20)
#    0.000    1.500    7.500    2.250    0.000    1.000 
#    0.000    0.000   11.000    0.000    0.000    0.000 
#    0.000    0.000    0.000    0.000    0.000    0.000 
#
# Total GULP energy -178239.976063 kJ/mol
# GULP energy per Si atom -5569.999252 kJ/mol
# Density = 2.021308 g / cm^3
# Si number density = 20.259188 Si / 1000 Ang^3
#
#
#
# Elastic Constant Matrix: (Units=GPa)
#
#
# Indices 1 2 3 4 5 6 
#
# 1 30.7884 26.3070 13.7082 0.0000 0.0000 0.0000
# 2 26.3070 159.3827 46.4132 0.0000 0.0000 0.0000
# 3 13.7082 46.4132 105.8438 0.0000 0.0000 0.0000
# 4 0.0000 0.0000 0.0000 37.6385 0.0000 0.0000
# 5 0.0000 0.0000 0.0000 0.0000 15.0770 0.0000
# 6 0.0000 0.0000 0.0000 0.0000 0.0000 8.1978
#
#
#
# Elastic Compliance Matrix: (Units=1/GPa)
#
#
# Indices 1 2 3 4 5 6 
#
# 1 0.038388 -0.005604 -0.002514 0.000000 0.000000 0.000000
# 2 -0.005604 0.008011 -0.002787 0.000000 0.000000 0.000000
# 3 -0.002514 -0.002787 0.010996 0.000000 0.000000 0.000000
# 4 0.000000 0.000000 0.000000 0.026569 0.000000 0.000000
# 5 0.000000 0.000000 0.000000 0.000000 0.066326 0.000000
# 6 0.000000 0.000000 0.000000 0.000000 0.000000 0.121984
#
#
# Mechanical properties :
#
#
# Convention : Reuss Voigt Hill
#
# Bulk Modulus (GPa) = 28.10296 52.09684 40.09990
# Shear Modulus (GPa) = 16.34284 26.15508 21.24896
#
# Velocity S-wave (km/s) = 2.84331 3.59698 3.24212
# Velocity P-wave (km/s) = 4.96800 6.55912 5.81821
#
# Compressibility (1/GPa) = 0.03558344
#
# Stress axis : x y z
#
# Youngs Moduli (GPa) = 26.05014 124.83230 90.94511
#
# Poissons Ratio (x) = 0.69954 0.22867
# Poissons Ratio (y) = 0.14598 0.25346
# Poissons Ratio (z) = 0.06550 0.34791
#
# Static dielectric constant tensor:
#      x y z
#    x 1.789810 0.000000 0.000000 
#    y 0.000000 1.799710 0.000000 
#    z 0.000000 0.000000 1.801210 
# 
# From -- ./inp_files/24180.got.cif
#   From: 2010.05.17/outbox.cif.g08.bks.cpg/sg52_13_cif.got.tgz:24180.got - 2010.06.03 12:15:38.
