data_PCOD9408262
_publ_section_title
;
Structure prediction by ZEFSAII (Michael W. Deem and Ramdas Pophale) SiO2 
 PCOD9408262
Probable space group: P N N A
;
_chemical_formula_sum "Si O2"
_cell_formula_units_Z 32
_cell_length_a 7.291206
_cell_length_b 5.179975
_cell_length_c 34.888173
_cell_angle_alpha 90.000000
_cell_angle_beta 90.000000
_cell_angle_gamma 90.000000
_cell_volume 1317.665756
_symmetry_space_group_name_H-M "P N N A"
_symmetry_group_IT_number 52
_symmetry_cell_setting 'orthorhombic'
loop_
_space_group_symop_operation_xyz
x,y,z
1/2-x,-y,z
x,1/2-y,1/2-z
1/2-x,1/2+y,1/2-z
-x,-y,-z
1/2+x,y,-z
-x,1/2+y,1/2+z
1/2+x,1/2-y,1/2+z
loop_
_atom_site_type_symbol
_atom_site_label
_atom_site_fract_x
_atom_site_fract_y
_atom_site_fract_z
Si Si1 0.536711 0.536483 0.176492
Si Si2 0.470190 0.553654 0.714668
Si Si3 0.971856 0.994284 0.589107
Si Si4 0.468570 0.502846 0.454705
O O1 0.750000 0.500000 0.187422
O O2 0.464463 0.244651 0.180932
O O3 0.527675 0.591683 0.131756
O O4 0.460040 0.764601 0.204052
O O5 0.250000 0.500000 0.716655
O O6 0.513144 0.750000 0.750000
O O7 0.036154 0.266689 0.571715
O O8 0.750000 0.000000 0.589632
O O9 0.038518 0.773333 0.560793
O O10 0.250000 0.500000 0.449643
O O11 0.500000 0.500000 0.500000
#
# Coordination Sequence:
#
# PCOD9408262 Si02
#       4
#     8   8   8   8
#     4  10  20  32  52  80 104 134 177 217 257 308
#     4  10  18  31  51  78 108 135 169 218 267 307
#     4  10  21  37  54  76 108 143 174 211 265 319
#     4  10  21  36  55  78 104 138 177 216 263 314
#
# _framework density 24.285367999999998
#
# number of rings (size 3 to 8) (size 9 to 14) (size 15 to 20)
#    0.000    2.000    0.000    5.250    0.000    2.000 
#    0.000    0.000    0.000    3.000    0.000    7.000 
#    0.000    0.000    0.000    0.000    0.000    0.000 
#
# Total GULP energy -178405.369134 kJ/mol
# GULP energy per Si atom -5575.167785 kJ/mol
# Density = 2.423009 g / cm^3
# Si number density = 24.285368 Si / 1000 Ang^3
#
#
#
# Elastic Constant Matrix: (Units=GPa)
#
#
# Indices 1 2 3 4 5 6 
#
# 1 75.1424 4.6393 -20.6657 0.0000 0.0000 0.0000
# 2 4.6393 198.7399 57.4075 0.0000 0.0000 0.0000
# 3 -20.6657 57.4075 139.8636 0.0000 0.0000 0.0000
# 4 0.0000 0.0000 0.0000 49.1528 0.0000 0.0000
# 5 0.0000 0.0000 0.0000 0.0000 8.5747 0.0000
# 6 0.0000 0.0000 0.0000 0.0000 0.0000 -13.1962
#
#
#
# Elastic Compliance Matrix: (Units=1/GPa)
#
#
# Indices 1 2 3 4 5 6 
#
# 1 0.014064 -0.001053 0.002510 0.000000 0.000000 0.000000
# 2 -0.001053 0.005787 -0.002531 0.000000 0.000000 0.000000
# 3 0.002510 -0.002531 0.008560 0.000000 0.000000 0.000000
# 4 0.000000 0.000000 0.000000 0.020345 0.000000 0.000000
# 5 0.000000 0.000000 0.000000 0.000000 0.116622 0.000000
# 6 0.000000 0.000000 0.000000 0.000000 0.000000 -0.075780
#
#
# Mechanical properties :
#
#
# Convention : Reuss Voigt Hill
#
# Bulk Modulus (GPa) = 38.07757 55.16757 46.62257
# Shear Modulus (GPa) = 49.75102 33.73058 41.74080
#
# Velocity S-wave (km/s) = 4.53106 3.73087 4.15029
# Velocity P-wave (km/s) = 6.56409 6.42845 6.49662
#
# Compressibility (1/GPa) = 0.02626218
#
# Stress axis : x y z
#
# Youngs Moduli (GPa) = 71.10605 172.78836 116.82721
#
# Poissons Ratio (x) = 0.18202 -0.29328
# Poissons Ratio (y) = 0.07491 0.29570
# Poissons Ratio (z) = -0.17850 0.43735
#
# Static dielectric constant tensor:
#      x y z
#    x 2.013630 0.000000 0.000000 
#    y 0.000000 1.954050 0.000000 
#    z 0.000000 0.000000 1.955110 
# 
# From -- ./inp_files/44131.got.cif
#   From: 2010.05.17/outbox.cif.g08.bks.cpg/sg52_23_cif.got.tgz:44131.got - 2010.06.03 12:15:38.
