data_PCOD9408404
_publ_section_title
;
Structure prediction by ZEFSAII (Michael W. Deem and Ramdas Pophale) SiO2 
 PCOD9408404
Probable space group: P N N A
;
_chemical_formula_sum "Si O2"
_cell_formula_units_Z 32
_cell_length_a 15.600389
_cell_length_b 8.179185
_cell_length_c 11.870039
_cell_angle_alpha 90.000000
_cell_angle_beta 90.000000
_cell_angle_gamma 90.000000
_cell_volume 1514.598788
_symmetry_space_group_name_H-M "P N N A"
_symmetry_group_IT_number 52
_symmetry_cell_setting 'orthorhombic'
loop_
_space_group_symop_operation_xyz
x,y,z
1/2-x,-y,z
x,1/2-y,1/2-z
1/2-x,1/2+y,1/2-z
-x,-y,-z
1/2+x,y,-z
-x,1/2+y,1/2+z
1/2+x,1/2-y,1/2+z
loop_
_atom_site_type_symbol
_atom_site_label
_atom_site_fract_x
_atom_site_fract_y
_atom_site_fract_z
Si Si1 0.526292 0.366945 0.158752
Si Si2 0.086064 0.852538 0.996152
Si Si3 0.558402 0.411753 0.679554
Si Si4 0.674005 0.628504 0.143138
O O1 0.572239 0.250000 0.250000
O O2 0.484936 0.258095 0.061401
O O3 0.448304 0.447730 0.227274
O O4 0.588725 0.515783 0.130568
O O5 0.107369 0.009598 0.072880
O O6 0.168372 0.747666 0.964266
O O7 0.036023 0.893046 0.879385
O O8 0.581570 0.250000 0.750000
O O9 0.750000 0.500000 0.146090
O O10 0.677754 0.750000 0.250000
#
# Coordination Sequence:
#
# PCOD9408404 Si02
#       4
#     8   8   8   8
#     4  10  19  34  59  91 116 155 205 255 301 353
#     4  10  20  34  60  88 121 155 200 251 303 360
#     4  10  18  33  56  90 123 145 201 260 295 346
#     4  12  23  39  55  87 132 161 195 245 315 389
#
# _framework density 21.127707999999998
#
# number of rings (size 3 to 8) (size 9 to 14) (size 15 to 20)
#    0.000    1.500    5.000    1.500    0.000    0.000 
#    0.000    0.000    0.000    0.000   19.500    0.000 
#    0.000    0.000    0.000    0.000    0.000    0.000 
#
# Total GULP energy -178156.100430 kJ/mol
# GULP energy per Si atom -5567.378138 kJ/mol
# Density = 2.107962 g / cm^3
# Si number density = 21.127708 Si / 1000 Ang^3
#
#
#
# Elastic Constant Matrix: (Units=GPa)
#
#
# Indices 1 2 3 4 5 6 
#
# 1 29.2248 24.0171 25.7175 0.0000 0.0000 0.0000
# 2 24.0171 148.2062 65.6426 0.0000 0.0000 0.0000
# 3 25.7175 65.6426 96.7518 0.0000 0.0000 0.0000
# 4 0.0000 0.0000 0.0000 66.9626 0.0000 0.0000
# 5 0.0000 0.0000 0.0000 0.0000 3.9096 0.0000
# 6 0.0000 0.0000 0.0000 0.0000 0.0000 26.1503
#
#
#
# Elastic Compliance Matrix: (Units=1/GPa)
#
#
# Indices 1 2 3 4 5 6 
#
# 1 0.045511 -0.002884 -0.010141 0.000000 0.000000 0.000000
# 2 -0.002884 0.009829 -0.005902 0.000000 0.000000 0.000000
# 3 -0.010141 -0.005902 0.017035 0.000000 0.000000 0.000000
# 4 0.000000 0.000000 0.000000 0.014934 0.000000 0.000000
# 5 0.000000 0.000000 0.000000 0.000000 0.255780 0.000000
# 6 0.000000 0.000000 0.000000 0.000000 0.000000 0.038240
#
#
# Mechanical properties :
#
#
# Convention : Reuss Voigt Hill
#
# Bulk Modulus (GPa) = 28.96662 56.10413 42.53538
# Shear Modulus (GPa) = 11.60928 29.99156 20.80042
#
# Velocity S-wave (km/s) = 2.34665 3.77176 3.14109
# Velocity P-wave (km/s) = 4.59155 6.75134 5.77334
#
# Compressibility (1/GPa) = 0.03452249
#
# Stress axis : x y z
#
# Youngs Moduli (GPa) = 21.97272 101.74286 58.70107
#
# Poissons Ratio (x) = 0.29339 0.59527
# Poissons Ratio (y) = 0.06336 0.34645
# Poissons Ratio (z) = 0.22282 0.60048
#
# Static dielectric constant tensor:
#      x y z
#    x 1.761360 0.000000 0.000000 
#    y 0.000000 1.882370 0.000000 
#    z 0.000000 0.000000 1.809080 
# 
# From -- ./inp_files/18835.got.cif
#   From: 2010.05.17/outbox.cif.g08.bks.cpg/sg52_10_cif.got.tgz:18835.got - 2010.06.03 12:15:38.
