data_PCOD9408742
_publ_section_title
;
Structure prediction by ZEFSAII (Michael W. Deem and Ramdas Pophale) SiO2 
 PCOD9408742
Probable space group: P N N A
;
_chemical_formula_sum "Si O2"
_cell_formula_units_Z 48
_cell_length_a 10.810187
_cell_length_b 12.577004
_cell_length_c 17.188771
_cell_angle_alpha 90.000000
_cell_angle_beta 90.000000
_cell_angle_gamma 90.000000
_cell_volume 2336.981268
_symmetry_space_group_name_H-M "P N N A"
_symmetry_group_IT_number 52
_symmetry_cell_setting 'orthorhombic'
loop_
_space_group_symop_operation_xyz
x,y,z
1/2-x,-y,z
x,1/2-y,1/2-z
1/2-x,1/2+y,1/2-z
-x,-y,-z
1/2+x,y,-z
-x,1/2+y,1/2+z
1/2+x,1/2-y,1/2+z
loop_
_atom_site_type_symbol
_atom_site_label
_atom_site_fract_x
_atom_site_fract_y
_atom_site_fract_z
Si Si1 0.557249 0.913863 0.738403
Si Si2 0.962843 0.910663 0.101565
Si Si3 0.462978 0.323099 0.064729
Si Si4 0.686511 0.328142 0.949721
Si Si5 0.339032 0.635966 0.224822
Si Si6 0.350263 0.917421 0.050359
O O1 0.460706 0.887196 0.806721
O O2 0.527112 0.872568 0.651742
O O3 0.696933 0.870958 0.754879
O O4 0.576026 0.039389 0.749600
O O5 0.036223 0.806057 0.070470
O O6 0.846542 0.910669 0.044009
O O7 0.026558 0.023400 0.080273
O O8 0.329066 0.350446 0.028177
O O9 0.580968 0.354075 0.012325
O O10 0.667918 0.383762 0.867455
O O11 0.669286 0.203512 0.926435
O O12 0.388142 0.750000 0.250000
O O13 0.250000 0.000000 0.079755
#
# Coordination Sequence:
#
# PCOD9408742 Si02
#       6
#     8   8   8   8   8   8
#     4  10  20  33  54  81 107 143 187 231 282 338
#     4  10  19  31  53  82 111 140 183 232 282 340
#     4  10  20  35  56  80 109 148 186 233 280 331
#     4  10  20  35  54  80 112 143 190 233 277 340
#     4  10  20  33  53  81 109 141 184 240 284 323
#     4  10  19  31  52  82 109 146 179 229 289 335
#
# _framework density 20.539317
#
# number of rings (size 3 to 8) (size 9 to 14) (size 15 to 20)
#    0.000    2.000    1.667    3.500    2.333    0.667 
#    0.000    0.000    3.667    0.000    0.000    0.000 
#    0.000    0.000    0.000    0.000    0.000    0.000 
#
# Total GULP energy -267288.297803 kJ/mol
# GULP energy per Si atom -5568.506204 kJ/mol
# Density = 2.049257 g / cm^3
# Si number density = 20.539317 Si / 1000 Ang^3
#
#
#
# Elastic Constant Matrix: (Units=GPa)
#
#
# Indices 1 2 3 4 5 6 
#
# 1 53.1139 2.0306 44.1236 0.0000 0.0000 0.0000
# 2 2.0306 64.8511 11.6261 0.0000 0.0000 0.0000
# 3 44.1236 11.6261 125.3744 0.0000 0.0000 0.0000
# 4 0.0000 0.0000 0.0000 27.1041 0.0000 0.0000
# 5 0.0000 0.0000 0.0000 0.0000 26.4214 0.0000
# 6 0.0000 0.0000 0.0000 0.0000 0.0000 13.5655
#
#
#
# Elastic Compliance Matrix: (Units=1/GPa)
#
#
# Indices 1 2 3 4 5 6 
#
# 1 0.026653 0.000861 -0.009460 0.000000 0.000000 0.000000
# 2 0.000861 0.015708 -0.001760 0.000000 0.000000 0.000000
# 3 -0.009460 -0.001760 0.011469 0.000000 0.000000 0.000000
# 4 0.000000 0.000000 0.000000 0.036895 0.000000 0.000000
# 5 0.000000 0.000000 0.000000 0.000000 0.037848 0.000000
# 6 0.000000 0.000000 0.000000 0.000000 0.000000 0.073716
#
#
# Mechanical properties :
#
#
# Convention : Reuss Voigt Hill
#
# Bulk Modulus (GPa) = 30.19925 39.87776 35.03851
# Shear Modulus (GPa) = 21.36345 25.78882 23.57613
#
# Velocity S-wave (km/s) = 3.22860 3.54727 3.39167
# Velocity P-wave (km/s) = 5.35103 6.01955 5.69510
#
# Compressibility (1/GPa) = 0.03311341
#
# Stress axis : x y z
#
# Youngs Moduli (GPa) = 37.51864 63.66003 87.19424
#
# Poissons Ratio (x) = -0.05484 0.82487
# Poissons Ratio (y) = -0.03232 0.15345
# Poissons Ratio (z) = 0.35493 0.11203
#
# Static dielectric constant tensor:
#      x y z
#    x 1.746520 0.000000 0.000000 
#    y 0.000000 1.827460 0.000000 
#    z 0.000000 0.000000 1.786220 
# 
# From -- ./inp_files/26080.got.cif
#   From: 2010.05.17/outbox.cif.g08.bks.cpg/sg52_14_cif.got.tgz:26080.got - 2010.06.03 12:15:38.
