data_PCOD9408324
_publ_section_title
;
Structure prediction by ZEFSAII (Michael W. Deem and Ramdas Pophale) SiO2 
 PCOD9408324
Probable space group: P N N A
;
_chemical_formula_sum "Si O2"
_cell_formula_units_Z 52
_cell_length_a 9.441959
_cell_length_b 22.364058
_cell_length_c 12.701558
_cell_angle_alpha 90.000000
_cell_angle_beta 90.000000
_cell_angle_gamma 90.000000
_cell_volume 2682.067576
_symmetry_space_group_name_H-M "P N N A"
_symmetry_group_IT_number 52
_symmetry_cell_setting 'orthorhombic'
loop_
_space_group_symop_operation_xyz
x,y,z
1/2-x,-y,z
x,1/2-y,1/2-z
1/2-x,1/2+y,1/2-z
-x,-y,-z
1/2+x,y,-z
-x,1/2+y,1/2+z
1/2+x,1/2-y,1/2+z
loop_
_atom_site_type_symbol
_atom_site_label
_atom_site_fract_x
_atom_site_fract_y
_atom_site_fract_z
Si Si1 0.491793 0.224008 0.614545
Si Si2 0.943293 0.618917 0.027702
Si Si3 0.709186 0.568296 0.862605
Si Si4 0.397832 0.828828 0.993580
Si Si5 0.245006 0.250000 0.250000
Si Si6 0.347006 0.137548 0.141484
Si Si7 0.812368 0.718809 0.151910
O O1 0.479029 0.177020 0.520730
O O2 0.503628 0.292612 0.576898
O O3 0.636173 0.212768 0.677591
O O4 0.351742 0.210014 0.677243
O O5 0.833260 0.594200 0.940545
O O6 0.865603 0.653291 0.122589
O O7 0.062249 0.574902 0.071927
O O8 0.750000 0.500000 0.842672
O O9 0.682492 0.600260 0.748650
O O10 0.500215 0.865825 0.915630
O O11 0.325783 0.770410 0.937557
O O12 0.280353 0.867255 0.055579
O O13 0.332375 0.206478 0.177563
O O14 0.885413 0.750000 0.250000
#
# Coordination Sequence:
#
# PCOD9408324 Si02
#       7
#     8   8   8   8   4   8   8
#     4  10  18  32  53  88 125 159 183 234 303 372
#     4  11  23  40  60  89 122 159 205 256 307 368
#     4  12  26  45  65  87 119 168 219 263 310 360
#     4  10  22  36  56  91 131 159 199 246 311 378
#     4  10  20  32  58  86 132 164 190 238 310 376
#     4  11  23  40  62  92 125 166 210 257 308 374
#     4  11  20  32  58  94 129 158 197 237 311 386
#
# _framework density 19.388027000000001
#
# number of rings (size 3 to 8) (size 9 to 14) (size 15 to 20)
#    0.000    1.231    5.385    1.385    5.385    0.000 
#    0.000    0.769    0.000    0.000    0.000    0.000 
#    0.000    0.000    0.000    0.000    0.000    0.000 
#
# Total GULP energy -289495.728085 kJ/mol
# GULP energy per Si atom -5567.225540 kJ/mol
# Density = 1.934390 g / cm^3
# Si number density = 19.388027 Si / 1000 Ang^3
#
#
#
# Elastic Constant Matrix: (Units=GPa)
#
#
# Indices 1 2 3 4 5 6 
#
# 1 89.5893 19.3876 31.6836 0.0000 0.0000 0.0000
# 2 19.3876 48.5171 21.1678 0.0000 0.0000 0.0000
# 3 31.6836 21.1678 85.2781 0.0000 0.0000 0.0000
# 4 0.0000 0.0000 0.0000 21.1983 0.0000 0.0000
# 5 0.0000 0.0000 0.0000 0.0000 -34.7952 0.0000
# 6 0.0000 0.0000 0.0000 0.0000 0.0000 29.7421
#
#
#
# Elastic Compliance Matrix: (Units=1/GPa)
#
#
# Indices 1 2 3 4 5 6 
#
# 1 0.013378 -0.003563 -0.004086 0.000000 0.000000 0.000000
# 2 -0.003563 0.024064 -0.004649 0.000000 0.000000 0.000000
# 3 -0.004086 -0.004649 0.014398 0.000000 0.000000 0.000000
# 4 0.000000 0.000000 0.000000 0.047174 0.000000 0.000000
# 5 0.000000 0.000000 0.000000 0.000000 -0.028740 0.000000
# 6 0.000000 0.000000 0.000000 0.000000 0.000000 0.033622
#
#
# Mechanical properties :
#
#
# Convention : Reuss Voigt Hill
#
# Bulk Modulus (GPa) = 36.70623 40.87362 38.78993
# Shear Modulus (GPa) = 36.34388 13.30540 24.82464
#
# Velocity S-wave (km/s) = 4.33431 2.62252 3.58216
# Velocity P-wave (km/s) = 6.63489 5.50434 6.09588
#
# Compressibility (1/GPa) = 0.02724333
#
# Stress axis : x y z
#
# Youngs Moduli (GPa) = 74.74860 41.55647 69.45205
#
# Poissons Ratio (x) = 0.14808 0.28378
# Poissons Ratio (y) = 0.26635 0.32290
# Poissons Ratio (z) = 0.30542 0.19321
#
# Static dielectric constant tensor:
#      x y z
#    x 1.744980 0.000000 0.000000 
#    y 0.000000 1.479940 0.000000 
#    z 0.000000 0.000000 1.879650 
# 
# From -- ./inp_files/24886.got.cif
#   From: 2010.05.17/outbox.cif.g08.bks.cpg/sg52_13_cif.got.tgz:24886.got - 2010.06.03 12:15:38.
