data_PCOD9408693
_publ_section_title
;
Structure prediction by ZEFSAII (Michael W. Deem and Ramdas Pophale) SiO2 
 PCOD9408693
Probable space group: P N N A
;
_chemical_formula_sum "Si O2"
_cell_formula_units_Z 56
_cell_length_a 5.524482
_cell_length_b 15.506035
_cell_length_c 25.375562
_cell_angle_alpha 90.000000
_cell_angle_beta 90.000000
_cell_angle_gamma 90.000000
_cell_volume 2173.741978
_symmetry_space_group_name_H-M "P N N A"
_symmetry_group_IT_number 52
_symmetry_cell_setting 'orthorhombic'
loop_
_space_group_symop_operation_xyz
x,y,z
1/2-x,-y,z
x,1/2-y,1/2-z
1/2-x,1/2+y,1/2-z
-x,-y,-z
1/2+x,y,-z
-x,1/2+y,1/2+z
1/2+x,1/2-y,1/2+z
loop_
_atom_site_type_symbol
_atom_site_label
_atom_site_fract_x
_atom_site_fract_y
_atom_site_fract_z
Si Si1 0.337850 0.597463 0.865932
Si Si2 0.660147 0.336452 0.862695
Si Si3 0.852631 0.904927 0.239036
Si Si4 0.670753 0.908156 0.088357
Si Si5 0.328674 0.147915 0.115294
Si Si6 0.361277 0.263114 0.498537
Si Si7 0.352917 0.653167 0.255352
O O1 0.250000 0.500000 0.874385
O O2 0.604640 0.618706 0.888429
O O3 0.374203 0.611388 0.802607
O O4 0.112032 0.656220 0.885335
O O5 0.740912 0.236975 0.857900
O O6 0.624285 0.379723 0.804984
O O7 0.624099 0.846398 0.222181
O O8 0.128339 0.896222 0.218971
O O9 0.750000 0.000000 0.230794
O O10 0.406930 0.913456 0.115332
O O11 0.643802 0.833397 0.045217
O O12 0.898345 0.884522 0.125773
O O13 0.750000 0.000000 0.064506
O O14 0.358601 0.180221 0.054543
O O15 0.611014 0.212524 0.500832
O O16 0.263405 0.750000 0.250000
#
# Coordination Sequence:
#
# PCOD9408693 Si02
#       7
#     8   8   8   8   8   8   8
#     4   9  17  30  49  72  94 115 144 185 238 287
#     4  10  19  31  48  70  98 124 147 189 237 284
#     4   9  17  30  49  71  91 114 148 193 238 273
#     4  10  19  31  48  68  92 124 164 203 232 263
#     4  10  19  30  45  67  95 122 151 188 240 281
#     4   8  16  27  42  64  89 113 150 189 227 267
#     4  10  19  31  49  70  93 124 158 189 229 279
#
# _framework density 25.762027
#
# number of rings (size 3 to 8) (size 9 to 14) (size 15 to 20)
#    0.000    2.571    0.000    2.571    0.000    8.571 
#    0.000    0.000    0.000    5.143    0.000    0.000 
#    0.000  102.857    0.000    0.000    0.000    0.000 
#
# Total GULP energy -312630.271814 kJ/mol
# GULP energy per Si atom -5582.683425 kJ/mol
# Density = 2.570339 g / cm^3
# Si number density = 25.762027 Si / 1000 Ang^3
#
#
#
# Elastic Constant Matrix: (Units=GPa)
#
#
# Indices 1 2 3 4 5 6 
#
# 1 231.3915 5.6967 25.7478 0.0000 0.0000 0.0000
# 2 5.6967 47.3871 0.9126 0.0000 0.0000 0.0000
# 3 25.7478 0.9126 52.9124 0.0000 0.0000 0.0000
# 4 0.0000 0.0000 0.0000 13.1203 0.0000 0.0000
# 5 0.0000 0.0000 0.0000 0.0000 26.8294 0.0000
# 6 0.0000 0.0000 0.0000 0.0000 0.0000 46.2659
#
#
#
# Elastic Compliance Matrix: (Units=1/GPa)
#
#
# Indices 1 2 3 4 5 6 
#
# 1 0.004581 -0.000508 -0.002221 0.000000 0.000000 0.000000
# 2 -0.000508 0.021166 -0.000118 0.000000 0.000000 0.000000
# 3 -0.002221 -0.000118 0.019982 0.000000 0.000000 0.000000
# 4 0.000000 0.000000 0.000000 0.076218 0.000000 0.000000
# 5 0.000000 0.000000 0.000000 0.000000 0.037273 0.000000
# 6 0.000000 0.000000 0.000000 0.000000 0.000000 0.021614
#
#
# Mechanical properties :
#
#
# Convention : Reuss Voigt Hill
#
# Bulk Modulus (GPa) = 24.97731 44.04503 34.51117
# Shear Modulus (GPa) = 25.01600 37.19870 31.10735
#
# Velocity S-wave (km/s) = 3.11953 3.80404 3.47866
# Velocity P-wave (km/s) = 4.76359 6.03558 5.43691
#
# Compressibility (1/GPa) = 0.04003634
#
# Stress axis : x y z
#
# Youngs Moduli (GPa) = 218.27988 47.24525 50.04573
#
# Poissons Ratio (x) = 0.02400 0.11113
# Poissons Ratio (y) = 0.11088 0.00590
# Poissons Ratio (z) = 0.48470 0.00557
#
# Static dielectric constant tensor:
#      x y z
#    x 2.155070 0.000000 0.000000 
#    y 0.000000 1.979080 0.000000 
#    z 0.000000 0.000000 2.149170 
# 
# From -- ./inp_files/43792.got.cif
#   From: 2010.05.17/outbox.cif.g08.bks.cpg/sg52_22_cif.got.tgz:43792.got - 2010.06.03 12:15:38.
