data_PCOD9408987
_publ_section_title
;
Structure prediction by ZEFSAII (Michael W. Deem and Ramdas Pophale) SiO2 
 PCOD9408987
Probable space group: P N N A
;
_chemical_formula_sum "Si O2"
_cell_formula_units_Z 36
_cell_length_a 5.575324
_cell_length_b 16.493701
_cell_length_c 17.403927
_cell_angle_alpha 90.000000
_cell_angle_beta 90.000000
_cell_angle_gamma 90.000000
_cell_volume 1600.425568
_symmetry_space_group_name_H-M "P N N A"
_symmetry_group_IT_number 52
_symmetry_cell_setting 'orthorhombic'
loop_
_space_group_symop_operation_xyz
x,y,z
1/2-x,-y,z
x,1/2-y,1/2-z
1/2-x,1/2+y,1/2-z
-x,-y,-z
1/2+x,y,-z
-x,1/2+y,1/2+z
1/2+x,1/2-y,1/2+z
loop_
_atom_site_type_symbol
_atom_site_label
_atom_site_fract_x
_atom_site_fract_y
_atom_site_fract_z
Si Si1 0.250000 0.500000 0.952631
Si Si2 0.931492 0.889254 0.204386
Si Si3 0.190977 0.250000 0.250000
Si Si4 0.250000 0.500000 0.208860
Si Si5 0.961370 0.593679 0.473053
Si Si6 0.071529 0.632046 0.839457
O O1 0.238037 0.583711 0.900776
O O2 0.500000 0.500000 0.000000
O O3 0.886816 0.898792 0.115259
O O4 0.708507 0.871194 0.258223
O O5 0.134301 0.821939 0.221887
O O6 0.038364 0.972506 0.236467
O O7 0.040349 0.278727 0.173943
O O8 0.340477 0.573830 0.158758
O O9 0.730192 0.629261 0.517409
O O10 0.000000 0.500000 0.500000
#
# Coordination Sequence:
#
# PCOD9408987 Si02
#       6
#     4   8   4   4   8   8
#     4  12  27  46  76 113 150 188 246 320 383 444
#     4  11  22  40  69  98 137 187 236 294 348 435
#     4  10  26  42  72  98 142 184 262 294 358 428
#     4  10  19  34  70 101 130 172 242 302 343 414
#     4  10  23  37  60  99 141 172 214 276 351 416
#     4  11  23  44  71 106 136 190 250 304 366 432
#
# _framework density 22.494018000000001
#
# number of rings (size 3 to 8) (size 9 to 14) (size 15 to 20)
#    0.000    1.333    2.222    2.667   15.556    0.000 
#    0.000    2.222    0.000    0.000    0.000    0.000 
#    0.000    0.000    0.000    0.000    0.000    0.000 
#
# Total GULP energy -200425.850439 kJ/mol
# GULP energy per Si atom -5567.384734 kJ/mol
# Density = 2.244282 g / cm^3
# Si number density = 22.494018 Si / 1000 Ang^3
#
#
#
# Elastic Constant Matrix: (Units=GPa)
#
#
# Indices 1 2 3 4 5 6 
#
# 1 127.3580 21.1030 35.3545 0.0000 0.0000 0.0000
# 2 21.1030 81.8892 17.7996 0.0000 0.0000 0.0000
# 3 35.3545 17.7996 111.4831 0.0000 0.0000 0.0000
# 4 0.0000 0.0000 0.0000 4.3937 0.0000 0.0000
# 5 0.0000 0.0000 0.0000 0.0000 40.4693 0.0000
# 6 0.0000 0.0000 0.0000 0.0000 0.0000 48.6020
#
#
#
# Elastic Compliance Matrix: (Units=1/GPa)
#
#
# Indices 1 2 3 4 5 6 
#
# 1 0.008840 -0.001729 -0.002527 0.000000 0.000000 0.000000
# 2 -0.001729 0.012989 -0.001526 0.000000 0.000000 0.000000
# 3 -0.002527 -0.001526 0.010015 0.000000 0.000000 0.000000
# 4 0.000000 0.000000 0.000000 0.227599 0.000000 0.000000
# 5 0.000000 0.000000 0.000000 0.000000 0.024710 0.000000
# 6 0.000000 0.000000 0.000000 0.000000 0.000000 0.020575
#
#
# Mechanical properties :
#
#
# Convention : Reuss Voigt Hill
#
# Bulk Modulus (GPa) = 49.30883 52.13830 50.72356
# Shear Modulus (GPa) = 15.47741 35.12454 25.30097
#
# Velocity S-wave (km/s) = 2.62595 3.95588 3.35742
# Velocity P-wave (km/s) = 5.58235 6.64036 6.13420
#
# Compressibility (1/GPa) = 0.02028034
#
# Stress axis : x y z
#
# Youngs Moduli (GPa) = 113.12312 76.98988 99.84965
#
# Poissons Ratio (x) = 0.13309 0.25236
# Poissons Ratio (y) = 0.19556 0.15233
# Poissons Ratio (z) = 0.28591 0.11745
#
# Static dielectric constant tensor:
#      x y z
#    x 1.791470 0.000000 0.000000 
#    y 0.000000 1.893570 0.000000 
#    z 0.000000 0.000000 1.871400 
# 
# From -- ./inp_files/23587.got.cif
#   From: 2010.05.17/outbox.cif.g08.bks.cpg/sg52_12_cif.got.tgz:23587.got - 2010.06.03 12:15:38.
