data_PCOD9408816
_publ_section_title
;
Structure prediction by ZEFSAII (Michael W. Deem and Ramdas Pophale) SiO2 
 PCOD9408816
Probable space group: P N N A
;
_chemical_formula_sum "Si O2"
_cell_formula_units_Z 48
_cell_length_a 5.267008
_cell_length_b 17.561557
_cell_length_c 21.777489
_cell_angle_alpha 90.000000
_cell_angle_beta 90.000000
_cell_angle_gamma 90.000000
_cell_volume 2014.349378
_symmetry_space_group_name_H-M "P N N A"
_symmetry_group_IT_number 52
_symmetry_cell_setting 'orthorhombic'
loop_
_space_group_symop_operation_xyz
x,y,z
1/2-x,-y,z
x,1/2-y,1/2-z
1/2-x,1/2+y,1/2-z
-x,-y,-z
1/2+x,y,-z
-x,1/2+y,1/2+z
1/2+x,1/2-y,1/2+z
loop_
_atom_site_type_symbol
_atom_site_label
_atom_site_fract_x
_atom_site_fract_y
_atom_site_fract_z
Si Si1 0.814847 0.348566 0.655415
Si Si2 0.195046 0.661490 0.732974
Si Si3 0.873384 0.895648 0.969553
Si Si4 0.163395 0.925537 0.433840
Si Si5 0.343612 0.385485 0.868727
Si Si6 0.851260 0.769896 0.565879
O O1 0.082836 0.363596 0.686678
O O2 0.731532 0.403707 0.599462
O O3 0.818884 0.266052 0.621038
O O4 0.583220 0.347145 0.703324
O O5 0.236426 0.750000 0.750000
O O6 0.211325 0.617861 0.797272
O O7 0.903988 0.803049 0.975234
O O8 0.152579 0.923046 0.985420
O O9 0.384814 0.924508 0.381842
O O10 0.217499 0.843111 0.464330
O O11 0.888579 0.921889 0.404933
O O12 0.250000 0.000000 0.471075
O O13 0.403111 0.302364 0.898345
#
# Coordination Sequence:
#
# PCOD9408816 Si02
#       6
#     8   8   8   8   8   8
#     4  10  21  28  45  69  91 121 153 185 230 279
#     4  12  17  29  45  67  99 116 140 189 229 273
#     4  10  20  32  47  63  90 122 160 200 230 274
#     4  10  19  33  48  65  91 121 159 200 234 278
#     4  10  20  30  47  70  91 119 156 186 236 279
#     4   8  21  30  47  68  89 112 169 188 234 273
#
# _framework density 23.829032000000002
#
# number of rings (size 3 to 8) (size 9 to 14) (size 15 to 20)
#    2.000    0.000    1.667    4.000    2.333    0.000 
#    0.000    0.000    0.000    1.000    0.000    0.000 
#    0.000    0.000    0.000    0.000    0.000  210.000 
#
# Total GULP energy -267869.504667 kJ/mol
# GULP energy per Si atom -5580.614681 kJ/mol
# Density = 2.377480 g / cm^3
# Si number density = 23.829032 Si / 1000 Ang^3
#
#
#
# Elastic Constant Matrix: (Units=GPa)
#
#
# Indices 1 2 3 4 5 6 
#
# 1 138.1324 27.9559 27.5419 0.0000 0.0000 0.0000
# 2 27.9559 84.6787 11.5622 0.0000 0.0000 0.0000
# 3 27.5419 11.5622 90.4880 0.0000 0.0000 0.0000
# 4 0.0000 0.0000 0.0000 -11.9608 0.0000 0.0000
# 5 0.0000 0.0000 0.0000 0.0000 52.9804 0.0000
# 6 0.0000 0.0000 0.0000 0.0000 0.0000 20.9431
#
#
#
# Elastic Compliance Matrix: (Units=1/GPa)
#
#
# Indices 1 2 3 4 5 6 
#
# 1 0.008158 -0.002396 -0.002177 0.000000 0.000000 0.000000
# 2 -0.002396 0.012723 -0.000896 0.000000 0.000000 0.000000
# 3 -0.002177 -0.000896 0.011828 0.000000 0.000000 0.000000
# 4 0.000000 0.000000 0.000000 -0.083606 0.000000 0.000000
# 5 0.000000 0.000000 0.000000 0.000000 0.018875 0.000000
# 6 0.000000 0.000000 0.000000 0.000000 0.000000 0.047748
#
#
# Mechanical properties :
#
#
# Convention : Reuss Voigt Hill
#
# Bulk Modulus (GPa) = 45.93369 49.71324 47.82346
# Shear Modulus (GPa) = 147.39474 28.80848 88.10161
#
# Velocity S-wave (km/s) = 7.87333 3.48079 6.08709
# Velocity P-wave (km/s) = 10.09806 6.08788 8.33766
#
# Compressibility (1/GPa) = 0.02177051
#
# Stress axis : x y z
#
# Youngs Moduli (GPa) = 122.57223 78.59897 84.54271
#
# Poissons Ratio (x) = 0.18834 0.18405
# Poissons Ratio (y) = 0.29371 0.07578
# Poissons Ratio (z) = 0.26684 0.07045
#
# Static dielectric constant tensor:
#      x y z
#    x 1.871570 0.000000 0.000000 
#    y 0.000000 2.099110 0.000000 
#    z 0.000000 0.000000 1.885830 
# 
# From -- ./inp_files/35231.got.cif
#   From: 2010.05.17/outbox.cif.g08.bks.cpg/sg52_18_cif.got.tgz:35231.got - 2010.06.03 12:15:38.
