data_PCOD9408003
_publ_section_title
;
Structure prediction by ZEFSAII (Michael W. Deem and Ramdas Pophale) SiO2 
 PCOD9408003
Probable space group: P N N A
;
_chemical_formula_sum "Si O2"
_cell_formula_units_Z 60
_cell_length_a 15.575711
_cell_length_b 19.664523
_cell_length_c 12.494492
_cell_angle_alpha 90.000000
_cell_angle_beta 90.000000
_cell_angle_gamma 90.000000
_cell_volume 3826.924551
_symmetry_space_group_name_H-M "P N N A"
_symmetry_group_IT_number 52
_symmetry_cell_setting 'orthorhombic'
loop_
_space_group_symop_operation_xyz
x,y,z
1/2-x,-y,z
x,1/2-y,1/2-z
1/2-x,1/2+y,1/2-z
-x,-y,-z
1/2+x,y,-z
-x,1/2+y,1/2+z
1/2+x,1/2-y,1/2+z
loop_
_atom_site_type_symbol
_atom_site_label
_atom_site_fract_x
_atom_site_fract_y
_atom_site_fract_z
Si Si1 0.059908 0.994384 0.836044
Si Si2 0.250000 0.500000 0.578081
Si Si3 0.008983 0.386856 0.503126
Si Si4 0.361610 0.353433 0.161206
Si Si5 0.197833 0.430721 0.204242
Si Si6 0.693520 0.370639 0.561870
Si Si7 0.362364 0.203245 0.095814
Si Si8 0.463138 0.491479 0.118463
O O1 0.162317 0.991104 0.855092
O O2 0.031824 0.996691 0.713224
O O3 0.022487 0.060616 0.898190
O O4 0.016629 0.932193 0.900542
O O5 0.267756 0.565045 0.502750
O O6 0.101220 0.352582 0.485671
O O7 0.933106 0.335136 0.526600
O O8 0.265133 0.381991 0.144153
O O9 0.377730 0.283490 0.099691
O O10 0.368373 0.331023 0.285875
O O11 0.424215 0.415687 0.134337
O O12 0.250000 0.500000 0.229990
O O13 0.177828 0.394991 0.316619
O O14 0.114175 0.455201 0.141263
O O15 0.765767 0.313227 0.559010
O O16 0.500000 0.500000 0.000000
#
# Coordination Sequence:
#
# PCOD9408003 Si02
#       8
#     8   4   8   8   8   8   8   8
#     4  10  19  31  50  82 111 134 177 224 273 315
#     4  10  18  28  50  84 114 134 162 222 282 332
#     4  10  18  29  54  82 111 134 167 228 286 324
#     4   9  20  35  54  77 104 140 178 229 266 319
#     4   9  17  31  53  75 101 129 179 224 260 307
#     4  10  17  27  53  85 104 137 163 218 287 329
#     4  10  18  34  54  79 112 136 175 217 287 335
#     4  11  21  37  55  76 105 149 189 223 255 305
#
# _framework density 15.678386
#
# number of rings (size 3 to 8) (size 9 to 14) (size 15 to 20)
#    0.000    2.133    4.667    0.000    0.000    0.000 
#    6.000    0.000    0.000    0.800    0.000    0.000 
#    0.000    0.000    0.000    0.000    0.000    0.000 
#
# Total GULP energy -334333.854213 kJ/mol
# GULP energy per Si atom -5572.230904 kJ/mol
# Density = 1.564270 g / cm^3
# Si number density = 15.678386 Si / 1000 Ang^3
#
#
#
# Elastic Constant Matrix: (Units=GPa)
#
#
# Indices 1 2 3 4 5 6 
#
# 1 107.3584 43.1930 46.2486 0.0000 0.0000 0.0000
# 2 43.1930 76.1659 25.8975 0.0000 0.0000 0.0000
# 3 46.2486 25.8975 89.3257 0.0000 0.0000 0.0000
# 4 0.0000 0.0000 0.0000 10.7071 0.0000 0.0000
# 5 0.0000 0.0000 0.0000 0.0000 22.5905 0.0000
# 6 0.0000 0.0000 0.0000 0.0000 0.0000 15.0501
#
#
#
# Elastic Compliance Matrix: (Units=1/GPa)
#
#
# Indices 1 2 3 4 5 6 
#
# 1 0.014186 -0.006154 -0.005561 0.000000 0.000000 0.000000
# 2 -0.006154 0.017235 -0.001810 0.000000 0.000000 0.000000
# 3 -0.005561 -0.001810 0.014599 0.000000 0.000000 0.000000
# 4 0.000000 0.000000 0.000000 0.093396 0.000000 0.000000
# 5 0.000000 0.000000 0.000000 0.000000 0.044266 0.000000
# 6 0.000000 0.000000 0.000000 0.000000 0.000000 0.066445
#
#
# Mechanical properties :
#
#
# Convention : Reuss Voigt Hill
#
# Bulk Modulus (GPa) = 52.71664 55.94757 54.33210
# Shear Modulus (GPa) = 17.63667 20.17026 18.90346
#
# Velocity S-wave (km/s) = 3.35760 3.59067 3.47609
# Velocity P-wave (km/s) = 6.98055 7.27685 7.13024
#
# Compressibility (1/GPa) = 0.01896934
#
# Stress axis : x y z
#
# Youngs Moduli (GPa) = 70.49219 58.02242 68.49824
#
# Poissons Ratio (x) = 0.35707 0.38089
# Poissons Ratio (y) = 0.43381 0.12401
# Poissons Ratio (z) = 0.39198 0.10505
#
# Static dielectric constant tensor:
#      x y z
#    x 1.533020 0.000000 0.000000 
#    y 0.000000 1.511100 0.000000 
#    z 0.000000 0.000000 1.505740 
# 
# From -- ./inp_files/19837.got.cif
#   From: 2010.05.17/outbox.cif.g08.bks.cpg/sg52_10_cif.got.tgz:19837.got - 2010.06.03 12:15:38.
