data_PCOD9408653
_publ_section_title
;
Structure prediction by ZEFSAII (Michael W. Deem and Ramdas Pophale) SiO2 
 PCOD9408653
Probable space group: P N N A
;
_chemical_formula_sum "Si O2"
_cell_formula_units_Z 60
_cell_length_a 12.808717
_cell_length_b 11.197626
_cell_length_c 18.289278
_cell_angle_alpha 90.000000
_cell_angle_beta 90.000000
_cell_angle_gamma 90.000000
_cell_volume 2623.180345
_symmetry_space_group_name_H-M "P N N A"
_symmetry_group_IT_number 52
_symmetry_cell_setting 'orthorhombic'
loop_
_space_group_symop_operation_xyz
x,y,z
1/2-x,-y,z
x,1/2-y,1/2-z
1/2-x,1/2+y,1/2-z
-x,-y,-z
1/2+x,y,-z
-x,1/2+y,1/2+z
1/2+x,1/2-y,1/2+z
loop_
_atom_site_type_symbol
_atom_site_label
_atom_site_fract_x
_atom_site_fract_y
_atom_site_fract_z
Si Si1 0.451653 0.239722 0.335420
Si Si2 0.596032 0.136239 0.699345
Si Si3 0.773158 0.374817 0.918199
Si Si4 0.377241 0.174273 0.674292
Si Si5 0.624188 0.500071 0.661980
Si Si6 0.750000 0.000000 0.242457
Si Si7 0.316826 0.623511 0.472544
Si Si8 0.674524 0.200055 0.130575
O O1 0.421254 0.250000 0.250000
O O2 0.387446 0.144763 0.383259
O O3 0.417474 0.371962 0.362567
O O4 0.575606 0.224678 0.342682
O O5 0.620255 0.250000 0.750000
O O6 0.694610 0.113634 0.649992
O O7 0.495276 0.160962 0.649065
O O8 0.574086 0.036606 0.760994
O O9 0.750000 0.500000 0.960296
O O10 0.741985 0.248507 0.955214
O O11 0.384763 0.250000 0.750000
O O12 0.336859 0.049985 0.704080
O O13 0.285411 0.230682 0.625943
O O14 0.750000 0.500000 0.674987
O O15 0.608055 0.405404 0.596256
O O16 0.800447 0.900923 0.190284
O O17 0.250000 0.500000 0.476234
O O18 0.358466 0.643155 0.553662
#
# Coordination Sequence:
#
# PCOD9408653 Si02
#       8
#     8   8   8   8   8   4   8   8
#     4  12  23  40  69 104 141 177 229 304 359 412
#     4  11  19  36  63  96 131 173 226 291 347 405
#     4  12  25  43  68 100 137 181 233 289 361 419
#     4   9  21  37  61  94 128 171 224 281 338 405
#     4  11  20  38  67 104 139 179 233 292 359 428
#     4  10  18  40  66  96 132 170 232 292 348 414
#     4  11  23  48  68  98 146 188 236 284 353 445
#     4  11  24  43  67 100 141 184 236 287 355 426
#
# _framework density 22.872999
#
# number of rings (size 3 to 8) (size 9 to 14) (size 15 to 20)
#    0.000    1.067    4.667    4.400    0.000    1.600 
#    3.600    0.667    0.000    0.000    0.000    0.000 
#    0.000    0.000    0.000    0.000    0.000    0.000 
#
# Total GULP energy -334940.201464 kJ/mol
# GULP energy per Si atom -5582.336691 kJ/mol
# Density = 2.282094 g / cm^3
# Si number density = 22.872999 Si / 1000 Ang^3
#
#
#
# Elastic Constant Matrix: (Units=GPa)
#
#
# Indices 1 2 3 4 5 6 
#
# 1 109.0134 25.1152 -1.5968 0.0000 0.0000 0.0000
# 2 25.1152 120.7949 17.0193 0.0000 0.0000 0.0000
# 3 -1.5968 17.0193 52.3449 0.0000 0.0000 0.0000
# 4 0.0000 0.0000 0.0000 18.0866 0.0000 0.0000
# 5 0.0000 0.0000 0.0000 0.0000 13.5125 0.0000
# 6 0.0000 0.0000 0.0000 0.0000 0.0000 22.7148
#
#
#
# Elastic Compliance Matrix: (Units=1/GPa)
#
#
# Indices 1 2 3 4 5 6 
#
# 1 0.009684 -0.002154 0.000996 0.000000 0.000000 0.000000
# 2 -0.002154 0.009155 -0.003042 0.000000 0.000000 0.000000
# 3 0.000996 -0.003042 0.020124 0.000000 0.000000 0.000000
# 4 0.000000 0.000000 0.000000 0.055289 0.000000 0.000000
# 5 0.000000 0.000000 0.000000 0.000000 0.074006 0.000000
# 6 0.000000 0.000000 0.000000 0.000000 0.000000 0.044024
#
#
# Mechanical properties :
#
#
# Convention : Reuss Voigt Hill
#
# Bulk Modulus (GPa) = 32.72063 40.35873 36.53968
# Shear Modulus (GPa) = 21.65722 26.97049 24.31386
#
# Velocity S-wave (km/s) = 3.08043 3.43759 3.26390
# Velocity P-wave (km/s) = 5.19504 5.78265 5.49670
#
# Compressibility (1/GPa) = 0.03056175
#
# Stress axis : x y z
#
# Youngs Moduli (GPa) = 103.26357 109.23069 49.69285
#
# Poissons Ratio (x) = 0.23525 -0.04948
# Poissons Ratio (y) = 0.22240 0.15118
# Poissons Ratio (z) = -0.10282 0.33232
#
# Static dielectric constant tensor:
#      x y z
#    x 1.901730 0.000000 0.000000 
#    y 0.000000 1.982330 0.000000 
#    z 0.000000 0.000000 1.846620 
# 
# From -- ./inp_files/36860.got.cif
#   From: 2010.05.17/outbox.cif.g08.bks.cpg/sg52_19_cif.got.tgz:36860.got - 2010.06.03 12:15:38.
