data_PCOD9408515
_publ_section_title
;
Structure prediction by ZEFSAII (Michael W. Deem and Ramdas Pophale) SiO2 
 PCOD9408515
Probable space group: P N N A
;
_chemical_formula_sum "Si O2"
_cell_formula_units_Z 64
_cell_length_a 15.209589
_cell_length_b 21.698931
_cell_length_c 9.320379
_cell_angle_alpha 90.000000
_cell_angle_beta 90.000000
_cell_angle_gamma 90.000000
_cell_volume 3076.021665
_symmetry_space_group_name_H-M "P N N A"
_symmetry_group_IT_number 52
_symmetry_cell_setting 'orthorhombic'
loop_
_space_group_symop_operation_xyz
x,y,z
1/2-x,-y,z
x,1/2-y,1/2-z
1/2-x,1/2+y,1/2-z
-x,-y,-z
1/2+x,y,-z
-x,1/2+y,1/2+z
1/2+x,1/2-y,1/2+z
loop_
_atom_site_type_symbol
_atom_site_label
_atom_site_fract_x
_atom_site_fract_y
_atom_site_fract_z
Si Si1 0.781575 0.272399 0.986360
Si Si2 0.965782 0.255328 0.582590
Si Si3 0.960767 0.612356 0.400262
Si Si4 0.242420 0.342148 0.309040
Si Si5 0.917240 0.574497 0.702477
Si Si6 0.507833 0.927533 0.472713
Si Si7 0.623635 0.338692 0.126038
Si Si8 0.619352 0.559987 0.774903
O O1 0.886043 0.269363 0.013419
O O2 0.766137 0.306500 0.835484
O O3 0.753654 0.202042 0.946256
O O4 0.718265 0.309522 0.093460
O O5 0.935313 0.250000 0.750000
O O6 0.989081 0.325648 0.548927
O O7 0.053439 0.214797 0.585683
O O8 0.933648 0.571037 0.533550
O O9 0.887916 0.638711 0.289903
O O10 0.028150 0.573656 0.305355
O O11 0.144299 0.366019 0.289306
O O12 0.306365 0.401162 0.304807
O O13 0.868757 0.513367 0.763554
O O14 0.002706 0.583064 0.802728
O O15 0.419330 0.894322 0.533037
O O16 0.595315 0.913179 0.566074
O O17 0.500000 0.000000 0.500000
#
# Coordination Sequence:
#
# PCOD9408515 Si02
#       8
#     8   8   8   8   8   8   8   8
#     4  11  19  34  60  89 120 159 212 260 306 370
#     4  10  18  35  59  86 116 162 205 255 309 380
#     4  10  20  37  59  87 121 160 203 248 317 382
#     4  11  20  34  58  90 116 154 210 259 310 374
#     4  11  21  35  60  91 119 156 203 258 312 379
#     4   9  19  35  56  85 118 149 199 252 300 370
#     4  10  20  35  60  88 118 161 207 252 317 373
#     4  10  20  38  61  84 118 163 205 253 314 383
#
# _framework density 20.806096
#
# number of rings (size 3 to 8) (size 9 to 14) (size 15 to 20)
#    0.000    1.750    3.750    3.000    0.000    0.000 
#    0.000    0.000    5.500    4.500    6.500    0.000 
#    0.000    0.000    0.000    0.000    0.000    0.000 
#
# Total GULP energy -356611.178501 kJ/mol
# GULP energy per Si atom -5572.049664 kJ/mol
# Density = 2.075874 g / cm^3
# Si number density = 20.806096 Si / 1000 Ang^3
#
#
#
# Elastic Constant Matrix: (Units=GPa)
#
#
# Indices 1 2 3 4 5 6 
#
# 1 41.8446 -6.2853 9.4662 0.0000 0.0000 0.0000
# 2 -6.2853 70.9489 2.8289 0.0000 0.0000 0.0000
# 3 9.4662 2.8289 62.4350 0.0000 0.0000 0.0000
# 4 0.0000 0.0000 0.0000 26.0664 0.0000 0.0000
# 5 0.0000 0.0000 0.0000 0.0000 -12.1800 0.0000
# 6 0.0000 0.0000 0.0000 0.0000 0.0000 36.7427
#
#
#
# Elastic Compliance Matrix: (Units=1/GPa)
#
#
# Indices 1 2 3 4 5 6 
#
# 1 0.025143 0.002384 -0.003920 0.000000 0.000000 0.000000
# 2 0.002384 0.014346 -0.001011 0.000000 0.000000 0.000000
# 3 -0.003920 -0.001011 0.016657 0.000000 0.000000 0.000000
# 4 0.000000 0.000000 0.000000 0.038364 0.000000 0.000000
# 5 0.000000 0.000000 0.000000 0.000000 -0.082102 0.000000
# 6 0.000000 0.000000 0.000000 0.000000 0.000000 0.027216
#
#
# Mechanical properties :
#
#
# Convention : Reuss Voigt Hill
#
# Bulk Modulus (GPa) = 19.58859 20.80535 20.19697
# Shear Modulus (GPa) = 80.98956 21.40706 51.19831
#
# Velocity S-wave (km/s) = 6.24583 3.21110 4.96596
# Velocity P-wave (km/s) = 7.83895 4.87541 6.52758
#
# Compressibility (1/GPa) = 0.05105013
#
# Stress axis : x y z
#
# Youngs Moduli (GPa) = 39.77285 69.70513 60.03539
#
# Poissons Ratio (x) = -0.16616 0.23534
# Poissons Ratio (y) = -0.09481 0.06072
# Poissons Ratio (z) = 0.15591 0.07050
#
# Static dielectric constant tensor:
#      x y z
#    x 1.794160 0.000000 0.000000 
#    y 0.000000 1.811080 0.000000 
#    z 0.000000 0.000000 1.913850 
# 
# From -- ./inp_files/11008.got.cif
#   From: 2010.05.17/outbox.cif.g08.bks.cpg/sg52_6_cif.got.tgz:11008.got - 2010.06.03 12:15:38.
