data_PCOD9408051
_publ_section_title
;
Structure prediction by ZEFSAII (Michael W. Deem and Ramdas Pophale) SiO2 
 PCOD9408051
Probable space group: P N N A
;
_chemical_formula_sum "Si O2"
_cell_formula_units_Z 56
_cell_length_a 20.583982
_cell_length_b 15.186806
_cell_length_c 9.243185
_cell_angle_alpha 90.000000
_cell_angle_beta 90.000000
_cell_angle_gamma 90.000000
_cell_volume 2889.465305
_symmetry_space_group_name_H-M "P N N A"
_symmetry_group_IT_number 52
_symmetry_cell_setting 'orthorhombic'
loop_
_space_group_symop_operation_xyz
x,y,z
1/2-x,-y,z
x,1/2-y,1/2-z
1/2-x,1/2+y,1/2-z
-x,-y,-z
1/2+x,y,-z
-x,1/2+y,1/2+z
1/2+x,1/2-y,1/2+z
loop_
_atom_site_type_symbol
_atom_site_label
_atom_site_fract_x
_atom_site_fract_y
_atom_site_fract_z
Si Si1 0.519677 0.620870 0.356535
Si Si2 0.836775 0.765668 0.575072
Si Si3 0.015081 0.184594 0.450258
Si Si4 0.085503 0.651124 0.190668
Si Si5 0.271873 0.401453 0.138801
Si Si6 0.715871 0.417579 0.548324
Si Si7 0.914223 0.486736 0.557140
O O1 0.516934 0.720599 0.411560
O O2 0.499567 0.624137 0.189381
O O3 0.583352 0.566641 0.405567
O O4 0.464583 0.566659 0.440831
O O5 0.845067 0.750000 0.750000
O O6 0.907955 0.799362 0.527903
O O7 0.778731 0.835526 0.564197
O O8 0.811937 0.676290 0.496134
O O9 0.976076 0.149048 0.585934
O O10 0.094866 0.750000 0.250000
O O11 0.152851 0.621264 0.114503
O O12 0.071572 0.585825 0.322487
O O13 0.250000 0.500000 0.101240
O O14 0.259990 0.392753 0.313161
O O15 0.750000 0.500000 0.464629
O O16 0.651779 0.466838 0.602241
#
# Coordination Sequence:
#
# PCOD9408051 Si02
#       7
#     8   8   8   8   8   8   8
#     4  10  21  37  56  80 115 166 191 234 292 377
#     4  10  18  33  57  78 114 159 199 232 291 371
#     4  11  21  37  57  86 121 158 198 233 311 370
#     4  12  23  35  57  96 120 145 193 265 301 342
#     4  10  20  34  54  85 118 150 191 247 303 347
#     4  10  17  30  56  87 111 145 200 250 291 347
#     4  11  20  36  58  85 118 146 204 247 297 348
#
# _framework density 19.380748000000001
#
# number of rings (size 3 to 8) (size 9 to 14) (size 15 to 20)
#    0.000    1.429    7.143    2.143    0.000    0.571 
#    0.000    0.000    0.000    0.857    7.429    0.000 
#    0.000    0.000    0.000    0.000    0.000    0.000 
#
# Total GULP energy -311826.195607 kJ/mol
# GULP energy per Si atom -5568.324922 kJ/mol
# Density = 1.933664 g / cm^3
# Si number density = 19.380748 Si / 1000 Ang^3
#
#
#
# Elastic Constant Matrix: (Units=GPa)
#
#
# Indices 1 2 3 4 5 6 
#
# 1 96.1966 34.9883 24.1306 0.0000 0.0000 0.0000
# 2 34.9883 93.3967 34.3945 0.0000 0.0000 0.0000
# 3 24.1306 34.3945 23.5831 0.0000 0.0000 0.0000
# 4 0.0000 0.0000 0.0000 12.5059 0.0000 0.0000
# 5 0.0000 0.0000 0.0000 0.0000 14.2591 0.0000
# 6 0.0000 0.0000 0.0000 0.0000 0.0000 25.7547
#
#
#
# Elastic Compliance Matrix: (Units=1/GPa)
#
#
# Indices 1 2 3 4 5 6 
#
# 1 0.013985 0.000066 -0.014406 0.000000 0.000000 0.000000
# 2 0.000066 0.023130 -0.033802 0.000000 0.000000 0.000000
# 3 -0.014406 -0.033802 0.106442 0.000000 0.000000 0.000000
# 4 0.000000 0.000000 0.000000 0.079962 0.000000 0.000000
# 5 0.000000 0.000000 0.000000 0.000000 0.070131 0.000000
# 6 0.000000 0.000000 0.000000 0.000000 0.000000 0.038828
#
#
# Mechanical properties :
#
#
# Convention : Reuss Voigt Hill
#
# Bulk Modulus (GPa) = 21.15350 44.46702 32.81026
# Shear Modulus (GPa) = 11.24812 18.48148 14.86480
#
# Velocity S-wave (km/s) = 2.41171 3.09139 2.77246
# Velocity P-wave (km/s) = 4.32360 5.97796 5.21678
#
# Compressibility (1/GPa) = 0.04727349
#
# Stress axis : x y z
#
# Youngs Moduli (GPa) = 71.50485 43.23372 9.39480
#
# Poissons Ratio (x) = -0.00286 0.13534
# Poissons Ratio (y) = -0.00473 0.31756
# Poissons Ratio (z) = 1.03012 1.46137
#
# Static dielectric constant tensor:
#      x y z
#    x 1.751460 0.000000 0.000000 
#    y 0.000000 1.911390 0.000000 
#    z 0.000000 0.000000 1.706970 
# 
# From -- ./inp_files/13427.got.cif
#   From: 2010.05.17/outbox.cif.g08.bks.cpg/sg52_7_cif.got.tgz:13427.got - 2010.06.03 12:15:38.
