data_PCOD9408690
_publ_section_title
;
Structure prediction by ZEFSAII (Michael W. Deem and Ramdas Pophale) SiO2 
 PCOD9408690
Probable space group: P N N A
;
_chemical_formula_sum "Si O2"
_cell_formula_units_Z 24
_cell_length_a 27.204117
_cell_length_b 5.088265
_cell_length_c 6.848853
_cell_angle_alpha 90.000000
_cell_angle_beta 90.000000
_cell_angle_gamma 90.000000
_cell_volume 948.030261
_symmetry_space_group_name_H-M "P N N A"
_symmetry_group_IT_number 52
_symmetry_cell_setting 'orthorhombic'
loop_
_space_group_symop_operation_xyz
x,y,z
1/2-x,-y,z
x,1/2-y,1/2-z
1/2-x,1/2+y,1/2-z
-x,-y,-z
1/2+x,y,-z
-x,1/2+y,1/2+z
1/2+x,1/2-y,1/2+z
loop_
_atom_site_type_symbol
_atom_site_label
_atom_site_fract_x
_atom_site_fract_y
_atom_site_fract_z
Si Si1 0.904846 0.185719 0.484168
Si Si2 0.548139 0.318975 0.477780
Si Si3 0.803023 0.499564 0.107508
O O1 0.910293 0.250000 0.250000
O O2 0.910355 0.481973 0.557966
O O3 0.852218 0.051986 0.513371
O O4 0.945909 0.977122 0.557341
O O5 0.554800 0.250000 0.250000
O O6 0.500000 0.500000 0.500000
O O7 0.750000 0.500000 0.002442
O O8 0.799510 0.250000 0.250000
O O9 0.809627 0.750000 0.250000
#
# Coordination Sequence:
#
# PCOD9408690 Si02
#       3
#     8   8   8
#     4   9  16  27  41  59  84 113 142 175 216 262
#     4  10  19  30  44  61  84 114 147 182 221 265
#     4   9  15  23  37  58  84 113 140 167 207 263
#
# _framework density 25.315645
#
# number of rings (size 3 to 8) (size 9 to 14) (size 15 to 20)
#    0.000    2.667    0.000    6.000    0.000    0.000 
#    0.000    0.000    0.000    0.000    0.000    0.000 
#    0.000    5.333    0.000    0.000    0.000    0.000 
#
# Total GULP energy -133773.356635 kJ/mol
# GULP energy per Si atom -5573.889860 kJ/mol
# Density = 2.525803 g / cm^3
# Si number density = 25.315645 Si / 1000 Ang^3
#
#
#
# Elastic Constant Matrix: (Units=GPa)
#
#
# Indices 1 2 3 4 5 6 
#
# 1 183.9233 68.8577 0.8553 0.0000 0.0000 0.0000
# 2 68.8577 213.1744 27.7282 0.0000 0.0000 0.0000
# 3 0.8553 27.7282 79.7240 0.0000 0.0000 0.0000
# 4 0.0000 0.0000 0.0000 -8.7131 0.0000 0.0000
# 5 0.0000 0.0000 0.0000 0.0000 16.7518 0.0000
# 6 0.0000 0.0000 0.0000 0.0000 0.0000 40.9295
#
#
#
# Elastic Compliance Matrix: (Units=1/GPa)
#
#
# Indices 1 2 3 4 5 6 
#
# 1 0.006218 -0.002095 0.000662 0.000000 0.000000 0.000000
# 2 -0.002095 0.005619 -0.001932 0.000000 0.000000 0.000000
# 3 0.000662 -0.001932 0.013208 0.000000 0.000000 0.000000
# 4 0.000000 0.000000 0.000000 -0.114769 0.000000 0.000000
# 5 0.000000 0.000000 0.000000 0.000000 0.059695 0.000000
# 6 0.000000 0.000000 0.000000 0.000000 0.000000 0.024432
#
#
# Mechanical properties :
#
#
# Convention : Reuss Voigt Hill
#
# Bulk Modulus (GPa) = 54.59747 74.63380 64.61564
# Shear Modulus (GPa) = 690.84669 35.08567 362.96618
#
# Velocity S-wave (km/s) = 16.53740 3.72684 11.98697
# Velocity P-wave (km/s) = 19.65352 6.93285 14.73644
#
# Compressibility (1/GPa) = 0.01831587
#
# Stress axis : x y z
#
# Youngs Moduli (GPa) = 160.81931 177.97239 75.71144
#
# Poissons Ratio (x) = 0.37278 -0.05011
# Poissons Ratio (y) = 0.33685 0.14626
# Poissons Ratio (z) = -0.10643 0.34380
#
# Static dielectric constant tensor:
#      x y z
#    x 2.158290 0.000000 0.000000 
#    y 0.000000 1.977970 0.000000 
#    z 0.000000 0.000000 2.082540 
# 
# From -- ./inp_files/22542.got.cif
#   From: 2010.05.17/outbox.cif.g08.bks.cpg/sg52_12_cif.got.tgz:22542.got - 2010.06.03 12:15:38.
