data_PCOD9408880
_publ_section_title
;
Structure prediction by ZEFSAII (Michael W. Deem and Ramdas Pophale) SiO2 
 PCOD9408880
Probable space group: P N N A
;
_chemical_formula_sum "Si O2"
_cell_formula_units_Z 56
_cell_length_a 11.111944
_cell_length_b 11.793572
_cell_length_c 22.060673
_cell_angle_alpha 90.000000
_cell_angle_beta 90.000000
_cell_angle_gamma 90.000000
_cell_volume 2891.040423
_symmetry_space_group_name_H-M "P N N A"
_symmetry_group_IT_number 52
_symmetry_cell_setting 'orthorhombic'
loop_
_space_group_symop_operation_xyz
x,y,z
1/2-x,-y,z
x,1/2-y,1/2-z
1/2-x,1/2+y,1/2-z
-x,-y,-z
1/2+x,y,-z
-x,1/2+y,1/2+z
1/2+x,1/2-y,1/2+z
loop_
_atom_site_type_symbol
_atom_site_label
_atom_site_fract_x
_atom_site_fract_y
_atom_site_fract_z
Si Si1 0.513845 0.125109 0.420589
Si Si2 0.515072 0.136704 0.562852
Si Si3 0.640597 0.750000 0.750000
Si Si4 0.255683 0.366231 0.133734
Si Si5 0.591384 0.864099 0.055209
Si Si6 0.453724 0.835532 0.839639
Si Si7 0.750000 0.500000 0.350075
Si Si8 0.621248 0.973819 0.930858
O O1 0.547358 0.142174 0.491009
O O2 0.371346 0.149639 0.409805
O O3 0.572175 0.212271 0.371569
O O4 0.526136 0.988348 0.415125
O O5 0.632926 0.167728 0.601328
O O6 0.413902 0.231795 0.568403
O O7 0.718551 0.696013 0.803325
O O8 0.546816 0.831055 0.784349
O O9 0.250000 0.500000 0.145893
O O10 0.663990 0.926010 0.107265
O O11 0.454767 0.913669 0.052870
O O12 0.647158 0.901986 0.991435
O O13 0.337753 0.907826 0.819756
O O14 0.528918 0.901527 0.891168
O O15 0.750000 0.000000 0.901307
#
# Coordination Sequence:
#
# PCOD9408880 Si02
#       8
#     8   8   4   8   8   8   4   8
#     4   9  19  34  56  87 120 158 193 240 317 372
#     4  10  19  33  57  89 124 159 198 248 308 372
#     4  10  22  40  64  84 112 166 206 244 306 354
#     4   9  20  38  58  87 125 156 195 258 303 363
#     4  10  20  32  53  85 127 157 188 247 297 363
#     4  10  21  40  62  86 115 163 205 250 301 366
#     4  10  22  40  58  84 120 160 198 250 304 352
#     4  10  20  32  53  88 122 159 197 242 303 353
#
# _framework density 19.370187999999999
#
# number of rings (size 3 to 8) (size 9 to 14) (size 15 to 20)
#    0.000    2.286    2.143    0.000    4.000    1.714 
#    2.571    2.143    9.429    0.000    0.000    0.000 
#    0.000    0.000    0.000    0.000    0.000    0.000 
#
# Total GULP energy -311953.097668 kJ/mol
# GULP energy per Si atom -5570.591030 kJ/mol
# Density = 1.932610 g / cm^3
# Si number density = 19.370188 Si / 1000 Ang^3
#
#
#
# Elastic Constant Matrix: (Units=GPa)
#
#
# Indices 1 2 3 4 5 6 
#
# 1 60.4723 30.0874 24.7396 0.0000 0.0000 0.0000
# 2 30.0874 98.5270 19.7826 0.0000 0.0000 0.0000
# 3 24.7396 19.7826 77.7359 0.0000 0.0000 0.0000
# 4 0.0000 0.0000 0.0000 -2.5567 0.0000 0.0000
# 5 0.0000 0.0000 0.0000 0.0000 9.1871 0.0000
# 6 0.0000 0.0000 0.0000 0.0000 0.0000 29.0309
#
#
#
# Elastic Compliance Matrix: (Units=1/GPa)
#
#
# Indices 1 2 3 4 5 6 
#
# 1 0.021485 -0.005467 -0.005446 0.000000 0.000000 0.000000
# 2 -0.005467 0.012087 -0.001336 0.000000 0.000000 0.000000
# 3 -0.005446 -0.001336 0.014937 0.000000 0.000000 0.000000
# 4 0.000000 0.000000 0.000000 -0.391136 0.000000 0.000000
# 5 0.000000 0.000000 0.000000 0.000000 0.108848 0.000000
# 6 0.000000 0.000000 0.000000 0.000000 0.000000 0.034446
#
#
# Mechanical properties :
#
#
# Convention : Reuss Voigt Hill
#
# Bulk Modulus (GPa) = 41.64890 42.88383 42.26636
# Shear Modulus (GPa) = -29.97070 17.94064 -6.01503
#
# Velocity S-wave (km/s) = -3.93779 3.04665 -1.76410
# Velocity P-wave (km/s) = 0.93451 5.87905 4.20931
#
# Compressibility (1/GPa) = 0.02401024
#
# Stress axis : x y z
#
# Youngs Moduli (GPa) = 46.54453 82.73123 66.94629
#
# Poissons Ratio (x) = 0.45232 0.36460
# Poissons Ratio (y) = 0.25448 0.08944
# Poissons Ratio (z) = 0.25349 0.11053
#
# Static dielectric constant tensor:
#      x y z
#    x 1.679840 0.000000 0.000000 
#    y 0.000000 1.700330 0.000000 
#    z 0.000000 0.000000 1.686090 
# 
# From -- ./inp_files/40315.got.cif
#   From: 2010.05.17/outbox.cif.g08.bks.cpg/sg52_21_cif.got.tgz:40315.got - 2010.06.03 12:15:38.
