data_PCOD9408551
_publ_section_title
;
Structure prediction by ZEFSAII (Michael W. Deem and Ramdas Pophale) SiO2 
 PCOD9408551
Probable space group: P N N A
;
_chemical_formula_sum "Si O2"
_cell_formula_units_Z 52
_cell_length_a 8.597286
_cell_length_b 11.467286
_cell_length_c 26.786203
_cell_angle_alpha 90.000000
_cell_angle_beta 90.000000
_cell_angle_gamma 90.000000
_cell_volume 2640.785790
_symmetry_space_group_name_H-M "P N N A"
_symmetry_group_IT_number 52
_symmetry_cell_setting 'orthorhombic'
loop_
_space_group_symop_operation_xyz
x,y,z
1/2-x,-y,z
x,1/2-y,1/2-z
1/2-x,1/2+y,1/2-z
-x,-y,-z
1/2+x,y,-z
-x,1/2+y,1/2+z
1/2+x,1/2-y,1/2+z
loop_
_atom_site_type_symbol
_atom_site_label
_atom_site_fract_x
_atom_site_fract_y
_atom_site_fract_z
Si Si1 0.581596 0.656841 0.566855
Si Si2 0.025586 0.355095 0.284473
Si Si3 0.418098 0.057164 0.887907
Si Si4 0.768032 0.696779 0.852344
Si Si5 0.788324 0.734729 0.015612
Si Si6 0.989606 0.315965 0.070914
Si Si7 0.750000 0.500000 0.782787
O O1 0.549913 0.532060 0.592030
O O2 0.661494 0.741390 0.607015
O O3 0.687392 0.671394 0.517037
O O4 0.413414 0.703959 0.550663
O O5 0.955777 0.250000 0.250000
O O6 0.164077 0.293102 0.315226
O O7 0.109508 0.448711 0.249580
O O8 0.926204 0.413935 0.328601
O O9 0.455161 0.179478 0.915238
O O10 0.250000 0.000000 0.898519
O O11 0.919000 0.640528 0.880456
O O12 0.687766 0.601397 0.818599
O O13 0.676019 0.651598 0.047714
O O14 0.888968 0.669434 0.973910
#
# Coordination Sequence:
#
# PCOD9408551 Si02
#       7
#     8   8   8   8   8   8   4
#     4  10  19  31  48  78 107 141 170 207 248 302
#     4   9  19  35  54  76 102 133 168 215 268 312
#     4  11  20  31  49  76 111 139 170 211 259 309
#     4   9  19  33  56  78 101 132 172 216 260 302
#     4   9  18  30  49  72 111 144 169 201 246 312
#     4   9  18  31  47  75 106 143 168 205 250 299
#     4  10  18  36  60  76  94 128 182 220 256 320
#
# _framework density 19.691108
#
# number of rings (size 3 to 8) (size 9 to 14) (size 15 to 20)
#    0.000    2.462    1.538    0.923    0.000    8.615 
#    0.000    1.538    0.000   14.769    0.000    0.000 
#    0.000    0.000    0.000    0.000    0.000    0.000 
#
# Total GULP energy -289541.595212 kJ/mol
# GULP energy per Si atom -5568.107600 kJ/mol
# Density = 1.964629 g / cm^3
# Si number density = 19.691108 Si / 1000 Ang^3
#
#
#
# Elastic Constant Matrix: (Units=GPa)
#
#
# Indices 1 2 3 4 5 6 
#
# 1 77.1218 8.1941 22.6761 0.0000 0.0000 0.0000
# 2 8.1941 16.5466 16.7844 0.0000 0.0000 0.0000
# 3 22.6761 16.7844 102.1862 0.0000 0.0000 0.0000
# 4 0.0000 0.0000 0.0000 -11.4326 0.0000 0.0000
# 5 0.0000 0.0000 0.0000 0.0000 28.2547 0.0000
# 6 0.0000 0.0000 0.0000 0.0000 0.0000 7.5839
#
#
#
# Elastic Compliance Matrix: (Units=1/GPa)
#
#
# Indices 1 2 3 4 5 6 
#
# 1 0.014156 -0.004588 -0.002388 0.000000 0.000000 0.000000
# 2 -0.004588 0.074005 -0.011137 0.000000 0.000000 0.000000
# 3 -0.002388 -0.011137 0.012145 0.000000 0.000000 0.000000
# 4 0.000000 0.000000 0.000000 -0.087470 0.000000 0.000000
# 5 0.000000 0.000000 0.000000 0.000000 0.035392 0.000000
# 6 0.000000 0.000000 0.000000 0.000000 0.000000 0.131858
#
#
# Mechanical properties :
#
#
# Convention : Reuss Voigt Hill
#
# Bulk Modulus (GPa) = 15.60556 32.35152 23.97854
# Shear Modulus (GPa) = 21.03729 14.76123 17.89926
#
# Velocity S-wave (km/s) = 3.27213 2.74092 3.01824
# Velocity P-wave (km/s) = 4.71362 5.14607 4.93458
#
# Compressibility (1/GPa) = 0.06407973
#
# Stress axis : x y z
#
# Youngs Moduli (GPa) = 70.64118 13.51259 82.33662
#
# Poissons Ratio (x) = 0.06200 0.19660
# Poissons Ratio (y) = 0.32412 0.91702
# Poissons Ratio (z) = 0.16867 0.15050
#
# Static dielectric constant tensor:
#      x y z
#    x 1.713010 0.000000 0.000000 
#    y 0.000000 1.737070 0.000000 
#    z 0.000000 0.000000 1.718940 
# 
# From -- ./inp_files/42303.got.cif
#   From: 2010.05.17/outbox.cif.g08.bks.cpg/sg52_22_cif.got.tgz:42303.got - 2010.06.03 12:15:38.
