data_PCOD9408695
_publ_section_title
;
Structure prediction by ZEFSAII (Michael W. Deem and Ramdas Pophale) SiO2 
 PCOD9408695
Probable space group: P N N A
;
_chemical_formula_sum "Si O2"
_cell_formula_units_Z 44
_cell_length_a 19.835380
_cell_length_b 5.068403
_cell_length_c 27.991228
_cell_angle_alpha 90.000000
_cell_angle_beta 90.000000
_cell_angle_gamma 90.000000
_cell_volume 2814.061704
_symmetry_space_group_name_H-M "P N N A"
_symmetry_group_IT_number 52
_symmetry_cell_setting 'orthorhombic'
loop_
_space_group_symop_operation_xyz
x,y,z
1/2-x,-y,z
x,1/2-y,1/2-z
1/2-x,1/2+y,1/2-z
-x,-y,-z
1/2+x,y,-z
-x,1/2+y,1/2+z
1/2+x,1/2-y,1/2+z
loop_
_atom_site_type_symbol
_atom_site_label
_atom_site_fract_x
_atom_site_fract_y
_atom_site_fract_z
Si Si1 0.315219 0.865009 0.465601
Si Si2 0.169694 0.500036 0.782927
Si Si3 0.118771 0.897026 0.613152
Si Si4 0.402354 0.387186 0.465228
Si Si5 0.948835 0.590195 0.430212
Si Si6 0.750000 0.500000 0.057517
O O1 0.347432 0.597952 0.446509
O O2 0.287021 0.809303 0.519364
O O3 0.250000 0.000000 0.440976
O O4 0.370927 0.095912 0.468511
O O5 0.250000 0.500000 0.794154
O O6 0.154852 0.250000 0.750000
O O7 0.130204 0.517004 0.832456
O O8 0.155721 0.750000 0.750000
O O9 0.080975 0.127953 0.584338
O O10 0.077826 0.627960 0.606772
O O11 0.192832 0.866661 0.589283
O O12 0.470615 0.391768 0.434774
O O13 0.422366 0.490725 0.518090
#
# Coordination Sequence:
#
# PCOD9408695 Si02
#       6
#     8   8   8   8   8   4
#     4  10  19  30  46  63  93 120 163 191 233 257
#     4  10  21  36  49  68  90 116 151 203 255 285
#     4  12  21  34  49  69  88 123 162 205 238 274
#     4  11  19  32  43  66  95 120 154 200 225 275
#     4  11  21  31  47  65  91 123 156 190 244 270
#     4  10  20  30  46  70  88 118 168 208 224 274
#
# _framework density 15.635762
#
# number of rings (size 3 to 8) (size 9 to 14) (size 15 to 20)
#    0.545    0.727    4.545    2.727    0.000    5.091 
#    0.000    0.000    0.000    0.000    0.000    0.000 
#    0.000    0.000    0.000    0.000    0.000  229.091 
#
# Total GULP energy -245442.747749 kJ/mol
# GULP energy per Si atom -5578.244267 kJ/mol
# Density = 1.560017 g / cm^3
# Si number density = 15.635762 Si / 1000 Ang^3
#
#
#
# Elastic Constant Matrix: (Units=GPa)
#
#
# Indices 1 2 3 4 5 6 
#
# 1 81.4693 25.1907 36.3576 0.0000 0.0000 0.0000
# 2 25.1907 85.0929 10.8710 0.0000 0.0000 0.0000
# 3 36.3576 10.8710 35.4073 0.0000 0.0000 0.0000
# 4 0.0000 0.0000 0.0000 24.4512 0.0000 0.0000
# 5 0.0000 0.0000 0.0000 0.0000 11.1298 0.0000
# 6 0.0000 0.0000 0.0000 0.0000 0.0000 23.4608
#
#
#
# Elastic Compliance Matrix: (Units=1/GPa)
#
#
# Indices 1 2 3 4 5 6 
#
# 1 0.023964 -0.004112 -0.023345 0.000000 0.000000 0.000000
# 2 -0.004112 0.012937 0.000250 0.000000 0.000000 0.000000
# 3 -0.023345 0.000250 0.052137 0.000000 0.000000 0.000000
# 4 0.000000 0.000000 0.000000 0.040898 0.000000 0.000000
# 5 0.000000 0.000000 0.000000 0.000000 0.089848 0.000000
# 6 0.000000 0.000000 0.000000 0.000000 0.000000 0.042624
#
#
# Mechanical properties :
#
#
# Convention : Reuss Voigt Hill
#
# Bulk Modulus (GPa) = 28.88043 38.53424 33.70733
# Shear Modulus (GPa) = 15.22697 20.44503 17.83600
#
# Velocity S-wave (km/s) = 3.12405 3.61997 3.38112
# Velocity P-wave (km/s) = 5.61460 6.49390 6.07019
#
# Compressibility (1/GPa) = 0.03462553
#
# Stress axis : x y z
#
# Youngs Moduli (GPa) = 41.72885 77.29660 19.18007
#
# Poissons Ratio (x) = 0.31783 0.44776
# Poissons Ratio (y) = 0.17158 -0.00480
# Poissons Ratio (z) = 0.97416 -0.01934
#
# Static dielectric constant tensor:
#      x y z
#    x 1.549580 0.000000 0.000000 
#    y 0.000000 1.536080 0.000000 
#    z 0.000000 0.000000 1.497920 
# 
# From -- ./inp_files/40774.got.cif
#   From: 2010.05.17/outbox.cif.g08.bks.cpg/sg52_21_cif.got.tgz:40774.got - 2010.06.03 12:15:38.
