data_PCOD9408934
_publ_section_title
;
Structure prediction by ZEFSAII (Michael W. Deem and Ramdas Pophale) SiO2 
 PCOD9408934
Probable space group: P N N A
;
_chemical_formula_sum "Si O2"
_cell_formula_units_Z 52
_cell_length_a 9.019187
_cell_length_b 11.297039
_cell_length_c 25.873968
_cell_angle_alpha 90.000000
_cell_angle_beta 90.000000
_cell_angle_gamma 90.000000
_cell_volume 2636.301375
_symmetry_space_group_name_H-M "P N N A"
_symmetry_group_IT_number 52
_symmetry_cell_setting 'orthorhombic'
loop_
_space_group_symop_operation_xyz
x,y,z
1/2-x,-y,z
x,1/2-y,1/2-z
1/2-x,1/2+y,1/2-z
-x,-y,-z
1/2+x,y,-z
-x,1/2+y,1/2+z
1/2+x,1/2-y,1/2+z
loop_
_atom_site_type_symbol
_atom_site_label
_atom_site_fract_x
_atom_site_fract_y
_atom_site_fract_z
Si Si1 0.952463 0.820766 0.605337
Si Si2 0.644473 0.601845 0.516991
Si Si3 0.521488 0.807371 0.696330
Si Si4 0.789624 0.864268 0.390625
Si Si5 0.750000 0.000000 0.671292
Si Si6 0.286090 0.123357 0.132248
Si Si7 0.394186 0.736040 0.996702
O O1 0.864363 0.922908 0.636234
O O2 0.858944 0.701505 0.618013
O O3 0.942878 0.846316 0.543797
O O4 0.126886 0.806011 0.616891
O O5 0.750000 0.500000 0.493897
O O6 0.636178 0.585360 0.578355
O O7 0.485745 0.640202 0.496187
O O8 0.727096 0.726654 0.508959
O O9 0.472772 0.750000 0.750000
O O10 0.387413 0.853168 0.660857
O O11 0.644810 0.910534 0.702733
O O12 0.605720 0.705998 0.664116
O O13 0.885898 0.812319 0.438630
O O14 0.750000 0.000000 0.402229
O O15 0.250000 0.000000 0.159685
#
# Coordination Sequence:
#
# PCOD9408934 Si02
#       7
#     8   8   8   8   4   8   8
#     4  10  22  39  64  94 132 169 210 258 319 384
#     4  10  19  34  56  84 127 166 207 254 300 367
#     4  11  24  43  67  91 121 161 213 266 322 378
#     4  12  24  41  61  93 137 166 210 270 320 381
#     4  10  22  44  68  94 120 166 214 268 316 380
#     4   9  20  40  63  88 122 158 213 259 302 373
#     4  11  21  35  56  95 127 173 211 244 318 387
#
# _framework density 19.724602999999998
#
# number of rings (size 3 to 8) (size 9 to 14) (size 15 to 20)
#    0.000    1.538    4.615    0.462    2.154    0.615 
#    0.000    5.385    0.000    0.000    0.000    0.000 
#    0.000    0.000    0.000    0.000    0.000    0.000 
#
# Total GULP energy -289684.168551 kJ/mol
# GULP energy per Si atom -5570.849395 kJ/mol
# Density = 1.967971 g / cm^3
# Si number density = 19.724603 Si / 1000 Ang^3
#
#
#
# Elastic Constant Matrix: (Units=GPa)
#
#
# Indices 1 2 3 4 5 6 
#
# 1 88.5943 10.8266 16.9596 0.0000 0.0000 0.0000
# 2 10.8266 72.2552 9.2055 0.0000 0.0000 0.0000
# 3 16.9596 9.2055 69.9836 0.0000 0.0000 0.0000
# 4 0.0000 0.0000 0.0000 10.3711 0.0000 0.0000
# 5 0.0000 0.0000 0.0000 0.0000 19.1482 0.0000
# 6 0.0000 0.0000 0.0000 0.0000 0.0000 29.3669
#
#
#
# Elastic Compliance Matrix: (Units=1/GPa)
#
#
# Indices 1 2 3 4 5 6 
#
# 1 0.011984 -0.001450 -0.002713 0.000000 0.000000 0.000000
# 2 -0.001450 0.014251 -0.001523 0.000000 0.000000 0.000000
# 3 -0.002713 -0.001523 0.015147 0.000000 0.000000 0.000000
# 4 0.000000 0.000000 0.000000 0.096422 0.000000 0.000000
# 5 0.000000 0.000000 0.000000 0.000000 0.052224 0.000000
# 6 0.000000 0.000000 0.000000 0.000000 0.000000 0.034052
#
#
# Mechanical properties :
#
#
# Convention : Reuss Voigt Hill
#
# Bulk Modulus (GPa) = 33.32336 33.86849 33.59593
# Shear Modulus (GPa) = 20.37024 24.70001 22.53512
#
# Velocity S-wave (km/s) = 3.21710 3.54254 3.38374
# Velocity P-wave (km/s) = 5.54352 5.82587 5.68645
#
# Compressibility (1/GPa) = 0.03000898
#
# Stress axis : x y z
#
# Youngs Moduli (GPa) = 83.44440 70.16977 66.01976
#
# Poissons Ratio (x) = 0.10174 0.17914
# Poissons Ratio (y) = 0.12099 0.10056
# Poissons Ratio (z) = 0.22642 0.10688
#
# Static dielectric constant tensor:
#      x y z
#    x 1.728780 0.000000 0.000000 
#    y 0.000000 1.769810 0.000000 
#    z 0.000000 0.000000 1.689240 
# 
# From -- ./inp_files/42301.got.cif
#   From: 2010.05.17/outbox.cif.g08.bks.cpg/sg52_22_cif.got.tgz:42301.got - 2010.06.03 12:15:38.
