data_PCOD9408822
_publ_section_title
;
Structure prediction by ZEFSAII (Michael W. Deem and Ramdas Pophale) SiO2 
 PCOD9408822
Probable space group: P N N A
;
_chemical_formula_sum "Si O2"
_cell_formula_units_Z 64
_cell_length_a 19.843072
_cell_length_b 7.975805
_cell_length_c 21.724328
_cell_angle_alpha 90.000000
_cell_angle_beta 90.000000
_cell_angle_gamma 90.000000
_cell_volume 3438.189319
_symmetry_space_group_name_H-M "P N N A"
_symmetry_group_IT_number 52
_symmetry_cell_setting 'orthorhombic'
loop_
_space_group_symop_operation_xyz
x,y,z
1/2-x,-y,z
x,1/2-y,1/2-z
1/2-x,1/2+y,1/2-z
-x,-y,-z
1/2+x,y,-z
-x,1/2+y,1/2+z
1/2+x,1/2-y,1/2+z
loop_
_atom_site_type_symbol
_atom_site_label
_atom_site_fract_x
_atom_site_fract_y
_atom_site_fract_z
Si Si1 0.507784 0.987241 0.099451
Si Si2 0.068930 0.979706 0.536871
Si Si3 0.280792 0.279965 0.423931
Si Si4 0.150062 0.414834 0.067839
Si Si5 0.317517 0.086332 0.209335
Si Si6 0.013354 0.396819 0.142725
Si Si7 0.395356 0.399754 0.499473
Si Si8 0.965268 0.057758 0.770814
O O1 0.497937 0.793099 0.119590
O O2 0.573961 0.005164 0.056530
O O3 0.507458 0.068209 0.166385
O O4 0.445043 0.053085 0.057746
O O5 0.092082 0.790976 0.522043
O O6 0.045036 0.000049 0.606682
O O7 0.120746 0.098894 0.501534
O O8 0.000000 0.000000 0.500000
O O9 0.201348 0.238130 0.422305
O O10 0.302792 0.360994 0.360118
O O11 0.318347 0.391437 0.475970
O O12 0.312676 0.093494 0.427816
O O13 0.088274 0.431532 0.115782
O O14 0.325054 0.250000 0.250000
O O15 0.389241 0.994361 0.213112
O O16 0.250000 0.000000 0.233608
O O17 0.010408 0.442248 0.214383
O O18 0.961695 0.250000 0.750000
#
# Coordination Sequence:
#
# PCOD9408822 Si02
#       8
#     8   8   8   8   8   8   8   8
#     4  10  20  34  52  74  99 140 169 225 273 317
#     4   8  16  30  51  76  99 133 168 219 262 307
#     4  10  19  33  50  72 101 139 176 215 258 316
#     4   9  18  30  53  74 103 134 175 218 258 306
#     4  11  25  35  46  65 102 145 184 214 254 301
#     4  10  20  33  52  75 104 136 181 215 264 322
#     4   9  18  34  51  70 103 134 174 213 271 312
#     4  11  23  36  51  72 103 141 182 223 271 316
#
# _framework density 18.614447999999999
#
# number of rings (size 3 to 8) (size 9 to 14) (size 15 to 20)
#    0.000    2.250    1.250    1.875    8.750    0.000 
#    0.000    0.000    0.000    0.000    0.000    0.000 
#    0.000   12.000    0.000    0.000    0.000    0.000 
#
# Total GULP energy -356407.473246 kJ/mol
# GULP energy per Si atom -5568.866769 kJ/mol
# Density = 1.857208 g / cm^3
# Si number density = 18.614448 Si / 1000 Ang^3
#
#
#
# Elastic Constant Matrix: (Units=GPa)
#
#
# Indices 1 2 3 4 5 6 
#
# 1 31.9582 8.5543 42.4751 0.0000 0.0000 0.0000
# 2 8.5543 25.8382 18.9299 0.0000 0.0000 0.0000
# 3 42.4751 18.9299 141.1536 0.0000 0.0000 0.0000
# 4 0.0000 0.0000 0.0000 25.2011 0.0000 0.0000
# 5 0.0000 0.0000 0.0000 0.0000 27.6203 0.0000
# 6 0.0000 0.0000 0.0000 0.0000 0.0000 17.6149
#
#
#
# Elastic Compliance Matrix: (Units=1/GPa)
#
#
# Indices 1 2 3 4 5 6 
#
# 1 0.053117 -0.006516 -0.015110 0.000000 0.000000 0.000000
# 2 -0.006516 0.043719 -0.003902 0.000000 0.000000 0.000000
# 3 -0.015110 -0.003902 0.012155 0.000000 0.000000 0.000000
# 4 0.000000 0.000000 0.000000 0.039681 0.000000 0.000000
# 5 0.000000 0.000000 0.000000 0.000000 0.036205 0.000000
# 6 0.000000 0.000000 0.000000 0.000000 0.000000 0.056770
#
#
# Mechanical properties :
#
#
# Convention : Reuss Voigt Hill
#
# Bulk Modulus (GPa) = 17.26086 37.65206 27.45646
# Shear Modulus (GPa) = 16.02494 22.68665 19.35579
#
# Velocity S-wave (km/s) = 2.93727 3.49487 3.22813
# Velocity P-wave (km/s) = 4.56030 6.04622 5.35505
#
# Compressibility (1/GPa) = 0.05793453
#
# Stress axis : x y z
#
# Youngs Moduli (GPa) = 18.82632 22.87356 82.27346
#
# Poissons Ratio (x) = 0.14904 1.24314
# Poissons Ratio (y) = 0.12267 0.32106
# Poissons Ratio (z) = 0.28446 0.08926
#
# Static dielectric constant tensor:
#      x y z
#    x 1.705330 0.000000 0.000000 
#    y 0.000000 1.994810 0.000000 
#    z 0.000000 0.000000 1.678500 
# 
# From -- ./inp_files/34137.got.cif
#   From: 2010.05.17/outbox.cif.g08.bks.cpg/sg52_18_cif.got.tgz:34137.got - 2010.06.03 12:15:38.
