data_PCOD9408112
_publ_section_title
;
Structure prediction by ZEFSAII (Michael W. Deem and Ramdas Pophale) SiO2 
 PCOD9408112
Probable space group: P N N A
;
_chemical_formula_sum "Si O2"
_cell_formula_units_Z 52
_cell_length_a 11.142853
_cell_length_b 9.390528
_cell_length_c 28.413035
_cell_angle_alpha 90.000000
_cell_angle_beta 90.000000
_cell_angle_gamma 90.000000
_cell_volume 2973.062503
_symmetry_space_group_name_H-M "P N N A"
_symmetry_group_IT_number 52
_symmetry_cell_setting 'orthorhombic'
loop_
_space_group_symop_operation_xyz
x,y,z
1/2-x,-y,z
x,1/2-y,1/2-z
1/2-x,1/2+y,1/2-z
-x,-y,-z
1/2+x,y,-z
-x,1/2+y,1/2+z
1/2+x,1/2-y,1/2+z
loop_
_atom_site_type_symbol
_atom_site_label
_atom_site_fract_x
_atom_site_fract_y
_atom_site_fract_z
Si Si1 0.408669 0.441418 0.192785
Si Si2 0.606873 0.522236 0.962600
Si Si3 0.626217 0.772553 0.891766
Si Si4 0.250000 0.000000 0.226229
Si Si5 0.893151 0.694248 0.877273
Si Si6 0.468733 0.964925 0.158387
Si Si7 0.625981 0.080516 0.242475
O O1 0.411547 0.318374 0.154334
O O2 0.323375 0.404162 0.236755
O O3 0.370217 0.584424 0.165432
O O4 0.536042 0.469138 0.216551
O O5 0.750000 0.500000 0.976543
O O6 0.596310 0.677242 0.937361
O O7 0.582792 0.406445 0.921588
O O8 0.500000 0.500000 0.000000
O O9 0.770363 0.777094 0.889180
O O10 0.567452 0.924966 0.882713
O O11 0.146928 0.060128 0.192638
O O12 0.992464 0.809940 0.863362
O O13 0.566959 0.035281 0.192508
O O14 0.637287 0.250000 0.250000
O O15 0.750000 0.000000 0.246832
#
# Coordination Sequence:
#
# PCOD9408112 Si02
#       7
#     8   8   8   4   8   8   8
#     4  10  19  32  51  76 108 149 189 228 261 316
#     4   9  20  39  63  84 111 141 183 238 296 368
#     4  10  17  35  54  84 115 138 177 234 289 330
#     4  10  18  26  52  80 118 138 182 212 270 322
#     4  10  19  33  56  87 113 136 180 229 294 336
#     4  11  21  32  53  81 113 146 182 232 278 324
#     4  11  25  38  48  67 110 161 204 229 264 316
#
# _framework density 17.490380999999999
#
# number of rings (size 3 to 8) (size 9 to 14) (size 15 to 20)
#    0.000    1.846    4.615    0.923    2.154    3.077 
#    0.000    5.385    0.000    0.000    0.000    0.000 
#    0.000    0.000    0.000    0.000    0.000    0.000 
#
# Total GULP energy -289596.316988 kJ/mol
# GULP energy per Si atom -5569.159942 kJ/mol
# Density = 1.745057 g / cm^3
# Si number density = 17.490381 Si / 1000 Ang^3
#
#
#
# Elastic Constant Matrix: (Units=GPa)
#
#
# Indices 1 2 3 4 5 6 
#
# 1 89.4227 21.9521 43.7673 0.0000 0.0000 0.0000
# 2 21.9521 95.9565 29.8017 0.0000 0.0000 0.0000
# 3 43.7673 29.8017 83.6382 0.0000 0.0000 0.0000
# 4 0.0000 0.0000 0.0000 4.5934 0.0000 0.0000
# 5 0.0000 0.0000 0.0000 0.0000 22.9060 0.0000
# 6 0.0000 0.0000 0.0000 0.0000 0.0000 19.1281
#
#
#
# Elastic Compliance Matrix: (Units=1/GPa)
#
#
# Indices 1 2 3 4 5 6 
#
# 1 0.015141 -0.001128 -0.007521 0.000000 0.000000 0.000000
# 2 -0.001128 0.011802 -0.003615 0.000000 0.000000 0.000000
# 3 -0.007521 -0.003615 0.017180 0.000000 0.000000 0.000000
# 4 0.000000 0.000000 0.000000 0.217705 0.000000 0.000000
# 5 0.000000 0.000000 0.000000 0.000000 0.043657 0.000000
# 6 0.000000 0.000000 0.000000 0.000000 0.000000 0.052279
#
#
# Mechanical properties :
#
#
# Convention : Reuss Voigt Hill
#
# Bulk Modulus (GPa) = 51.03391 51.11775 51.07583
# Shear Modulus (GPa) = 12.85928 20.89192 16.87560
#
# Velocity S-wave (km/s) = 2.71444 3.45987 3.10957
# Velocity P-wave (km/s) = 6.25027 6.72686 6.49294
#
# Compressibility (1/GPa) = 0.01959481
#
# Stress axis : x y z
#
# Youngs Moduli (GPa) = 66.04601 84.73008 58.20646
#
# Poissons Ratio (x) = 0.09557 0.43779
# Poissons Ratio (y) = 0.07449 0.21042
# Poissons Ratio (z) = 0.49675 0.30631
#
# Static dielectric constant tensor:
#      x y z
#    x 1.642370 0.000000 0.000000 
#    y 0.000000 1.673290 0.000000 
#    z 0.000000 0.000000 1.598260 
# 
# From -- ./inp_files/42721.got.cif
#   From: 2010.05.17/outbox.cif.g08.bks.cpg/sg52_22_cif.got.tgz:42721.got - 2010.06.03 12:15:38.
