data_PCOD9408350
_publ_section_title
;
Structure prediction by ZEFSAII (Michael W. Deem and Ramdas Pophale) SiO2 
 PCOD9408350
Probable space group: P N N A
;
_chemical_formula_sum "Si O2"
_cell_formula_units_Z 24
_cell_length_a 26.619575
_cell_length_b 5.141316
_cell_length_c 7.019617
_cell_angle_alpha 90.000000
_cell_angle_beta 90.000000
_cell_angle_gamma 90.000000
_cell_volume 960.702304
_symmetry_space_group_name_H-M "P N N A"
_symmetry_group_IT_number 52
_symmetry_cell_setting 'orthorhombic'
loop_
_space_group_symop_operation_xyz
x,y,z
1/2-x,-y,z
x,1/2-y,1/2-z
1/2-x,1/2+y,1/2-z
-x,-y,-z
1/2+x,y,-z
-x,1/2+y,1/2+z
1/2+x,1/2-y,1/2+z
loop_
_atom_site_type_symbol
_atom_site_label
_atom_site_fract_x
_atom_site_fract_y
_atom_site_fract_z
Si Si1 0.299808 0.672654 0.524156
Si Si2 0.551463 0.999455 0.616555
Si Si3 0.345982 0.177853 0.531140
O O1 0.250000 0.500000 0.495875
O O2 0.302307 0.750000 0.750000
O O3 0.342450 0.470606 0.451030
O O4 0.307884 0.963418 0.445068
O O5 0.555133 0.250000 0.750000
O O6 0.550713 0.750000 0.750000
O O7 0.500000 0.000000 0.500000
O O8 0.599993 0.956040 0.483070
O O9 0.333624 0.250000 0.750000
#
# Coordination Sequence:
#
# PCOD9408350 Si02
#       3
#     8   8   8
#     4  10  18  32  57  91 126 163 209 258 302 356
#     4  12  26  45  68  94 127 165 211 263 322 386
#     4  10  21  37  61  91 126 164 208 259 311 366
#
# _framework density 24.981724
#
# number of rings (size 3 to 8) (size 9 to 14) (size 15 to 20)
#    0.000    1.333    0.000    8.000    0.000    4.000 
#    0.000    0.000    0.000   20.000    0.000    0.000 
#    0.000    0.000    0.000    0.000    0.000    0.000 
#
# Total GULP energy -134055.071995 kJ/mol
# GULP energy per Si atom -5585.628000 kJ/mol
# Density = 2.492486 g / cm^3
# Si number density = 24.981724 Si / 1000 Ang^3
#
#
#
# Elastic Constant Matrix: (Units=GPa)
#
#
# Indices 1 2 3 4 5 6 
#
# 1 163.5739 77.4188 0.8441 0.0000 0.0000 0.0000
# 2 77.4188 269.0702 50.8695 0.0000 0.0000 0.0000
# 3 0.8441 50.8695 62.5482 0.0000 0.0000 0.0000
# 4 0.0000 0.0000 0.0000 23.2729 0.0000 0.0000
# 5 0.0000 0.0000 0.0000 0.0000 26.2336 0.0000
# 6 0.0000 0.0000 0.0000 0.0000 0.0000 45.7746
#
#
#
# Elastic Compliance Matrix: (Units=1/GPa)
#
#
# Indices 1 2 3 4 5 6 
#
# 1 0.007262 -0.002447 0.001892 0.000000 0.000000 0.000000
# 2 -0.002447 0.005216 -0.004209 0.000000 0.000000 0.000000
# 3 0.001892 -0.004209 0.019386 0.000000 0.000000 0.000000
# 4 0.000000 0.000000 0.000000 0.042968 0.000000 0.000000
# 5 0.000000 0.000000 0.000000 0.000000 0.038119 0.000000
# 6 0.000000 0.000000 0.000000 0.000000 0.000000 0.021846
#
#
# Mechanical properties :
#
#
# Convention : Reuss Voigt Hill
#
# Bulk Modulus (GPa) = 44.77224 83.71743 64.24484
# Shear Modulus (GPa) = 32.94428 43.46022 38.20225
#
# Velocity S-wave (km/s) = 3.63538 4.17547 3.91475
# Velocity P-wave (km/s) = 5.96508 7.53859 6.79752
#
# Compressibility (1/GPa) = 0.02233527
#
# Stress axis : x y z
#
# Youngs Moduli (GPa) = 137.70441 191.70122 51.58464
#
# Poissons Ratio (x) = 0.46913 -0.09761
# Poissons Ratio (y) = 0.33699 0.21714
# Poissons Ratio (z) = -0.26057 0.80695
#
# Static dielectric constant tensor:
#      x y z
#    x 2.333650 0.000000 0.000000 
#    y 0.000000 1.999800 0.000000 
#    z 0.000000 0.000000 2.064530 
# 
# From -- ./inp_files/14590.got.cif
#   From: 2010.05.17/outbox.cif.g08.bks.cpg/sg52_8_cif.got.tgz:14590.got - 2010.06.03 12:15:38.
