data_PCOD9408249
_publ_section_title
;
Structure prediction by ZEFSAII (Michael W. Deem and Ramdas Pophale) SiO2 
 PCOD9408249
Probable space group: P N N A
;
_chemical_formula_sum "Si O2"
_cell_formula_units_Z 48
_cell_length_a 30.088056
_cell_length_b 7.517973
_cell_length_c 8.573583
_cell_angle_alpha 90.000000
_cell_angle_beta 90.000000
_cell_angle_gamma 90.000000
_cell_volume 1939.354700
_symmetry_space_group_name_H-M "P N N A"
_symmetry_group_IT_number 52
_symmetry_cell_setting 'orthorhombic'
loop_
_space_group_symop_operation_xyz
x,y,z
1/2-x,-y,z
x,1/2-y,1/2-z
1/2-x,1/2+y,1/2-z
-x,-y,-z
1/2+x,y,-z
-x,1/2+y,1/2+z
1/2+x,1/2-y,1/2+z
loop_
_atom_site_type_symbol
_atom_site_label
_atom_site_fract_x
_atom_site_fract_y
_atom_site_fract_z
Si Si1 0.161425 0.993959 0.919674
Si Si2 0.345530 0.442766 0.920664
Si Si3 0.563810 0.435320 0.454693
Si Si4 0.016794 0.976806 0.248419
Si Si5 0.801616 0.462227 0.756899
Si Si6 0.941907 0.146113 0.452890
O O1 0.158387 0.775136 0.925666
O O2 0.176970 0.016620 0.738547
O O3 0.115101 0.105509 0.928548
O O4 0.185658 0.036298 0.084390
O O5 0.398817 0.466036 0.905850
O O6 0.328053 0.517232 0.085593
O O7 0.520411 0.375973 0.358514
O O8 0.547955 0.414914 0.631216
O O9 0.564932 0.647516 0.423466
O O10 0.049901 0.878515 0.364887
O O11 0.985075 0.086570 0.361565
O O12 0.750000 0.500000 0.783895
O O13 0.808632 0.250000 0.750000
#
# Coordination Sequence:
#
# PCOD9408249 Si02
#       6
#     8   8   8   8   8   8
#     4   9  17  32  55  79 101 130 173 222 268 310
#     4   9  17  32  55  79 101 130 173 222 268 310
#     4  10  18  31  47  71 103 133 175 226 259 294
#     4  10  19  26  46  74  96 134 170 207 269 302
#     4  10  21  36  58  86 108 134 172 219 275 334
#     4  10  18  31  47  71 103 133 175 226 259 294
#
# _framework density 24.750499000000001
#
# number of rings (size 3 to 8) (size 9 to 14) (size 15 to 20)
#    0.000    2.333    1.667    2.000    0.000    3.333 
#    0.000    0.000    0.000   20.000    0.000    0.000 
#    0.000    0.000    0.000    0.000    0.000    0.000 
#
# Total GULP energy -267775.872901 kJ/mol
# GULP energy per Si atom -5578.664019 kJ/mol
# Density = 2.469417 g / cm^3
# Si number density = 24.750499 Si / 1000 Ang^3
#
#
#
# Elastic Constant Matrix: (Units=GPa)
#
#
# Indices 1 2 3 4 5 6 
#
# 1 75.3364 1.2546 52.1454 0.0000 0.0000 0.0000
# 2 1.2546 44.4500 17.2930 0.0000 0.0000 0.0000
# 3 52.1454 17.2930 221.5820 0.0000 0.0000 0.0000
# 4 0.0000 0.0000 0.0000 20.1840 0.0000 0.0000
# 5 0.0000 0.0000 0.0000 0.0000 26.6725 0.0000
# 6 0.0000 0.0000 0.0000 0.0000 0.0000 19.2984
#
#
#
# Elastic Compliance Matrix: (Units=1/GPa)
#
#
# Indices 1 2 3 4 5 6 
#
# 1 0.015903 0.001039 -0.003824 0.000000 0.000000 0.000000
# 2 0.001039 0.023269 -0.002060 0.000000 0.000000 0.000000
# 3 -0.003824 -0.002060 0.005574 0.000000 0.000000 0.000000
# 4 0.000000 0.000000 0.000000 0.049544 0.000000 0.000000
# 5 0.000000 0.000000 0.000000 0.000000 0.037492 0.000000
# 6 0.000000 0.000000 0.000000 0.000000 0.000000 0.051818
#
#
# Mechanical properties :
#
#
# Convention : Reuss Voigt Hill
#
# Bulk Modulus (GPa) = 28.52627 53.63939 41.08283
# Shear Modulus (GPa) = 24.39313 31.27600 27.83456
#
# Velocity S-wave (km/s) = 3.14277 3.55864 3.35715
# Velocity P-wave (km/s) = 4.97191 6.21324 5.62691
#
# Compressibility (1/GPa) = 0.03505541
#
# Stress axis : x y z
#
# Youngs Moduli (GPa) = 62.88101 42.97478 179.41680
#
# Poissons Ratio (x) = -0.04464 0.68601
# Poissons Ratio (y) = -0.06531 0.36968
# Poissons Ratio (z) = 0.24043 0.08855
#
# Static dielectric constant tensor:
#      x y z
#    x 1.934620 0.000000 0.000000 
#    y 0.000000 1.606760 0.000000 
#    z 0.000000 0.000000 2.025300 
# 
# From -- ./inp_files/14938.got.cif
#   From: 2010.05.17/outbox.cif.g08.bks.cpg/sg52_8_cif.got.tgz:14938.got - 2010.06.03 12:15:38.
