data_PCOD9408231
_publ_section_title
;
Structure prediction by ZEFSAII (Michael W. Deem and Ramdas Pophale) SiO2 
 PCOD9408231
Probable space group: P N N A
;
_chemical_formula_sum "Si O2"
_cell_formula_units_Z 32
_cell_length_a 15.140582
_cell_length_b 8.443692
_cell_length_c 12.992394
_cell_angle_alpha 90.000000
_cell_angle_beta 90.000000
_cell_angle_gamma 90.000000
_cell_volume 1660.978975
_symmetry_space_group_name_H-M "P N N A"
_symmetry_group_IT_number 52
_symmetry_cell_setting 'orthorhombic'
loop_
_space_group_symop_operation_xyz
x,y,z
1/2-x,-y,z
x,1/2-y,1/2-z
1/2-x,1/2+y,1/2-z
-x,-y,-z
1/2+x,y,-z
-x,1/2+y,1/2+z
1/2+x,1/2-y,1/2+z
loop_
_atom_site_type_symbol
_atom_site_label
_atom_site_fract_x
_atom_site_fract_y
_atom_site_fract_z
Si Si1 0.652354 0.437416 0.460271
Si Si2 0.960113 0.064444 0.219921
Si Si3 0.816868 0.864841 0.340492
Si Si4 0.843980 0.572836 0.706412
O O1 0.750000 0.500000 0.429167
O O2 0.578225 0.532716 0.395612
O O3 0.650047 0.254449 0.426758
O O4 0.648652 0.442703 0.582790
O O5 0.954265 0.250000 0.250000
O O6 0.060362 0.007528 0.239371
O O7 0.896659 0.958494 0.289089
O O8 0.778048 0.750000 0.250000
O O9 0.750000 0.000000 0.376146
O O10 0.750000 0.500000 0.738220
O O11 0.842226 0.750000 0.750000
#
# Coordination Sequence:
#
# PCOD9408231 Si02
#       4
#     8   8   8   8
#     4  10  20  35  56  81 108 140 174 218 270 319
#     4  10  19  35  56  81 109 137 172 221 273 322
#     4  10  18  30  53  84 109 132 167 218 277 326
#     4  10  23  40  55  74 106 147 187 219 255 309
#
# _framework density 19.265746
#
# number of rings (size 3 to 8) (size 9 to 14) (size 15 to 20)
#    0.000    2.000    0.000    6.000    0.000    4.000 
#    0.000    5.000    0.000    0.000    0.000    0.000 
#    0.000    0.000    0.000    0.000    0.000    0.000 
#
# Total GULP energy -178346.416311 kJ/mol
# GULP energy per Si atom -5573.325510 kJ/mol
# Density = 1.922190 g / cm^3
# Si number density = 19.265746 Si / 1000 Ang^3
#
#
#
# Elastic Constant Matrix: (Units=GPa)
#
#
# Indices 1 2 3 4 5 6 
#
# 1 129.3275 36.5265 25.7797 0.0000 0.0000 0.0000
# 2 36.5265 89.1695 19.2794 0.0000 0.0000 0.0000
# 3 25.7797 19.2794 20.0341 0.0000 0.0000 0.0000
# 4 0.0000 0.0000 0.0000 15.3554 0.0000 0.0000
# 5 0.0000 0.0000 0.0000 0.0000 -17.3180 0.0000
# 6 0.0000 0.0000 0.0000 0.0000 0.0000 30.1693
#
#
#
# Elastic Compliance Matrix: (Units=1/GPa)
#
#
# Indices 1 2 3 4 5 6 
#
# 1 0.010615 -0.001761 -0.011964 0.000000 0.000000 0.000000
# 2 -0.001761 0.014453 -0.011642 0.000000 0.000000 0.000000
# 3 -0.011964 -0.011642 0.076513 0.000000 0.000000 0.000000
# 4 0.000000 0.000000 0.000000 0.065124 0.000000 0.000000
# 5 0.000000 0.000000 0.000000 0.000000 -0.057743 0.000000
# 6 0.000000 0.000000 0.000000 0.000000 0.000000 0.033146
#
#
# Mechanical properties :
#
#
# Convention : Reuss Voigt Hill
#
# Bulk Modulus (GPa) = 19.66704 44.63359 32.15031
# Shear Modulus (GPa) = 23.83316 16.10436 19.96876
#
# Velocity S-wave (km/s) = 3.52102 2.89434 3.22295
# Velocity P-wave (km/s) = 5.17306 5.86406 5.52937
#
# Compressibility (1/GPa) = 0.05084649
#
# Stress axis : x y z
#
# Youngs Moduli (GPa) = 94.20995 69.18843 13.06960
#
# Poissons Ratio (x) = 0.12187 0.15636
# Poissons Ratio (y) = 0.16594 0.15216
# Poissons Ratio (z) = 1.12711 0.80551
#
# Static dielectric constant tensor:
#      x y z
#    x 1.713830 0.000000 0.000000 
#    y 0.000000 1.629710 0.000000 
#    z 0.000000 0.000000 1.683730 
# 
# From -- ./inp_files/18833.got.cif
#   From: 2010.05.17/outbox.cif.g08.bks.cpg/sg52_10_cif.got.tgz:18833.got - 2010.06.03 12:15:38.
