data_PCOD9408610
_publ_section_title
;
Structure prediction by ZEFSAII (Michael W. Deem and Ramdas Pophale) SiO2 
 PCOD9408610
Probable space group: P N N A
;
_chemical_formula_sum "Si O2"
_cell_formula_units_Z 40
_cell_length_a 5.297688
_cell_length_b 12.432026
_cell_length_c 31.614006
_cell_angle_alpha 90.000000
_cell_angle_beta 90.000000
_cell_angle_gamma 90.000000
_cell_volume 2082.129890
_symmetry_space_group_name_H-M "P N N A"
_symmetry_group_IT_number 52
_symmetry_cell_setting 'orthorhombic'
loop_
_space_group_symop_operation_xyz
x,y,z
1/2-x,-y,z
x,1/2-y,1/2-z
1/2-x,1/2+y,1/2-z
-x,-y,-z
1/2+x,y,-z
-x,1/2+y,1/2+z
1/2+x,1/2-y,1/2+z
loop_
_atom_site_type_symbol
_atom_site_label
_atom_site_fract_x
_atom_site_fract_y
_atom_site_fract_z
Si Si1 0.771127 0.832547 0.602938
Si Si2 0.023628 0.802468 0.208944
Si Si3 0.768866 0.621681 0.158631
Si Si4 0.250000 0.000000 0.471584
Si Si5 0.359967 0.883604 0.132050
Si Si6 0.250000 0.500000 0.686592
O O1 0.510638 0.863074 0.627244
O O2 0.766240 0.898210 0.559797
O O3 0.820823 0.705019 0.596309
O O4 0.011741 0.862718 0.632189
O O5 0.147896 0.750000 0.250000
O O6 0.819423 0.713250 0.193773
O O7 0.210192 0.827128 0.170521
O O8 0.915269 0.922274 0.215668
O O9 0.750000 0.500000 0.175389
O O10 0.500000 0.000000 0.500000
O O11 0.250000 0.000000 0.120797
O O12 0.622039 0.915677 0.154000
#
# Coordination Sequence:
#
# PCOD9408610 Si02
#       6
#     8   8   8   4   8   4
#     4  11  21  40  62  87 125 154 205 242 294 375
#     4  10  22  34  52  83 122 161 200 265 318 356
#     4  11  20  37  58  87 115 167 207 249 290 364
#     4  12  24  40  64  99 132 158 184 246 321 378
#     4   9  20  38  59  83 111 159 217 259 301 357
#     4  10  18  38  54  79 108 150 220 252 301 356
#
# _framework density 19.211098
#
# number of rings (size 3 to 8) (size 9 to 14) (size 15 to 20)
#    0.000    1.600    4.000    1.200    1.400    0.800 
#    0.000    4.000    0.000    1.200    0.000    0.000 
#    0.000    0.000    0.000    0.000    0.000    0.000 
#
# Total GULP energy -222752.415344 kJ/mol
# GULP energy per Si atom -5568.810384 kJ/mol
# Density = 1.916737 g / cm^3
# Si number density = 19.211098 Si / 1000 Ang^3
#
#
#
# Elastic Constant Matrix: (Units=GPa)
#
#
# Indices 1 2 3 4 5 6 
#
# 1 77.8985 20.7842 3.6181 0.0000 0.0000 0.0000
# 2 20.7842 150.9329 47.2717 0.0000 0.0000 0.0000
# 3 3.6181 47.2717 51.9650 0.0000 0.0000 0.0000
# 4 0.0000 0.0000 0.0000 19.2276 0.0000 0.0000
# 5 0.0000 0.0000 0.0000 0.0000 1.8128 0.0000
# 6 0.0000 0.0000 0.0000 0.0000 0.0000 16.9707
#
#
#
# Elastic Compliance Matrix: (Units=1/GPa)
#
#
# Indices 1 2 3 4 5 6 
#
# 1 0.013367 -0.002166 0.001040 0.000000 0.000000 0.000000
# 2 -0.002166 0.009616 -0.008597 0.000000 0.000000 0.000000
# 3 0.001040 -0.008597 0.026992 0.000000 0.000000 0.000000
# 4 0.000000 0.000000 0.000000 0.052009 0.000000 0.000000
# 5 0.000000 0.000000 0.000000 0.000000 0.551626 0.000000
# 6 0.000000 0.000000 0.000000 0.000000 0.000000 0.058925
#
#
# Mechanical properties :
#
#
# Convention : Reuss Voigt Hill
#
# Bulk Modulus (GPa) = 32.75635 47.12716 39.94176
# Shear Modulus (GPa) = 6.73711 21.54371 14.14041
#
# Velocity S-wave (km/s) = 1.87470 3.35239 2.71598
# Velocity P-wave (km/s) = 4.66624 6.29041 5.53818
#
# Compressibility (1/GPa) = 0.03052843
#
# Stress axis : x y z
#
# Youngs Moduli (GPa) = 74.81145 103.98973 37.04825
#
# Poissons Ratio (x) = 0.22529 -0.03853
# Poissons Ratio (y) = 0.16207 0.31850
# Poissons Ratio (z) = -0.07781 0.89400
#
# Static dielectric constant tensor:
#      x y z
#    x 1.749670 0.000000 0.000000 
#    y 0.000000 1.795880 0.000000 
#    z 0.000000 0.000000 1.650660 
# 
# From -- ./inp_files/43692.got.cif
#   From: 2010.05.17/outbox.cif.g08.bks.cpg/sg52_22_cif.got.tgz:43692.got - 2010.06.03 12:15:38.
