data_PCOD9408767
_publ_section_title
;
Structure prediction by ZEFSAII (Michael W. Deem and Ramdas Pophale) SiO2 
 PCOD9408767
Probable space group: P N N A
;
_chemical_formula_sum "Si O2"
_cell_formula_units_Z 24
_cell_length_a 5.110996
_cell_length_b 10.655584
_cell_length_c 22.143345
_cell_angle_alpha 90.000000
_cell_angle_beta 90.000000
_cell_angle_gamma 90.000000
_cell_volume 1205.940900
_symmetry_space_group_name_H-M "P N N A"
_symmetry_group_IT_number 52
_symmetry_cell_setting 'orthorhombic'
loop_
_space_group_symop_operation_xyz
x,y,z
1/2-x,-y,z
x,1/2-y,1/2-z
1/2-x,1/2+y,1/2-z
-x,-y,-z
1/2+x,y,-z
-x,1/2+y,1/2+z
1/2+x,1/2-y,1/2+z
loop_
_atom_site_type_symbol
_atom_site_label
_atom_site_fract_x
_atom_site_fract_y
_atom_site_fract_z
Si Si1 0.674973 0.706651 0.854463
Si Si2 0.250000 0.500000 0.043296
Si Si3 0.750000 0.500000 0.751994
Si Si4 0.170464 0.836264 0.809831
O O1 0.687086 0.616647 0.912086
O O2 0.440128 0.805825 0.845321
O O3 0.949060 0.776903 0.852525
O O4 0.670558 0.885773 0.704144
O O5 0.500000 0.500000 0.000000
O O6 0.494558 0.458641 0.714016
O O7 0.187861 0.750000 0.750000
#
# Coordination Sequence:
#
# PCOD9408767 Si02
#       4
#     8   4   4   8
#     4  10  21  34  52  82 112 141 185 228 269 336
#     4  11  22  38  58  78 104 144 188 241 292 320
#     4   9  20  34  54  80 118 152 174 213 282 348
#     4  10  19  32  51  79 114 149 177 214 269 340
#
# _framework density 19.901474
#
# number of rings (size 3 to 8) (size 9 to 14) (size 15 to 20)
#    0.000    2.000    0.000    5.000    0.000   17.333 
#    0.000    0.000    0.000    0.000    0.000   23.333 
#    0.000    0.000    0.000    0.000    0.000    0.000 
#
# Total GULP energy -133642.912056 kJ/mol
# GULP energy per Si atom -5568.454669 kJ/mol
# Density = 1.985618 g / cm^3
# Si number density = 19.901474 Si / 1000 Ang^3
#
#
#
# Elastic Constant Matrix: (Units=GPa)
#
#
# Indices 1 2 3 4 5 6 
#
# 1 187.1769 35.8169 57.5234 0.0000 0.0000 0.0000
# 2 35.8169 62.4460 35.0075 0.0000 0.0000 0.0000
# 3 57.5234 35.0075 107.8035 0.0000 0.0000 0.0000
# 4 0.0000 0.0000 0.0000 23.2484 0.0000 0.0000
# 5 0.0000 0.0000 0.0000 0.0000 9.8032 0.0000
# 6 0.0000 0.0000 0.0000 0.0000 0.0000 -1.6070
#
#
#
# Elastic Compliance Matrix: (Units=1/GPa)
#
#
# Indices 1 2 3 4 5 6 
#
# 1 0.006634 -0.002226 -0.002817 0.000000 0.000000 0.000000
# 2 -0.002226 0.020325 -0.005412 0.000000 0.000000 0.000000
# 3 -0.002817 -0.005412 0.012537 0.000000 0.000000 0.000000
# 4 0.000000 0.000000 0.000000 0.043014 0.000000 0.000000
# 5 0.000000 0.000000 0.000000 0.000000 0.102007 0.000000
# 6 0.000000 0.000000 0.000000 0.000000 0.000000 -0.622288
#
#
# Mechanical properties :
#
#
# Convention : Reuss Voigt Hill
#
# Bulk Modulus (GPa) = 53.80679 68.23578 61.02128
# Shear Modulus (GPa) = -12.17537 21.56083 4.69273
#
# Velocity S-wave (km/s) = -2.47611 3.29504 1.53724
# Velocity P-wave (km/s) = 4.34977 6.98839 5.82057
#
# Compressibility (1/GPa) = 0.01858502
#
# Stress axis : x y z
#
# Youngs Moduli (GPa) = 150.73308 49.20106 79.76403
#
# Poissons Ratio (x) = 0.10951 0.22471
# Poissons Ratio (y) = 0.33551 0.43172
# Poissons Ratio (z) = 0.42464 0.26630
#
# Static dielectric constant tensor:
#      x y z
#    x 1.759030 0.000000 0.000000 
#    y 0.000000 2.388270 0.000000 
#    z 0.000000 0.000000 1.671380 
# 
# From -- ./inp_files/29932.got.cif
#   From: 2010.05.17/outbox.cif.g08.bks.cpg/sg52_15_cif.got.tgz:29932.got - 2010.06.03 12:15:38.
