data_PCOD9408858
_publ_section_title
;
Structure prediction by ZEFSAII (Michael W. Deem and Ramdas Pophale) SiO2 
 PCOD9408858
Probable space group: P N N A
;
_chemical_formula_sum "Si O2"
_cell_formula_units_Z 48
_cell_length_a 31.131403
_cell_length_b 5.024549
_cell_length_c 15.737258
_cell_angle_alpha 90.000000
_cell_angle_beta 90.000000
_cell_angle_gamma 90.000000
_cell_volume 2461.641722
_symmetry_space_group_name_H-M "P N N A"
_symmetry_group_IT_number 52
_symmetry_cell_setting 'orthorhombic'
loop_
_space_group_symop_operation_xyz
x,y,z
1/2-x,-y,z
x,1/2-y,1/2-z
1/2-x,1/2+y,1/2-z
-x,-y,-z
1/2+x,y,-z
-x,1/2+y,1/2+z
1/2+x,1/2-y,1/2+z
loop_
_atom_site_type_symbol
_atom_site_label
_atom_site_fract_x
_atom_site_fract_y
_atom_site_fract_z
Si Si1 0.108764 0.677751 0.656403
Si Si2 0.965031 0.496865 0.800928
Si Si3 0.088379 0.227856 0.057079
Si Si4 0.357866 0.268854 0.021230
Si Si5 0.948844 0.682718 0.114931
Si Si6 0.781401 0.249282 0.845893
O O1 0.125648 0.750000 0.750000
O O2 0.142696 0.681055 0.578280
O O3 0.081312 0.406134 0.657976
O O4 0.074756 0.903675 0.629574
O O5 0.984456 0.750000 0.750000
O O6 0.930590 0.645754 0.858852
O O7 0.003600 0.349927 0.850240
O O8 0.944826 0.250000 0.750000
O O9 0.126077 0.427068 0.026557
O O10 0.106421 0.930953 0.060725
O O11 0.052188 0.244173 0.984347
O O12 0.316053 0.242190 0.079162
O O13 0.750000 0.500000 0.853469
O O14 0.801139 0.250000 0.750000
O O15 0.750000 0.000000 0.851141
#
# Coordination Sequence:
#
# PCOD9408858 Si02
#       6
#     8   8   8   8   8   8
#     4  10  19  33  55  81 106 138 183 227 270 316
#     4  12  23  34  50  74 105 143 188 234 280 322
#     4  10  22  37  52  76 107 143 180 222 279 328
#     4  10  21  37  58  81 109 141 174 221 273 325
#     4  10  20  35  53  72 102 144 190 232 267 313
#     4  10  21  38  61  86 109 139 176 212 256 318
#
# _framework density 19.499184
#
# number of rings (size 3 to 8) (size 9 to 14) (size 15 to 20)
#    0.000    1.667    0.000    5.500    0.000    2.000 
#    0.000    6.667    0.000    1.000    0.000    0.000 
#    0.000    0.000    0.000    0.000    0.000    0.000 
#
# Total GULP energy -267957.195580 kJ/mol
# GULP energy per Si atom -5582.441575 kJ/mol
# Density = 1.945480 g / cm^3
# Si number density = 19.499184 Si / 1000 Ang^3
#
#
#
# Elastic Constant Matrix: (Units=GPa)
#
#
# Indices 1 2 3 4 5 6 
#
# 1 22.5807 -11.7719 27.1203 0.0000 0.0000 0.0000
# 2 -11.7719 96.1683 -3.3552 0.0000 0.0000 0.0000
# 3 27.1203 -3.3552 83.0635 0.0000 0.0000 0.0000
# 4 0.0000 0.0000 0.0000 27.0681 0.0000 0.0000
# 5 0.0000 0.0000 0.0000 0.0000 23.5531 0.0000
# 6 0.0000 0.0000 0.0000 0.0000 0.0000 14.1563
#
#
#
# Elastic Compliance Matrix: (Units=1/GPa)
#
#
# Indices 1 2 3 4 5 6 
#
# 1 0.079752 0.008866 -0.025681 0.000000 0.000000 0.000000
# 2 0.008866 0.011399 -0.002434 0.000000 0.000000 0.000000
# 3 -0.025681 -0.002434 0.020325 0.000000 0.000000 0.000000
# 4 0.000000 0.000000 0.000000 0.036944 0.000000 0.000000
# 5 0.000000 0.000000 0.000000 0.000000 0.042457 0.000000
# 6 0.000000 0.000000 0.000000 0.000000 0.000000 0.070640
#
#
# Mechanical properties :
#
#
# Convention : Reuss Voigt Hill
#
# Bulk Modulus (GPa) = 13.70271 25.08875 19.39573
# Shear Modulus (GPa) = 15.41588 25.61013 20.51300
#
# Velocity S-wave (km/s) = 2.81480 3.62801 3.24696
# Velocity P-wave (km/s) = 4.19603 5.51765 4.90159
#
# Compressibility (1/GPa) = 0.07297824
#
# Stress axis : x y z
#
# Youngs Moduli (GPa) = 12.53891 87.72823 49.19935
#
# Poissons Ratio (x) = -0.77783 1.26348
# Poissons Ratio (y) = -0.11118 0.11977
# Poissons Ratio (z) = 0.32201 0.21357
#
# Static dielectric constant tensor:
#      x y z
#    x 1.633680 0.000000 0.000000 
#    y 0.000000 1.673690 0.000000 
#    z 0.000000 0.000000 1.788150 
# 
# From -- ./inp_files/29401.got.cif
#   From: 2010.05.17/outbox.cif.g08.bks.cpg/sg52_15_cif.got.tgz:29401.got - 2010.06.03 12:15:38.
