data_PCOD9408595
_publ_section_title
;
Structure prediction by ZEFSAII (Michael W. Deem and Ramdas Pophale) SiO2 
 PCOD9408595
Probable space group: P N N A
;
_chemical_formula_sum "Si O2"
_cell_formula_units_Z 36
_cell_length_a 19.350938
_cell_length_b 12.047472
_cell_length_c 7.677502
_cell_angle_alpha 90.000000
_cell_angle_beta 90.000000
_cell_angle_gamma 90.000000
_cell_volume 1789.855149
_symmetry_space_group_name_H-M "P N N A"
_symmetry_group_IT_number 52
_symmetry_cell_setting 'orthorhombic'
loop_
_space_group_symop_operation_xyz
x,y,z
1/2-x,-y,z
x,1/2-y,1/2-z
1/2-x,1/2+y,1/2-z
-x,-y,-z
1/2+x,y,-z
-x,1/2+y,1/2+z
1/2+x,1/2-y,1/2+z
loop_
_atom_site_type_symbol
_atom_site_label
_atom_site_fract_x
_atom_site_fract_y
_atom_site_fract_z
Si Si1 0.918634 0.003743 0.326751
Si Si2 0.068720 0.922523 0.036150
Si Si3 0.115603 0.250000 0.250000
Si Si4 0.168804 0.482386 0.172500
Si Si5 0.495694 0.807861 0.520014
O O1 0.890951 0.044019 0.141242
O O2 0.970713 0.100972 0.390553
O O3 0.861611 0.993675 0.477521
O O4 0.961664 0.886768 0.331190
O O5 0.048478 0.792652 0.049140
O O6 0.115998 0.950291 0.202324
O O7 0.000000 0.000000 0.000000
O O8 0.159581 0.358471 0.239489
O O9 0.066790 0.249397 0.417979
O O10 0.250000 0.500000 0.178132
#
# Coordination Sequence:
#
# PCOD9408595 Si02
#       5
#     8   8   4   8   8
#     4  10  22  38  62  91 130 171 202 271 339 372
#     4  12  21  38  66  98 122 163 225 279 315 384
#     4  10  18  42  60  86 136 156 204 288 318 368
#     4  11  26  42  60  92 134 175 214 260 329 411
#     4  10  18  37  62  98 126 152 218 279 318 374
#
# _framework density 20.11336
#
# number of rings (size 3 to 8) (size 9 to 14) (size 15 to 20)
#    0.000    1.333    4.444    2.667    0.000    6.222 
#    0.000    0.000    0.000    0.000    0.000    0.000 
#    0.000    0.000    0.000    0.000    0.000    0.000 
#
# Total GULP energy -200877.377136 kJ/mol
# GULP energy per Si atom -5579.927143 kJ/mol
# Density = 2.006758 g / cm^3
# Si number density = 20.113360 Si / 1000 Ang^3
#
#
#
# Elastic Constant Matrix: (Units=GPa)
#
#
# Indices 1 2 3 4 5 6 
#
# 1 114.6076 53.4081 30.1285 0.0000 0.0000 0.0000
# 2 53.4081 155.8469 47.2985 0.0000 0.0000 0.0000
# 3 30.1285 47.2985 100.1105 0.0000 0.0000 0.0000
# 4 0.0000 0.0000 0.0000 24.1932 0.0000 0.0000
# 5 0.0000 0.0000 0.0000 0.0000 10.4173 0.0000
# 6 0.0000 0.0000 0.0000 0.0000 0.0000 10.1631
#
#
#
# Elastic Compliance Matrix: (Units=1/GPa)
#
#
# Indices 1 2 3 4 5 6 
#
# 1 0.010633 -0.003120 -0.001726 0.000000 0.000000 0.000000
# 2 -0.003120 0.008406 -0.003033 0.000000 0.000000 0.000000
# 3 -0.001726 -0.003033 0.011941 0.000000 0.000000 0.000000
# 4 0.000000 0.000000 0.000000 0.041334 0.000000 0.000000
# 5 0.000000 0.000000 0.000000 0.000000 0.095994 0.000000
# 6 0.000000 0.000000 0.000000 0.000000 0.000000 0.098395
#
#
# Mechanical properties :
#
#
# Convention : Reuss Voigt Hill
#
# Bulk Modulus (GPa) = 65.68922 70.24837 67.96879
# Shear Modulus (GPa) = 17.38916 24.93672 21.16294
#
# Velocity S-wave (km/s) = 2.94353 3.52491 3.24726
# Velocity P-wave (km/s) = 6.65454 7.18114 6.92285
#
# Compressibility (1/GPa) = 0.01522320
#
# Stress axis : x y z
#
# Youngs Moduli (GPa) = 94.04553 118.96004 83.74383
#
# Poissons Ratio (x) = 0.37117 0.14454
# Poissons Ratio (y) = 0.29343 0.25396
# Poissons Ratio (z) = 0.16232 0.36076
#
# Static dielectric constant tensor:
#      x y z
#    x 1.693550 0.000000 0.000000 
#    y 0.000000 2.467250 0.000000 
#    z 0.000000 0.000000 1.833120 
# 
# From -- ./inp_files/13075.got.cif
#   From: 2010.05.17/outbox.cif.g08.bks.cpg/sg52_7_cif.got.tgz:13075.got - 2010.06.03 12:15:38.
