data_PCOD9408250
_publ_section_title
;
Structure prediction by ZEFSAII (Michael W. Deem and Ramdas Pophale) SiO2 
 PCOD9408250
Probable space group: P N N A
;
_chemical_formula_sum "Si O2"
_cell_formula_units_Z 40
_cell_length_a 31.696840
_cell_length_b 5.084777
_cell_length_c 13.272342
_cell_angle_alpha 90.000000
_cell_angle_beta 90.000000
_cell_angle_gamma 90.000000
_cell_volume 2139.121450
_symmetry_space_group_name_H-M "P N N A"
_symmetry_group_IT_number 52
_symmetry_cell_setting 'orthorhombic'
loop_
_space_group_symop_operation_xyz
x,y,z
1/2-x,-y,z
x,1/2-y,1/2-z
1/2-x,1/2+y,1/2-z
-x,-y,-z
1/2+x,y,-z
-x,1/2+y,1/2+z
1/2+x,1/2-y,1/2+z
loop_
_atom_site_type_symbol
_atom_site_label
_atom_site_fract_x
_atom_site_fract_y
_atom_site_fract_z
Si Si1 0.392000 0.167910 0.509083
Si Si2 0.419965 0.750000 0.750000
Si Si3 0.354558 0.639129 0.606872
Si Si4 0.470904 0.122259 0.637828
Si Si5 0.721376 0.250000 0.250000
Si Si6 0.938439 0.501813 0.819412
O O1 0.361755 0.416819 0.523929
O O2 0.438166 0.237746 0.557888
O O3 0.402330 0.084968 0.395803
O O4 0.371110 0.919892 0.566469
O O5 0.386420 0.554505 0.698198
O O6 0.450624 0.660396 0.838461
O O7 0.309226 0.670931 0.657307
O O8 0.468447 0.250000 0.750000
O O9 0.520201 0.094544 0.616850
O O10 0.750000 0.500000 0.224349
O O11 0.949959 0.250000 0.750000
O O12 0.927043 0.750000 0.750000
#
# Coordination Sequence:
#
# PCOD9408250 Si02
#       6
#     8   4   8   8   4   8
#     4  11  21  35  54  76 107 151 200 236 277 343
#     4   9  16  30  46  72 104 142 184 228 260 334
#     4  10  21  34  56  80 112 147 186 211 273 345
#     4  10  18  31  48  73 103 143 195 248 294 320
#     4  11  22  38  62  94 128 148 166 208 278 360
#     4  11  23  36  50  72 107 148 203 263 297 308
#
# _framework density 18.699265
#
# number of rings (size 3 to 8) (size 9 to 14) (size 15 to 20)
#    0.000    1.600    3.000    3.000    0.000    0.000 
#    0.000    6.000    0.000    0.000    0.000    0.000 
#    0.000   44.800    0.000    0.000    0.000    0.000 
#
# Total GULP energy -222901.608369 kJ/mol
# GULP energy per Si atom -5572.540209 kJ/mol
# Density = 1.865670 g / cm^3
# Si number density = 18.699265 Si / 1000 Ang^3
#
#
#
# Elastic Constant Matrix: (Units=GPa)
#
#
# Indices 1 2 3 4 5 6 
#
# 1 94.7948 38.4771 36.5497 0.0000 0.0000 0.0000
# 2 38.4771 98.8793 24.7225 0.0000 0.0000 0.0000
# 3 36.5497 24.7225 49.4103 0.0000 0.0000 0.0000
# 4 0.0000 0.0000 0.0000 26.3277 0.0000 0.0000
# 5 0.0000 0.0000 0.0000 0.0000 9.7286 0.0000
# 6 0.0000 0.0000 0.0000 0.0000 0.0000 27.4227
#
#
#
# Elastic Compliance Matrix: (Units=1/GPa)
#
#
# Indices 1 2 3 4 5 6 
#
# 1 0.015861 -0.003702 -0.009881 0.000000 0.000000 0.000000
# 2 -0.003702 0.012423 -0.003478 0.000000 0.000000 0.000000
# 3 -0.009881 -0.003478 0.029288 0.000000 0.000000 0.000000
# 4 0.000000 0.000000 0.000000 0.037983 0.000000 0.000000
# 5 0.000000 0.000000 0.000000 0.000000 0.102789 0.000000
# 6 0.000000 0.000000 0.000000 0.000000 0.000000 0.036466
#
#
# Mechanical properties :
#
#
# Convention : Reuss Voigt Hill
#
# Bulk Modulus (GPa) = 42.64041 49.17588 45.90814
# Shear Modulus (GPa) = 18.06695 22.25149 20.15922
#
# Velocity S-wave (km/s) = 3.11172 3.45333 3.28697
# Velocity P-wave (km/s) = 5.98023 6.50046 6.24577
#
# Compressibility (1/GPa) = 0.02345193
#
# Stress axis : x y z
#
# Youngs Moduli (GPa) = 63.04656 80.49369 34.14389
#
# Poissons Ratio (x) = 0.29796 0.33737
# Poissons Ratio (y) = 0.23338 0.11875
# Poissons Ratio (z) = 0.62295 0.27994
#
# Static dielectric constant tensor:
#      x y z
#    x 1.631350 0.000000 0.000000 
#    y 0.000000 1.767940 0.000000 
#    z 0.000000 0.000000 1.713940 
# 
# From -- ./inp_files/22696.got.cif
#   From: 2010.05.17/outbox.cif.g08.bks.cpg/sg52_12_cif.got.tgz:22696.got - 2010.06.03 12:15:38.
