data_PCOD9408596
_publ_section_title
;
Structure prediction by ZEFSAII (Michael W. Deem and Ramdas Pophale) SiO2 
 PCOD9408596
Probable space group: P N N A
;
_chemical_formula_sum "Si O2"
_cell_formula_units_Z 52
_cell_length_a 25.969554
_cell_length_b 10.875869
_cell_length_c 9.458112
_cell_angle_alpha 90.000000
_cell_angle_beta 90.000000
_cell_angle_gamma 90.000000
_cell_volume 2671.363031
_symmetry_space_group_name_H-M "P N N A"
_symmetry_group_IT_number 52
_symmetry_cell_setting 'orthorhombic'
loop_
_space_group_symop_operation_xyz
x,y,z
1/2-x,-y,z
x,1/2-y,1/2-z
1/2-x,1/2+y,1/2-z
-x,-y,-z
1/2+x,y,-z
-x,1/2+y,1/2+z
1/2+x,1/2-y,1/2+z
loop_
_atom_site_type_symbol
_atom_site_label
_atom_site_fract_x
_atom_site_fract_y
_atom_site_fract_z
Si Si1 0.853092 0.458566 0.508489
Si Si2 0.541313 0.393176 0.513892
Si Si3 0.163154 0.039389 0.715716
Si Si4 0.485952 0.250000 0.750000
Si Si5 0.250000 0.000000 0.517083
Si Si6 0.330479 0.385464 0.192429
Si Si7 0.078661 0.250000 0.750000
Si Si8 0.391738 0.320615 0.944502
O O1 0.904235 0.539975 0.515149
O O2 0.821730 0.515212 0.378064
O O3 0.830374 0.464658 0.665417
O O4 0.869674 0.317808 0.468424
O O5 0.500000 0.500000 0.500000
O O6 0.524014 0.332336 0.658880
O O7 0.544791 0.298612 0.381774
O O8 0.211401 0.074622 0.618808
O O9 0.117095 0.138425 0.706575
O O10 0.141490 0.909039 0.657287
O O11 0.446814 0.309386 0.866656
O O12 0.286070 0.079249 0.415822
O O13 0.322066 0.250000 0.250000
O O14 0.383514 0.382722 0.099654
#
# Coordination Sequence:
#
# PCOD9408596 Si02
#       8
#     8   8   8   4   4   8   4   8
#     4  10  19  39  63  86 121 161 198 261 318 358
#     4  11  23  40  63  92 126 163 218 256 306 386
#     4  10  20  40  63  85 120 164 204 252 312 380
#     4  12  20  34  61  94 114 164 209 250 298 372
#     4  10  22  40  58  92 116 150 214 244 298 396
#     4   9  21  38  60  88 118 151 194 257 311 361
#     4  10  24  44  57  90 136 164 197 270 328 356
#     4  10  18  37  63  84 120 158 201 252 310 357
#
# _framework density 19.465719
#
# number of rings (size 3 to 8) (size 9 to 14) (size 15 to 20)
#    0.000    1.846    3.077    0.923    0.000    4.308 
#   13.846    2.308    0.000    0.000    0.000    0.000 
#    0.000    0.000    0.000    0.000    0.000    0.000 
#
# Total GULP energy -289577.768330 kJ/mol
# GULP energy per Si atom -5568.803237 kJ/mol
# Density = 1.942141 g / cm^3
# Si number density = 19.465719 Si / 1000 Ang^3
#
#
#
# Elastic Constant Matrix: (Units=GPa)
#
#
# Indices 1 2 3 4 5 6 
#
# 1 60.7216 24.7015 52.1135 0.0000 0.0000 0.0000
# 2 24.7015 58.8541 56.2722 0.0000 0.0000 0.0000
# 3 52.1135 56.2722 169.4068 0.0000 0.0000 0.0000
# 4 0.0000 0.0000 0.0000 26.8801 0.0000 0.0000
# 5 0.0000 0.0000 0.0000 0.0000 45.4056 0.0000
# 6 0.0000 0.0000 0.0000 0.0000 0.0000 8.8195
#
#
#
# Elastic Compliance Matrix: (Units=1/GPa)
#
#
# Indices 1 2 3 4 5 6 
#
# 1 0.023079 -0.004247 -0.005689 0.000000 0.000000 0.000000
# 2 -0.004247 0.025681 -0.007224 0.000000 0.000000 0.000000
# 3 -0.005689 -0.007224 0.010053 0.000000 0.000000 0.000000
# 4 0.000000 0.000000 0.000000 0.037202 0.000000 0.000000
# 5 0.000000 0.000000 0.000000 0.000000 0.022024 0.000000
# 6 0.000000 0.000000 0.000000 0.000000 0.000000 0.113385
#
#
# Mechanical properties :
#
#
# Convention : Reuss Voigt Hill
#
# Bulk Modulus (GPa) = 40.82903 61.68409 51.25656
# Shear Modulus (GPa) = 18.25439 26.61407 22.43423
#
# Velocity S-wave (km/s) = 3.06563 3.70162 3.39853
# Velocity P-wave (km/s) = 5.79233 7.07295 6.46443
#
# Compressibility (1/GPa) = 0.02449237
#
# Stress axis : x y z
#
# Youngs Moduli (GPa) = 43.33015 38.93979 99.47745
#
# Poissons Ratio (x) = 0.16538 0.56590
# Poissons Ratio (y) = 0.18402 0.71862
# Poissons Ratio (z) = 0.24650 0.28130
#
# Static dielectric constant tensor:
#      x y z
#    x 1.692250 0.000000 0.000000 
#    y 0.000000 1.689230 0.000000 
#    z 0.000000 0.000000 1.718830 
# 
# From -- ./inp_files/15038.got.cif
#   From: 2010.05.17/outbox.cif.g08.bks.cpg/sg52_8_cif.got.tgz:15038.got - 2010.06.03 12:15:38.
