data_PCOD9408992
_publ_section_title
;
Structure prediction by ZEFSAII (Michael W. Deem and Ramdas Pophale) SiO2 
 PCOD9408992
Probable space group: P N N A
;
_chemical_formula_sum "Si O2"
_cell_formula_units_Z 48
_cell_length_a 24.438707
_cell_length_b 5.441181
_cell_length_c 16.475712
_cell_angle_alpha 90.000000
_cell_angle_beta 90.000000
_cell_angle_gamma 90.000000
_cell_volume 2190.864858
_symmetry_space_group_name_H-M "P N N A"
_symmetry_group_IT_number 52
_symmetry_cell_setting 'orthorhombic'
loop_
_space_group_symop_operation_xyz
x,y,z
1/2-x,-y,z
x,1/2-y,1/2-z
1/2-x,1/2+y,1/2-z
-x,-y,-z
1/2+x,y,-z
-x,1/2+y,1/2+z
1/2+x,1/2-y,1/2+z
loop_
_atom_site_type_symbol
_atom_site_label
_atom_site_fract_x
_atom_site_fract_y
_atom_site_fract_z
Si Si1 0.892139 0.490098 0.478922
Si Si2 0.562164 0.998997 0.203791
Si Si3 0.686120 0.721608 0.584505
Si Si4 0.940266 0.502966 0.766059
Si Si5 0.193028 0.234602 0.344512
Si Si6 0.443287 0.995195 0.453643
O O1 0.914126 0.491397 0.386879
O O2 0.830352 0.382598 0.495090
O O3 0.908374 0.759795 0.513649
O O4 0.920346 0.266796 0.527818
O O5 0.579385 0.750000 0.250000
O O6 0.495401 0.999298 0.210765
O O7 0.579068 0.250000 0.250000
O O8 0.750447 0.746860 0.603602
O O9 0.664002 0.490276 0.635407
O O10 0.665747 0.984168 0.621130
O O11 0.907354 0.750000 0.750000
O O12 0.956891 0.521960 0.859192
O O13 0.911274 0.250000 0.750000
O O14 0.209092 0.250000 0.250000
O O15 0.500000 0.000000 0.500000
#
# Coordination Sequence:
#
# PCOD9408992 Si02
#       6
#     8   8   8   8   8   8
#     4  12  24  39  59  88 118 145 199 263 298 340
#     4  10  20  37  58  77 103 145 193 241 288 350
#     4  10  20  35  58  91 119 151 192 237 292 349
#     4  10  19  35  52  71  99 144 199 234 280 349
#     4  10  19  38  65  87 121 163 192 222 287 378
#     4  12  23  38  58  80 114 159 201 253 306 343
#
# _framework density 21.909158999999999
#
# number of rings (size 3 to 8) (size 9 to 14) (size 15 to 20)
#    0.000    1.333    0.000   10.000    0.000    0.000 
#    0.000   10.833    0.000    0.000    0.000    9.333 
#    0.000    0.000    0.000    0.000    0.000    0.000 
#
# Total GULP energy -267716.673045 kJ/mol
# GULP energy per Si atom -5577.430688 kJ/mol
# Density = 2.185929 g / cm^3
# Si number density = 21.909159 Si / 1000 Ang^3
#
#
#
# Elastic Constant Matrix: (Units=GPa)
#
#
# Indices 1 2 3 4 5 6 
#
# 1 76.3106 27.7980 47.8670 0.0000 0.0000 0.0000
# 2 27.7980 253.2715 73.1531 0.0000 0.0000 0.0000
# 3 47.8670 73.1531 124.7406 0.0000 0.0000 0.0000
# 4 0.0000 0.0000 0.0000 44.9927 0.0000 0.0000
# 5 0.0000 0.0000 0.0000 0.0000 30.0144 0.0000
# 6 0.0000 0.0000 0.0000 0.0000 0.0000 32.5306
#
#
#
# Elastic Compliance Matrix: (Units=1/GPa)
#
#
# Indices 1 2 3 4 5 6 
#
# 1 0.017259 0.000022 -0.006636 0.000000 0.000000 0.000000
# 2 0.000022 0.004754 -0.002796 0.000000 0.000000 0.000000
# 3 -0.006636 -0.002796 0.012203 0.000000 0.000000 0.000000
# 4 0.000000 0.000000 0.000000 0.022226 0.000000 0.000000
# 5 0.000000 0.000000 0.000000 0.000000 0.033317 0.000000
# 6 0.000000 0.000000 0.000000 0.000000 0.000000 0.030740
#
#
# Mechanical properties :
#
#
# Convention : Reuss Voigt Hill
#
# Bulk Modulus (GPa) = 64.95352 83.55099 74.25225
# Shear Modulus (GPa) = 34.61414 41.87452 38.24433
#
# Velocity S-wave (km/s) = 3.97910 4.37656 4.18255
# Velocity P-wave (km/s) = 7.12896 7.98480 7.56899
#
# Compressibility (1/GPa) = 0.01539562
#
# Stress axis : x y z
#
# Youngs Moduli (GPa) = 57.94214 210.37021 81.94795
#
# Poissons Ratio (x) = -0.00471 0.54379
# Poissons Ratio (y) = -0.00130 0.22915
# Poissons Ratio (z) = 0.38449 0.58825
#
# Static dielectric constant tensor:
#      x y z
#    x 2.043400 0.000000 0.000000 
#    y 0.000000 1.920130 0.000000 
#    z 0.000000 0.000000 1.844040 
# 
# From -- ./inp_files/29403.got.cif
#   From: 2010.05.17/outbox.cif.g08.bks.cpg/sg52_15_cif.got.tgz:29403.got - 2010.06.03 12:15:38.
