data_PCOD9408224
_publ_section_title
;
Structure prediction by ZEFSAII (Michael W. Deem and Ramdas Pophale) SiO2 
 PCOD9408224
Probable space group: P N N A
;
_chemical_formula_sum "Si O2"
_cell_formula_units_Z 40
_cell_length_a 14.799833
_cell_length_b 11.943431
_cell_length_c 9.168457
_cell_angle_alpha 90.000000
_cell_angle_beta 90.000000
_cell_angle_gamma 90.000000
_cell_volume 1620.623650
_symmetry_space_group_name_H-M "P N N A"
_symmetry_group_IT_number 52
_symmetry_cell_setting 'orthorhombic'
loop_
_space_group_symop_operation_xyz
x,y,z
1/2-x,-y,z
x,1/2-y,1/2-z
1/2-x,1/2+y,1/2-z
-x,-y,-z
1/2+x,y,-z
-x,1/2+y,1/2+z
1/2+x,1/2-y,1/2+z
loop_
_atom_site_type_symbol
_atom_site_label
_atom_site_fract_x
_atom_site_fract_y
_atom_site_fract_z
Si Si1 0.306534 0.822680 0.934137
Si Si2 0.591322 0.821585 0.037026
Si Si3 0.356441 0.506553 0.318677
Si Si4 0.335629 0.580035 0.889246
Si Si5 0.015821 0.595279 0.849781
O O1 0.198733 0.809889 0.942890
O O2 0.339887 0.698853 0.967668
O O3 0.325237 0.876014 0.777427
O O4 0.349582 0.907125 0.047935
O O5 0.542283 0.700969 0.047586
O O6 0.555084 0.878499 0.185239
O O7 0.592253 0.897545 0.889249
O O8 0.250000 0.500000 0.275497
O O9 0.415014 0.558738 0.191103
O O10 0.250000 0.500000 0.921336
O O11 0.425703 0.509495 0.899930
#
# Coordination Sequence:
#
# PCOD9408224 Si02
#       5
#     8   8   8   8   8
#     4  10  18  30  51  85 123 148 186 254 313 356
#     4  10  18  31  54  86 117 150 195 255 311 357
#     4  10  21  36  55  89 120 156 211 261 304 379
#     4  11  16  28  52  86 114 146 190 253 312 358
#     4  11  19  31  57  88 114 152 202 253 309 368
#
# _framework density 24.681854999999999
#
# number of rings (size 3 to 8) (size 9 to 14) (size 15 to 20)
#    0.000    1.600    6.000    2.400    0.000    0.000 
#    0.000    0.000    0.000   12.000    5.200    0.000 
#    0.000    0.000    0.000    0.000    0.000    0.000 
#
# Total GULP energy -223759.356828 kJ/mol
# GULP energy per Si atom -5593.983921 kJ/mol
# Density = 2.462568 g / cm^3
# Si number density = 24.681855 Si / 1000 Ang^3
#
#
#
# Elastic Constant Matrix: (Units=GPa)
#
#
# Indices 1 2 3 4 5 6 
#
# 1 101.1109 58.7902 36.5673 0.0000 0.0000 0.0000
# 2 58.7902 152.0850 35.1243 0.0000 0.0000 0.0000
# 3 36.5673 35.1243 81.2613 0.0000 0.0000 0.0000
# 4 0.0000 0.0000 0.0000 3.2731 0.0000 0.0000
# 5 0.0000 0.0000 0.0000 0.0000 19.6033 0.0000
# 6 0.0000 0.0000 0.0000 0.0000 0.0000 25.0869
#
#
#
# Elastic Compliance Matrix: (Units=1/GPa)
#
#
# Indices 1 2 3 4 5 6 
#
# 1 0.014053 -0.004412 -0.004417 0.000000 0.000000 0.000000
# 2 -0.004412 0.008690 -0.001771 0.000000 0.000000 0.000000
# 3 -0.004417 -0.001771 0.015059 0.000000 0.000000 0.000000
# 4 0.000000 0.000000 0.000000 0.305522 0.000000 0.000000
# 5 0.000000 0.000000 0.000000 0.000000 0.051012 0.000000
# 6 0.000000 0.000000 0.000000 0.000000 0.000000 0.039861
#
#
# Mechanical properties :
#
#
# Convention : Reuss Voigt Hill
#
# Bulk Modulus (GPa) = 60.23163 66.15784 63.19474
# Shear Modulus (GPa) = 10.84764 23.19102 17.01933
#
# Velocity S-wave (km/s) = 2.09870 3.06861 2.62877
# Velocity P-wave (km/s) = 5.50717 6.27834 5.90536
#
# Compressibility (1/GPa) = 0.01660257
#
# Stress axis : x y z
#
# Youngs Moduli (GPa) = 71.15960 115.07735 66.40662
#
# Poissons Ratio (x) = 0.50776 0.29329
# Poissons Ratio (y) = 0.31398 0.11758
# Poissons Ratio (z) = 0.31428 0.20375
#
# Static dielectric constant tensor:
#      x y z
#    x 1.942780 0.000000 0.000000 
#    y 0.000000 2.002020 0.000000 
#    z 0.000000 0.000000 2.001420 
# 
# From -- ./inp_files/19254.got.cif
#   From: 2010.05.17/outbox.cif.g08.bks.cpg/sg52_10_cif.got.tgz:19254.got - 2010.06.03 12:15:38.
