data_PCOD9409708
_publ_section_title
;
Structure prediction by ZEFSAII (Michael W. Deem and Ramdas Pophale) SiO2 
 PCOD9409708
Probable space group: P N N A
;
_chemical_formula_sum "Si O2"
_cell_formula_units_Z 48
_cell_length_a 9.094327
_cell_length_b 22.270723
_cell_length_c 10.639813
_cell_angle_alpha 90.000000
_cell_angle_beta 90.000000
_cell_angle_gamma 90.000000
_cell_volume 2154.958332
_symmetry_space_group_name_H-M "P N N A"
_symmetry_group_IT_number 52
_symmetry_cell_setting 'orthorhombic'
loop_
_space_group_symop_operation_xyz
x,y,z
1/2-x,-y,z
x,1/2-y,1/2-z
1/2-x,1/2+y,1/2-z
-x,-y,-z
1/2+x,y,-z
-x,1/2+y,1/2+z
1/2+x,1/2-y,1/2+z
loop_
_atom_site_type_symbol
_atom_site_label
_atom_site_fract_x
_atom_site_fract_y
_atom_site_fract_z
Si Si1 0.250000 0.500000 0.791695
Si Si2 0.250000 0.000000 0.308547
Si Si3 0.481420 0.530988 0.370221
Si Si4 0.732264 0.878731 0.371614
Si Si5 0.597462 0.329184 0.615688
Si Si6 0.738918 0.799842 0.142985
Si Si7 0.375116 0.868982 0.382698
O O1 0.368490 0.469008 0.704766
O O2 0.200203 0.445566 0.877902
O O3 0.197861 0.064210 0.364961
O O4 0.116861 0.987530 0.214879
O O5 0.500000 0.500000 0.500000
O O6 0.423660 0.598165 0.393094
O O7 0.771280 0.856720 0.232248
O O8 0.553901 0.875678 0.388650
O O9 0.807757 0.844257 0.487764
O O10 0.683440 0.305767 0.492747
O O11 0.436461 0.299017 0.617951
O O12 0.658760 0.327736 0.759971
O O13 0.773752 0.750000 0.250000
#
# Coordination Sequence:
#
# PCOD9409708 Si02
#       7
#     4   4   8   8   8   8   8
#     4  12  20  38  60  98 143 182 223 288 333 420
#     4  10  20  36  52  94 129 184 219 264 331 390
#     4  11  22  34  63  96 142 184 223 272 344 420
#     4  11  24  41  62 100 134 185 230 274 349 402
#     4  10  24  47  65 103 135 174 230 286 342 410
#     4  11  25  48  74  98 134 177 232 295 344 410
#     4  10  23  40  61  93 142 179 227 280 325 419
#
# _framework density 22.274213
#
# number of rings (size 3 to 8) (size 9 to 14) (size 15 to 20)
#    0.000    1.333    5.000    2.000    7.000    5.333 
#    0.000    0.833    0.000    0.000    0.000    0.000 
#    0.000    0.000    0.000    0.000    0.000    0.000 
#
# Total GULP energy -267275.462972 kJ/mol
# GULP energy per Si atom -5568.238812 kJ/mol
# Density = 2.222352 g / cm^3
# Si number density = 22.274213 Si / 1000 Ang^3
#
#
#
# Elastic Constant Matrix: (Units=GPa)
#
#
# Indices 1 2 3 4 5 6 
#
# 1 37.8388 18.1252 47.6323 0.0000 0.0000 0.0000
# 2 18.1252 63.2095 28.7815 0.0000 0.0000 0.0000
# 3 47.6323 28.7815 201.1675 0.0000 0.0000 0.0000
# 4 0.0000 0.0000 0.0000 47.7605 0.0000 0.0000
# 5 0.0000 0.0000 0.0000 0.0000 37.8337 0.0000
# 6 0.0000 0.0000 0.0000 0.0000 0.0000 11.8088
#
#
#
# Elastic Compliance Matrix: (Units=1/GPa)
#
#
# Indices 1 2 3 4 5 6 
#
# 1 0.040991 -0.007846 -0.008583 0.000000 0.000000 0.000000
# 2 -0.007846 0.018425 -0.000778 0.000000 0.000000 0.000000
# 3 -0.008583 -0.000778 0.007115 0.000000 0.000000 0.000000
# 4 0.000000 0.000000 0.000000 0.020938 0.000000 0.000000
# 5 0.000000 0.000000 0.000000 0.000000 0.026431 0.000000
# 6 0.000000 0.000000 0.000000 0.000000 0.000000 0.084683
#
#
# Mechanical properties :
#
#
# Convention : Reuss Voigt Hill
#
# Bulk Modulus (GPa) = 31.13771 54.58822 42.86297
# Shear Modulus (GPa) = 20.51683 33.32570 26.92127
#
# Velocity S-wave (km/s) = 3.03826 3.87221 3.48031
# Velocity P-wave (km/s) = 5.13007 6.67477 5.95274
#
# Compressibility (1/GPa) = 0.03211540
#
# Stress axis : x y z
#
# Youngs Moduli (GPa) = 24.39558 54.27534 140.55429
#
# Poissons Ratio (x) = 0.42583 1.20642
# Poissons Ratio (y) = 0.19140 0.10940
# Poissons Ratio (z) = 0.20939 0.04224
#
# Static dielectric constant tensor:
#      x y z
#    x 2.018580 0.000000 0.000000 
#    y 0.000000 3.140200 0.000000 
#    z 0.000000 0.000000 1.863450 
# 
# From -- ./inp_files/16991.got.cif
#   From: 2010.05.17/outbox.cif.g08.bks.cpg/sg52_9_cif.got.tgz:16991.got - 2010.06.03 12:15:38.
