data_PCOD9409278
_publ_section_title
;
Structure prediction by ZEFSAII (Michael W. Deem and Ramdas Pophale) SiO2 
 PCOD9409278
Probable space group: P N N A
;
_chemical_formula_sum "Si O2"
_cell_formula_units_Z 40
_cell_length_a 9.782558
_cell_length_b 15.926312
_cell_length_c 12.459434
_cell_angle_alpha 90.000000
_cell_angle_beta 90.000000
_cell_angle_gamma 90.000000
_cell_volume 1941.180700
_symmetry_space_group_name_H-M "P N N A"
_symmetry_group_IT_number 52
_symmetry_cell_setting 'orthorhombic'
loop_
_space_group_symop_operation_xyz
x,y,z
1/2-x,-y,z
x,1/2-y,1/2-z
1/2-x,1/2+y,1/2-z
-x,-y,-z
1/2+x,y,-z
-x,1/2+y,1/2+z
1/2+x,1/2-y,1/2+z
loop_
_atom_site_type_symbol
_atom_site_label
_atom_site_fract_x
_atom_site_fract_y
_atom_site_fract_z
Si Si1 0.857840 0.427800 0.571739
Si Si2 0.290617 0.337098 0.216192
Si Si3 0.103772 0.960748 0.850021
Si Si4 0.875302 0.436353 0.989203
Si Si5 0.023542 0.670612 0.821444
O O1 0.750000 0.500000 0.545300
O O2 0.784750 0.379602 0.667305
O O3 0.886923 0.395725 0.451524
O O4 0.999026 0.466276 0.615194
O O5 0.361936 0.250000 0.250000
O O6 0.140490 0.318223 0.166374
O O7 0.361814 0.396919 0.129809
O O8 0.042180 0.911367 0.751532
O O9 0.250000 0.000000 0.821560
O O10 0.750000 0.500000 0.011166
O O11 0.899513 0.357272 0.069763
O O12 0.000000 0.500000 0.000000
O O13 0.073120 0.750000 0.750000
#
# Coordination Sequence:
#
# PCOD9409278 Si02
#       5
#     8   8   8   8   8
#     4  10  19  38  64  88 123 166 212 253 319 395
#     4  11  24  42  67  95 133 175 216 271 337 395
#     4  10  21  37  62  95 121 164 210 267 318 389
#     4  12  24  45  72 101 134 182 232 272 334 415
#     4  11  24  42  66  95 135 170 218 277 335 387
#
# _framework density 20.606014999999999
#
# number of rings (size 3 to 8) (size 9 to 14) (size 15 to 20)
#    0.000    1.200    4.000    2.400    2.800    0.000 
#    0.000    4.000    0.000    0.000    0.000    0.000 
#    0.000    0.000    0.000    0.000    0.000    0.000 
#
# Total GULP energy -222845.629741 kJ/mol
# GULP energy per Si atom -5571.140744 kJ/mol
# Density = 2.055912 g / cm^3
# Si number density = 20.606015 Si / 1000 Ang^3
#
#
#
# Elastic Constant Matrix: (Units=GPa)
#
#
# Indices 1 2 3 4 5 6 
#
# 1 94.9772 9.6018 -20.5247 0.0000 0.0000 0.0000
# 2 9.6018 59.5569 11.5019 0.0000 0.0000 0.0000
# 3 -20.5247 11.5019 81.7726 0.0000 0.0000 0.0000
# 4 0.0000 0.0000 0.0000 37.8425 0.0000 0.0000
# 5 0.0000 0.0000 0.0000 0.0000 50.4383 0.0000
# 6 0.0000 0.0000 0.0000 0.0000 0.0000 20.9545
#
#
#
# Elastic Compliance Matrix: (Units=1/GPa)
#
#
# Indices 1 2 3 4 5 6 
#
# 1 0.011477 -0.002474 0.003229 0.000000 0.000000 0.000000
# 2 -0.002474 0.017793 -0.003124 0.000000 0.000000 0.000000
# 3 0.003229 -0.003124 0.013479 0.000000 0.000000 0.000000
# 4 0.000000 0.000000 0.000000 0.026425 0.000000 0.000000
# 5 0.000000 0.000000 0.000000 0.000000 0.019826 0.000000
# 6 0.000000 0.000000 0.000000 0.000000 0.000000 0.047723
#
#
# Mechanical properties :
#
#
# Convention : Reuss Voigt Hill
#
# Bulk Modulus (GPa) = 26.30855 26.38499 26.34677
# Shear Modulus (GPa) = 32.44016 37.56223 35.00120
#
# Velocity S-wave (km/s) = 3.97206 4.27415 4.12587
# Velocity P-wave (km/s) = 5.81648 6.09837 5.95909
#
# Compressibility (1/GPa) = 0.03801045
#
# Stress axis : x y z
#
# Youngs Moduli (GPa) = 87.13359 56.20277 74.19091
#
# Poissons Ratio (x) = 0.13903 -0.23953
# Poissons Ratio (y) = 0.21555 0.23174
# Poissons Ratio (z) = -0.28132 0.17555
#
# Static dielectric constant tensor:
#      x y z
#    x 1.569450 0.000000 0.000000 
#    y 0.000000 1.678520 0.000000 
#    z 0.000000 0.000000 1.890650 
# 
# From -- ./inp_files/16675.got.cif
#   From: 2010.05.17/outbox.cif.g08.bks.cpg/sg52_9_cif.got.tgz:16675.got - 2010.06.03 12:15:38.
