data_PCOD9409659
_publ_section_title
;
Structure prediction by ZEFSAII (Michael W. Deem and Ramdas Pophale) SiO2 
 PCOD9409659
Probable space group: P N N A
;
_chemical_formula_sum "Si O2"
_cell_formula_units_Z 40
_cell_length_a 9.184813
_cell_length_b 17.529097
_cell_length_c 10.912517
_cell_angle_alpha 90.000000
_cell_angle_beta 90.000000
_cell_angle_gamma 90.000000
_cell_volume 1756.931366
_symmetry_space_group_name_H-M "P N N A"
_symmetry_group_IT_number 52
_symmetry_cell_setting 'orthorhombic'
loop_
_space_group_symop_operation_xyz
x,y,z
1/2-x,-y,z
x,1/2-y,1/2-z
1/2-x,1/2+y,1/2-z
-x,-y,-z
1/2+x,y,-z
-x,1/2+y,1/2+z
1/2+x,1/2-y,1/2+z
loop_
_atom_site_type_symbol
_atom_site_label
_atom_site_fract_x
_atom_site_fract_y
_atom_site_fract_z
Si Si1 0.071888 0.154835 0.184256
Si Si2 0.421504 0.989314 0.295068
Si Si3 0.630600 0.069231 0.441878
Si Si4 0.674151 0.750000 0.250000
Si Si5 0.838958 0.250000 0.750000
Si Si6 0.403972 0.745463 0.940348
O O1 0.045744 0.064987 0.181043
O O2 0.228458 0.178336 0.240223
O O3 0.942202 0.183440 0.272597
O O4 0.070893 0.203297 0.059641
O O5 0.441866 0.945754 0.425436
O O6 0.250000 0.000000 0.288684
O O7 0.524129 0.060498 0.323832
O O8 0.661670 0.159525 0.452192
O O9 0.750000 0.000000 0.429019
O O10 0.779948 0.781444 0.145727
O O11 0.944321 0.256889 0.866572
#
# Coordination Sequence:
#
# PCOD9409659 Si02
#       6
#     8   8   8   4   4   8
#     4  11  21  37  62  90 123 164 210 262 320 379
#     4  10  21  35  56  86 120 158 202 252 312 378
#     4  10  20  35  57  85 121 158 200 255 315 368
#     4  10  22  36  58  88 120 154 206 260 310 370
#     4  10  22  36  58  88 126 162 210 262 312 372
#     4  11  22  38  61  91 123 162 210 263 316 379
#
# _framework density 22.766969
#
# number of rings (size 3 to 8) (size 9 to 14) (size 15 to 20)
#    0.000    1.600    0.000    6.000    0.000    6.400 
#    0.000    0.000    0.000   24.000    0.000    0.000 
#    0.000    0.000    0.000    0.000    0.000    0.000 
#
# Total GULP energy -222724.724414 kJ/mol
# GULP energy per Si atom -5568.118110 kJ/mol
# Density = 2.271515 g / cm^3
# Si number density = 22.766969 Si / 1000 Ang^3
#
#
#
# Elastic Constant Matrix: (Units=GPa)
#
#
# Indices 1 2 3 4 5 6 
#
# 1 112.9217 15.0061 38.1566 0.0000 0.0000 0.0000
# 2 15.0061 87.0684 38.0338 0.0000 0.0000 0.0000
# 3 38.1566 38.0338 91.4729 0.0000 0.0000 0.0000
# 4 0.0000 0.0000 0.0000 27.4331 0.0000 0.0000
# 5 0.0000 0.0000 0.0000 0.0000 3.3800 0.0000
# 6 0.0000 0.0000 0.0000 0.0000 0.0000 13.7857
#
#
#
# Elastic Compliance Matrix: (Units=1/GPa)
#
#
# Indices 1 2 3 4 5 6 
#
# 1 0.010310 0.000124 -0.004352 0.000000 0.000000 0.000000
# 2 0.000124 0.014036 -0.005888 0.000000 0.000000 0.000000
# 3 -0.004352 -0.005888 0.015196 0.000000 0.000000 0.000000
# 4 0.000000 0.000000 0.000000 0.036452 0.000000 0.000000
# 5 0.000000 0.000000 0.000000 0.000000 0.295857 0.000000
# 6 0.000000 0.000000 0.000000 0.000000 0.000000 0.072539
#
#
# Mechanical properties :
#
#
# Convention : Reuss Voigt Hill
#
# Bulk Modulus (GPa) = 51.78716 52.65064 52.21890
# Shear Modulus (GPa) = 10.61440 22.27085 16.44262
#
# Velocity S-wave (km/s) = 2.16155 3.13103 2.69032
# Velocity P-wave (km/s) = 5.38756 6.02056 5.71283
#
# Compressibility (1/GPa) = 0.01930981
#
# Stress axis : x y z
#
# Youngs Moduli (GPa) = 96.99486 71.24662 65.80767
#
# Poissons Ratio (x) = -0.00886 0.28641
# Poissons Ratio (y) = -0.01206 0.38746
# Poissons Ratio (z) = 0.42215 0.41949
#
# Static dielectric constant tensor:
#      x y z
#    x 1.932940 0.000000 0.000000 
#    y 0.000000 1.966540 0.000000 
#    z 0.000000 0.000000 1.903000 
# 
# From -- ./inp_files/16710.got.cif
#   From: 2010.05.17/outbox.cif.g08.bks.cpg/sg52_9_cif.got.tgz:16710.got - 2010.06.03 12:15:38.
