data_PCOD9409307
_publ_section_title
;
Structure prediction by ZEFSAII (Michael W. Deem and Ramdas Pophale) SiO2 
 PCOD9409307
Probable space group: P N N A
;
_chemical_formula_sum "Si O2"
_cell_formula_units_Z 60
_cell_length_a 10.643584
_cell_length_b 24.414423
_cell_length_c 9.347534
_cell_angle_alpha 90.000000
_cell_angle_beta 90.000000
_cell_angle_gamma 90.000000
_cell_volume 2429.021788
_symmetry_space_group_name_H-M "P N N A"
_symmetry_group_IT_number 52
_symmetry_cell_setting 'orthorhombic'
loop_
_space_group_symop_operation_xyz
x,y,z
1/2-x,-y,z
x,1/2-y,1/2-z
1/2-x,1/2+y,1/2-z
-x,-y,-z
1/2+x,y,-z
-x,1/2+y,1/2+z
1/2+x,1/2-y,1/2+z
loop_
_atom_site_type_symbol
_atom_site_label
_atom_site_fract_x
_atom_site_fract_y
_atom_site_fract_z
Si Si1 0.750000 0.500000 0.381752
Si Si2 0.073981 0.811171 0.734370
Si Si3 0.568621 0.427407 0.187446
Si Si4 0.805841 0.303842 0.926417
Si Si5 0.612991 0.401330 0.861581
Si Si6 0.333081 0.313482 0.465516
Si Si7 0.946544 0.809002 0.225728
Si Si8 0.304013 0.430366 0.347970
O O1 0.654643 0.469356 0.275529
O O2 0.683699 0.539283 0.499980
O O3 0.012605 0.750000 0.750000
O O4 0.993164 0.866626 0.720290
O O5 0.145512 0.808442 0.586023
O O6 0.168026 0.816558 0.866005
O O7 0.612870 0.366428 0.233848
O O8 0.428334 0.433496 0.251249
O O9 0.573018 0.428515 0.013555
O O10 0.709943 0.352402 0.901338
O O11 0.763413 0.240877 0.912497
O O12 0.929711 0.308399 0.829101
O O13 0.683670 0.442564 0.752947
O O14 0.482828 0.310318 0.426866
O O15 0.282047 0.367540 0.394372
O O16 0.884646 0.750000 0.250000
#
# Coordination Sequence:
#
# PCOD9409307 Si02
#       8
#     4   8   8   8   8   8   8   8
#     4  12  30  52  78 102 132 196 254 300 380 416
#     4  10  22  36  61 103 147 191 233 277 347 439
#     4  11  25  51  71 106 144 185 241 305 353 433
#     4  10  19  39  60 105 152 186 226 281 347 442
#     4  12  23  40  74 105 142 191 239 279 371 434
#     4   9  20  38  65  96 150 190 219 295 349 405
#     4   9  17  38  66  96 146 183 215 285 356 408
#     4  11  26  49  74 104 144 180 249 311 355 418
#
# _framework density 24.701301000000001
#
# number of rings (size 3 to 8) (size 9 to 14) (size 15 to 20)
#    0.000    1.600    4.000    0.400    7.467    0.533 
#    2.400    1.333    0.000    0.000    0.000    0.000 
#    0.000    0.000    0.000    0.000    0.000    0.000 
#
# Total GULP energy -335484.707659 kJ/mol
# GULP energy per Si atom -5591.411794 kJ/mol
# Density = 2.464508 g / cm^3
# Si number density = 24.701301 Si / 1000 Ang^3
#
#
#
# Elastic Constant Matrix: (Units=GPa)
#
#
# Indices 1 2 3 4 5 6 
#
# 1 39.6271 12.8381 22.4906 0.0000 0.0000 0.0000
# 2 12.8381 81.7414 23.2213 0.0000 0.0000 0.0000
# 3 22.4906 23.2213 121.2171 0.0000 0.0000 0.0000
# 4 0.0000 0.0000 0.0000 40.6731 0.0000 0.0000
# 5 0.0000 0.0000 0.0000 0.0000 34.9902 0.0000
# 6 0.0000 0.0000 0.0000 0.0000 0.0000 43.0330
#
#
#
# Elastic Compliance Matrix: (Units=1/GPa)
#
#
# Indices 1 2 3 4 5 6 
#
# 1 0.028975 -0.003197 -0.004763 0.000000 0.000000 0.000000
# 2 -0.003197 0.013291 -0.001953 0.000000 0.000000 0.000000
# 3 -0.004763 -0.001953 0.009508 0.000000 0.000000 0.000000
# 4 0.000000 0.000000 0.000000 0.024586 0.000000 0.000000
# 5 0.000000 0.000000 0.000000 0.000000 0.028579 0.000000
# 6 0.000000 0.000000 0.000000 0.000000 0.000000 0.023238
#
#
# Mechanical properties :
#
#
# Convention : Reuss Voigt Hill
#
# Bulk Modulus (GPa) = 31.30334 39.96506 35.63420
# Shear Modulus (GPa) = 31.51542 36.00829 33.76186
#
# Velocity S-wave (km/s) = 3.57579 3.82219 3.70104
# Velocity P-wave (km/s) = 5.45423 5.97439 5.72023
#
# Compressibility (1/GPa) = 0.03194548
#
# Stress axis : x y z
#
# Youngs Moduli (GPa) = 34.51289 75.24088 105.17945
#
# Poissons Ratio (x) = 0.24058 0.50101
# Poissons Ratio (y) = 0.11035 0.20539
# Poissons Ratio (z) = 0.16440 0.14693
#
# Static dielectric constant tensor:
#      x y z
#    x 1.974830 0.000000 0.000000 
#    y 0.000000 2.010560 0.000000 
#    z 0.000000 0.000000 2.115900 
# 
# From -- ./inp_files/9030.got.cif
#   From: 2010.05.17/outbox.cif.g08.bks.cpg/sg52_5_cif.got.tgz:9030.got - 2010.06.03 12:15:38.
