data_PCOD9409544
_publ_section_title
;
Structure prediction by ZEFSAII (Michael W. Deem and Ramdas Pophale) SiO2 
 PCOD9409544
Probable space group: P N N A
;
_chemical_formula_sum "Si O2"
_cell_formula_units_Z 64
_cell_length_a 22.017318
_cell_length_b 12.279944
_cell_length_c 13.015539
_cell_angle_alpha 90.000000
_cell_angle_beta 90.000000
_cell_angle_gamma 90.000000
_cell_volume 3519.029919
_symmetry_space_group_name_H-M "P N N A"
_symmetry_group_IT_number 52
_symmetry_cell_setting 'orthorhombic'
loop_
_space_group_symop_operation_xyz
x,y,z
1/2-x,-y,z
x,1/2-y,1/2-z
1/2-x,1/2+y,1/2-z
-x,-y,-z
1/2+x,y,-z
-x,1/2+y,1/2+z
1/2+x,1/2-y,1/2+z
loop_
_atom_site_type_symbol
_atom_site_label
_atom_site_fract_x
_atom_site_fract_y
_atom_site_fract_z
Si Si1 0.125984 0.289956 0.967083
Si Si2 0.284924 0.609970 0.595363
Si Si3 0.061826 0.778405 0.940313
Si Si4 0.551540 0.338457 0.837477
Si Si5 0.959642 0.470913 0.278350
Si Si6 0.683592 0.709239 0.139065
Si Si7 0.007499 0.298685 0.641781
Si Si8 0.833963 0.972151 0.316792
O O1 0.162611 0.174381 0.968381
O O2 0.064416 0.269611 0.902031
O O3 0.163432 0.378862 0.902336
O O4 0.104485 0.336772 0.077424
O O5 0.250000 0.500000 0.556352
O O6 0.235377 0.704640 0.611858
O O7 0.312461 0.574851 0.706449
O O8 0.058305 0.879794 0.861914
O O9 0.127238 0.723869 0.936220
O O10 0.008857 0.701633 0.896802
O O11 0.043461 0.805885 0.055493
O O12 0.566830 0.250000 0.750000
O O13 0.523420 0.441809 0.777636
O O14 0.967545 0.582218 0.337635
O O15 0.903374 0.486289 0.201323
O O16 0.660600 0.750000 0.250000
O O17 0.700742 0.582908 0.151563
O O18 0.986950 0.250000 0.750000
#
# Coordination Sequence:
#
# PCOD9409544 Si02
#       8
#     8   8   8   8   8   8   8   8
#     4  11  23  37  56  89 119 152 196 237 300 359
#     4  12  24  37  58  85 118 153 193 241 299 347
#     4  10  20  34  54  81 114 152 191 235 289 356
#     4   9  20  38  59  84 115 152 195 238 289 358
#     4  11  18  35  55  80 118 154 187 233 296 356
#     4  12  21  36  55  80 117 155 192 233 288 350
#     4  11  21  34  53  82 120 149 189 243 296 355
#     4  12  22  35  57  85 122 154 187 238 294 361
#
# _framework density 18.18683
#
# number of rings (size 3 to 8) (size 9 to 14) (size 15 to 20)
#    0.000    1.000    6.250    1.875    0.000    1.500 
#    0.000    0.000    0.000    0.750    3.250    0.000 
#    0.000    0.000    0.000    0.000    0.000    0.000 
#
# Total GULP energy -356973.695862 kJ/mol
# GULP energy per Si atom -5577.713998 kJ/mol
# Density = 1.814544 g / cm^3
# Si number density = 18.186830 Si / 1000 Ang^3
#
#
#
# Elastic Constant Matrix: (Units=GPa)
#
#
# Indices 1 2 3 4 5 6 
#
# 1 66.1478 29.8278 29.5152 0.0000 0.0000 0.0000
# 2 29.8278 91.7284 14.8387 0.0000 0.0000 0.0000
# 3 29.5152 14.8387 66.5536 0.0000 0.0000 0.0000
# 4 0.0000 0.0000 0.0000 2.8889 0.0000 0.0000
# 5 0.0000 0.0000 0.0000 0.0000 26.2787 0.0000
# 6 0.0000 0.0000 0.0000 0.0000 0.0000 28.7542
#
#
#
# Elastic Compliance Matrix: (Units=1/GPa)
#
#
# Indices 1 2 3 4 5 6 
#
# 1 0.021301 -0.005600 -0.008198 0.000000 0.000000 0.000000
# 2 -0.005600 0.012782 -0.000366 0.000000 0.000000 0.000000
# 3 -0.008198 -0.000366 0.018743 0.000000 0.000000 0.000000
# 4 0.000000 0.000000 0.000000 0.346148 0.000000 0.000000
# 5 0.000000 0.000000 0.000000 0.000000 0.038054 0.000000
# 6 0.000000 0.000000 0.000000 0.000000 0.000000 0.034777
#
#
# Mechanical properties :
#
#
# Convention : Reuss Voigt Hill
#
# Bulk Modulus (GPa) = 40.82167 41.42146 41.12157
# Shear Modulus (GPa) = 9.83673 21.60090 15.71881
#
# Velocity S-wave (km/s) = 2.32819 3.45007 2.94308
# Velocity P-wave (km/s) = 5.45176 6.22058 5.84882
#
# Compressibility (1/GPa) = 0.02449679
#
# Stress axis : x y z
#
# Youngs Moduli (GPa) = 46.94633 78.23442 53.35396
#
# Poissons Ratio (x) = 0.43814 0.43739
# Poissons Ratio (y) = 0.26292 0.01954
# Poissons Ratio (z) = 0.38486 0.02865
#
# Static dielectric constant tensor:
#      x y z
#    x 1.673930 0.000000 0.000000 
#    y 0.000000 1.663590 0.000000 
#    z 0.000000 0.000000 1.634090 
# 
# From -- ./inp_files/22504.got.cif
#   From: 2010.05.17/outbox.cif.g08.bks.cpg/sg52_12_cif.got.tgz:22504.got - 2010.06.03 12:15:38.
