data_PCOD9409392
_publ_section_title
;
Structure prediction by ZEFSAII (Michael W. Deem and Ramdas Pophale) SiO2 
 PCOD9409392
Probable space group: P N N A
;
_chemical_formula_sum "Si O2"
_cell_formula_units_Z 48
_cell_length_a 16.519296
_cell_length_b 11.278186
_cell_length_c 11.435812
_cell_angle_alpha 90.000000
_cell_angle_beta 90.000000
_cell_angle_gamma 90.000000
_cell_volume 2130.579750
_symmetry_space_group_name_H-M "P N N A"
_symmetry_group_IT_number 52
_symmetry_cell_setting 'orthorhombic'
loop_
_space_group_symop_operation_xyz
x,y,z
1/2-x,-y,z
x,1/2-y,1/2-z
1/2-x,1/2+y,1/2-z
-x,-y,-z
1/2+x,y,-z
-x,1/2+y,1/2+z
1/2+x,1/2-y,1/2+z
loop_
_atom_site_type_symbol
_atom_site_label
_atom_site_fract_x
_atom_site_fract_y
_atom_site_fract_z
Si Si1 0.543195 0.150750 0.655365
Si Si2 0.567342 0.560277 0.677240
Si Si3 0.810919 0.772573 0.517364
Si Si4 0.250000 0.000000 0.606554
Si Si5 0.797192 0.250000 0.750000
Si Si6 0.372055 0.374293 0.756277
Si Si7 0.401191 0.939205 0.932189
O O1 0.567472 0.250000 0.750000
O O2 0.598504 0.178040 0.545395
O O3 0.446296 0.159354 0.657418
O O4 0.557445 0.021839 0.709154
O O5 0.640269 0.646705 0.710330
O O6 0.481011 0.613855 0.633247
O O7 0.586106 0.472750 0.568219
O O8 0.761146 0.879246 0.461621
O O9 0.762798 0.755458 0.638678
O O10 0.827393 0.654741 0.439983
O O11 0.326895 0.017054 0.686715
O O12 0.325169 0.250000 0.750000
O O13 0.393204 0.432305 0.631522
#
# Coordination Sequence:
#
# PCOD9409392 Si02
#       7
#     8   8   8   4   4   8   8
#     4  10  19  44  69  94 133 173 220 279 345 413
#     4  10  22  41  68 104 129 178 235 281 349 421
#     4  12  25  43  70 100 137 183 223 289 359 427
#     4  12  30  42  60 104 130 172 234 278 354 404
#     4  12  26  40  68 106 150 170 222 308 360 404
#     4  10  26  45  68  93 136 182 227 288 339 412
#     4  10  23  43  73  93 130 191 240 272 345 437
#
# _framework density 22.529078999999999
#
# number of rings (size 3 to 8) (size 9 to 14) (size 15 to 20)
#    0.000    1.333    2.500    1.000    7.000    5.333 
#    0.000    0.000    0.000    0.000    0.000    0.000 
#    0.000    0.000    0.000    0.000    0.000    0.000 
#
# Total GULP energy -267454.402534 kJ/mol
# GULP energy per Si atom -5571.966719 kJ/mol
# Density = 2.247780 g / cm^3
# Si number density = 22.529079 Si / 1000 Ang^3
#
#
#
# Elastic Constant Matrix: (Units=GPa)
#
#
# Indices 1 2 3 4 5 6 
#
# 1 62.0369 40.9253 14.0692 0.0000 0.0000 0.0000
# 2 40.9253 85.9129 30.8204 0.0000 0.0000 0.0000
# 3 14.0692 30.8204 31.9747 0.0000 0.0000 0.0000
# 4 0.0000 0.0000 0.0000 30.1896 0.0000 0.0000
# 5 0.0000 0.0000 0.0000 0.0000 26.0869 0.0000
# 6 0.0000 0.0000 0.0000 0.0000 0.0000 39.2462
#
#
#
# Elastic Compliance Matrix: (Units=1/GPa)
#
#
# Indices 1 2 3 4 5 6 
#
# 1 0.023516 -0.011449 0.000688 0.000000 0.000000 0.000000
# 2 -0.011449 0.023366 -0.017485 0.000000 0.000000 0.000000
# 3 0.000688 -0.017485 0.047825 0.000000 0.000000 0.000000
# 4 0.000000 0.000000 0.000000 0.033124 0.000000 0.000000
# 5 0.000000 0.000000 0.000000 0.000000 0.038333 0.000000
# 6 0.000000 0.000000 0.000000 0.000000 0.000000 0.025480
#
#
# Mechanical properties :
#
#
# Convention : Reuss Voigt Hill
#
# Bulk Modulus (GPa) = 26.16660 39.06161 32.61410
# Shear Modulus (GPa) = 19.16626 25.37853 22.27239
#
# Velocity S-wave (km/s) = 2.91990 3.35995 3.14762
# Velocity P-wave (km/s) = 4.79662 5.69458 5.26478
#
# Compressibility (1/GPa) = 0.03821665
#
# Stress axis : x y z
#
# Youngs Moduli (GPa) = 42.52396 42.79711 20.90935
#
# Poissons Ratio (x) = 0.48999 -0.01439
# Poissons Ratio (y) = 0.48686 0.36560
# Poissons Ratio (z) = -0.02927 0.74830
#
# Static dielectric constant tensor:
#      x y z
#    x 1.928060 0.000000 0.000000 
#    y 0.000000 2.013510 0.000000 
#    z 0.000000 0.000000 2.039420 
# 
# From -- ./inp_files/20647.got.cif
#   From: 2010.05.17/outbox.cif.g08.bks.cpg/sg52_11_cif.got.tgz:20647.got - 2010.06.03 12:15:38.
