data_PCOD9409298
_publ_section_title
;
Structure prediction by ZEFSAII (Michael W. Deem and Ramdas Pophale) SiO2 
 PCOD9409298
Probable space group: P N N A
;
_chemical_formula_sum "Si O2"
_cell_formula_units_Z 48
_cell_length_a 33.068480
_cell_length_b 9.082801
_cell_length_c 7.905990
_cell_angle_alpha 90.000000
_cell_angle_beta 90.000000
_cell_angle_gamma 90.000000
_cell_volume 2374.599066
_symmetry_space_group_name_H-M "P N N A"
_symmetry_group_IT_number 52
_symmetry_cell_setting 'orthorhombic'
loop_
_space_group_symop_operation_xyz
x,y,z
1/2-x,-y,z
x,1/2-y,1/2-z
1/2-x,1/2+y,1/2-z
-x,-y,-z
1/2+x,y,-z
-x,1/2+y,1/2+z
1/2+x,1/2-y,1/2+z
loop_
_atom_site_type_symbol
_atom_site_label
_atom_site_fract_x
_atom_site_fract_y
_atom_site_fract_z
Si Si1 0.829177 0.750000 0.250000
Si Si2 0.039669 0.589527 0.028757
Si Si3 0.794477 0.999320 0.021964
Si Si4 0.623906 0.993902 0.440057
Si Si5 0.125924 0.920973 0.182348
Si Si6 0.541707 0.922939 0.937414
Si Si7 0.324957 0.250000 0.750000
O O1 0.803712 0.844994 0.114903
O O2 0.856639 0.630405 0.154498
O O3 0.037679 0.760589 0.987572
O O4 0.043229 0.581460 0.232649
O O5 0.075986 0.523242 0.919171
O O6 0.000000 0.500000 0.000000
O O7 0.750000 0.000000 0.942895
O O8 0.797228 0.129021 0.160687
O O9 0.831309 0.044247 0.901431
O O10 0.626452 0.010343 0.642496
O O11 0.646509 0.845363 0.376184
O O12 0.121503 0.750000 0.250000
O O13 0.090032 0.963305 0.047759
O O14 0.500000 0.000000 0.000000
#
# Coordination Sequence:
#
# PCOD9409298 Si02
#       7
#     4   8   8   8   8   8   4
#     4  10  25  42  62  98 134 164 220 276 330 390
#     4  10  21  36  55  85 124 153 205 260 313 381
#     4  11  23  41  65  98 128 171 217 269 330 389
#     4  10  21  41  63  89 127 173 214 263 326 395
#     4  11  20  44  69  91 130 175 224 265 328 404
#     4  10  21  39  62  87 119 163 211 262 315 379
#     4  10  19  38  68  84 120 172 210 256 318 396
#
# _framework density 20.213939
#
# number of rings (size 3 to 8) (size 9 to 14) (size 15 to 20)
#    0.000    1.667    5.000    0.500    0.000    8.000 
#    3.000    4.167    0.000    0.000    0.000    0.000 
#    0.000    0.000    0.000    0.000    0.000    0.000 
#
# Total GULP energy -267362.073101 kJ/mol
# GULP energy per Si atom -5570.043190 kJ/mol
# Density = 2.016793 g / cm^3
# Si number density = 20.213939 Si / 1000 Ang^3
#
#
#
# Elastic Constant Matrix: (Units=GPa)
#
#
# Indices 1 2 3 4 5 6 
#
# 1 188.1767 53.0963 28.4361 0.0000 0.0000 0.0000
# 2 53.0963 89.8751 20.5357 0.0000 0.0000 0.0000
# 3 28.4361 20.5357 36.4748 0.0000 0.0000 0.0000
# 4 0.0000 0.0000 0.0000 27.0257 0.0000 0.0000
# 5 0.0000 0.0000 0.0000 0.0000 29.7329 0.0000
# 6 0.0000 0.0000 0.0000 0.0000 0.0000 16.7749
#
#
#
# Elastic Compliance Matrix: (Units=1/GPa)
#
#
# Indices 1 2 3 4 5 6 
#
# 1 0.006737 -0.003190 -0.003456 0.000000 0.000000 0.000000
# 2 -0.003190 0.014280 -0.005553 0.000000 0.000000 0.000000
# 3 -0.003456 -0.005553 0.033237 0.000000 0.000000 0.000000
# 4 0.000000 0.000000 0.000000 0.037002 0.000000 0.000000
# 5 0.000000 0.000000 0.000000 0.000000 0.033633 0.000000
# 6 0.000000 0.000000 0.000000 0.000000 0.000000 0.059613
#
#
# Mechanical properties :
#
#
# Convention : Reuss Voigt Hill
#
# Bulk Modulus (GPa) = 33.49430 57.62920 45.56175
# Shear Modulus (GPa) = 22.84674 28.87061 25.85867
#
# Velocity S-wave (km/s) = 3.36556 3.78332 3.58054
# Velocity P-wave (km/s) = 5.63103 6.90335 6.29940
#
# Compressibility (1/GPa) = 0.02985583
#
# Stress axis : x y z
#
# Youngs Moduli (GPa) = 148.44472 70.02812 30.08736
#
# Poissons Ratio (x) = 0.22340 0.10397
# Poissons Ratio (y) = 0.47357 0.16707
# Poissons Ratio (z) = 0.51299 0.38884
#
# Static dielectric constant tensor:
#      x y z
#    x 1.808980 0.000000 0.000000 
#    y 0.000000 1.704560 0.000000 
#    z 0.000000 0.000000 1.781350 
# 
# From -- ./inp_files/15596.got.cif
#   From: 2010.05.17/outbox.cif.g08.bks.cpg/sg52_8_cif.got.tgz:15596.got - 2010.06.03 12:15:38.
