data_PCOD9409627
_publ_section_title
;
Structure prediction by ZEFSAII (Michael W. Deem and Ramdas Pophale) SiO2 
 PCOD9409627
Probable space group: P N N A
;
_chemical_formula_sum "Si O2"
_cell_formula_units_Z 48
_cell_length_a 9.297725
_cell_length_b 14.300885
_cell_length_c 20.023805
_cell_angle_alpha 90.000000
_cell_angle_beta 90.000000
_cell_angle_gamma 90.000000
_cell_volume 2662.479168
_symmetry_space_group_name_H-M "P N N A"
_symmetry_group_IT_number 52
_symmetry_cell_setting 'orthorhombic'
loop_
_space_group_symop_operation_xyz
x,y,z
1/2-x,-y,z
x,1/2-y,1/2-z
1/2-x,1/2+y,1/2-z
-x,-y,-z
1/2+x,y,-z
-x,1/2+y,1/2+z
1/2+x,1/2-y,1/2+z
loop_
_atom_site_type_symbol
_atom_site_label
_atom_site_fract_x
_atom_site_fract_y
_atom_site_fract_z
Si Si1 0.267429 0.653919 0.043906
Si Si2 0.718551 0.643714 0.266578
Si Si3 0.944629 0.522962 0.196673
Si Si4 0.750000 0.500000 0.070444
Si Si5 0.250000 0.500000 0.154135
Si Si6 0.983476 0.282181 0.510020
Si Si7 0.255932 0.889430 0.923463
O O1 0.290359 0.585332 0.105506
O O2 0.407336 0.716982 0.031750
O O3 0.242995 0.589701 0.977815
O O4 0.124092 0.716180 0.052287
O O5 0.681771 0.750000 0.250000
O O6 0.864215 0.611244 0.228949
O O7 0.605865 0.568427 0.237559
O O8 0.736382 0.630235 0.345203
O O9 0.884213 0.510548 0.121049
O O10 0.113626 0.529760 0.196385
O O11 0.874158 0.340118 0.463517
O O12 0.091874 0.346845 0.552188
O O13 0.250000 0.000000 0.935398
#
# Coordination Sequence:
#
# PCOD9409627 Si02
#       7
#     8   8   8   4   4   8   8
#     4  10  20  35  53  96 117 161 175 242 284 349
#     4  10  23  40  66  79 111 159 206 235 277 356
#     4  10  22  39  58  92 109 163 194 236 290 356
#     4   9  18  34  62  78 132 155 194 212 288 361
#     4  11  22  34  58  84 142 137 184 238 306 337
#     4  10  23  33  64  86 114 146 202 237 289 342
#     4  11  22  44  60  85 112 148 198 250 295 335
#
# _framework density 18.028310000000001
#
# number of rings (size 3 to 8) (size 9 to 14) (size 15 to 20)
#    0.000    2.000    1.667    2.500   14.000    2.667 
#    0.000    4.167    0.000    0.000    0.000    0.000 
#    0.000    0.000    0.000    0.000    0.000    0.000 
#
# Total GULP energy -267964.762892 kJ/mol
# GULP energy per Si atom -5582.599227 kJ/mol
# Density = 1.798728 g / cm^3
# Si number density = 18.028310 Si / 1000 Ang^3
#
#
#
# Elastic Constant Matrix: (Units=GPa)
#
#
# Indices 1 2 3 4 5 6 
#
# 1 69.9158 -4.9381 4.8006 0.0000 0.0000 0.0000
# 2 -4.9381 79.0485 8.6177 0.0000 0.0000 0.0000
# 3 4.8006 8.6177 71.7921 0.0000 0.0000 0.0000
# 4 0.0000 0.0000 0.0000 42.1390 0.0000 0.0000
# 5 0.0000 0.0000 0.0000 0.0000 2.3989 0.0000
# 6 0.0000 0.0000 0.0000 0.0000 0.0000 13.6729
#
#
#
# Elastic Compliance Matrix: (Units=1/GPa)
#
#
# Indices 1 2 3 4 5 6 
#
# 1 0.014450 0.001021 -0.001089 0.000000 0.000000 0.000000
# 2 0.001021 0.012890 -0.001616 0.000000 0.000000 0.000000
# 3 -0.001089 -0.001616 0.014196 0.000000 0.000000 0.000000
# 4 0.000000 0.000000 0.000000 0.023731 0.000000 0.000000
# 5 0.000000 0.000000 0.000000 0.000000 0.416859 0.000000
# 6 0.000000 0.000000 0.000000 0.000000 0.000000 0.073137
#
#
# Mechanical properties :
#
#
# Convention : Reuss Voigt Hill
#
# Bulk Modulus (GPa) = 26.19862 26.41295 26.30579
# Shear Modulus (GPa) = 8.75115 25.79390 17.27253
#
# Velocity S-wave (km/s) = 2.20560 3.78662 3.09864
# Velocity P-wave (km/s) = 4.58799 5.81383 5.23690
#
# Compressibility (1/GPa) = 0.03816995
#
# Stress axis : x y z
#
# Youngs Moduli (GPa) = 69.20501 77.57711 70.44309
#
# Poissons Ratio (x) = -0.07924 0.07670
# Poissons Ratio (y) = -0.07068 0.11381
# Poissons Ratio (z) = 0.07535 0.12534
#
# Static dielectric constant tensor:
#      x y z
#    x 1.615110 0.000000 0.000000 
#    y 0.000000 1.623350 0.000000 
#    z 0.000000 0.000000 1.590840 
# 
# From -- ./inp_files/35927.got.cif
#   From: 2010.05.17/outbox.cif.g08.bks.cpg/sg52_18_cif.got.tgz:35927.got - 2010.06.03 12:15:38.
