data_PCOD9409998
_publ_section_title
;
Structure prediction by ZEFSAII (Michael W. Deem and Ramdas Pophale) SiO2 
 PCOD9409998
Probable space group: P N N A
;
_chemical_formula_sum "Si O2"
_cell_formula_units_Z 44
_cell_length_a 8.459211
_cell_length_b 18.944159
_cell_length_c 14.985629
_cell_angle_alpha 90.000000
_cell_angle_beta 90.000000
_cell_angle_gamma 90.000000
_cell_volume 2401.486582
_symmetry_space_group_name_H-M "P N N A"
_symmetry_group_IT_number 52
_symmetry_cell_setting 'orthorhombic'
loop_
_space_group_symop_operation_xyz
x,y,z
1/2-x,-y,z
x,1/2-y,1/2-z
1/2-x,1/2+y,1/2-z
-x,-y,-z
1/2+x,y,-z
-x,1/2+y,1/2+z
1/2+x,1/2-y,1/2+z
loop_
_atom_site_type_symbol
_atom_site_label
_atom_site_fract_x
_atom_site_fract_y
_atom_site_fract_z
Si Si1 0.750000 0.000000 0.980134
Si Si2 0.504616 0.275371 0.611717
Si Si3 0.929160 0.750000 0.250000
Si Si4 0.959129 0.934981 0.115001
Si Si5 0.621175 0.713954 0.588339
Si Si6 0.639363 0.649694 0.229646
Si Si7 0.250000 0.000000 0.734110
O O1 0.597536 0.984932 0.921703
O O2 0.810634 0.937570 0.045785
O O3 0.692207 0.279491 0.600206
O O4 0.425337 0.275442 0.514535
O O5 0.452385 0.340532 0.675965
O O6 0.447778 0.203808 0.662214
O O7 0.808443 0.684513 0.252798
O O8 0.034535 0.761925 0.337762
O O9 0.886554 0.966113 0.204328
O O10 0.047676 0.861221 0.115784
O O11 0.668462 0.570609 0.193508
#
# Coordination Sequence:
#
# PCOD9409998 Si02
#       7
#     4   8   4   8   8   8   4
#     4   9  20  32  44  82 121 150 190 221 292 378
#     4  10  23  37  62  84 125 151 207 238 311 345
#     4  10  20  38  58  84 120 146 214 242 306 344
#     4  10  21  31  53  82 118 155 187 239 295 362
#     4  12  21  37  61  91 113 162 194 264 287 367
#     4  10  22  41  56  88 118 166 193 255 286 372
#     4  11  22  38  58  82 125 160 196 243 306 354
#
# _framework density 18.321985000000002
#
# number of rings (size 3 to 8) (size 9 to 14) (size 15 to 20)
#    0.000    1.818    1.818    4.364   10.182    0.000 
#    0.000    0.000    0.000    4.364    0.000    0.000 
#    0.000    0.000    0.000    0.000    0.000    0.000 
#
# Total GULP energy -245094.880537 kJ/mol
# GULP energy per Si atom -5570.338194 kJ/mol
# Density = 1.828028 g / cm^3
# Si number density = 18.321985 Si / 1000 Ang^3
#
#
#
# Elastic Constant Matrix: (Units=GPa)
#
#
# Indices 1 2 3 4 5 6 
#
# 1 133.5907 33.5600 45.8227 0.0000 0.0000 0.0000
# 2 33.5600 90.1468 9.0416 0.0000 0.0000 0.0000
# 3 45.8227 9.0416 65.8360 0.0000 0.0000 0.0000
# 4 0.0000 0.0000 0.0000 11.3328 0.0000 0.0000
# 5 0.0000 0.0000 0.0000 0.0000 30.7508 0.0000
# 6 0.0000 0.0000 0.0000 0.0000 0.0000 26.1591
#
#
#
# Elastic Compliance Matrix: (Units=1/GPa)
#
#
# Indices 1 2 3 4 5 6 
#
# 1 0.010714 -0.003286 -0.007006 0.000000 0.000000 0.000000
# 2 -0.003286 0.012256 0.000604 0.000000 0.000000 0.000000
# 3 -0.007006 0.000604 0.019983 0.000000 0.000000 0.000000
# 4 0.000000 0.000000 0.000000 0.088239 0.000000 0.000000
# 5 0.000000 0.000000 0.000000 0.000000 0.032519 0.000000
# 6 0.000000 0.000000 0.000000 0.000000 0.000000 0.038228
#
#
# Mechanical properties :
#
#
# Convention : Reuss Voigt Hill
#
# Bulk Modulus (GPa) = 42.41506 51.82466 47.11986
# Shear Modulus (GPa) = 21.81754 27.05850 24.43802
#
# Velocity S-wave (km/s) = 3.45452 3.84713 3.65610
# Velocity P-wave (km/s) = 6.25393 6.93403 6.60274
#
# Compressibility (1/GPa) = 0.02357653
#
# Stress axis : x y z
#
# Youngs Moduli (GPa) = 93.33477 81.59433 50.04375
#
# Poissons Ratio (x) = 0.26812 0.35060
# Poissons Ratio (y) = 0.30670 -0.03022
# Poissons Ratio (z) = 0.65389 -0.04928
#
# Static dielectric constant tensor:
#      x y z
#    x 1.626850 0.000000 0.000000 
#    y 0.000000 1.732650 0.000000 
#    z 0.000000 0.000000 1.693510 
# 
# From -- ./inp_files/24678.got.cif
#   From: 2010.05.17/outbox.cif.g08.bks.cpg/sg52_13_cif.got.tgz:24678.got - 2010.06.03 12:15:38.
