data_PCOD9409538
_publ_section_title
;
Structure prediction by ZEFSAII (Michael W. Deem and Ramdas Pophale) SiO2 
 PCOD9409538
Probable space group: P N N A
;
_chemical_formula_sum "Si O2"
_cell_formula_units_Z 28
_cell_length_a 15.956529
_cell_length_b 8.281875
_cell_length_c 8.613763
_cell_angle_alpha 90.000000
_cell_angle_beta 90.000000
_cell_angle_gamma 90.000000
_cell_volume 1138.308596
_symmetry_space_group_name_H-M "P N N A"
_symmetry_group_IT_number 52
_symmetry_cell_setting 'orthorhombic'
loop_
_space_group_symop_operation_xyz
x,y,z
1/2-x,-y,z
x,1/2-y,1/2-z
1/2-x,1/2+y,1/2-z
-x,-y,-z
1/2+x,y,-z
-x,1/2+y,1/2+z
1/2+x,1/2-y,1/2+z
loop_
_atom_site_type_symbol
_atom_site_label
_atom_site_fract_x
_atom_site_fract_y
_atom_site_fract_z
Si Si1 0.610366 0.054090 0.548492
Si Si2 0.250000 0.000000 0.243695
Si Si3 0.892471 0.332360 0.538817
Si Si4 0.461009 0.982167 0.758252
O O1 0.618310 0.859058 0.537212
O O2 0.594175 0.107448 0.372925
O O3 0.692524 0.107367 0.639631
O O4 0.528163 0.083700 0.653436
O O5 0.183180 0.911548 0.134431
O O6 0.903884 0.411012 0.370333
O O7 0.977273 0.379268 0.632104
#
# Coordination Sequence:
#
# PCOD9409538 Si02
#       4
#     8   4   8   8
#     4  10  20  38  57  82 114 143 177 229 272 318
#     4  10  20  34  54  76 112 148 180 218 270 322
#     4  10  20  38  57  82 114 143 177 229 272 318
#     4   9  19  36  61  81 106 144 187 221 269 328
#
# _framework density 24.597901
#
# number of rings (size 3 to 8) (size 9 to 14) (size 15 to 20)
#    0.000    2.286    0.000    4.286    0.000    1.143 
#    0.000   57.143    0.000    0.000    0.000    0.000 
#    0.000    0.000    0.000    0.000    0.000    0.000 
#
# Total GULP energy -156677.657453 kJ/mol
# GULP energy per Si atom -5595.630623 kJ/mol
# Density = 2.454191 g / cm^3
# Si number density = 24.597901 Si / 1000 Ang^3
#
#
#
# Elastic Constant Matrix: (Units=GPa)
#
#
# Indices 1 2 3 4 5 6 
#
# 1 151.8567 37.8705 75.7889 0.0000 0.0000 0.0000
# 2 37.8705 80.7330 39.7131 0.0000 0.0000 0.0000
# 3 75.7889 39.7131 204.7032 0.0000 0.0000 0.0000
# 4 0.0000 0.0000 0.0000 35.0627 0.0000 0.0000
# 5 0.0000 0.0000 0.0000 0.0000 48.7085 0.0000
# 6 0.0000 0.0000 0.0000 0.0000 0.0000 33.3483
#
#
#
# Elastic Compliance Matrix: (Units=1/GPa)
#
#
# Indices 1 2 3 4 5 6 
#
# 1 0.008588 -0.002724 -0.002651 0.000000 0.000000 0.000000
# 2 -0.002724 0.014558 -0.001816 0.000000 0.000000 0.000000
# 3 -0.002651 -0.001816 0.006219 0.000000 0.000000 0.000000
# 4 0.000000 0.000000 0.000000 0.028520 0.000000 0.000000
# 5 0.000000 0.000000 0.000000 0.000000 0.020530 0.000000
# 6 0.000000 0.000000 0.000000 0.000000 0.000000 0.029987
#
#
# Mechanical properties :
#
#
# Convention : Reuss Voigt Hill
#
# Bulk Modulus (GPa) = 66.74520 82.67087 74.70804
# Shear Modulus (GPa) = 39.13076 42.35194 40.74135
#
# Velocity S-wave (km/s) = 3.99283 4.15392 4.07417
# Velocity P-wave (km/s) = 6.96063 7.52919 7.25048
#
# Compressibility (1/GPa) = 0.01498235
#
# Stress axis : x y z
#
# Youngs Moduli (GPa) = 116.44733 68.69307 160.80208
#
# Poissons Ratio (x) = 0.18714 0.42627
# Poissons Ratio (y) = 0.31723 0.29195
# Poissons Ratio (z) = 0.30869 0.12472
#
# Static dielectric constant tensor:
#      x y z
#    x 1.941660 0.000000 0.000000 
#    y 0.000000 2.071460 0.000000 
#    z 0.000000 0.000000 2.010350 
# 
# From -- ./inp_files/11348.got.cif
#   From: 2010.05.17/outbox.cif.g08.bks.cpg/sg52_6_cif.got.tgz:11348.got - 2010.06.03 12:15:38.
