data_PCOD9409384
_publ_section_title
;
Structure prediction by ZEFSAII (Michael W. Deem and Ramdas Pophale) SiO2 
 PCOD9409384
Probable space group: P N N A
;
_chemical_formula_sum "Si O2"
_cell_formula_units_Z 48
_cell_length_a 10.539700
_cell_length_b 15.866480
_cell_length_c 14.124048
_cell_angle_alpha 90.000000
_cell_angle_beta 90.000000
_cell_angle_gamma 90.000000
_cell_volume 2361.935441
_symmetry_space_group_name_H-M "P N N A"
_symmetry_group_IT_number 52
_symmetry_cell_setting 'orthorhombic'
loop_
_space_group_symop_operation_xyz
x,y,z
1/2-x,-y,z
x,1/2-y,1/2-z
1/2-x,1/2+y,1/2-z
-x,-y,-z
1/2+x,y,-z
-x,1/2+y,1/2+z
1/2+x,1/2-y,1/2+z
loop_
_atom_site_type_symbol
_atom_site_label
_atom_site_fract_x
_atom_site_fract_y
_atom_site_fract_z
Si Si1 0.865811 0.438851 0.270798
Si Si2 0.993414 0.156253 0.080925
Si Si3 0.283989 0.777491 0.962300
Si Si4 0.121887 0.250000 0.250000
Si Si5 0.748937 0.250000 0.250000
Si Si6 0.244187 0.865453 0.380334
Si Si7 0.541937 0.993484 0.607013
O O1 0.750000 0.500000 0.297344
O O2 0.818797 0.342775 0.247842
O O3 0.965879 0.426902 0.356804
O O4 0.934583 0.479433 0.180568
O O5 0.037043 0.224501 0.160672
O O6 0.856235 0.181093 0.039829
O O7 0.106867 0.162527 0.005795
O O8 0.316460 0.754147 0.853474
O O9 0.267377 0.696975 0.031236
O O10 0.215448 0.177517 0.282914
O O11 0.345164 0.939763 0.386596
O O12 0.103305 0.902134 0.376890
O O13 0.500000 0.000000 0.500000
#
# Coordination Sequence:
#
# PCOD9409384 Si02
#       7
#     8   8   8   4   4   8   8
#     4  11  24  42  70  99 136 185 230 280 344 421
#     4  10  21  42  65  97 128 182 225 278 332 408
#     4  10  22  38  70  94 135 178 229 276 343 408
#     4  10  19  42  69  88 137 186 227 268 343 426
#     4  10  23  42  67 100 131 182 233 280 339 418
#     4  10  23  38  64 101 133 180 219 282 357 416
#     4  11  24  37  61 101 147 168 217 290 363 420
#
# _framework density 20.322317000000002
#
# number of rings (size 3 to 8) (size 9 to 14) (size 15 to 20)
#    0.000    1.667    1.667    3.000   14.000    0.000 
#    0.000   14.167    0.000    8.000    0.000    0.000 
#    0.000    0.000    0.000    0.000    0.000    0.000 
#
# Total GULP energy -267498.748505 kJ/mol
# GULP energy per Si atom -5572.890594 kJ/mol
# Density = 2.027606 g / cm^3
# Si number density = 20.322317 Si / 1000 Ang^3
#
#
#
# Elastic Constant Matrix: (Units=GPa)
#
#
# Indices 1 2 3 4 5 6 
#
# 1 110.0376 44.6948 65.7308 0.0000 0.0000 0.0000
# 2 44.6948 74.0907 32.5212 0.0000 0.0000 0.0000
# 3 65.7308 32.5212 109.1845 0.0000 0.0000 0.0000
# 4 0.0000 0.0000 0.0000 29.3261 0.0000 0.0000
# 5 0.0000 0.0000 0.0000 0.0000 24.4219 0.0000
# 6 0.0000 0.0000 0.0000 0.0000 0.0000 36.2530
#
#
#
# Elastic Compliance Matrix: (Units=1/GPa)
#
#
# Indices 1 2 3 4 5 6 
#
# 1 0.016482 -0.006428 -0.008008 0.000000 0.000000 0.000000
# 2 -0.006428 0.018034 -0.001502 0.000000 0.000000 0.000000
# 3 -0.008008 -0.001502 0.014427 0.000000 0.000000 0.000000
# 4 0.000000 0.000000 0.000000 0.034099 0.000000 0.000000
# 5 0.000000 0.000000 0.000000 0.000000 0.040947 0.000000
# 6 0.000000 0.000000 0.000000 0.000000 0.000000 0.027584
#
#
# Mechanical properties :
#
#
# Convention : Reuss Voigt Hill
#
# Bulk Modulus (GPa) = 58.58987 64.35626 61.47307
# Shear Modulus (GPa) = 26.43579 28.02459 27.23019
#
# Velocity S-wave (km/s) = 3.61061 3.71753 3.66446
# Velocity P-wave (km/s) = 6.80257 7.08260 6.94399
#
# Compressibility (1/GPa) = 0.01706780
#
# Stress axis : x y z
#
# Youngs Moduli (GPa) = 60.67158 55.45174 69.31408
#
# Poissons Ratio (x) = 0.35643 0.55507
# Poissons Ratio (y) = 0.38998 0.10410
# Poissons Ratio (z) = 0.48586 0.08328
#
# Static dielectric constant tensor:
#      x y z
#    x 1.791680 0.000000 0.000000 
#    y 0.000000 1.753740 0.000000 
#    z 0.000000 0.000000 1.725530 
# 
# From -- ./inp_files/24751.got.cif
#   From: 2010.05.17/outbox.cif.g08.bks.cpg/sg52_13_cif.got.tgz:24751.got - 2010.06.03 12:15:38.
