data_PCOD9409803
_publ_section_title
;
Structure prediction by ZEFSAII (Michael W. Deem and Ramdas Pophale) SiO2 
 PCOD9409803
Probable space group: P N N A
;
_chemical_formula_sum "Si O2"
_cell_formula_units_Z 48
_cell_length_a 18.213962
_cell_length_b 8.650930
_cell_length_c 15.207384
_cell_angle_alpha 90.000000
_cell_angle_beta 90.000000
_cell_angle_gamma 90.000000
_cell_volume 2396.192676
_symmetry_space_group_name_H-M "P N N A"
_symmetry_group_IT_number 52
_symmetry_cell_setting 'orthorhombic'
loop_
_space_group_symop_operation_xyz
x,y,z
1/2-x,-y,z
x,1/2-y,1/2-z
1/2-x,1/2+y,1/2-z
-x,-y,-z
1/2+x,y,-z
-x,1/2+y,1/2+z
1/2+x,1/2-y,1/2+z
loop_
_atom_site_type_symbol
_atom_site_label
_atom_site_fract_x
_atom_site_fract_y
_atom_site_fract_z
Si Si1 0.567065 0.188717 0.657450
Si Si2 0.318013 0.685766 0.471973
Si Si3 0.590945 0.664625 0.340495
Si Si4 0.653116 0.676957 0.527393
Si Si5 0.519213 0.890438 0.585668
Si Si6 0.118892 0.195662 0.844681
O O1 0.596499 0.250000 0.750000
O O2 0.625367 0.209824 0.580643
O O3 0.492375 0.283283 0.638323
O O4 0.543505 0.011213 0.660250
O O5 0.345551 0.508642 0.456497
O O6 0.235097 0.721292 0.443720
O O7 0.322838 0.705101 0.576798
O O8 0.611103 0.750000 0.250000
O O9 0.641794 0.704884 0.423141
O O10 0.594070 0.480902 0.332772
O O11 0.585731 0.771583 0.568315
O O12 0.448987 0.797380 0.619699
O O13 0.500000 0.000000 0.500000
O O14 0.145628 0.250000 0.750000
#
# Coordination Sequence:
#
# PCOD9409803 Si02
#       6
#     8   8   8   8   8   8
#     4  11  22  39  62  88 123 160 207 259 312 368
#     4  10  22  42  59  87 125 169 203 254 316 384
#     4  10  20  36  61  89 121 160 208 261 312 370
#     4  10  22  39  62  84 125 167 206 254 322 372
#     4  12  22  39  63  95 123 161 215 261 308 375
#     4  11  22  37  62  92 125 162 208 258 311 375
#
# _framework density 20.031780000000001
#
# number of rings (size 3 to 8) (size 9 to 14) (size 15 to 20)
#    0.000    1.333    3.333    3.000    0.000    4.000 
#    0.000    4.167    0.000    0.000    0.000    0.000 
#    0.000    0.000    0.000    0.000    0.000    0.000 
#
# Total GULP energy -267961.772700 kJ/mol
# GULP energy per Si atom -5582.536931 kJ/mol
# Density = 1.998619 g / cm^3
# Si number density = 20.031780 Si / 1000 Ang^3
#
#
#
# Elastic Constant Matrix: (Units=GPa)
#
#
# Indices 1 2 3 4 5 6 
#
# 1 44.6495 -6.1026 -12.2054 0.0000 0.0000 0.0000
# 2 -6.1026 34.1168 2.6907 0.0000 0.0000 0.0000
# 3 -12.2054 2.6907 45.0127 0.0000 0.0000 0.0000
# 4 0.0000 0.0000 0.0000 36.9557 0.0000 0.0000
# 5 0.0000 0.0000 0.0000 0.0000 7.9016 0.0000
# 6 0.0000 0.0000 0.0000 0.0000 0.0000 19.4622
#
#
#
# Elastic Compliance Matrix: (Units=1/GPa)
#
#
# Indices 1 2 3 4 5 6 
#
# 1 0.024698 0.003908 0.006463 0.000000 0.000000 0.000000
# 2 0.003908 0.030068 -0.000738 0.000000 0.000000 0.000000
# 3 0.006463 -0.000738 0.024013 0.000000 0.000000 0.000000
# 4 0.000000 0.000000 0.000000 0.027059 0.000000 0.000000
# 5 0.000000 0.000000 0.000000 0.000000 0.126557 0.000000
# 6 0.000000 0.000000 0.000000 0.000000 0.000000 0.051382
#
#
# Mechanical properties :
#
#
# Convention : Reuss Voigt Hill
#
# Bulk Modulus (GPa) = 10.19933 10.28271 10.24102
# Shear Modulus (GPa) = 16.82419 22.15697 19.49058
#
# Velocity S-wave (km/s) = 2.90120 3.32940 3.12265
# Velocity P-wave (km/s) = 4.04045 4.46366 4.25732
#
# Compressibility (1/GPa) = 0.09804561
#
# Stress axis : x y z
#
# Youngs Moduli (GPa) = 40.48977 33.25763 41.64477
#
# Poissons Ratio (x) = -0.12997 -0.26916
# Poissons Ratio (y) = -0.15823 0.03072
# Poissons Ratio (z) = -0.26170 0.02453
#
# Static dielectric constant tensor:
#      x y z
#    x 1.684050 0.000000 0.000000 
#    y 0.000000 1.720330 0.000000 
#    z 0.000000 0.000000 1.737900 
# 
# From -- ./inp_files/28045.got.cif
#   From: 2010.05.17/outbox.cif.g08.bks.cpg/sg52_15_cif.got.tgz:28045.got - 2010.06.03 12:15:38.
