data_PCOD9409300
_publ_section_title
;
Structure prediction by ZEFSAII (Michael W. Deem and Ramdas Pophale) SiO2 
 PCOD9409300
Probable space group: P N N A
;
_chemical_formula_sum "Si O2"
_cell_formula_units_Z 40
_cell_length_a 24.631462
_cell_length_b 7.948939
_cell_length_c 8.784227
_cell_angle_alpha 90.000000
_cell_angle_beta 90.000000
_cell_angle_gamma 90.000000
_cell_volume 1719.898844
_symmetry_space_group_name_H-M "P N N A"
_symmetry_group_IT_number 52
_symmetry_cell_setting 'orthorhombic'
loop_
_space_group_symop_operation_xyz
x,y,z
1/2-x,-y,z
x,1/2-y,1/2-z
1/2-x,1/2+y,1/2-z
-x,-y,-z
1/2+x,y,-z
-x,1/2+y,1/2+z
1/2+x,1/2-y,1/2+z
loop_
_atom_site_type_symbol
_atom_site_label
_atom_site_fract_x
_atom_site_fract_y
_atom_site_fract_z
Si Si1 0.155280 0.424154 0.649932
Si Si2 0.267328 0.743264 0.069778
Si Si3 0.057104 0.034501 0.416989
Si Si4 0.667841 0.915424 0.455096
Si Si5 0.057427 0.060939 0.062889
O O1 0.144059 0.250000 0.750000
O O2 0.200371 0.380718 0.525781
O O3 0.172790 0.557170 0.775797
O O4 0.103302 0.489266 0.557822
O O5 0.269657 0.750000 0.250000
O O6 0.301554 0.576664 0.027346
O O7 0.205022 0.732571 0.017583
O O8 0.060528 0.996784 0.236669
O O9 0.064316 0.236155 0.431279
O O10 0.105419 0.931951 0.497348
O O11 0.000000 0.000000 0.500000
O O12 0.000000 0.000000 0.000000
#
# Coordination Sequence:
#
# PCOD9409300 Si02
#       5
#     8   8   8   8   8
#     4  10  19  38  69  91 133 172 217 276 336 397
#     4  10  20  39  66  94 128 173 228 271 327 402
#     4  11  23  42  68  94 139 171 220 282 334 406
#     4  10  21  39  66  94 127 175 221 271 341 399
#     4  11  23  39  68 101 125 179 226 269 346 402
#
# _framework density 23.257182
#
# number of rings (size 3 to 8) (size 9 to 14) (size 15 to 20)
#    0.000    1.600    4.000    2.400    0.000    0.000 
#    3.600   22.000   26.400    0.000    0.000    0.000 
#    0.000    0.000    0.000    0.000    0.000    0.000 
#
# Total GULP energy -223839.476565 kJ/mol
# GULP energy per Si atom -5595.986914 kJ/mol
# Density = 2.320425 g / cm^3
# Si number density = 23.257182 Si / 1000 Ang^3
#
#
#
# Elastic Constant Matrix: (Units=GPa)
#
#
# Indices 1 2 3 4 5 6 
#
# 1 207.4253 28.0457 98.9754 0.0000 0.0000 0.0000
# 2 28.0457 59.8860 33.7981 0.0000 0.0000 0.0000
# 3 98.9754 33.7981 249.0303 0.0000 0.0000 0.0000
# 4 0.0000 0.0000 0.0000 8.5555 0.0000 0.0000
# 5 0.0000 0.0000 0.0000 0.0000 50.5426 0.0000
# 6 0.0000 0.0000 0.0000 0.0000 0.0000 34.5536
#
#
#
# Elastic Compliance Matrix: (Units=1/GPa)
#
#
# Indices 1 2 3 4 5 6 
#
# 1 0.006089 -0.001609 -0.002202 0.000000 0.000000 0.000000
# 2 -0.001609 0.018509 -0.001872 0.000000 0.000000 0.000000
# 3 -0.002202 -0.001872 0.005145 0.000000 0.000000 0.000000
# 4 0.000000 0.000000 0.000000 0.116884 0.000000 0.000000
# 5 0.000000 0.000000 0.000000 0.000000 0.019785 0.000000
# 6 0.000000 0.000000 0.000000 0.000000 0.000000 0.028941
#
#
# Mechanical properties :
#
#
# Convention : Reuss Voigt Hill
#
# Bulk Modulus (GPa) = 54.41841 93.10890 73.76366
# Shear Modulus (GPa) = 23.49136 42.43182 32.96159
#
# Velocity S-wave (km/s) = 3.18161 4.27600 3.76874
# Velocity P-wave (km/s) = 6.07834 8.03121 7.12203
#
# Compressibility (1/GPa) = 0.01837613
#
# Stress axis : x y z
#
# Youngs Moduli (GPa) = 164.22671 54.02858 194.37252
#
# Poissons Ratio (x) = 0.08694 0.42795
# Poissons Ratio (y) = 0.26425 0.36396
# Poissons Ratio (z) = 0.36158 0.10117
#
# Static dielectric constant tensor:
#      x y z
#    x 1.853330 0.000000 0.000000 
#    y 0.000000 2.004680 0.000000 
#    z 0.000000 0.000000 1.800780 
# 
# From -- ./inp_files/13942.got.cif
#   From: 2010.05.17/outbox.cif.g08.bks.cpg/sg52_7_cif.got.tgz:13942.got - 2010.06.03 12:15:38.
