data_PCOD9409657
_publ_section_title
;
Structure prediction by ZEFSAII (Michael W. Deem and Ramdas Pophale) SiO2 
 PCOD9409657
Probable space group: P N N A
;
_chemical_formula_sum "Si O2"
_cell_formula_units_Z 48
_cell_length_a 8.180943
_cell_length_b 23.945072
_cell_length_c 11.340960
_cell_angle_alpha 90.000000
_cell_angle_beta 90.000000
_cell_angle_gamma 90.000000
_cell_volume 2221.617730
_symmetry_space_group_name_H-M "P N N A"
_symmetry_group_IT_number 52
_symmetry_cell_setting 'orthorhombic'
loop_
_space_group_symop_operation_xyz
x,y,z
1/2-x,-y,z
x,1/2-y,1/2-z
1/2-x,1/2+y,1/2-z
-x,-y,-z
1/2+x,y,-z
-x,1/2+y,1/2+z
1/2+x,1/2-y,1/2+z
loop_
_atom_site_type_symbol
_atom_site_label
_atom_site_fract_x
_atom_site_fract_y
_atom_site_fract_z
Si Si1 0.374282 0.806518 0.613315
Si Si2 0.607137 0.887241 0.960146
Si Si3 0.685110 0.320193 0.367090
Si Si4 0.668161 0.622721 0.953166
Si Si5 0.958941 0.545485 0.896650
Si Si6 0.888887 0.546253 0.632453
O O1 0.392872 0.740213 0.604162
O O2 0.268720 0.817075 0.730398
O O3 0.533575 0.845837 0.624134
O O4 0.285798 0.829067 0.498503
O O5 0.667267 0.839356 0.050489
O O6 0.532308 0.937666 0.040678
O O7 0.454701 0.866110 0.885774
O O8 0.764800 0.900730 0.879274
O O9 0.776909 0.571878 0.904284
O O10 0.579075 0.595309 0.066106
O O11 0.969936 0.530829 0.758662
O O12 0.000000 0.500000 0.000000
O O13 0.750000 0.500000 0.607776
#
# Coordination Sequence:
#
# PCOD9409657 Si02
#       6
#     8   8   8   8   8   8
#     4  10  20  35  57  83 115 150 189 236 286 347
#     4  10  22  38  58  84 115 153 194 241 289 351
#     4  10  20  36  57  83 113 151 191 233 287 343
#     4  10  21  36  55  84 114 147 187 235 290 345
#     4  11  22  38  59  85 115 151 193 242 298 353
#     4  11  22  39  59  83 114 150 195 242 294 351
#
# _framework density 21.605877
#
# number of rings (size 3 to 8) (size 9 to 14) (size 15 to 20)
#    0.000    1.667    0.000    5.000    0.000    1.333 
#    0.000    5.000    0.000   16.000    0.000    0.000 
#    0.000    0.000    0.000    0.000    0.000    0.000 
#
# Total GULP energy -267231.174994 kJ/mol
# GULP energy per Si atom -5567.316146 kJ/mol
# Density = 2.155670 g / cm^3
# Si number density = 21.605877 Si / 1000 Ang^3
#
#
#
# Elastic Constant Matrix: (Units=GPa)
#
#
# Indices 1 2 3 4 5 6 
#
# 1 32.6976 2.1295 13.0724 0.0000 0.0000 0.0000
# 2 2.1295 86.1168 36.0420 0.0000 0.0000 0.0000
# 3 13.0724 36.0420 93.3105 0.0000 0.0000 0.0000
# 4 0.0000 0.0000 0.0000 27.6006 0.0000 0.0000
# 5 0.0000 0.0000 0.0000 0.0000 23.5530 0.0000
# 6 0.0000 0.0000 0.0000 0.0000 0.0000 33.6223
#
#
#
# Elastic Compliance Matrix: (Units=1/GPa)
#
#
# Indices 1 2 3 4 5 6 
#
# 1 0.032522 0.001315 -0.005064 0.000000 0.000000 0.000000
# 2 0.001315 0.013905 -0.005555 0.000000 0.000000 0.000000
# 3 -0.005064 -0.005555 0.013572 0.000000 0.000000 0.000000
# 4 0.000000 0.000000 0.000000 0.036231 0.000000 0.000000
# 5 0.000000 0.000000 0.000000 0.000000 0.042458 0.000000
# 6 0.000000 0.000000 0.000000 0.000000 0.000000 0.029742
#
#
# Mechanical properties :
#
#
# Convention : Reuss Voigt Hill
#
# Bulk Modulus (GPa) = 24.15990 34.95698 29.55844
# Shear Modulus (GPa) = 24.89612 27.68058 26.28835
#
# Velocity S-wave (km/s) = 3.39821 3.58321 3.49194
# Velocity P-wave (km/s) = 5.15786 5.77354 5.47436
#
# Compressibility (1/GPa) = 0.04139090
#
# Stress axis : x y z
#
# Youngs Moduli (GPa) = 30.74816 71.91908 73.68075
#
# Poissons Ratio (x) = -0.09460 0.37314
# Poissons Ratio (y) = -0.04044 0.40930
# Poissons Ratio (z) = 0.15572 0.39951
#
# Static dielectric constant tensor:
#      x y z
#    x 1.798610 0.000000 0.000000 
#    y 0.000000 1.860600 0.000000 
#    z 0.000000 0.000000 1.787170 
# 
# From -- ./inp_files/16966.got.cif
#   From: 2010.05.17/outbox.cif.g08.bks.cpg/sg52_9_cif.got.tgz:16966.got - 2010.06.03 12:15:38.
