data_PCOD9409162
_publ_section_title
;
Structure prediction by ZEFSAII (Michael W. Deem and Ramdas Pophale) SiO2 
 PCOD9409162
Probable space group: P N N A
;
_chemical_formula_sum "Si O2"
_cell_formula_units_Z 44
_cell_length_a 5.674495
_cell_length_b 13.488273
_cell_length_c 24.792280
_cell_angle_alpha 90.000000
_cell_angle_beta 90.000000
_cell_angle_gamma 90.000000
_cell_volume 1897.579733
_symmetry_space_group_name_H-M "P N N A"
_symmetry_group_IT_number 52
_symmetry_cell_setting 'orthorhombic'
loop_
_space_group_symop_operation_xyz
x,y,z
1/2-x,-y,z
x,1/2-y,1/2-z
1/2-x,1/2+y,1/2-z
-x,-y,-z
1/2+x,y,-z
-x,1/2+y,1/2+z
1/2+x,1/2-y,1/2+z
loop_
_atom_site_type_symbol
_atom_site_label
_atom_site_fract_x
_atom_site_fract_y
_atom_site_fract_z
Si Si1 0.750000 0.000000 0.772189
Si Si2 0.418637 0.373744 0.979490
Si Si3 0.750000 0.000000 0.290659
Si Si4 0.750000 0.500000 0.422194
Si Si5 0.683687 0.821093 0.368694
Si Si6 0.512833 0.808866 0.947407
Si Si7 0.610087 0.137235 0.860664
O O1 0.500128 0.008065 0.740982
O O2 0.738773 0.905521 0.811962
O O3 0.414337 0.259563 0.002311
O O4 0.654948 0.411953 0.008010
O O5 0.462035 0.376667 0.915874
O O6 0.726624 0.098100 0.327467
O O7 0.629685 0.411240 0.456111
O O8 0.567877 0.553660 0.382141
O O9 0.526967 0.735442 0.342694
O O10 0.875118 0.761980 0.404621
O O11 0.740419 0.838497 0.913400
#
# Coordination Sequence:
#
# PCOD9409162 Si02
#       7
#     4   8   4   4   8   8   8
#     4  12  28  48  73 105 139 186 251 304 368 444
#     4  10  20  39  67 103 138 186 231 279 351 440
#     4  12  31  52  70 107 143 188 262 307 350 420
#     4  10  19  36  65 104 150 188 221 295 364 432
#     4  10  25  46  71 100 149 189 237 305 353 424
#     4  10  20  38  71 103 145 189 233 287 366 444
#     4  11  21  43  72 101 146 184 232 303 369 432
#
# _framework density 23.187434
#
# number of rings (size 3 to 8) (size 9 to 14) (size 15 to 20)
#    0.000    1.455    3.636    0.545    5.091    0.727 
#    0.000   12.727    0.000    0.000    0.000    0.000 
#    0.000    0.000    0.000    0.000    0.000    0.000 
#
# Total GULP energy -245896.372211 kJ/mol
# GULP energy per Si atom -5588.553914 kJ/mol
# Density = 2.313466 g / cm^3
# Si number density = 23.187434 Si / 1000 Ang^3
#
#
#
# Elastic Constant Matrix: (Units=GPa)
#
#
# Indices 1 2 3 4 5 6 
#
# 1 115.3602 34.6906 29.9983 0.0000 0.0000 0.0000
# 2 34.6906 46.8118 20.9434 0.0000 0.0000 0.0000
# 3 29.9983 20.9434 85.4925 0.0000 0.0000 0.0000
# 4 0.0000 0.0000 0.0000 35.7355 0.0000 0.0000
# 5 0.0000 0.0000 0.0000 0.0000 31.0555 0.0000
# 6 0.0000 0.0000 0.0000 0.0000 0.0000 31.8905
#
#
#
# Elastic Compliance Matrix: (Units=1/GPa)
#
#
# Indices 1 2 3 4 5 6 
#
# 1 0.011508 -0.007549 -0.002189 0.000000 0.000000 0.000000
# 2 -0.007549 0.028943 -0.004442 0.000000 0.000000 0.000000
# 3 -0.002189 -0.004442 0.013553 0.000000 0.000000 0.000000
# 4 0.000000 0.000000 0.000000 0.027983 0.000000 0.000000
# 5 0.000000 0.000000 0.000000 0.000000 0.032200 0.000000
# 6 0.000000 0.000000 0.000000 0.000000 0.000000 0.031357
#
#
# Mechanical properties :
#
#
# Convention : Reuss Voigt Hill
#
# Bulk Modulus (GPa) = 38.99238 46.54768 42.77003
# Shear Modulus (GPa) = 27.40450 30.53846 28.97148
#
# Velocity S-wave (km/s) = 3.44156 3.63302 3.53859
# Velocity P-wave (km/s) = 5.71359 6.14138 5.93135
#
# Compressibility (1/GPa) = 0.02564604
#
# Stress axis : x y z
#
# Youngs Moduli (GPa) = 86.89863 34.55017 73.78449
#
# Poissons Ratio (x) = 0.26081 0.16149
# Poissons Ratio (y) = 0.65598 0.32772
# Poissons Ratio (z) = 0.19019 0.15346
#
# Static dielectric constant tensor:
#      x y z
#    x 1.954640 0.000000 0.000000 
#    y 0.000000 1.927520 0.000000 
#    z 0.000000 0.000000 1.835960 
# 
# From -- ./inp_files/41665.got.cif
#   From: 2010.05.17/outbox.cif.g08.bks.cpg/sg52_21_cif.got.tgz:41665.got - 2010.06.03 12:15:38.
