data_PCOD9409984
_publ_section_title
;
Structure prediction by ZEFSAII (Michael W. Deem and Ramdas Pophale) SiO2 
 PCOD9409984
Probable space group: P N N A
;
_chemical_formula_sum "Si O2"
_cell_formula_units_Z 28
_cell_length_a 17.084995
_cell_length_b 4.949584
_cell_length_c 17.995698
_cell_angle_alpha 90.000000
_cell_angle_beta 90.000000
_cell_angle_gamma 90.000000
_cell_volume 1521.781329
_symmetry_space_group_name_H-M "P N N A"
_symmetry_group_IT_number 52
_symmetry_cell_setting 'orthorhombic'
loop_
_space_group_symop_operation_xyz
x,y,z
1/2-x,-y,z
x,1/2-y,1/2-z
1/2-x,1/2+y,1/2-z
-x,-y,-z
1/2+x,y,-z
-x,1/2+y,1/2+z
1/2+x,1/2-y,1/2+z
loop_
_atom_site_type_symbol
_atom_site_label
_atom_site_fract_x
_atom_site_fract_y
_atom_site_fract_z
Si Si1 0.750000 0.500000 0.327749
Si Si2 0.901044 0.287781 0.491231
Si Si3 0.465073 0.709191 0.907040
Si Si4 0.750000 0.000000 0.440158
Si Si5 0.387602 0.750000 0.750000
O O1 0.738447 0.244638 0.381646
O O2 0.673355 0.482047 0.276085
O O3 0.909147 0.581288 0.453072
O O4 0.817899 0.136181 0.490285
O O5 0.947350 0.292841 0.568958
O O6 0.950834 0.090773 0.437573
O O7 0.441297 0.705241 0.821650
#
# Coordination Sequence:
#
# PCOD9409984 Si02
#       5
#     4   8   8   4   4
#     4  12  25  30  54  84 117 148 176 234 305 356
#     4  10  20  38  51  80 104 155 188 232 275 346
#     4  10  22  34  56  74 115 145 194 227 282 348
#     4  12  19  38  54  80 113 148 188 238 281 358
#     4  12  22  38  50  88 118 152 180 244 294 360
#
# _framework density 18.399491000000001
#
# number of rings (size 3 to 8) (size 9 to 14) (size 15 to 20)
#    0.000    1.143    5.714    0.857    0.000    3.429 
#    0.000    0.000    0.000    0.000    0.000   14.000 
#    0.000    0.000    0.000    0.000    0.000    0.000 
#
# Total GULP energy -155904.690104 kJ/mol
# GULP energy per Si atom -5568.024647 kJ/mol
# Density = 1.835761 g / cm^3
# Si number density = 18.399491 Si / 1000 Ang^3
#
#
#
# Elastic Constant Matrix: (Units=GPa)
#
#
# Indices 1 2 3 4 5 6 
#
# 1 111.4318 16.2700 71.0281 0.0000 0.0000 0.0000
# 2 16.2700 109.1335 15.1189 0.0000 0.0000 0.0000
# 3 71.0281 15.1189 124.7759 0.0000 0.0000 0.0000
# 4 0.0000 0.0000 0.0000 15.4905 0.0000 0.0000
# 5 0.0000 0.0000 0.0000 0.0000 38.2448 0.0000
# 6 0.0000 0.0000 0.0000 0.0000 0.0000 27.9623
#
#
#
# Elastic Compliance Matrix: (Units=1/GPa)
#
#
# Indices 1 2 3 4 5 6 
#
# 1 0.014194 -0.001014 -0.007957 0.000000 0.000000 0.000000
# 2 -0.001014 0.009392 -0.000561 0.000000 0.000000 0.000000
# 3 -0.007957 -0.000561 0.012612 0.000000 0.000000 0.000000
# 4 0.000000 0.000000 0.000000 0.064556 0.000000 0.000000
# 5 0.000000 0.000000 0.000000 0.000000 0.026147 0.000000
# 6 0.000000 0.000000 0.000000 0.000000 0.000000 0.035762
#
#
# Mechanical properties :
#
#
# Convention : Reuss Voigt Hill
#
# Bulk Modulus (GPa) = 58.36230 61.13055 59.74643
# Shear Modulus (GPa) = 26.67545 32.53446 29.60495
#
# Velocity S-wave (km/s) = 3.81175 4.20959 4.01560
# Velocity P-wave (km/s) = 7.15269 7.54478 7.35135
#
# Compressibility (1/GPa) = 0.01713435
#
# Stress axis : x y z
#
# Youngs Moduli (GPa) = 70.45204 106.47435 79.29051
#
# Poissons Ratio (x) = 0.10794 0.63092
# Poissons Ratio (y) = 0.07142 0.04448
# Poissons Ratio (z) = 0.56059 0.05972
#
# Static dielectric constant tensor:
#      x y z
#    x 1.762470 0.000000 0.000000 
#    y 0.000000 1.675330 0.000000 
#    z 0.000000 0.000000 1.639200 
# 
# From -- ./inp_files/33384.got.cif
#   From: 2010.05.17/outbox.cif.g08.bks.cpg/sg52_17_cif.got.tgz:33384.got - 2010.06.03 12:15:38.
