data_PCOD9409249
_publ_section_title
;
Structure prediction by ZEFSAII (Michael W. Deem and Ramdas Pophale) SiO2 
 PCOD9409249
Probable space group: P N N A
;
_chemical_formula_sum "Si O2"
_cell_formula_units_Z 44
_cell_length_a 21.624093
_cell_length_b 18.822149
_cell_length_c 4.987230
_cell_angle_alpha 90.000000
_cell_angle_beta 90.000000
_cell_angle_gamma 90.000000
_cell_volume 2029.861960
_symmetry_space_group_name_H-M "P N N A"
_symmetry_group_IT_number 52
_symmetry_cell_setting 'orthorhombic'
loop_
_space_group_symop_operation_xyz
x,y,z
1/2-x,-y,z
x,1/2-y,1/2-z
1/2-x,1/2+y,1/2-z
-x,-y,-z
1/2+x,y,-z
-x,1/2+y,1/2+z
1/2+x,1/2-y,1/2+z
loop_
_atom_site_type_symbol
_atom_site_label
_atom_site_fract_x
_atom_site_fract_y
_atom_site_fract_z
Si Si1 0.349262 0.542741 0.187435
Si Si2 0.535258 0.612268 0.991610
Si Si3 0.067965 0.471512 0.696937
Si Si4 0.232433 0.570840 0.430742
Si Si5 0.363052 0.320479 0.371492
Si Si6 0.464267 0.250000 0.750000
O O1 0.377650 0.553198 0.898569
O O2 0.296638 0.596054 0.299625
O O3 0.310150 0.469840 0.210792
O O4 0.405505 0.535813 0.399358
O O5 0.550981 0.551784 0.211249
O O6 0.599136 0.637716 0.857947
O O7 0.490882 0.575889 0.773282
O O8 0.502994 0.684293 0.102770
O O9 0.250000 0.500000 0.605699
O O10 0.187064 0.631881 0.526098
O O11 0.331902 0.250000 0.250000
O O12 0.418437 0.291393 0.552097
#
# Coordination Sequence:
#
# PCOD9409249 Si02
#       6
#     8   8   8   8   8   4
#     4   9  21  35  58  87 121 152 192 245 295 342
#     4  10  22  33  63  82 123 148 199 246 302 359
#     4  11  21  37  60  93 117 150 199 247 301 353
#     4   8  18  36  60  83 123 149 204 243 295 342
#     4  10  19  38  56  89 114 157 195 247 299 355
#     4  10  22  36  58  82 120 156 198 244 314 354
#
# _framework density 21.676348999999998
#
# number of rings (size 3 to 8) (size 9 to 14) (size 15 to 20)
#    1.091    1.091    1.818    1.091    2.545    4.364 
#    6.545    0.000    2.000    0.000    0.000    0.000 
#    0.000    0.000    0.000    0.000    0.000    0.000 
#
# Total GULP energy -245050.938387 kJ/mol
# GULP energy per Si atom -5569.339509 kJ/mol
# Density = 2.162701 g / cm^3
# Si number density = 21.676349 Si / 1000 Ang^3
#
#
#
# Elastic Constant Matrix: (Units=GPa)
#
#
# Indices 1 2 3 4 5 6 
#
# 1 77.3531 38.3093 7.1504 0.0000 0.0000 0.0000
# 2 38.3093 119.6139 14.0177 0.0000 0.0000 0.0000
# 3 7.1504 14.0177 56.4083 0.0000 0.0000 0.0000
# 4 0.0000 0.0000 0.0000 8.4348 0.0000 0.0000
# 5 0.0000 0.0000 0.0000 0.0000 -81.1108 0.0000
# 6 0.0000 0.0000 0.0000 0.0000 0.0000 29.8007
#
#
#
# Elastic Compliance Matrix: (Units=1/GPa)
#
#
# Indices 1 2 3 4 5 6 
#
# 1 0.015395 -0.004843 -0.000748 0.000000 0.000000 0.000000
# 2 -0.004843 0.010135 -0.001905 0.000000 0.000000 0.000000
# 3 -0.000748 -0.001905 0.018296 0.000000 0.000000 0.000000
# 4 0.000000 0.000000 0.000000 0.118557 0.000000 0.000000
# 5 0.000000 0.000000 0.000000 0.000000 -0.012329 0.000000
# 6 0.000000 0.000000 0.000000 0.000000 0.000000 0.033556
#
#
# Mechanical properties :
#
#
# Convention : Reuss Voigt Hill
#
# Bulk Modulus (GPa) = 34.68054 41.37001 38.02528
# Shear Modulus (GPa) = 24.01383 4.35146 14.18265
#
# Velocity S-wave (km/s) = 3.33203 1.41839 2.56069
# Velocity P-wave (km/s) = 5.55313 4.67003 5.13061
#
# Compressibility (1/GPa) = 0.02883461
#
# Stress axis : x y z
#
# Youngs Moduli (GPa) = 64.95436 98.67235 54.65681
#
# Poissons Ratio (x) = 0.47788 0.04088
# Poissons Ratio (y) = 0.31458 0.10410
# Poissons Ratio (z) = 0.04859 0.18793
#
# Static dielectric constant tensor:
#      x y z
#    x 1.841150 0.000000 0.000000 
#    y 0.000000 1.900200 0.000000 
#    z 0.000000 0.000000 1.909110 
# 
# From -- ./inp_files/4330.got.cif
#   From: 2010.05.17/outbox.cif.g08.bks.cpg/sg52_3_cif.got.tgz:4330.got - 2010.06.03 12:15:38.
