data_PCOD9409483
_publ_section_title
;
Structure prediction by ZEFSAII (Michael W. Deem and Ramdas Pophale) SiO2 
 PCOD9409483
Probable space group: P N N A
;
_chemical_formula_sum "Si O2"
_cell_formula_units_Z 48
_cell_length_a 16.177154
_cell_length_b 18.279615
_cell_length_c 8.866618
_cell_angle_alpha 90.000000
_cell_angle_beta 90.000000
_cell_angle_gamma 90.000000
_cell_volume 2621.966645
_symmetry_space_group_name_H-M "P N N A"
_symmetry_group_IT_number 52
_symmetry_cell_setting 'orthorhombic'
loop_
_space_group_symop_operation_xyz
x,y,z
1/2-x,-y,z
x,1/2-y,1/2-z
1/2-x,1/2+y,1/2-z
-x,-y,-z
1/2+x,y,-z
-x,1/2+y,1/2+z
1/2+x,1/2-y,1/2+z
loop_
_atom_site_type_symbol
_atom_site_label
_atom_site_fract_x
_atom_site_fract_y
_atom_site_fract_z
Si Si1 0.989268 0.019272 0.174776
Si Si2 0.351166 0.750000 0.750000
Si Si3 0.164193 0.961019 0.627561
Si Si4 0.367011 0.250000 0.250000
Si Si5 0.397967 0.590925 0.093352
Si Si6 0.011542 0.140052 0.692690
Si Si7 0.755799 0.318182 0.987142
O O1 0.899773 0.046416 0.234422
O O2 0.057956 0.071278 0.250681
O O3 0.998083 0.941827 0.256076
O O4 0.000000 0.000000 0.000000
O O5 0.413139 0.818178 0.776262
O O6 0.293744 0.774977 0.614541
O O7 0.187270 0.882505 0.557597
O O8 0.250000 0.000000 0.675349
O O9 0.125941 0.016684 0.500963
O O10 0.428946 0.182044 0.263713
O O11 0.308182 0.260778 0.107697
O O12 0.314453 0.638037 0.107440
O O13 0.460966 0.635274 0.982954
#
# Coordination Sequence:
#
# PCOD9409483 Si02
#       7
#     8   4   8   4   8   8   8
#     4  11  21  33  55  83 107 133 169 225 274 307
#     4   9  20  36  54  71 104 144 174 207 254 320
#     4   9  18  36  58  76 101 139 181 217 258 315
#     4  11  20  32  54  79 104 134 176 221 254 308
#     4   9  18  36  56  73 102 142 180 212 256 321
#     4   9  19  37  54  72 101 144 179 202 254 326
#     4  10  20  33  53  80 105 140 177 216 263 306
#
# _framework density 18.30687
#
# number of rings (size 3 to 8) (size 9 to 14) (size 15 to 20)
#    0.000    2.333    0.000    5.000    0.000    2.667 
#    0.000    4.167    0.000    5.000    0.000    0.000 
#    0.000    0.000    0.000    0.000    0.000    0.000 
#
# Total GULP energy -267443.269498 kJ/mol
# GULP energy per Si atom -5571.734781 kJ/mol
# Density = 1.826520 g / cm^3
# Si number density = 18.306870 Si / 1000 Ang^3
#
#
#
# Elastic Constant Matrix: (Units=GPa)
#
#
# Indices 1 2 3 4 5 6 
#
# 1 127.6563 30.8171 70.9219 0.0000 0.0000 0.0000
# 2 30.8171 54.2800 18.5311 0.0000 0.0000 0.0000
# 3 70.9219 18.5311 84.8141 0.0000 0.0000 0.0000
# 4 0.0000 0.0000 0.0000 13.2818 0.0000 0.0000
# 5 0.0000 0.0000 0.0000 0.0000 -121.4394 0.0000
# 6 0.0000 0.0000 0.0000 0.0000 0.0000 6.3516
#
#
#
# Elastic Compliance Matrix: (Units=1/GPa)
#
#
# Indices 1 2 3 4 5 6 
#
# 1 0.015704 -0.004790 -0.012085 0.000000 0.000000 0.000000
# 2 -0.004790 0.021369 -0.000664 0.000000 0.000000 0.000000
# 3 -0.012085 -0.000664 0.022041 0.000000 0.000000 0.000000
# 4 0.000000 0.000000 0.000000 0.075291 0.000000 0.000000
# 5 0.000000 0.000000 0.000000 0.000000 -0.008235 0.000000
# 6 0.000000 0.000000 0.000000 0.000000 0.000000 0.157441
#
#
# Mechanical properties :
#
#
# Convention : Reuss Voigt Hill
#
# Bulk Modulus (GPa) = 41.60293 56.36561 48.98427
# Shear Modulus (GPa) = 15.30449 -10.59585 2.35432
#
# Velocity S-wave (km/s) = 2.89450 -2.40842 1.13526
# Velocity P-wave (km/s) = 5.82627 4.80855 5.34171
#
# Compressibility (1/GPa) = 0.02403677
#
# Stress axis : x y z
#
# Youngs Moduli (GPa) = 63.67798 46.79676 45.36972
#
# Poissons Ratio (x) = 0.22416 0.54830
# Poissons Ratio (y) = 0.30502 0.03010
# Poissons Ratio (z) = 0.76956 0.03105
#
# Static dielectric constant tensor:
#      x y z
#    x 1.681100 0.000000 0.000000 
#    y 0.000000 1.623380 0.000000 
#    z 0.000000 0.000000 1.632420 
# 
# From -- ./inp_files/12319.got.cif
#   From: 2010.05.17/outbox.cif.g08.bks.cpg/sg52_7_cif.got.tgz:12319.got - 2010.06.03 12:15:38.
