data_PCOD9409312
_publ_section_title
;
Structure prediction by ZEFSAII (Michael W. Deem and Ramdas Pophale) SiO2 
 PCOD9409312
Probable space group: P N N A
;
_chemical_formula_sum "Si O2"
_cell_formula_units_Z 56
_cell_length_a 14.261588
_cell_length_b 28.808186
_cell_length_c 5.331571
_cell_angle_alpha 90.000000
_cell_angle_beta 90.000000
_cell_angle_gamma 90.000000
_cell_volume 2190.478503
_symmetry_space_group_name_H-M "P N N A"
_symmetry_group_IT_number 52
_symmetry_cell_setting 'orthorhombic'
loop_
_space_group_symop_operation_xyz
x,y,z
1/2-x,-y,z
x,1/2-y,1/2-z
1/2-x,1/2+y,1/2-z
-x,-y,-z
1/2+x,y,-z
-x,1/2+y,1/2+z
1/2+x,1/2-y,1/2+z
loop_
_atom_site_type_symbol
_atom_site_label
_atom_site_fract_x
_atom_site_fract_y
_atom_site_fract_z
Si Si1 0.395460 0.750000 0.750000
Si Si2 0.959451 0.658861 0.453184
Si Si3 0.212885 0.443237 0.206699
Si Si4 0.113632 0.982822 0.102979
Si Si5 0.382405 0.108550 0.758681
Si Si6 0.532413 0.430968 0.131720
Si Si7 0.753871 0.654105 0.594150
Si Si8 0.732390 0.250000 0.750000
O O1 0.459355 0.704627 0.713926
O O2 0.329280 0.757375 0.504979
O O3 0.864193 0.664909 0.606531
O O4 0.050125 0.646868 0.611105
O O5 0.942561 0.611054 0.310473
O O6 0.161285 0.467350 0.451161
O O7 0.311452 0.469474 0.174643
O O8 0.251541 0.391105 0.233767
O O9 0.123729 0.442673 0.026427
O O10 0.011122 0.975769 0.223759
O O11 0.124693 0.940652 0.909534
O O12 0.446820 0.092344 0.526690
O O13 0.283976 0.134970 0.824479
O O14 0.710922 0.702277 0.692723
#
# Coordination Sequence:
#
# PCOD9409312 Si02
#       8
#     4   8   8   8   8   8   8   4
#     4  10  22  39  72  95 136 170 228 267 340 407
#     4  10  22  40  61  91 121 166 207 272 330 394
#     4  10  19  39  61  84 127 166 204 272 324 394
#     4   9  22  38  55  91 124 161 216 261 326 397
#     4  10  22  40  60  92 122 168 217 261 325 400
#     4  11  21  37  61  89 125 163 215 268 326 399
#     4  10  21  41  68  88 131 167 217 267 337 395
#     4  10  22  43  66 105 128 178 218 275 332 403
#
# _framework density 25.565192
#
# number of rings (size 3 to 8) (size 9 to 14) (size 15 to 20)
#    0.000    2.000    1.429    1.286    4.000    1.143 
#   10.286    1.429    0.000    0.000    0.000    0.000 
#    0.000    0.000    0.000    0.000    0.000    0.000 
#
# Total GULP energy -311899.715084 kJ/mol
# GULP energy per Si atom -5569.637769 kJ/mol
# Density = 2.550700 g / cm^3
# Si number density = 25.565192 Si / 1000 Ang^3
#
#
#
# Elastic Constant Matrix: (Units=GPa)
#
#
# Indices 1 2 3 4 5 6 
#
# 1 72.3685 -3.7952 0.7272 0.0000 0.0000 0.0000
# 2 -3.7952 125.8184 19.0809 0.0000 0.0000 0.0000
# 3 0.7272 19.0809 51.5820 0.0000 0.0000 0.0000
# 4 0.0000 0.0000 0.0000 26.1097 0.0000 0.0000
# 5 0.0000 0.0000 0.0000 0.0000 18.8577 0.0000
# 6 0.0000 0.0000 0.0000 0.0000 0.0000 6.4517
#
#
#
# Elastic Compliance Matrix: (Units=1/GPa)
#
#
# Indices 1 2 3 4 5 6 
#
# 1 0.013847 0.000474 -0.000370 0.000000 0.000000 0.000000
# 2 0.000474 0.008437 -0.003127 0.000000 0.000000 0.000000
# 3 -0.000370 -0.003127 0.020549 0.000000 0.000000 0.000000
# 4 0.000000 0.000000 0.000000 0.038300 0.000000 0.000000
# 5 0.000000 0.000000 0.000000 0.000000 0.053029 0.000000
# 6 0.000000 0.000000 0.000000 0.000000 0.000000 0.154998
#
#
# Mechanical properties :
#
#
# Convention : Reuss Voigt Hill
#
# Bulk Modulus (GPa) = 27.18589 31.31052 29.24820
# Shear Modulus (GPa) = 16.26185 25.86756 21.06470
#
# Velocity S-wave (km/s) = 2.52483 3.18437 2.87359
# Velocity P-wave (km/s) = 4.37684 5.07880 4.74083
#
# Compressibility (1/GPa) = 0.03678379
#
# Stress axis : x y z
#
# Youngs Moduli (GPa) = 72.21919 118.53182 48.66486
#
# Poissons Ratio (x) = -0.05617 0.01803
# Poissons Ratio (y) = -0.03422 0.15220
# Poissons Ratio (z) = 0.02676 0.37071
#
# Static dielectric constant tensor:
#      x y z
#    x 2.053360 0.000000 0.000000 
#    y 0.000000 2.248330 0.000000 
#    z 0.000000 0.000000 2.183710 
# 
# From -- ./inp_files/2674.got.cif
#   From: 2010.05.17/outbox.cif.g08.bks.cpg/sg52_2_cif.got.tgz:2674.got - 2010.06.03 12:15:38.
