data_PCOD9409661
_publ_section_title
;
Structure prediction by ZEFSAII (Michael W. Deem and Ramdas Pophale) SiO2 
 PCOD9409661
Probable space group: P N N A
;
_chemical_formula_sum "Si O2"
_cell_formula_units_Z 32
_cell_length_a 17.630946
_cell_length_b 7.932776
_cell_length_c 11.219756
_cell_angle_alpha 90.000000
_cell_angle_beta 90.000000
_cell_angle_gamma 90.000000
_cell_volume 1569.221388
_symmetry_space_group_name_H-M "P N N A"
_symmetry_group_IT_number 52
_symmetry_cell_setting 'orthorhombic'
loop_
_space_group_symop_operation_xyz
x,y,z
1/2-x,-y,z
x,1/2-y,1/2-z
1/2-x,1/2+y,1/2-z
-x,-y,-z
1/2+x,y,-z
-x,1/2+y,1/2+z
1/2+x,1/2-y,1/2+z
loop_
_atom_site_type_symbol
_atom_site_label
_atom_site_fract_x
_atom_site_fract_y
_atom_site_fract_z
Si Si1 0.590161 0.506859 0.482086
Si Si2 0.897208 0.368688 0.007697
Si Si3 0.066588 0.187163 0.384397
Si Si4 0.835059 0.951496 0.258115
O O1 0.500000 0.500000 0.500000
O O2 0.625995 0.680264 0.530330
O O3 0.612951 0.329472 0.541508
O O4 0.607734 0.515465 0.342378
O O5 0.853141 0.458119 0.116811
O O6 0.982922 0.339031 0.057920
O O7 0.897284 0.503208 0.901537
O O8 0.060277 0.250000 0.250000
O O9 0.842145 0.750000 0.250000
O O10 0.750000 0.000000 0.222950
#
# Coordination Sequence:
#
# PCOD9409661 Si02
#       4
#     8   8   8   8
#     4  10  20  37  58  88 123 160 202 256 311 370
#     4  10  20  36  56  87 123 155 202 257 309 361
#     4  10  20  35  57  86 121 161 205 249 302 371
#     4  12  23  39  63  95 127 163 205 265 322 376
#
# _framework density 20.392277
#
# number of rings (size 3 to 8) (size 9 to 14) (size 15 to 20)
#    0.000    1.500    2.500    5.250    0.000    1.000 
#    0.000    0.000    0.000    1.500    0.000    0.000 
#    0.000    0.000    0.000    0.000    0.000    0.000 
#
# Total GULP energy -178369.112701 kJ/mol
# GULP energy per Si atom -5574.034772 kJ/mol
# Density = 2.034586 g / cm^3
# Si number density = 20.392277 Si / 1000 Ang^3
#
#
#
# Elastic Constant Matrix: (Units=GPa)
#
#
# Indices 1 2 3 4 5 6 
#
# 1 43.2740 13.5111 12.4677 0.0000 0.0000 0.0000
# 2 13.5111 186.6617 33.8577 0.0000 0.0000 0.0000
# 3 12.4677 33.8577 77.2831 0.0000 0.0000 0.0000
# 4 0.0000 0.0000 0.0000 -41.4410 0.0000 0.0000
# 5 0.0000 0.0000 0.0000 0.0000 6.3035 0.0000
# 6 0.0000 0.0000 0.0000 0.0000 0.0000 19.5435
#
#
#
# Elastic Compliance Matrix: (Units=1/GPa)
#
#
# Indices 1 2 3 4 5 6 
#
# 1 0.024458 -0.001146 -0.003444 0.000000 0.000000 0.000000
# 2 -0.001146 0.005873 -0.002388 0.000000 0.000000 0.000000
# 3 -0.003444 -0.002388 0.014541 0.000000 0.000000 0.000000
# 4 0.000000 0.000000 0.000000 -0.024131 0.000000 0.000000
# 5 0.000000 0.000000 0.000000 0.000000 0.158642 0.000000
# 6 0.000000 0.000000 0.000000 0.000000 0.000000 0.051168
#
#
# Mechanical properties :
#
#
# Convention : Reuss Voigt Hill
#
# Bulk Modulus (GPa) = 32.34412 47.43244 39.88828
# Shear Modulus (GPa) = 19.62220 13.37336 16.49778
#
# Velocity S-wave (km/s) = 3.10536 2.56365 2.84742
# Velocity P-wave (km/s) = 5.36219 5.66335 5.51483
#
# Compressibility (1/GPa) = 0.03091752
#
# Stress axis : x y z
#
# Youngs Moduli (GPa) = 40.88564 170.25853 68.76950
#
# Poissons Ratio (x) = 0.19507 0.23683
# Poissons Ratio (y) = 0.04684 0.16424
# Poissons Ratio (z) = 0.14080 0.40663
#
# Static dielectric constant tensor:
#      x y z
#    x 1.790800 0.000000 0.000000 
#    y 0.000000 1.874420 0.000000 
#    z 0.000000 0.000000 1.713340 
# 
# From -- ./inp_files/18977.got.cif
#   From: 2010.05.17/outbox.cif.g08.bks.cpg/sg52_10_cif.got.tgz:18977.got - 2010.06.03 12:15:38.
