data_PCOD9409170
_publ_section_title
;
Structure prediction by ZEFSAII (Michael W. Deem and Ramdas Pophale) SiO2 
 PCOD9409170
Probable space group: P N N A
;
_chemical_formula_sum "Si O2"
_cell_formula_units_Z 60
_cell_length_a 27.939779
_cell_length_b 11.155462
_cell_length_c 9.093823
_cell_angle_alpha 90.000000
_cell_angle_beta 90.000000
_cell_angle_gamma 90.000000
_cell_volume 2834.373146
_symmetry_space_group_name_H-M "P N N A"
_symmetry_group_IT_number 52
_symmetry_cell_setting 'orthorhombic'
loop_
_space_group_symop_operation_xyz
x,y,z
1/2-x,-y,z
x,1/2-y,1/2-z
1/2-x,1/2+y,1/2-z
-x,-y,-z
1/2+x,y,-z
-x,1/2+y,1/2+z
1/2+x,1/2-y,1/2+z
loop_
_atom_site_type_symbol
_atom_site_label
_atom_site_fract_x
_atom_site_fract_y
_atom_site_fract_z
Si Si1 0.457964 0.750000 0.250000
Si Si2 0.199603 0.518071 0.444539
Si Si3 0.530069 0.895482 0.430411
Si Si4 0.369768 0.998446 0.539319
Si Si5 0.898692 0.951472 0.791692
Si Si6 0.336009 0.252285 0.575607
Si Si7 0.289633 0.894182 0.742968
Si Si8 0.424167 0.308409 0.397300
O O1 0.495018 0.846461 0.308350
O O2 0.421221 0.827852 0.153018
O O3 0.250000 0.500000 0.364940
O O4 0.153110 0.485106 0.353482
O O5 0.199456 0.655954 0.498600
O O6 0.198121 0.437772 0.592138
O O7 0.582173 0.946351 0.384556
O O8 0.537087 0.785961 0.546373
O O9 0.500000 0.000000 0.500000
O O10 0.338004 0.118395 0.513282
O O11 0.390394 0.949489 0.384861
O O12 0.335983 0.913765 0.637112
O O13 0.933813 0.057924 0.845162
O O14 0.330206 0.250000 0.750000
O O15 0.387041 0.309835 0.531416
O O16 0.277196 0.750000 0.750000
O O17 0.250000 0.000000 0.699387
O O18 0.401103 0.250000 0.250000
#
# Coordination Sequence:
#
# PCOD9409170 Si02
#       8
#     4   8   8   8   8   8   8   8
#     4  12  26  44  68  94 146 188 228 298 364 418
#     4  10  24  40  67  99 138 173 237 293 348 420
#     4  11  23  41  68  99 134 178 235 285 348 423
#     4  11  23  43  74  96 135 182 238 287 354 421
#     4  11  24  45  67  95 140 186 228 296 353 414
#     4  10  19  36  67  98 127 176 219 285 343 414
#     4  11  27  46  72 106 147 186 233 293 357 426
#     4  10  19  38  65  94 127 171 231 278 336 407
#
# _framework density 21.168703000000001
#
# number of rings (size 3 to 8) (size 9 to 14) (size 15 to 20)
#    0.000    1.333    5.333    0.000    9.333    1.067 
#    0.000    4.667    0.000    0.000    0.000    0.000 
#    0.000    0.000    0.000    0.000    0.000    0.000 
#
# Total GULP energy -334097.101968 kJ/mol
# GULP energy per Si atom -5568.285033 kJ/mol
# Density = 2.112052 g / cm^3
# Si number density = 21.168703 Si / 1000 Ang^3
#
#
#
# Elastic Constant Matrix: (Units=GPa)
#
#
# Indices 1 2 3 4 5 6 
#
# 1 104.0509 44.3782 24.3422 0.0000 0.0000 0.0000
# 2 44.3782 124.6088 -6.9334 0.0000 0.0000 0.0000
# 3 24.3422 -6.9334 22.5795 0.0000 0.0000 0.0000
# 4 0.0000 0.0000 0.0000 25.6898 0.0000 0.0000
# 5 0.0000 0.0000 0.0000 0.0000 13.8443 0.0000
# 6 0.0000 0.0000 0.0000 0.0000 0.0000 35.8391
#
#
#
# Elastic Compliance Matrix: (Units=1/GPa)
#
#
# Indices 1 2 3 4 5 6 
#
# 1 0.017903 -0.007579 -0.021628 0.000000 0.000000 0.000000
# 2 -0.007579 0.011373 0.011664 0.000000 0.000000 0.000000
# 3 -0.021628 0.011664 0.071186 0.000000 0.000000 0.000000
# 4 0.000000 0.000000 0.000000 0.038926 0.000000 0.000000
# 5 0.000000 0.000000 0.000000 0.000000 0.072232 0.000000
# 6 0.000000 0.000000 0.000000 0.000000 0.000000 0.027902
#
#
# Mechanical properties :
#
#
# Convention : Reuss Voigt Hill
#
# Bulk Modulus (GPa) = 15.29647 41.64591 28.47119
# Shear Modulus (GPa) = 16.86894 27.70480 22.28687
#
# Velocity S-wave (km/s) = 2.82597 3.62161 3.24824
# Velocity P-wave (km/s) = 4.22964 6.09952 5.24852
#
# Compressibility (1/GPa) = 0.06537456
#
# Stress axis : x y z
#
# Youngs Moduli (GPa) = 55.85597 87.92404 14.04767
#
# Poissons Ratio (x) = 0.66642 0.30383
# Poissons Ratio (y) = 0.42336 -0.16385
# Poissons Ratio (z) = 1.20807 -1.02551
#
# Static dielectric constant tensor:
#      x y z
#    x 1.830710 0.000000 0.000000 
#    y 0.000000 1.836470 0.000000 
#    z 0.000000 0.000000 1.769020 
# 
# From -- ./inp_files/15696.got.cif
#   From: 2010.05.17/outbox.cif.g08.bks.cpg/sg52_8_cif.got.tgz:15696.got - 2010.06.03 12:15:38.
