data_PCOD9409171
_publ_section_title
;
Structure prediction by ZEFSAII (Michael W. Deem and Ramdas Pophale) SiO2 
 PCOD9409171
Probable space group: P N N A
;
_chemical_formula_sum "Si O2"
_cell_formula_units_Z 32
_cell_length_a 13.585053
_cell_length_b 17.601863
_cell_length_c 5.654043
_cell_angle_alpha 90.000000
_cell_angle_beta 90.000000
_cell_angle_gamma 90.000000
_cell_volume 1352.007437
_symmetry_space_group_name_H-M "P N N A"
_symmetry_group_IT_number 52
_symmetry_cell_setting 'orthorhombic'
loop_
_space_group_symop_operation_xyz
x,y,z
1/2-x,-y,z
x,1/2-y,1/2-z
1/2-x,1/2+y,1/2-z
-x,-y,-z
1/2+x,y,-z
-x,1/2+y,1/2+z
1/2+x,1/2-y,1/2+z
loop_
_atom_site_type_symbol
_atom_site_label
_atom_site_fract_x
_atom_site_fract_y
_atom_site_fract_z
Si Si1 0.572416 0.727381 0.503565
Si Si2 0.649691 0.287846 0.998201
Si Si3 0.840633 0.958895 0.473730
Si Si4 0.460183 0.440696 0.315844
O O1 0.622617 0.750000 0.750000
O O2 0.469825 0.775273 0.503537
O O3 0.556911 0.637543 0.543206
O O4 0.616298 0.750000 0.250000
O O5 0.675158 0.250000 0.750000
O O6 0.678384 0.250000 0.250000
O O7 0.690163 0.373036 0.970727
O O8 0.945415 0.938133 0.355954
O O9 0.750000 0.000000 0.338496
O O10 0.869525 0.019861 0.677651
O O11 0.500000 0.500000 0.500000
#
# Coordination Sequence:
#
# PCOD9409171 Si02
#       4
#     8   8   8   8
#     4  10  19  36  67  99 128 179 227 276 347 424
#     4  10  19  39  67  93 132 189 225 280 361 422
#     4  11  25  43  69 104 143 186 240 301 361 428
#     4  11  23  42  71 102 137 189 238 293 362 431
#
# _framework density 23.668507000000002
#
# number of rings (size 3 to 8) (size 9 to 14) (size 15 to 20)
#    0.000    1.500    5.000    3.000    3.500    1.000 
#    0.000    1.250    0.000    0.000    0.000    0.000 
#    0.000    0.000    0.000    0.000    0.000    0.000 
#
# Total GULP energy -178181.616469 kJ/mol
# GULP energy per Si atom -5568.175515 kJ/mol
# Density = 2.361464 g / cm^3
# Si number density = 23.668507 Si / 1000 Ang^3
#
#
#
# Elastic Constant Matrix: (Units=GPa)
#
#
# Indices 1 2 3 4 5 6 
#
# 1 98.4434 5.1276 14.3521 0.0000 0.0000 0.0000
# 2 5.1276 153.4898 54.8010 0.0000 0.0000 0.0000
# 3 14.3521 54.8010 178.4770 0.0000 0.0000 0.0000
# 4 0.0000 0.0000 0.0000 40.3452 0.0000 0.0000
# 5 0.0000 0.0000 0.0000 0.0000 31.7931 0.0000
# 6 0.0000 0.0000 0.0000 0.0000 0.0000 13.7474
#
#
#
# Elastic Compliance Matrix: (Units=1/GPa)
#
#
# Indices 1 2 3 4 5 6 
#
# 1 0.010279 -0.000054 -0.000810 0.000000 0.000000 0.000000
# 2 -0.000054 0.007318 -0.002242 0.000000 0.000000 0.000000
# 3 -0.000810 -0.002242 0.006357 0.000000 0.000000 0.000000
# 4 0.000000 0.000000 0.000000 0.024786 0.000000 0.000000
# 5 0.000000 0.000000 0.000000 0.000000 0.031453 0.000000
# 6 0.000000 0.000000 0.000000 0.000000 0.000000 0.072741
#
#
# Mechanical properties :
#
#
# Convention : Reuss Voigt Hill
#
# Bulk Modulus (GPa) = 56.36992 64.33018 60.35005
# Shear Modulus (GPa) = 30.29195 40.91910 35.60553
#
# Velocity S-wave (km/s) = 3.58137 4.16245 3.88279
# Velocity P-wave (km/s) = 6.40076 7.09506 6.75684
#
# Compressibility (1/GPa) = 0.01773996
#
# Stress axis : x y z
#
# Youngs Moduli (GPa) = 97.28546 136.65794 157.31581
#
# Poissons Ratio (x) = 0.00741 0.12742
# Poissons Ratio (y) = 0.00527 0.35278
# Poissons Ratio (z) = 0.07880 0.30645
#
# Static dielectric constant tensor:
#      x y z
#    x 1.917910 0.000000 0.000000 
#    y 0.000000 1.669270 0.000000 
#    z 0.000000 0.000000 1.956990 
# 
# From -- ./inp_files/1930.got.cif
#   From: 2010.05.17/outbox.cif.g08.bks.cpg/sg52_1_cif.got.tgz:1930.got - 2010.06.03 12:15:38.
