data_PCOD9409547
_publ_section_title
;
Structure prediction by ZEFSAII (Michael W. Deem and Ramdas Pophale) SiO2 
 PCOD9409547
Probable space group: P N N A
;
_chemical_formula_sum "Si O2"
_cell_formula_units_Z 28
_cell_length_a 24.487719
_cell_length_b 4.578317
_cell_length_c 11.954399
_cell_angle_alpha 90.000000
_cell_angle_beta 90.000000
_cell_angle_gamma 90.000000
_cell_volume 1340.238038
_symmetry_space_group_name_H-M "P N N A"
_symmetry_group_IT_number 52
_symmetry_cell_setting 'orthorhombic'
loop_
_space_group_symop_operation_xyz
x,y,z
1/2-x,-y,z
x,1/2-y,1/2-z
1/2-x,1/2+y,1/2-z
-x,-y,-z
1/2+x,y,-z
-x,1/2+y,1/2+z
1/2+x,1/2-y,1/2+z
loop_
_atom_site_type_symbol
_atom_site_label
_atom_site_fract_x
_atom_site_fract_y
_atom_site_fract_z
Si Si1 0.250000 0.000000 0.333081
Si Si2 0.526684 0.507130 0.172238
Si Si3 0.928810 0.687480 0.537645
Si Si4 0.862818 0.175477 0.620316
O O1 0.273772 0.750000 0.250000
O O2 0.202247 0.833507 0.400476
O O3 0.501198 0.250000 0.250000
O O4 0.482381 0.705567 0.105696
O O5 0.555595 0.750000 0.250000
O O6 0.561975 0.318702 0.085166
O O7 0.907711 0.356833 0.548012
O O8 0.879553 0.845464 0.598844
O O9 0.870055 0.250000 0.750000
#
# Coordination Sequence:
#
# PCOD9409547 Si02
#       4
#     4   8   8   8
#     4  10  20  34  54  82 116 150 182 232 298 352
#     4  11  22  37  54  78 114 152 194 241 278 329
#     4  11  22  34  55  81 108 154 197 225 283 344
#     4  11  20  34  54  81 115 147 185 232 282 347
#
# _framework density 20.891811000000001
#
# number of rings (size 3 to 8) (size 9 to 14) (size 15 to 20)
#    0.000    1.143    0.000   10.286    0.000    4.571 
#    0.000    0.000    0.000    0.000    0.000    6.000 
#    0.000    2.286    0.000    1.143    0.000    0.000 
#
# Total GULP energy -156044.157359 kJ/mol
# GULP energy per Si atom -5573.005620 kJ/mol
# Density = 2.084426 g / cm^3
# Si number density = 20.891811 Si / 1000 Ang^3
#
#
#
# Elastic Constant Matrix: (Units=GPa)
#
#
# Indices 1 2 3 4 5 6 
#
# 1 98.8186 12.1639 30.2960 0.0000 0.0000 0.0000
# 2 12.1639 99.4130 27.7618 0.0000 0.0000 0.0000
# 3 30.2960 27.7618 79.6953 0.0000 0.0000 0.0000
# 4 0.0000 0.0000 0.0000 35.4728 0.0000 0.0000
# 5 0.0000 0.0000 0.0000 0.0000 20.5443 0.0000
# 6 0.0000 0.0000 0.0000 0.0000 0.0000 63.2688
#
#
#
# Elastic Compliance Matrix: (Units=1/GPa)
#
#
# Indices 1 2 3 4 5 6 
#
# 1 0.011458 -0.000206 -0.004284 0.000000 0.000000 0.000000
# 2 -0.000206 0.011147 -0.003805 0.000000 0.000000 0.000000
# 3 -0.004284 -0.003805 0.015502 0.000000 0.000000 0.000000
# 4 0.000000 0.000000 0.000000 0.028191 0.000000 0.000000
# 5 0.000000 0.000000 0.000000 0.000000 0.048675 0.000000
# 6 0.000000 0.000000 0.000000 0.000000 0.000000 0.015806
#
#
# Mechanical properties :
#
#
# Convention : Reuss Voigt Hill
#
# Bulk Modulus (GPa) = 46.47357 46.48560 46.47958
# Shear Modulus (GPa) = 32.35405 37.70419 35.02912
#
# Velocity S-wave (km/s) = 3.93955 4.25283 4.09918
# Velocity P-wave (km/s) = 6.55642 6.81281 6.68584
#
# Compressibility (1/GPa) = 0.02151761
#
# Stress axis : x y z
#
# Youngs Moduli (GPa) = 87.27275 89.71246 64.50856
#
# Poissons Ratio (x) = 0.01845 0.27637
# Poissons Ratio (y) = 0.01794 0.24544
# Poissons Ratio (z) = 0.37390 0.34134
#
# Static dielectric constant tensor:
#      x y z
#    x 1.776360 0.000000 0.000000 
#    y 0.000000 1.785330 0.000000 
#    z 0.000000 0.000000 1.792600 
# 
# From -- ./inp_files/22553.got.cif
#   From: 2010.05.17/outbox.cif.g08.bks.cpg/sg52_12_cif.got.tgz:22553.got - 2010.06.03 12:15:38.
