data_PCOD9409039
_publ_section_title
;
Structure prediction by ZEFSAII (Michael W. Deem and Ramdas Pophale) SiO2 
 PCOD9409039
Probable space group: P N N A
;
_chemical_formula_sum "Si O2"
_cell_formula_units_Z 40
_cell_length_a 12.015296
_cell_length_b 9.185801
_cell_length_c 15.799827
_cell_angle_alpha 90.000000
_cell_angle_beta 90.000000
_cell_angle_gamma 90.000000
_cell_volume 1743.828771
_symmetry_space_group_name_H-M "P N N A"
_symmetry_group_IT_number 52
_symmetry_cell_setting 'orthorhombic'
loop_
_space_group_symop_operation_xyz
x,y,z
1/2-x,-y,z
x,1/2-y,1/2-z
1/2-x,1/2+y,1/2-z
-x,-y,-z
1/2+x,y,-z
-x,1/2+y,1/2+z
1/2+x,1/2-y,1/2+z
loop_
_atom_site_type_symbol
_atom_site_label
_atom_site_fract_x
_atom_site_fract_y
_atom_site_fract_z
Si Si1 0.957885 0.293885 0.422487
Si Si2 0.279226 0.650336 0.885562
Si Si3 0.709818 0.838590 0.828802
Si Si4 0.168868 0.125932 0.428087
Si Si5 0.469630 0.871125 0.883448
O O1 0.836773 0.226758 0.409401
O O2 0.957828 0.453767 0.379638
O O3 0.048793 0.172267 0.392507
O O4 0.996830 0.329054 0.519119
O O5 0.250000 0.500000 0.836624
O O6 0.363966 0.775404 0.855228
O O7 0.339332 0.594487 0.972457
O O8 0.756236 0.750000 0.750000
O O9 0.760108 0.771625 0.913926
O O10 0.578318 0.829802 0.831423
O O11 0.750000 0.000000 0.822441
O O12 0.250000 0.000000 0.391217
#
# Coordination Sequence:
#
# PCOD9409039 Si02
#       5
#     8   8   8   8   8
#     4  10  19  35  59  89 124 156 194 253 311 368
#     4  10  21  33  57  93 125 153 189 252 319 362
#     4  12  24  42  60  86 119 160 209 247 302 368
#     4  10  21  34  57  89 124 156 197 248 305 366
#     4  10  21  35  60  86 121 159 200 250 302 373
#
# _framework density 22.938032
#
# number of rings (size 3 to 8) (size 9 to 14) (size 15 to 20)
#    0.000    1.600    4.000    1.200    2.800    2.400 
#    0.000    0.000    0.000    3.600    0.000    0.000 
#    0.000    0.000    0.000    0.000    0.000    0.000 
#
# Total GULP energy -223080.992894 kJ/mol
# GULP energy per Si atom -5577.024822 kJ/mol
# Density = 2.288582 g / cm^3
# Si number density = 22.938032 Si / 1000 Ang^3
#
#
#
# Elastic Constant Matrix: (Units=GPa)
#
#
# Indices 1 2 3 4 5 6 
#
# 1 176.3125 33.7028 -1.0398 0.0000 0.0000 0.0000
# 2 33.7028 70.1980 15.9591 0.0000 0.0000 0.0000
# 3 -1.0398 15.9591 21.9343 0.0000 0.0000 0.0000
# 4 0.0000 0.0000 0.0000 78.5589 0.0000 0.0000
# 5 0.0000 0.0000 0.0000 0.0000 28.9725 0.0000
# 6 0.0000 0.0000 0.0000 0.0000 0.0000 55.2674
#
#
#
# Elastic Compliance Matrix: (Units=1/GPa)
#
#
# Indices 1 2 3 4 5 6 
#
# 1 0.006410 -0.003771 0.003047 0.000000 0.000000 0.000000
# 2 -0.003771 0.019287 -0.014211 0.000000 0.000000 0.000000
# 3 0.003047 -0.014211 0.056075 0.000000 0.000000 0.000000
# 4 0.000000 0.000000 0.000000 0.012729 0.000000 0.000000
# 5 0.000000 0.000000 0.000000 0.000000 0.034515 0.000000
# 6 0.000000 0.000000 0.000000 0.000000 0.000000 0.018094
#
#
# Mechanical properties :
#
#
# Convention : Reuss Voigt Hill
#
# Bulk Modulus (GPa) = 19.26677 40.63213 29.94945
# Shear Modulus (GPa) = 25.73593 47.21460 36.47527
#
# Velocity S-wave (km/s) = 3.35323 4.54183 3.99201
# Velocity P-wave (km/s) = 4.83838 6.72730 5.85946
#
# Compressibility (1/GPa) = 0.05190284
#
# Stress axis : x y z
#
# Youngs Moduli (GPa) = 155.99493 51.84961 17.83324
#
# Poissons Ratio (x) = 0.19550 -0.05434
# Poissons Ratio (y) = 0.58818 0.25343
# Poissons Ratio (z) = -0.47536 0.73685
#
# Static dielectric constant tensor:
#      x y z
#    x 1.837960 0.000000 0.000000 
#    y 0.000000 1.872110 0.000000 
#    z 0.000000 0.000000 1.884370 
# 
# From -- ./inp_files/31937.got.cif
#   From: 2010.05.17/outbox.cif.g08.bks.cpg/sg52_16_cif.got.tgz:31937.got - 2010.06.03 12:15:38.
