data_PCOD9409265
_publ_section_title
;
Structure prediction by ZEFSAII (Michael W. Deem and Ramdas Pophale) SiO2 
 PCOD9409265
Probable space group: P N N A
;
_chemical_formula_sum "Si O2"
_cell_formula_units_Z 32
_cell_length_a 5.412810
_cell_length_b 7.683954
_cell_length_c 33.355124
_cell_angle_alpha 90.000000
_cell_angle_beta 90.000000
_cell_angle_gamma 90.000000
_cell_volume 1387.299081
_symmetry_space_group_name_H-M "P N N A"
_symmetry_group_IT_number 52
_symmetry_cell_setting 'orthorhombic'
loop_
_space_group_symop_operation_xyz
x,y,z
1/2-x,-y,z
x,1/2-y,1/2-z
1/2-x,1/2+y,1/2-z
-x,-y,-z
1/2+x,y,-z
-x,1/2+y,1/2+z
1/2+x,1/2-y,1/2+z
loop_
_atom_site_type_symbol
_atom_site_label
_atom_site_fract_x
_atom_site_fract_y
_atom_site_fract_z
Si Si1 0.892710 0.686293 0.420844
Si Si2 0.250000 0.500000 0.974486
Si Si3 0.250000 0.500000 0.285040
Si Si4 0.874813 0.250000 0.250000
Si Si5 0.886968 0.688959 0.330229
Si Si6 0.250000 0.000000 0.028081
O O1 0.750000 0.500000 0.420801
O O2 0.756060 0.826299 0.448018
O O3 0.895814 0.755419 0.375291
O O4 0.163108 0.651396 0.440813
O O5 0.500000 0.500000 0.000000
O O6 0.461041 0.580101 0.258072
O O7 0.339019 0.349015 0.314483
O O8 0.733651 0.221029 0.291790
O O9 0.750000 0.500000 0.332635
O O10 0.500000 0.000000 0.000000
#
# Coordination Sequence:
#
# PCOD9409265 Si02
#       6
#     8   4   4   4   8   4
#     4  11  25  47  75 106 145 193 245 305 373 443
#     4  12  30  50  71 110 150 184 246 307 368 450
#     4  10  19  38  61  96 134 182 228 295 346 427
#     4  10  20  38  64  96 138 182 232 286 356 428
#     4   9  20  40  66  96 135 181 237 287 350 430
#     4  12  23  40  74 106 132 188 240 284 372 445
#
# _framework density 23.066405
#
# number of rings (size 3 to 8) (size 9 to 14) (size 15 to 20)
#    0.000    1.500    1.250    3.000    3.500    0.000 
#   11.250    0.000    0.000    0.000    0.000    0.000 
#    0.000    0.000    0.000    0.000    0.000    0.000 
#
# Total GULP energy -178535.187124 kJ/mol
# GULP energy per Si atom -5579.224598 kJ/mol
# Density = 2.301390 g / cm^3
# Si number density = 23.066405 Si / 1000 Ang^3
#
#
#
# Elastic Constant Matrix: (Units=GPa)
#
#
# Indices 1 2 3 4 5 6 
#
# 1 133.5528 31.8847 99.1031 0.0000 0.0000 0.0000
# 2 31.8847 86.1804 62.7012 0.0000 0.0000 0.0000
# 3 99.1031 62.7012 258.1957 0.0000 0.0000 0.0000
# 4 0.0000 0.0000 0.0000 39.9037 0.0000 0.0000
# 5 0.0000 0.0000 0.0000 0.0000 -19.7772 0.0000
# 6 0.0000 0.0000 0.0000 0.0000 0.0000 39.5193
#
#
#
# Elastic Compliance Matrix: (Units=1/GPa)
#
#
# Indices 1 2 3 4 5 6 
#
# 1 0.010565 -0.001164 -0.003772 0.000000 0.000000 0.000000
# 2 -0.001164 0.014222 -0.003007 0.000000 0.000000 0.000000
# 3 -0.003772 -0.003007 0.006051 0.000000 0.000000 0.000000
# 4 0.000000 0.000000 0.000000 0.025060 0.000000 0.000000
# 5 0.000000 0.000000 0.000000 0.000000 -0.050563 0.000000
# 6 0.000000 0.000000 0.000000 0.000000 0.000000 0.025304
#
#
# Mechanical properties :
#
#
# Convention : Reuss Voigt Hill
#
# Bulk Modulus (GPa) = 66.88419 96.14521 81.51470
# Shear Modulus (GPa) = 97.06892 30.87849 63.97370
#
# Velocity S-wave (km/s) = 6.49413 3.66276 5.27208
# Velocity P-wave (km/s) = 9.23531 7.72400 8.51326
#
# Compressibility (1/GPa) = 0.01495122
#
# Stress axis : x y z
#
# Youngs Moduli (GPa) = 94.65264 70.31383 165.25626
#
# Poissons Ratio (x) = 0.08185 0.62342
# Poissons Ratio (y) = 0.11019 0.49691
# Poissons Ratio (z) = 0.35707 0.21143
#
# Static dielectric constant tensor:
#      x y z
#    x 2.000950 0.000000 0.000000 
#    y 0.000000 1.923470 0.000000 
#    z 0.000000 0.000000 1.902020 
# 
# From -- ./inp_files/43527.got.cif
#   From: 2010.05.17/outbox.cif.g08.bks.cpg/sg52_22_cif.got.tgz:43527.got - 2010.06.03 12:15:38.
