data_PCOD9409721
_publ_section_title
;
Structure prediction by ZEFSAII (Michael W. Deem and Ramdas Pophale) SiO2 
 PCOD9409721
Probable space group: P N N A
;
_chemical_formula_sum "Si O2"
_cell_formula_units_Z 60
_cell_length_a 9.169041
_cell_length_b 11.959982
_cell_length_c 30.372055
_cell_angle_alpha 90.000000
_cell_angle_beta 90.000000
_cell_angle_gamma 90.000000
_cell_volume 3330.647093
_symmetry_space_group_name_H-M "P N N A"
_symmetry_group_IT_number 52
_symmetry_cell_setting 'orthorhombic'
loop_
_space_group_symop_operation_xyz
x,y,z
1/2-x,-y,z
x,1/2-y,1/2-z
1/2-x,1/2+y,1/2-z
-x,-y,-z
1/2+x,y,-z
-x,1/2+y,1/2+z
1/2+x,1/2-y,1/2+z
loop_
_atom_site_type_symbol
_atom_site_label
_atom_site_fract_x
_atom_site_fract_y
_atom_site_fract_z
Si Si1 0.250000 0.500000 0.795749
Si Si2 0.732308 0.132384 0.556112
Si Si3 0.539705 0.708843 0.199254
Si Si4 0.731480 0.369420 0.447024
Si Si5 0.751944 0.366062 0.843398
Si Si6 0.517475 0.754434 0.499333
Si Si7 0.035348 0.301261 0.793442
Si Si8 0.751219 0.367787 0.342973
O O1 0.363234 0.402243 0.813205
O O2 0.129880 0.410153 0.778716
O O3 0.721444 0.171518 0.606587
O O4 0.874680 0.182720 0.532667
O O5 0.589952 0.166738 0.528570
O O6 0.750000 0.000000 0.556363
O O7 0.561384 0.750000 0.250000
O O8 0.373510 0.680177 0.188457
O O9 0.595152 0.811349 0.169403
O O10 0.750000 0.500000 0.455404
O O11 0.874720 0.309099 0.466074
O O12 0.590383 0.324034 0.472637
O O13 0.718947 0.352791 0.394624
O O14 0.750000 0.500000 0.842169
O O15 0.912127 0.331498 0.828075
O O16 0.965337 0.250000 0.750000
O O17 0.139485 0.207258 0.814759
O O18 0.750000 0.500000 0.332338
#
# Coordination Sequence:
#
# PCOD9409721 Si02
#       8
#     4   8   8   8   8   8   8   8
#     4  10  20  38  58  86 104 152 198 242 276 342
#     4  10  21  36  60  81 118 148 186 234 287 336
#     4  11  23  37  62  83 118 151 199 235 291 335
#     4  10  20  36  56  83 112 148 187 232 282 336
#     4  11  22  40  57  85 119 153 189 241 292 344
#     4  10  20  36  58  84 112 146 192 228 282 344
#     4  11  23  37  62  83 118 151 199 235 291 335
#     4  10  22  37  58  85 117 150 196 242 283 336
#
# _framework density 18.014517000000001
#
# number of rings (size 3 to 8) (size 9 to 14) (size 15 to 20)
#    0.000    1.600    1.333    4.400    3.733    0.000 
#    0.000    0.667    8.800    4.800    0.000    0.000 
#    0.000    0.000    0.000    0.000    0.000    0.000 
#
# Total GULP energy -334252.926695 kJ/mol
# GULP energy per Si atom -5570.882112 kJ/mol
# Density = 1.797352 g / cm^3
# Si number density = 18.014517 Si / 1000 Ang^3
#
#
#
# Elastic Constant Matrix: (Units=GPa)
#
#
# Indices 1 2 3 4 5 6 
#
# 1 92.2105 30.2441 18.0620 0.0000 0.0000 0.0000
# 2 30.2441 103.6505 42.3896 0.0000 0.0000 0.0000
# 3 18.0620 42.3896 66.2144 0.0000 0.0000 0.0000
# 4 0.0000 0.0000 0.0000 20.9260 0.0000 0.0000
# 5 0.0000 0.0000 0.0000 0.0000 22.4938 0.0000
# 6 0.0000 0.0000 0.0000 0.0000 0.0000 16.4925
#
#
#
# Elastic Compliance Matrix: (Units=1/GPa)
#
#
# Indices 1 2 3 4 5 6 
#
# 1 0.012089 -0.002951 -0.001408 0.000000 0.000000 0.000000
# 2 -0.002951 0.013790 -0.008023 0.000000 0.000000 0.000000
# 3 -0.001408 -0.008023 0.020623 0.000000 0.000000 0.000000
# 4 0.000000 0.000000 0.000000 0.047787 0.000000 0.000000
# 5 0.000000 0.000000 0.000000 0.000000 0.044457 0.000000
# 6 0.000000 0.000000 0.000000 0.000000 0.000000 0.060634
#
#
# Mechanical properties :
#
#
# Convention : Reuss Voigt Hill
#
# Bulk Modulus (GPa) = 46.00608 49.27409 47.64008
# Shear Modulus (GPa) = 21.60849 23.40777 22.50813
#
# Velocity S-wave (km/s) = 3.46714 3.60861 3.53858
# Velocity P-wave (km/s) = 6.45150 6.69138 6.57253
#
# Compressibility (1/GPa) = 0.02173626
#
# Stress axis : x y z
#
# Youngs Moduli (GPa) = 82.72249 72.51498 48.48976
#
# Poissons Ratio (x) = 0.21403 0.06828
# Poissons Ratio (y) = 0.24415 0.38904
# Poissons Ratio (z) = 0.11648 0.58180
#
# Static dielectric constant tensor:
#      x y z
#    x 1.583040 0.000000 0.000000 
#    y 0.000000 1.600900 0.000000 
#    z 0.000000 0.000000 1.613610 
# 
# From -- ./inp_files/44572.got.cif
#   From: 2010.05.17/outbox.cif.g08.bks.cpg/sg52_23_cif.got.tgz:44572.got - 2010.06.03 12:15:38.
