data_PCOD9409451
_publ_section_title
;
Structure prediction by ZEFSAII (Michael W. Deem and Ramdas Pophale) SiO2 
 PCOD9409451
Probable space group: P N N A
;
_chemical_formula_sum "Si O2"
_cell_formula_units_Z 60
_cell_length_a 29.878725
_cell_length_b 6.406258
_cell_length_c 16.732880
_cell_angle_alpha 90.000000
_cell_angle_beta 90.000000
_cell_angle_gamma 90.000000
_cell_volume 3202.854300
_symmetry_space_group_name_H-M "P N N A"
_symmetry_group_IT_number 52
_symmetry_cell_setting 'orthorhombic'
loop_
_space_group_symop_operation_xyz
x,y,z
1/2-x,-y,z
x,1/2-y,1/2-z
1/2-x,1/2+y,1/2-z
-x,-y,-z
1/2+x,y,-z
-x,1/2+y,1/2+z
1/2+x,1/2-y,1/2+z
loop_
_atom_site_type_symbol
_atom_site_label
_atom_site_fract_x
_atom_site_fract_y
_atom_site_fract_z
Si Si1 0.333319 0.750000 0.750000
Si Si2 0.556414 0.820602 0.440699
Si Si3 0.135469 0.863279 0.834618
Si Si4 0.891426 0.361546 0.830088
Si Si5 0.476595 0.847096 0.332386
Si Si6 0.872962 0.617137 0.977795
Si Si7 0.572814 0.496819 0.561200
Si Si8 0.301092 0.472236 0.892925
O O1 0.360900 0.604799 0.688743
O O2 0.306322 0.597230 0.808870
O O3 0.592945 0.708421 0.384775
O O4 0.516965 0.919850 0.388802
O O5 0.583102 0.994435 0.490129
O O6 0.543247 0.634946 0.500957
O O7 0.131184 0.750000 0.750000
O O8 0.179568 0.761033 0.876005
O O9 0.872874 0.250000 0.750000
O O10 0.865008 0.525425 0.887823
O O11 0.938175 0.484138 0.812413
O O12 0.902665 0.167139 0.885571
O O13 0.494201 0.750000 0.250000
O O14 0.453965 0.661323 0.382919
O O15 0.888329 0.856388 0.978528
O O16 0.833328 0.566290 0.038749
O O17 0.250000 0.500000 0.917496
#
# Coordination Sequence:
#
# PCOD9409451 Si02
#       8
#     4   8   8   8   8   8   8   8
#     4  10  20  32  56  80 112 152 190 218 266 320
#     4  10  20  34  51  73 110 145 179 225 272 325
#     4   9  19  35  50  74 109 148 187 218 262 319
#     4  10  20  37  57  79 103 139 187 237 285 339
#     4  11  21  33  51  77 106 138 186 232 274 323
#     4   9  21  37  55  80 107 145 183 228 279 336
#     4  10  20  35  54  74 105 138 181 220 284 328
#     4  10  21  35  56  83 114 145 183 228 270 330
#
# _framework density 18.73329
#
# number of rings (size 3 to 8) (size 9 to 14) (size 15 to 20)
#    0.000    2.133    1.333    1.600    2.800    5.867 
#    0.000    1.333    1.467    0.000    3.467    0.000 
#    0.000    0.000    0.000    0.000    0.000    0.000 
#
# Total GULP energy -334350.318538 kJ/mol
# GULP energy per Si atom -5572.505309 kJ/mol
# Density = 1.869065 g / cm^3
# Si number density = 18.733290 Si / 1000 Ang^3
#
#
#
# Elastic Constant Matrix: (Units=GPa)
#
#
# Indices 1 2 3 4 5 6 
#
# 1 29.8631 -1.8290 9.7582 0.0000 0.0000 0.0000
# 2 -1.8290 59.5174 5.0199 0.0000 0.0000 0.0000
# 3 9.7582 5.0199 80.6505 0.0000 0.0000 0.0000
# 4 0.0000 0.0000 0.0000 27.3444 0.0000 0.0000
# 5 0.0000 0.0000 0.0000 0.0000 10.3315 0.0000
# 6 0.0000 0.0000 0.0000 0.0000 0.0000 6.6176
#
#
#
# Elastic Compliance Matrix: (Units=1/GPa)
#
#
# Indices 1 2 3 4 5 6 
#
# 1 0.034987 0.001440 -0.004323 0.000000 0.000000 0.000000
# 2 0.001440 0.016950 -0.001229 0.000000 0.000000 0.000000
# 3 -0.004323 -0.001229 0.012999 0.000000 0.000000 0.000000
# 4 0.000000 0.000000 0.000000 0.036571 0.000000 0.000000
# 5 0.000000 0.000000 0.000000 0.000000 0.096791 0.000000
# 6 0.000000 0.000000 0.000000 0.000000 0.000000 0.151113
#
#
# Mechanical properties :
#
#
# Convention : Reuss Voigt Hill
#
# Bulk Modulus (GPa) = 17.63330 21.76991 19.70161
# Shear Modulus (GPa) = 13.27887 19.33082 16.30485
#
# Velocity S-wave (km/s) = 2.66529 3.21580 2.95340
# Velocity P-wave (km/s) = 4.34798 5.04328 4.70848
#
# Compressibility (1/GPa) = 0.05671087
#
# Stress axis : x y z
#
# Youngs Moduli (GPa) = 28.58213 58.99802 76.93070
#
# Poissons Ratio (x) = -0.08494 0.33256
# Poissons Ratio (y) = -0.04115 0.09456
# Poissons Ratio (z) = 0.12355 0.07252
#
# Static dielectric constant tensor:
#      x y z
#    x 1.641730 0.000000 0.000000 
#    y 0.000000 1.687130 0.000000 
#    z 0.000000 0.000000 1.701170 
# 
# From -- ./inp_files/34573.got.cif
#   From: 2010.05.17/outbox.cif.g08.bks.cpg/sg52_18_cif.got.tgz:34573.got - 2010.06.03 12:15:38.
