data_PCOD9409614
_publ_section_title
;
Structure prediction by ZEFSAII (Michael W. Deem and Ramdas Pophale) SiO2 
 PCOD9409614
Probable space group: P N N A
;
_chemical_formula_sum "Si O2"
_cell_formula_units_Z 48
_cell_length_a 5.228199
_cell_length_b 15.451781
_cell_length_c 29.416604
_cell_angle_alpha 90.000000
_cell_angle_beta 90.000000
_cell_angle_gamma 90.000000
_cell_volume 2376.419941
_symmetry_space_group_name_H-M "P N N A"
_symmetry_group_IT_number 52
_symmetry_cell_setting 'orthorhombic'
loop_
_space_group_symop_operation_xyz
x,y,z
1/2-x,-y,z
x,1/2-y,1/2-z
1/2-x,1/2+y,1/2-z
-x,-y,-z
1/2+x,y,-z
-x,1/2+y,1/2+z
1/2+x,1/2-y,1/2+z
loop_
_atom_site_type_symbol
_atom_site_label
_atom_site_fract_x
_atom_site_fract_y
_atom_site_fract_z
Si Si1 0.440386 0.866760 0.624139
Si Si2 0.934512 0.754906 0.648105
Si Si3 0.472079 0.598345 0.980710
Si Si4 0.438462 0.250000 0.750000
Si Si5 0.070348 0.574006 0.746706
Si Si6 0.750000 0.500000 0.818433
Si Si7 0.003859 0.054255 0.140045
O O1 0.179585 0.818306 0.639723
O O2 0.409420 0.896254 0.572032
O O3 0.677752 0.799229 0.629175
O O4 0.538692 0.952356 0.650824
O O5 0.908451 0.743414 0.702908
O O6 0.986571 0.657300 0.628989
O O7 0.500000 0.500000 0.000000
O O8 0.244473 0.640296 0.009143
O O9 0.278568 0.336828 0.749431
O O10 0.250000 0.500000 0.763309
O O11 0.845698 0.573152 0.783153
O O12 0.993097 0.554138 0.695445
O O13 0.250000 0.000000 0.124241
O O14 0.750000 0.000000 0.126873
#
# Coordination Sequence:
#
# PCOD9409614 Si02
#       7
#     8   8   8   4   8   4   8
#     4  12  25  39  61  93 126 161 218 267 316 389
#     4  11  24  39  58  90 126 165 214 275 310 376
#     4  10  21  41  63  87 118 167 200 251 327 397
#     4  10  20  40  52  78 126 170 210 266 338 346
#     4  10  20  35  51  76 109 160 222 256 311 369
#     4  12  22  34  54  80 118 162 214 264 308 364
#     4  10  20  37  60  80 114 164 214 258 309 372
#
# _framework density 20.198450000000001
#
# number of rings (size 3 to 8) (size 9 to 14) (size 15 to 20)
#    0.000    1.333    2.500    4.000    0.000    2.000 
#    0.000    0.000    0.000    0.000    0.000    0.000 
#    0.000   46.667    0.000    0.000    0.000    0.000 
#
# Total GULP energy -267534.668409 kJ/mol
# GULP energy per Si atom -5573.638925 kJ/mol
# Density = 2.015248 g / cm^3
# Si number density = 20.198450 Si / 1000 Ang^3
#
#
#
# Elastic Constant Matrix: (Units=GPa)
#
#
# Indices 1 2 3 4 5 6 
#
# 1 113.2645 27.3991 7.7404 0.0000 0.0000 0.0000
# 2 27.3991 122.0754 -3.8447 0.0000 0.0000 0.0000
# 3 7.7404 -3.8447 73.2373 0.0000 0.0000 0.0000
# 4 0.0000 0.0000 0.0000 21.5054 0.0000 0.0000
# 5 0.0000 0.0000 0.0000 0.0000 8.4747 0.0000
# 6 0.0000 0.0000 0.0000 0.0000 0.0000 32.8142
#
#
#
# Elastic Compliance Matrix: (Units=1/GPa)
#
#
# Indices 1 2 3 4 5 6 
#
# 1 0.009425 -0.002150 -0.001109 0.000000 0.000000 0.000000
# 2 -0.002150 0.008696 0.000684 0.000000 0.000000 0.000000
# 3 -0.001109 0.000684 0.013807 0.000000 0.000000 0.000000
# 4 0.000000 0.000000 0.000000 0.046500 0.000000 0.000000
# 5 0.000000 0.000000 0.000000 0.000000 0.117999 0.000000
# 6 0.000000 0.000000 0.000000 0.000000 0.000000 0.030475
#
#
# Mechanical properties :
#
#
# Convention : Reuss Voigt Hill
#
# Bulk Modulus (GPa) = 37.34548 41.24074 39.29311
# Shear Modulus (GPa) = 20.74877 31.04435 25.89656
#
# Velocity S-wave (km/s) = 3.20854 3.92467 3.58454
# Velocity P-wave (km/s) = 5.67942 6.40308 6.05208
#
# Compressibility (1/GPa) = 0.02677700
#
# Stress axis : x y z
#
# Youngs Moduli (GPa) = 106.10262 114.99791 72.42519
#
# Poissons Ratio (x) = 0.24728 0.08032
# Poissons Ratio (y) = 0.22815 -0.04952
# Poissons Ratio (z) = 0.11767 -0.07863
#
# Static dielectric constant tensor:
#      x y z
#    x 1.821670 0.000000 0.000000 
#    y 0.000000 1.880500 0.000000 
#    z 0.000000 0.000000 1.686670 
# 
# From -- ./inp_files/41713.got.cif
#   From: 2010.05.17/outbox.cif.g08.bks.cpg/sg52_21_cif.got.tgz:41713.got - 2010.06.03 12:15:38.
