data_PCOD9409748
_publ_section_title
;
Structure prediction by ZEFSAII (Michael W. Deem and Ramdas Pophale) SiO2 
 PCOD9409748
Probable space group: P N N A
;
_chemical_formula_sum "Si O2"
_cell_formula_units_Z 48
_cell_length_a 7.496901
_cell_length_b 19.909878
_cell_length_c 19.340915
_cell_angle_alpha 90.000000
_cell_angle_beta 90.000000
_cell_angle_gamma 90.000000
_cell_volume 2886.871087
_symmetry_space_group_name_H-M "P N N A"
_symmetry_group_IT_number 52
_symmetry_cell_setting 'orthorhombic'
loop_
_space_group_symop_operation_xyz
x,y,z
1/2-x,-y,z
x,1/2-y,1/2-z
1/2-x,1/2+y,1/2-z
-x,-y,-z
1/2+x,y,-z
-x,1/2+y,1/2+z
1/2+x,1/2-y,1/2+z
loop_
_atom_site_type_symbol
_atom_site_label
_atom_site_fract_x
_atom_site_fract_y
_atom_site_fract_z
Si Si1 0.953500 0.783305 0.079780
Si Si2 0.744991 0.783831 0.674097
Si Si3 0.464141 0.074084 0.858804
Si Si4 0.465068 0.285097 0.578647
Si Si5 0.748143 0.575894 0.761531
Si Si6 0.041500 0.424423 0.642858
O O1 0.743720 0.774711 0.092919
O O2 0.000492 0.861619 0.094070
O O3 0.072197 0.739927 0.131660
O O4 0.994352 0.767237 0.000368
O O5 0.743500 0.750000 0.750000
O O6 0.750931 0.863573 0.684975
O O7 0.912826 0.756277 0.631102
O O8 0.506194 0.135798 0.909079
O O9 0.583769 0.082573 0.790532
O O10 0.253235 0.077578 0.842598
O O11 0.500865 0.998765 0.886182
O O12 0.750000 0.500000 0.789962
O O13 0.574978 0.583066 0.712080
#
# Coordination Sequence:
#
# PCOD9409748 Si02
#       6
#     8   8   8   8   8   8
#     4  11  22  36  56  83 119 154 189 233 285 334
#     4  12  22  38  60  88 113 148 195 238 282 338
#     4   9  18  32  51  80 117 152 187 221 271 339
#     4  11  22  36  56  83 119 154 189 233 285 334
#     4  10  20  36  58  82 114 146 184 236 286 332
#     4   9  18  32  51  80 117 152 187 221 271 339
#
# _framework density 16.626998
#
# number of rings (size 3 to 8) (size 9 to 14) (size 15 to 20)
#    0.000    1.667    5.000    0.000    0.000    2.667 
#    0.000    0.000    0.000    1.000    0.000    0.000 
#    0.000    0.000    0.000    0.000    0.000    0.000 
#
# Total GULP energy -267797.116044 kJ/mol
# GULP energy per Si atom -5579.106584 kJ/mol
# Density = 1.658915 g / cm^3
# Si number density = 16.626998 Si / 1000 Ang^3
#
#
#
# Elastic Constant Matrix: (Units=GPa)
#
#
# Indices 1 2 3 4 5 6 
#
# 1 32.5175 -2.3606 -1.7920 0.0000 0.0000 0.0000
# 2 -2.3606 71.0887 19.5256 0.0000 0.0000 0.0000
# 3 -1.7920 19.5256 54.2644 0.0000 0.0000 0.0000
# 4 0.0000 0.0000 0.0000 22.8351 0.0000 0.0000
# 5 0.0000 0.0000 0.0000 0.0000 25.1375 0.0000
# 6 0.0000 0.0000 0.0000 0.0000 0.0000 5.5341
#
#
#
# Elastic Compliance Matrix: (Units=1/GPa)
#
#
# Indices 1 2 3 4 5 6 
#
# 1 0.030852 0.000826 0.000722 0.000000 0.000000 0.000000
# 2 0.000826 0.015632 -0.005597 0.000000 0.000000 0.000000
# 3 0.000722 -0.005597 0.020466 0.000000 0.000000 0.000000
# 4 0.000000 0.000000 0.000000 0.043792 0.000000 0.000000
# 5 0.000000 0.000000 0.000000 0.000000 0.039781 0.000000
# 6 0.000000 0.000000 0.000000 0.000000 0.000000 0.180696
#
#
# Mechanical properties :
#
#
# Convention : Reuss Voigt Hill
#
# Bulk Modulus (GPa) = 16.99197 20.95739 18.97468
# Shear Modulus (GPa) = 13.93004 20.20120 17.06562
#
# Velocity S-wave (km/s) = 2.89761 3.48941 3.20719
# Velocity P-wave (km/s) = 4.62996 5.37275 5.01513
#
# Compressibility (1/GPa) = 0.05885132
#
# Stress axis : x y z
#
# Youngs Moduli (GPa) = 32.41239 63.97222 48.86104
#
# Poissons Ratio (x) = -0.05286 -0.03526
# Poissons Ratio (y) = -0.02678 0.27349
# Poissons Ratio (z) = -0.02339 0.35808
#
# Static dielectric constant tensor:
#      x y z
#    x 1.574230 0.000000 0.000000 
#    y 0.000000 1.572000 0.000000 
#    z 0.000000 0.000000 1.518590 
# 
# From -- ./inp_files/31500.got.cif
#   From: 2010.05.17/outbox.cif.g08.bks.cpg/sg52_16_cif.got.tgz:31500.got - 2010.06.03 12:15:38.
