data_PCOD9409395
_publ_section_title
;
Structure prediction by ZEFSAII (Michael W. Deem and Ramdas Pophale) SiO2 
 PCOD9409395
Probable space group: P N N A
;
_chemical_formula_sum "Si O2"
_cell_formula_units_Z 52
_cell_length_a 7.946161
_cell_length_b 18.363366
_cell_length_c 20.166804
_cell_angle_alpha 90.000000
_cell_angle_beta 90.000000
_cell_angle_gamma 90.000000
_cell_volume 2942.705005
_symmetry_space_group_name_H-M "P N N A"
_symmetry_group_IT_number 52
_symmetry_cell_setting 'orthorhombic'
loop_
_space_group_symop_operation_xyz
x,y,z
1/2-x,-y,z
x,1/2-y,1/2-z
1/2-x,1/2+y,1/2-z
-x,-y,-z
1/2+x,y,-z
-x,1/2+y,1/2+z
1/2+x,1/2-y,1/2+z
loop_
_atom_site_type_symbol
_atom_site_label
_atom_site_fract_x
_atom_site_fract_y
_atom_site_fract_z
Si Si1 0.747657 0.722891 0.613873
Si Si2 0.392249 0.694133 0.653697
Si Si3 0.250000 0.500000 0.450019
Si Si4 0.939998 0.289510 0.180958
Si Si5 0.774752 0.348621 0.475564
Si Si6 0.782479 0.083942 0.244642
Si Si7 0.034409 0.406548 0.376865
O O1 0.569271 0.735826 0.649731
O O2 0.725367 0.710775 0.534255
O O3 0.805858 0.642853 0.640645
O O4 0.899626 0.777192 0.633501
O O5 0.229770 0.746804 0.659627
O O6 0.368276 0.659913 0.580259
O O7 0.367714 0.634219 0.712458
O O8 0.238615 0.572200 0.492055
O O9 0.089073 0.484134 0.404794
O O10 0.989971 0.250000 0.250000
O O11 0.876387 0.370192 0.198254
O O12 0.944990 0.357148 0.433029
O O13 0.910273 0.083067 0.182889
O O14 0.750000 0.000000 0.262225
#
# Coordination Sequence:
#
# PCOD9409395 Si02
#       7
#     8   8   4   8   8   8   8
#     4  11  19  34  56  76 108 147 182 223 264 318
#     4  10  22  34  56  80 111 146 184 219 275 321
#     4  10  20  26  48  74 118 158 178 210 260 310
#     4  10  20  41  52  76 107 142 190 230 270 321
#     4  10  20  33  48  80 117 148 180 218 266 326
#     4  10  22  38  55  74 110 147 186 238 275 320
#     4  10  20  33  47  77 114 150 188 218 257 325
#
# _framework density 17.670817
#
# number of rings (size 3 to 8) (size 9 to 14) (size 15 to 20)
#    0.000    1.846    4.615    2.308    8.615    1.846 
#    0.000    0.000    0.000    0.000    0.000    1.077 
#    0.000    0.000    0.000    0.000    0.000    0.000 
#
# Total GULP energy -289573.287200 kJ/mol
# GULP energy per Si atom -5568.717062 kJ/mol
# Density = 1.763060 g / cm^3
# Si number density = 17.670817 Si / 1000 Ang^3
#
#
#
# Elastic Constant Matrix: (Units=GPa)
#
#
# Indices 1 2 3 4 5 6 
#
# 1 97.2324 36.2929 27.6197 0.0000 0.0000 0.0000
# 2 36.2929 94.6489 43.1214 0.0000 0.0000 0.0000
# 3 27.6197 43.1214 56.9067 0.0000 0.0000 0.0000
# 4 0.0000 0.0000 0.0000 20.4579 0.0000 0.0000
# 5 0.0000 0.0000 0.0000 0.0000 13.8740 0.0000
# 6 0.0000 0.0000 0.0000 0.0000 0.0000 19.1910
#
#
#
# Elastic Compliance Matrix: (Units=1/GPa)
#
#
# Indices 1 2 3 4 5 6 
#
# 1 0.012497 -0.003098 -0.003718 0.000000 0.000000 0.000000
# 2 -0.003098 0.016904 -0.011305 0.000000 0.000000 0.000000
# 3 -0.003718 -0.011305 0.027944 0.000000 0.000000 0.000000
# 4 0.000000 0.000000 0.000000 0.048881 0.000000 0.000000
# 5 0.000000 0.000000 0.000000 0.000000 0.072077 0.000000
# 6 0.000000 0.000000 0.000000 0.000000 0.000000 0.052108
#
#
# Mechanical properties :
#
#
# Convention : Reuss Voigt Hill
#
# Bulk Modulus (GPa) = 47.38859 51.42843 49.40851
# Shear Modulus (GPa) = 18.26900 20.15485 19.21192
#
# Velocity S-wave (km/s) = 3.21884 3.38090 3.30087
# Velocity P-wave (km/s) = 6.37889 6.66389 6.52295
#
# Compressibility (1/GPa) = 0.02110213
#
# Stress axis : x y z
#
# Youngs Moduli (GPa) = 80.01826 59.15749 35.78614
#
# Poissons Ratio (x) = 0.18328 0.13305
# Poissons Ratio (y) = 0.24791 0.40458
# Poissons Ratio (z) = 0.29749 0.66880
#
# Static dielectric constant tensor:
#      x y z
#    x 1.726660 0.000000 0.000000 
#    y 0.000000 1.612090 0.000000 
#    z 0.000000 0.000000 1.678680 
# 
# From -- ./inp_files/31444.got.cif
#   From: 2010.05.17/outbox.cif.g08.bks.cpg/sg52_16_cif.got.tgz:31444.got - 2010.06.03 12:15:38.
