data_PCOD9409819
_publ_section_title
;
Structure prediction by ZEFSAII (Michael W. Deem and Ramdas Pophale) SiO2 
 PCOD9409819
Probable space group: P N N A
;
_chemical_formula_sum "Si O2"
_cell_formula_units_Z 60
_cell_length_a 19.919247
_cell_length_b 19.297579
_cell_length_c 7.721934
_cell_angle_alpha 90.000000
_cell_angle_beta 90.000000
_cell_angle_gamma 90.000000
_cell_volume 2968.259249
_symmetry_space_group_name_H-M "P N N A"
_symmetry_group_IT_number 52
_symmetry_cell_setting 'orthorhombic'
loop_
_space_group_symop_operation_xyz
x,y,z
1/2-x,-y,z
x,1/2-y,1/2-z
1/2-x,1/2+y,1/2-z
-x,-y,-z
1/2+x,y,-z
-x,1/2+y,1/2+z
1/2+x,1/2-y,1/2+z
loop_
_atom_site_type_symbol
_atom_site_label
_atom_site_fract_x
_atom_site_fract_y
_atom_site_fract_z
Si Si1 0.481915 0.328890 0.717533
Si Si2 0.617659 0.750000 0.750000
Si Si3 0.613394 0.108703 0.810911
Si Si4 0.947409 0.469399 0.642766
Si Si5 0.139938 0.190930 0.541098
Si Si6 0.349734 0.358716 0.516080
Si Si7 0.800237 0.655082 0.389627
Si Si8 0.009075 0.648752 0.096433
O O1 0.499856 0.250000 0.750000
O O2 0.545080 0.357060 0.611569
O O3 0.409675 0.330203 0.634287
O O4 0.481667 0.371581 0.895986
O O5 0.659641 0.696578 0.638027
O O6 0.567986 0.702839 0.863276
O O7 0.639151 0.154855 0.648638
O O8 0.588238 0.032764 0.758070
O O9 0.665730 0.106656 0.966580
O O10 0.885497 0.427922 0.554303
O O11 0.983667 0.414938 0.771302
O O12 0.000000 0.500000 0.500000
O O13 0.174815 0.266877 0.551218
O O14 0.175615 0.147266 0.692613
O O15 0.061967 0.188363 0.599893
O O16 0.278695 0.359780 0.607331
#
# Coordination Sequence:
#
# PCOD9409819 Si02
#       8
#     8   4   8   8   8   8   8   8
#     4  11  21  38  66 100 125 162 227 290 343 387
#     4  10  20  36  62  92 128 158 216 280 350 384
#     4  11  23  43  68  93 135 180 223 272 334 412
#     4  11  23  44  68  95 134 179 228 280 335 406
#     4  10  23  38  67 101 126 175 215 281 347 404
#     4  11  25  40  66  98 129 181 216 287 340 406
#     4  11  24  42  65  96 140 169 226 272 353 411
#     4  10  21  37  64  99 125 163 222 279 337 401
#
# _framework density 20.213868000000002
#
# number of rings (size 3 to 8) (size 9 to 14) (size 15 to 20)
#    0.000    1.333    2.667    3.600    5.600    2.667 
#    4.800    0.000    0.000    0.000    0.000    0.000 
#    0.000    0.000    0.000    0.000    0.000    0.000 
#
# Total GULP energy -334654.899881 kJ/mol
# GULP energy per Si atom -5577.581665 kJ/mol
# Density = 2.016786 g / cm^3
# Si number density = 20.213868 Si / 1000 Ang^3
#
#
#
# Elastic Constant Matrix: (Units=GPa)
#
#
# Indices 1 2 3 4 5 6 
#
# 1 74.8617 1.7772 15.3165 0.0000 0.0000 0.0000
# 2 1.7772 86.7284 14.0175 0.0000 0.0000 0.0000
# 3 15.3165 14.0175 74.4442 0.0000 0.0000 0.0000
# 4 0.0000 0.0000 0.0000 15.8774 0.0000 0.0000
# 5 0.0000 0.0000 0.0000 0.0000 14.7916 0.0000
# 6 0.0000 0.0000 0.0000 0.0000 0.0000 -2.0515
#
#
#
# Elastic Compliance Matrix: (Units=1/GPa)
#
#
# Indices 1 2 3 4 5 6 
#
# 1 0.013948 0.000184 -0.002904 0.000000 0.000000 0.000000
# 2 0.000184 0.011895 -0.002277 0.000000 0.000000 0.000000
# 3 -0.002904 -0.002277 0.014459 0.000000 0.000000 0.000000
# 4 0.000000 0.000000 0.000000 0.062983 0.000000 0.000000
# 5 0.000000 0.000000 0.000000 0.000000 0.067606 0.000000
# 6 0.000000 0.000000 0.000000 0.000000 0.000000 -0.487455
#
#
# Mechanical properties :
#
#
# Convention : Reuss Voigt Hill
#
# Bulk Modulus (GPa) = 32.99747 33.13966 33.06857
# Shear Modulus (GPa) = -16.86533 19.38504 1.25986
#
# Velocity S-wave (km/s) = -2.89164 3.10013 0.79033
# Velocity P-wave (km/s) = 2.28273 5.40782 4.15062
#
# Compressibility (1/GPa) = 0.03030535
#
# Stress axis : x y z
#
# Youngs Moduli (GPa) = 71.69586 84.07188 69.15987
#
# Poissons Ratio (x) = -0.01543 0.20086
# Poissons Ratio (y) = -0.01316 0.15751
# Poissons Ratio (z) = 0.20822 0.19147
#
# Static dielectric constant tensor:
#      x y z
#    x 1.696740 0.000000 0.000000 
#    y 0.000000 1.774000 0.000000 
#    z 0.000000 0.000000 1.775950 
# 
# From -- ./inp_files/12439.got.cif
#   From: 2010.05.17/outbox.cif.g08.bks.cpg/sg52_7_cif.got.tgz:12439.got - 2010.06.03 12:15:38.
