data_PCOD9409341
_publ_section_title
;
Structure prediction by ZEFSAII (Michael W. Deem and Ramdas Pophale) SiO2 
 PCOD9409341
Probable space group: P N N A
;
_chemical_formula_sum "Si O2"
_cell_formula_units_Z 48
_cell_length_a 9.147613
_cell_length_b 18.585245
_cell_length_c 13.922018
_cell_angle_alpha 90.000000
_cell_angle_beta 90.000000
_cell_angle_gamma 90.000000
_cell_volume 2366.891034
_symmetry_space_group_name_H-M "P N N A"
_symmetry_group_IT_number 52
_symmetry_cell_setting 'orthorhombic'
loop_
_space_group_symop_operation_xyz
x,y,z
1/2-x,-y,z
x,1/2-y,1/2-z
1/2-x,1/2+y,1/2-z
-x,-y,-z
1/2+x,y,-z
-x,1/2+y,1/2+z
1/2+x,1/2-y,1/2+z
loop_
_atom_site_type_symbol
_atom_site_label
_atom_site_fract_x
_atom_site_fract_y
_atom_site_fract_z
Si Si1 0.700095 0.675923 0.965409
Si Si2 0.156446 0.427994 0.193856
Si Si3 0.563943 0.223972 0.048132
Si Si4 0.447291 0.814958 0.174876
Si Si5 0.289243 0.831194 0.782162
Si Si6 0.667075 0.569725 0.124457
O O1 0.781043 0.628244 0.885574
O O2 0.586193 0.734920 0.926372
O O3 0.808898 0.716550 0.038347
O O4 0.621311 0.620906 0.036887
O O5 0.250000 0.500000 0.196182
O O6 0.149020 0.382147 0.291771
O O7 0.987362 0.447570 0.173201
O O8 0.609922 0.162309 0.123425
O O9 0.563206 0.200076 0.937235
O O10 0.412043 0.750000 0.250000
O O11 0.619189 0.828191 0.189770
O O12 0.330107 0.750000 0.750000
O O13 0.279922 0.890688 0.698430
O O14 0.750000 0.500000 0.086765
#
# Coordination Sequence:
#
# PCOD9409341 Si02
#       6
#     8   8   8   8   8   8
#     4  12  22  39  65  95 125 159 202 261 315 370
#     4  11  25  41  61  92 128 168 207 253 313 374
#     4  12  21  39  65  95 120 159 209 254 315 363
#     4  10  19  40  62  83 123 162 200 258 313 359
#     4  10  20  39  63  86 121 162 205 253 308 371
#     4  11  24  42  62  89 131 170 202 252 319 373
#
# _framework density 20.279767
#
# number of rings (size 3 to 8) (size 9 to 14) (size 15 to 20)
#    0.000    1.000    6.667    1.500    2.333    1.333 
#    6.000    0.833    0.000    4.000    0.000    0.000 
#    0.000    0.000    0.000    0.000    0.000    0.000 
#
# Total GULP energy -267628.666468 kJ/mol
# GULP energy per Si atom -5575.597218 kJ/mol
# Density = 2.023361 g / cm^3
# Si number density = 20.279767 Si / 1000 Ang^3
#
#
#
# Elastic Constant Matrix: (Units=GPa)
#
#
# Indices 1 2 3 4 5 6 
#
# 1 56.8743 23.2716 0.0158 0.0000 0.0000 0.0000
# 2 23.2716 42.7848 13.7129 0.0000 0.0000 0.0000
# 3 0.0158 13.7129 64.5320 0.0000 0.0000 0.0000
# 4 0.0000 0.0000 0.0000 15.4447 0.0000 0.0000
# 5 0.0000 0.0000 0.0000 0.0000 26.9809 0.0000
# 6 0.0000 0.0000 0.0000 0.0000 0.0000 26.8280
#
#
#
# Elastic Compliance Matrix: (Units=1/GPa)
#
#
# Indices 1 2 3 4 5 6 
#
# 1 0.023097 -0.013479 0.002859 0.000000 0.000000 0.000000
# 2 -0.013479 0.032947 -0.006998 0.000000 0.000000 0.000000
# 3 0.002859 -0.006998 0.016983 0.000000 0.000000 0.000000
# 4 0.000000 0.000000 0.000000 0.064747 0.000000 0.000000
# 5 0.000000 0.000000 0.000000 0.000000 0.037063 0.000000
# 6 0.000000 0.000000 0.000000 0.000000 0.000000 0.037274
#
#
# Mechanical properties :
#
#
# Convention : Reuss Voigt Hill
#
# Bulk Modulus (GPa) = 26.46205 26.46574 26.46390
# Shear Modulus (GPa) = 19.23478 22.33012 20.78245
#
# Velocity S-wave (km/s) = 3.08307 3.32189 3.20470
# Velocity P-wave (km/s) = 5.07450 5.27180 5.17409
#
# Compressibility (1/GPa) = 0.03778997
#
# Stress axis : x y z
#
# Youngs Moduli (GPa) = 43.29516 30.35142 58.88397
#
# Poissons Ratio (x) = 0.40912 -0.16833
# Poissons Ratio (y) = 0.58359 0.41207
# Poissons Ratio (z) = -0.12377 0.21240
#
# Static dielectric constant tensor:
#      x y z
#    x 1.721650 0.000000 0.000000 
#    y 0.000000 1.762060 0.000000 
#    z 0.000000 0.000000 1.814680 
# 
# From -- ./inp_files/24733.got.cif
#   From: 2010.05.17/outbox.cif.g08.bks.cpg/sg52_13_cif.got.tgz:24733.got - 2010.06.03 12:15:38.
