data_PCOD9409705
_publ_section_title
;
Structure prediction by ZEFSAII (Michael W. Deem and Ramdas Pophale) SiO2 
 PCOD9409705
Probable space group: P N N A
;
_chemical_formula_sum "Si O2"
_cell_formula_units_Z 40
_cell_length_a 9.609230
_cell_length_b 21.566424
_cell_length_c 8.188079
_cell_angle_alpha 90.000000
_cell_angle_beta 90.000000
_cell_angle_gamma 90.000000
_cell_volume 1696.870705
_symmetry_space_group_name_H-M "P N N A"
_symmetry_group_IT_number 52
_symmetry_cell_setting 'orthorhombic'
loop_
_space_group_symop_operation_xyz
x,y,z
1/2-x,-y,z
x,1/2-y,1/2-z
1/2-x,1/2+y,1/2-z
-x,-y,-z
1/2+x,y,-z
-x,1/2+y,1/2+z
1/2+x,1/2-y,1/2+z
loop_
_atom_site_type_symbol
_atom_site_label
_atom_site_fract_x
_atom_site_fract_y
_atom_site_fract_z
Si Si1 0.320081 0.331558 0.608714
Si Si2 0.494236 0.864002 0.421666
Si Si3 0.707094 0.790663 0.588345
Si Si4 0.543005 0.407003 0.418450
Si Si5 0.591396 0.017978 0.743792
O O1 0.414336 0.341293 0.767285
O O2 0.299985 0.261153 0.553365
O O3 0.407728 0.367402 0.468527
O O4 0.171439 0.364026 0.631466
O O5 0.580892 0.838813 0.573795
O O6 0.347609 0.829629 0.418683
O O7 0.470921 0.936536 0.392615
O O8 0.703407 0.750000 0.750000
O O9 0.589983 0.442704 0.585413
O O10 0.502059 0.458668 0.286844
O O11 0.750000 0.000000 0.706459
#
# Coordination Sequence:
#
# PCOD9409705 Si02
#       5
#     8   8   8   8   8
#     4  11  22  43  73 111 138 179 248 292 354 425
#     4  11  27  46  72 107 139 183 244 298 353 432
#     4  12  25  46  70 100 144 188 231 301 368 426
#     4  10  20  35  72 110 141 191 229 293 354 421
#     4  10  20  41  69 106 151 186 240 290 349 430
#
# _framework density 23.572804999999999
#
# number of rings (size 3 to 8) (size 9 to 14) (size 15 to 20)
#    0.000    1.200    2.000    5.400    0.000    3.200 
#    0.000    1.000    0.000    0.000    0.000    0.000 
#    0.000    0.000    0.000    0.000    0.000    0.000 
#
# Total GULP energy -224240.821064 kJ/mol
# GULP energy per Si atom -5606.020527 kJ/mol
# Density = 2.351915 g / cm^3
# Si number density = 23.572805 Si / 1000 Ang^3
#
#
#
# Elastic Constant Matrix: (Units=GPa)
#
#
# Indices 1 2 3 4 5 6 
#
# 1 173.9140 101.3288 42.4451 0.0000 0.0000 0.0000
# 2 101.3288 162.6510 13.3054 0.0000 0.0000 0.0000
# 3 42.4451 13.3054 32.2605 0.0000 0.0000 0.0000
# 4 0.0000 0.0000 0.0000 25.5563 0.0000 0.0000
# 5 0.0000 0.0000 0.0000 0.0000 23.3594 0.0000
# 6 0.0000 0.0000 0.0000 0.0000 0.0000 42.3201
#
#
#
# Elastic Compliance Matrix: (Units=1/GPa)
#
#
# Indices 1 2 3 4 5 6 
#
# 1 0.013631 -0.007270 -0.014936 0.000000 0.000000 0.000000
# 2 -0.007270 0.010240 0.005342 0.000000 0.000000 0.000000
# 3 -0.014936 0.005342 0.048446 0.000000 0.000000 0.000000
# 4 0.000000 0.000000 0.000000 0.039129 0.000000 0.000000
# 5 0.000000 0.000000 0.000000 0.000000 0.042809 0.000000
# 6 0.000000 0.000000 0.000000 0.000000 0.000000 0.023629
#
#
# Mechanical properties :
#
#
# Convention : Reuss Voigt Hill
#
# Bulk Modulus (GPa) = 25.91438 75.88712 50.90075
# Shear Modulus (GPa) = 22.27407 32.36358 27.31883
#
# Velocity S-wave (km/s) = 3.07727 3.70931 3.40797
# Velocity P-wave (km/s) = 4.86244 7.11392 6.09308
#
# Compressibility (1/GPa) = 0.03858861
#
# Stress axis : x y z
#
# Youngs Moduli (GPa) = 73.36213 97.65347 20.64168
#
# Poissons Ratio (x) = 0.70995 0.30830
# Poissons Ratio (y) = 0.53335 -0.11026
# Poissons Ratio (z) = 1.09573 -0.52164
#
# Static dielectric constant tensor:
#      x y z
#    x 1.798190 0.000000 0.000000 
#    y 0.000000 1.859380 0.000000 
#    z 0.000000 0.000000 2.060950 
# 
# From -- ./inp_files/7438.got.cif
#   From: 2010.05.17/outbox.cif.g08.bks.cpg/sg52_4_cif.got.tgz:7438.got - 2010.06.03 12:15:38.
