data_PCOD9409130
_publ_section_title
;
Structure prediction by ZEFSAII (Michael W. Deem and Ramdas Pophale) SiO2 
 PCOD9409130
Probable space group: P N N A
;
_chemical_formula_sum "Si O2"
_cell_formula_units_Z 56
_cell_length_a 18.589207
_cell_length_b 9.013086
_cell_length_c 16.713107
_cell_angle_alpha 90.000000
_cell_angle_beta 90.000000
_cell_angle_gamma 90.000000
_cell_volume 2800.216254
_symmetry_space_group_name_H-M "P N N A"
_symmetry_group_IT_number 52
_symmetry_cell_setting 'orthorhombic'
loop_
_space_group_symop_operation_xyz
x,y,z
1/2-x,-y,z
x,1/2-y,1/2-z
1/2-x,1/2+y,1/2-z
-x,-y,-z
1/2+x,y,-z
-x,1/2+y,1/2+z
1/2+x,1/2-y,1/2+z
loop_
_atom_site_type_symbol
_atom_site_label
_atom_site_fract_x
_atom_site_fract_y
_atom_site_fract_z
Si Si1 0.059132 0.224898 0.365691
Si Si2 0.261344 0.821844 0.512326
Si Si3 0.551873 0.483766 0.182417
Si Si4 0.164022 0.732278 0.839119
Si Si5 0.458770 0.483620 0.644898
Si Si6 0.571361 0.241073 0.454993
Si Si7 0.727790 0.172287 0.666657
O O1 0.041862 0.196309 0.458847
O O2 0.141576 0.194770 0.343575
O O3 0.009245 0.110296 0.318949
O O4 0.033725 0.394457 0.355033
O O5 0.214315 0.757437 0.584310
O O6 0.343176 0.780557 0.533728
O O7 0.243357 0.772694 0.420736
O O8 0.250000 0.000000 0.512716
O O9 0.625245 0.572320 0.163023
O O10 0.551746 0.426268 0.272797
O O11 0.541476 0.364043 0.114229
O O12 0.197471 0.750000 0.750000
O O13 0.102080 0.855935 0.849529
O O14 0.447197 0.592034 0.570920
O O15 0.750104 0.250000 0.750000
O O16 0.750000 0.000000 0.672627
#
# Coordination Sequence:
#
# PCOD9409130 Si02
#       7
#     8   8   8   8   8   8   8
#     4  10  21  40  62  80 117 159 188 240 313 356
#     4  10  20  38  60  83 124 163 200 241 294 357
#     4  10  19  36  61  83 114 156 198 233 289 362
#     4   9  19  36  57  83 120 164 191 231 298 362
#     4  10  21  36  57  87 119 151 191 245 299 351
#     4  11  21  34  56  90 116 150 200 248 282 350
#     4  10  22  43  66  87 114 155 204 252 304 359
#
# _framework density 19.998456000000001
#
# number of rings (size 3 to 8) (size 9 to 14) (size 15 to 20)
#    0.000    2.000    1.429    3.429    0.000    1.714 
#    5.143    2.857    0.000    0.000    0.000    0.000 
#    0.000    0.000    0.000    0.000    0.000    0.000 
#
# Total GULP energy -312272.518633 kJ/mol
# GULP energy per Si atom -5576.294976 kJ/mol
# Density = 1.995294 g / cm^3
# Si number density = 19.998456 Si / 1000 Ang^3
#
#
#
# Elastic Constant Matrix: (Units=GPa)
#
#
# Indices 1 2 3 4 5 6 
#
# 1 45.5784 14.8791 27.1721 0.0000 0.0000 0.0000
# 2 14.8791 69.5967 29.1828 0.0000 0.0000 0.0000
# 3 27.1721 29.1828 132.8153 0.0000 0.0000 0.0000
# 4 0.0000 0.0000 0.0000 35.6527 0.0000 0.0000
# 5 0.0000 0.0000 0.0000 0.0000 18.9864 0.0000
# 6 0.0000 0.0000 0.0000 0.0000 0.0000 21.1494
#
#
#
# Elastic Compliance Matrix: (Units=1/GPa)
#
#
# Indices 1 2 3 4 5 6 
#
# 1 0.025798 -0.003637 -0.004479 0.000000 0.000000 0.000000
# 2 -0.003637 0.016340 -0.002846 0.000000 0.000000 0.000000
# 3 -0.004479 -0.002846 0.009071 0.000000 0.000000 0.000000
# 4 0.000000 0.000000 0.000000 0.028048 0.000000 0.000000
# 5 0.000000 0.000000 0.000000 0.000000 0.052669 0.000000
# 6 0.000000 0.000000 0.000000 0.000000 0.000000 0.047283
#
#
# Mechanical properties :
#
#
# Convention : Reuss Voigt Hill
#
# Bulk Modulus (GPa) = 34.14837 43.38427 38.76632
# Shear Modulus (GPa) = 23.70862 26.94145 25.32503
#
# Velocity S-wave (km/s) = 3.44688 3.67437 3.56244
# Velocity P-wave (km/s) = 5.74054 6.30415 6.02893
#
# Compressibility (1/GPa) = 0.02928397
#
# Stress axis : x y z
#
# Youngs Moduli (GPa) = 38.76332 61.20128 110.24321
#
# Poissons Ratio (x) = 0.22261 0.49373
# Poissons Ratio (y) = 0.14100 0.31376
# Poissons Ratio (z) = 0.17360 0.17418
#
# Static dielectric constant tensor:
#      x y z
#    x 1.694540 0.000000 0.000000 
#    y 0.000000 1.704680 0.000000 
#    z 0.000000 0.000000 1.740710 
# 
# From -- ./inp_files/28799.got.cif
#   From: 2010.05.17/outbox.cif.g08.bks.cpg/sg52_15_cif.got.tgz:28799.got - 2010.06.03 12:15:38.
