data_PCOD9409142
_publ_section_title
;
Structure prediction by ZEFSAII (Michael W. Deem and Ramdas Pophale) SiO2 
 PCOD9409142
Probable space group: P N N A
;
_chemical_formula_sum "Si O2"
_cell_formula_units_Z 60
_cell_length_a 31.272727
_cell_length_b 5.530518
_cell_length_c 15.954748
_cell_angle_alpha 90.000000
_cell_angle_beta 90.000000
_cell_angle_gamma 90.000000
_cell_volume 2759.443542
_symmetry_space_group_name_H-M "P N N A"
_symmetry_group_IT_number 52
_symmetry_cell_setting 'orthorhombic'
loop_
_space_group_symop_operation_xyz
x,y,z
1/2-x,-y,z
x,1/2-y,1/2-z
1/2-x,1/2+y,1/2-z
-x,-y,-z
1/2+x,y,-z
-x,1/2+y,1/2+z
1/2+x,1/2-y,1/2+z
loop_
_atom_site_type_symbol
_atom_site_label
_atom_site_fract_x
_atom_site_fract_y
_atom_site_fract_z
Si Si1 0.881046 0.873658 0.660450
Si Si2 0.460345 0.125639 0.400244
Si Si3 0.250000 0.000000 0.030260
Si Si4 0.405514 0.012925 0.027320
Si Si5 0.208913 0.346121 0.155598
Si Si6 0.172286 0.827307 0.932226
Si Si7 0.555540 0.361494 0.080798
Si Si8 0.147022 0.342603 0.844899
O O1 0.877768 0.750000 0.750000
O O2 0.882938 0.693420 0.581513
O O3 0.834888 0.996980 0.648933
O O4 0.925414 0.011726 0.659945
O O5 0.442723 0.392951 0.412265
O O6 0.509571 0.113788 0.376385
O O7 0.451394 0.008167 0.493087
O O8 0.215307 0.131387 0.089672
O O9 0.280855 0.165181 0.973426
O O10 0.432254 0.908049 0.949578
O O11 0.368578 0.193928 0.995926
O O12 0.250000 0.500000 0.138425
O O13 0.212113 0.250000 0.250000
O O14 0.170456 0.593272 0.871037
O O15 0.162713 0.101303 0.896077
O O16 0.597484 0.415860 0.134731
O O17 0.150918 0.250000 0.750000
#
# Coordination Sequence:
#
# PCOD9409142 Si02
#       8
#     8   8   4   8   8   8   8   8
#     4  10  23  39  53  88 134 176 222 276 339 397
#     4  10  19  37  62  88 126 175 220 273 331 395
#     4  12  26  40  70 102 132 176 232 296 336 424
#     4  10  19  36  62  87 126 172 218 279 327 405
#     4  11  24  40  61  93 135 181 231 281 340 409
#     4  11  25  43  72 105 130 176 228 284 351 417
#     4   9  20  36  62  94 123 166 228 272 329 406
#     4  11  24  48  71 100 139 177 222 288 356 426
#
# _framework density 21.743516
#
# number of rings (size 3 to 8) (size 9 to 14) (size 15 to 20)
#    0.000    1.600    3.333    0.800    3.733    0.533 
#    2.400    1.333    0.000    0.000    0.000    0.000 
#    0.000    0.000    0.000    0.000    0.000    0.000 
#
# Total GULP energy -334131.145301 kJ/mol
# GULP energy per Si atom -5568.852422 kJ/mol
# Density = 2.169403 g / cm^3
# Si number density = 21.743516 Si / 1000 Ang^3
#
#
#
# Elastic Constant Matrix: (Units=GPa)
#
#
# Indices 1 2 3 4 5 6 
#
# 1 160.9557 34.3797 41.6169 0.0000 0.0000 0.0000
# 2 34.3797 61.2786 22.6640 0.0000 0.0000 0.0000
# 3 41.6169 22.6640 67.9736 0.0000 0.0000 0.0000
# 4 0.0000 0.0000 0.0000 21.2681 0.0000 0.0000
# 5 0.0000 0.0000 0.0000 0.0000 39.6361 0.0000
# 6 0.0000 0.0000 0.0000 0.0000 0.0000 65.2790
#
#
#
# Elastic Compliance Matrix: (Units=1/GPa)
#
#
# Indices 1 2 3 4 5 6 
#
# 1 0.007834 -0.002990 -0.003799 0.000000 0.000000 0.000000
# 2 -0.002990 0.019756 -0.004756 0.000000 0.000000 0.000000
# 3 -0.003799 -0.004756 0.018624 0.000000 0.000000 0.000000
# 4 0.000000 0.000000 0.000000 0.047019 0.000000 0.000000
# 5 0.000000 0.000000 0.000000 0.000000 0.025230 0.000000
# 6 0.000000 0.000000 0.000000 0.000000 0.000000 0.015319
#
#
# Mechanical properties :
#
#
# Convention : Reuss Voigt Hill
#
# Bulk Modulus (GPa) = 43.24943 54.16990 48.70966
# Shear Modulus (GPa) = 30.38058 38.00647 34.19352
#
# Velocity S-wave (km/s) = 3.74200 4.18538 3.96989
# Velocity P-wave (km/s) = 6.21321 6.95153 6.59271
#
# Compressibility (1/GPa) = 0.02312169
#
# Stress axis : x y z
#
# Youngs Moduli (GPa) = 127.65030 50.61878 53.69509
#
# Poissons Ratio (x) = 0.15135 0.20401
# Poissons Ratio (y) = 0.38166 0.25539
# Poissons Ratio (z) = 0.48500 0.24076
#
# Static dielectric constant tensor:
#      x y z
#    x 1.808610 0.000000 0.000000 
#    y 0.000000 1.983700 0.000000 
#    z 0.000000 0.000000 1.852630 
# 
# From -- ./inp_files/34489.got.cif
#   From: 2010.05.17/outbox.cif.g08.bks.cpg/sg52_18_cif.got.tgz:34489.got - 2010.06.03 12:15:38.
