data_PCOD9409831
_publ_section_title
;
Structure prediction by ZEFSAII (Michael W. Deem and Ramdas Pophale) SiO2 
 PCOD9409831
Probable space group: P N N A
;
_chemical_formula_sum "Si O2"
_cell_formula_units_Z 64
_cell_length_a 23.333014
_cell_length_b 7.954224
_cell_length_c 16.038646
_cell_angle_alpha 90.000000
_cell_angle_beta 90.000000
_cell_angle_gamma 90.000000
_cell_volume 2976.708863
_symmetry_space_group_name_H-M "P N N A"
_symmetry_group_IT_number 52
_symmetry_cell_setting 'orthorhombic'
loop_
_space_group_symop_operation_xyz
x,y,z
1/2-x,-y,z
x,1/2-y,1/2-z
1/2-x,1/2+y,1/2-z
-x,-y,-z
1/2+x,y,-z
-x,1/2+y,1/2+z
1/2+x,1/2-y,1/2+z
loop_
_atom_site_type_symbol
_atom_site_label
_atom_site_fract_x
_atom_site_fract_y
_atom_site_fract_z
Si Si1 0.762549 0.300383 0.337230
Si Si2 0.645185 0.156304 0.115929
Si Si3 0.554207 0.883692 0.176886
Si Si4 0.058293 0.707169 0.000846
Si Si5 0.677999 0.641257 0.503230
Si Si6 0.694052 0.599271 0.686316
Si Si7 0.577366 0.382826 0.675019
Si Si8 0.563547 0.312571 0.997265
O O1 0.750000 0.500000 0.332471
O O2 0.790561 0.250000 0.250000
O O3 0.696885 0.242081 0.342134
O O4 0.795622 0.260901 0.423033
O O5 0.606560 0.291493 0.071828
O O6 0.604032 0.025899 0.166592
O O7 0.670617 0.042453 0.039034
O O8 0.563938 0.750000 0.250000
O O9 0.488439 0.953671 0.182376
O O10 0.556431 0.764589 0.095288
O O11 0.996212 0.763991 0.031190
O O12 0.115672 0.793380 0.030074
O O13 0.059645 0.510057 0.020165
O O14 0.710483 0.648924 0.590506
O O15 0.750000 0.500000 0.717956
O O16 0.684562 0.750000 0.750000
O O17 0.634104 0.496914 0.681972
O O18 0.581013 0.250000 0.750000
O O19 0.579422 0.287417 0.586047
#
# Coordination Sequence:
#
# PCOD9409831 Si02
#       8
#     8   8   8   8   8   8   8   8
#     4  10  23  41  61  91 123 166 209 263 318 381
#     4  10  20  36  64  88 124 171 207 253 323 383
#     4   9  20  38  60  92 131 169 207 256 325 385
#     4   9  21  36  60  93 124 168 208 258 318 383
#     4  10  22  41  65  90 124 170 216 262 325 383
#     4  12  26  45  66  90 123 168 223 273 330 398
#     4  10  22  40  64  91 127 164 205 273 329 379
#     4  10  20  37  61  92 133 158 211 261 316 390
#
# _framework density 21.500254999999999
#
# number of rings (size 3 to 8) (size 9 to 14) (size 15 to 20)
#    0.000    2.000    1.250    1.500    3.500    8.000 
#    0.000    1.250    0.000    0.000    0.000    0.000 
#    0.000    0.000    0.000    0.000    0.000    0.000 
#
# Total GULP energy -356497.094496 kJ/mol
# GULP energy per Si atom -5570.267101 kJ/mol
# Density = 2.145132 g / cm^3
# Si number density = 21.500255 Si / 1000 Ang^3
#
#
#
# Elastic Constant Matrix: (Units=GPa)
#
#
# Indices 1 2 3 4 5 6 
#
# 1 105.3631 20.3124 40.2082 0.0000 0.0000 0.0000
# 2 20.3124 36.0387 21.1878 0.0000 0.0000 0.0000
# 3 40.2082 21.1878 71.0434 0.0000 0.0000 0.0000
# 4 0.0000 0.0000 0.0000 18.2630 0.0000 0.0000
# 5 0.0000 0.0000 0.0000 0.0000 25.2758 0.0000
# 6 0.0000 0.0000 0.0000 0.0000 0.0000 244.7919
#
#
#
# Elastic Compliance Matrix: (Units=1/GPa)
#
#
# Indices 1 2 3 4 5 6 
#
# 1 0.012457 -0.003488 -0.006010 0.000000 0.000000 0.000000
# 2 -0.003488 0.034624 -0.008352 0.000000 0.000000 0.000000
# 3 -0.006010 -0.008352 0.019968 0.000000 0.000000 0.000000
# 4 0.000000 0.000000 0.000000 0.054755 0.000000 0.000000
# 5 0.000000 0.000000 0.000000 0.000000 0.039564 0.000000
# 6 0.000000 0.000000 0.000000 0.000000 0.000000 0.004085
#
#
# Mechanical properties :
#
#
# Convention : Reuss Voigt Hill
#
# Bulk Modulus (GPa) = 31.89857 41.76247 36.83052
# Shear Modulus (GPa) = 23.62911 66.38191 45.00551
#
# Velocity S-wave (km/s) = 3.31874 5.56255 4.58017
# Velocity P-wave (km/s) = 5.43635 7.79245 6.71849
#
# Compressibility (1/GPa) = 0.03134937
#
# Stress axis : x y z
#
# Youngs Moduli (GPa) = 80.27696 28.88158 50.07919
#
# Poissons Ratio (x) = 0.10073 0.30098
# Poissons Ratio (y) = 0.27998 0.41828
# Poissons Ratio (z) = 0.48247 0.24123
#
# Static dielectric constant tensor:
#      x y z
#    x 1.940650 0.000000 0.000000 
#    y 0.000000 1.784820 0.000000 
#    z 0.000000 0.000000 1.816850 
# 
# From -- ./inp_files/29241.got.cif
#   From: 2010.05.17/outbox.cif.g08.bks.cpg/sg52_15_cif.got.tgz:29241.got - 2010.06.03 12:15:38.
