data_PCOD9409563
_publ_section_title
;
Structure prediction by ZEFSAII (Michael W. Deem and Ramdas Pophale) SiO2 
 PCOD9409563
Probable space group: P N N A
;
_chemical_formula_sum "Si O2"
_cell_formula_units_Z 56
_cell_length_a 9.761132
_cell_length_b 21.078361
_cell_length_c 15.242249
_cell_angle_alpha 90.000000
_cell_angle_beta 90.000000
_cell_angle_gamma 90.000000
_cell_volume 3136.072369
_symmetry_space_group_name_H-M "P N N A"
_symmetry_group_IT_number 52
_symmetry_cell_setting 'orthorhombic'
loop_
_space_group_symop_operation_xyz
x,y,z
1/2-x,-y,z
x,1/2-y,1/2-z
1/2-x,1/2+y,1/2-z
-x,-y,-z
1/2+x,y,-z
-x,1/2+y,1/2+z
1/2+x,1/2-y,1/2+z
loop_
_atom_site_type_symbol
_atom_site_label
_atom_site_fract_x
_atom_site_fract_y
_atom_site_fract_z
Si Si1 0.737531 0.253817 0.988893
Si Si2 0.637060 0.306918 0.687945
Si Si3 0.451098 0.651902 0.706973
Si Si4 0.805096 0.069246 0.831033
Si Si5 0.370157 0.041793 0.973221
Si Si6 0.351727 0.160822 0.861972
Si Si7 0.995352 0.281608 0.891067
O O1 0.666468 0.212358 0.912740
O O2 0.852748 0.294187 0.939201
O O3 0.813105 0.210296 0.061192
O O4 0.619646 0.289963 0.041384
O O5 0.688376 0.250000 0.750000
O O6 0.713403 0.373072 0.704698
O O7 0.474105 0.314196 0.697877
O O8 0.539323 0.588588 0.692783
O O9 0.290035 0.646297 0.687603
O O10 0.478443 0.678654 0.803715
O O11 0.504047 0.707075 0.639681
O O12 0.804377 0.068968 0.937171
O O13 0.750000 0.000000 0.803875
O O14 0.250000 0.000000 0.931292
O O15 0.408693 0.098310 0.909512
O O16 0.500000 0.000000 0.000000
#
# Coordination Sequence:
#
# PCOD9409563 Si02
#       7
#     8   8   8   8   8   8   8
#     4  11  20  34  53  79 112 152 190 236 290 351
#     4  12  24  37  55  86 120 154 196 251 293 346
#     4  10  21  35  55  81 114 154 194 243 291 341
#     4  11  22  38  58  82 117 160 202 232 286 356
#     4  11  21  33  54  80 115 160 197 221 268 349
#     4  11  22  34  53  80 117 154 193 238 284 345
#     4  10  20  34  56  79 115 148 194 238 295 340
#
# _framework density 17.856729999999999
#
# number of rings (size 3 to 8) (size 9 to 14) (size 15 to 20)
#    0.000    1.143    4.286    3.429    6.000    0.000 
#    0.000    0.000    0.000    0.000    0.000    4.000 
#    0.000    0.000    0.000    0.000    0.000    0.000 
#
# Total GULP energy -312752.568904 kJ/mol
# GULP energy per Si atom -5584.867302 kJ/mol
# Density = 1.781609 g / cm^3
# Si number density = 17.856730 Si / 1000 Ang^3
#
#
#
# Elastic Constant Matrix: (Units=GPa)
#
#
# Indices 1 2 3 4 5 6 
#
# 1 109.2577 25.1845 33.1481 0.0000 0.0000 0.0000
# 2 25.1845 81.1523 25.9596 0.0000 0.0000 0.0000
# 3 33.1481 25.9596 58.8995 0.0000 0.0000 0.0000
# 4 0.0000 0.0000 0.0000 20.9043 0.0000 0.0000
# 5 0.0000 0.0000 0.0000 0.0000 23.6345 0.0000
# 6 0.0000 0.0000 0.0000 0.0000 0.0000 27.3412
#
#
#
# Elastic Compliance Matrix: (Units=1/GPa)
#
#
# Indices 1 2 3 4 5 6 
#
# 1 0.011236 -0.001704 -0.005572 0.000000 0.000000 0.000000
# 2 -0.001704 0.014604 -0.005477 0.000000 0.000000 0.000000
# 3 -0.005572 -0.005477 0.022528 0.000000 0.000000 0.000000
# 4 0.000000 0.000000 0.000000 0.047837 0.000000 0.000000
# 5 0.000000 0.000000 0.000000 0.000000 0.042311 0.000000
# 6 0.000000 0.000000 0.000000 0.000000 0.000000 0.036575
#
#
# Mechanical properties :
#
#
# Convention : Reuss Voigt Hill
#
# Bulk Modulus (GPa) = 43.74475 46.43266 45.08871
# Shear Modulus (GPa) = 24.01319 25.37715 24.69517
#
# Velocity S-wave (km/s) = 3.67109 3.77391 3.72285
# Velocity P-wave (km/s) = 6.52074 6.71187 6.61699
#
# Compressibility (1/GPa) = 0.02285989
#
# Stress axis : x y z
#
# Youngs Moduli (GPa) = 88.99813 68.47662 44.38880
#
# Poissons Ratio (x) = 0.11672 0.24735
# Poissons Ratio (y) = 0.15169 0.24312
# Poissons Ratio (z) = 0.49593 0.37506
#
# Static dielectric constant tensor:
#      x y z
#    x 1.666090 0.000000 0.000000 
#    y 0.000000 1.620880 0.000000 
#    z 0.000000 0.000000 1.588450 
# 
# From -- ./inp_files/24943.got.cif
#   From: 2010.05.17/outbox.cif.g08.bks.cpg/sg52_13_cif.got.tgz:24943.got - 2010.06.03 12:15:38.
