data_PCOD9409221
_publ_section_title
;
Structure prediction by ZEFSAII (Michael W. Deem and Ramdas Pophale) SiO2 
 PCOD9409221
Probable space group: P N N A
;
_chemical_formula_sum "Si O2"
_cell_formula_units_Z 44
_cell_length_a 11.093439
_cell_length_b 29.475734
_cell_length_c 5.261182
_cell_angle_alpha 90.000000
_cell_angle_beta 90.000000
_cell_angle_gamma 90.000000
_cell_volume 1720.339471
_symmetry_space_group_name_H-M "P N N A"
_symmetry_group_IT_number 52
_symmetry_cell_setting 'orthorhombic'
loop_
_space_group_symop_operation_xyz
x,y,z
1/2-x,-y,z
x,1/2-y,1/2-z
1/2-x,1/2+y,1/2-z
-x,-y,-z
1/2+x,y,-z
-x,1/2+y,1/2+z
1/2+x,1/2-y,1/2+z
loop_
_atom_site_type_symbol
_atom_site_label
_atom_site_fract_x
_atom_site_fract_y
_atom_site_fract_z
Si Si1 0.916959 0.038513 0.122171
Si Si2 0.347099 0.070198 0.370162
Si Si3 0.210137 0.157057 0.563333
Si Si4 0.466320 0.619757 0.578364
Si Si5 0.453924 0.794698 0.150269
Si Si6 0.736357 0.250000 0.250000
O O1 0.859870 0.035016 0.399579
O O2 0.817589 0.048996 0.904653
O O3 0.001720 0.083594 0.136247
O O4 0.000000 0.000000 0.000000
O O5 0.270534 0.114201 0.433570
O O6 0.477745 0.092102 0.311156
O O7 0.163280 0.135771 0.829550
O O8 0.104195 0.175969 0.378759
O O9 0.283683 0.203044 0.620677
O O10 0.526667 0.668206 0.512668
O O11 0.520142 0.750000 0.250000
O O12 0.350855 0.772020 0.970160
#
# Coordination Sequence:
#
# PCOD9409221 Si02
#       6
#     8   8   8   8   8   4
#     4  10  22  43  65  87 126 163 204 264 321 370
#     4  10  23  38  68  88 125 164 205 258 319 370
#     4  10  19  37  63  89 124 166 208 256 308 372
#     4   9  21  34  66  87 127 164 208 252 314 375
#     4   9  17  34  60  86 124 168 208 253 308 363
#     4   8  18  30  60  82 122 164 200 252 310 354
#
# _framework density 25.576345
#
# number of rings (size 3 to 8) (size 9 to 14) (size 15 to 20)
#    1.091    1.455    0.000    1.636    5.091    0.000 
#    0.000    0.909   86.000    0.000    0.000    0.000 
#    0.000    0.000    0.000    0.000    0.000    0.000 
#
# Total GULP energy -244965.058396 kJ/mol
# GULP energy per Si atom -5567.387691 kJ/mol
# Density = 2.551813 g / cm^3
# Si number density = 25.576345 Si / 1000 Ang^3
#
#
#
# Elastic Constant Matrix: (Units=GPa)
#
#
# Indices 1 2 3 4 5 6 
#
# 1 16.1440 9.0586 0.0557 0.0000 0.0000 0.0000
# 2 9.0586 112.0229 13.0198 0.0000 0.0000 0.0000
# 3 0.0557 13.0198 128.3879 0.0000 0.0000 0.0000
# 4 0.0000 0.0000 0.0000 31.7903 0.0000 0.0000
# 5 0.0000 0.0000 0.0000 0.0000 10.8132 0.0000
# 6 0.0000 0.0000 0.0000 0.0000 0.0000 45.2400
#
#
#
# Elastic Compliance Matrix: (Units=1/GPa)
#
#
# Indices 1 2 3 4 5 6 
#
# 1 0.064920 -0.005309 0.000510 0.000000 0.000000 0.000000
# 2 -0.005309 0.009467 -0.000958 0.000000 0.000000 0.000000
# 3 0.000510 -0.000958 0.007886 0.000000 0.000000 0.000000
# 4 0.000000 0.000000 0.000000 0.031456 0.000000 0.000000
# 5 0.000000 0.000000 0.000000 0.000000 0.092480 0.000000
# 6 0.000000 0.000000 0.000000 0.000000 0.000000 0.022104
#
#
# Mechanical properties :
#
#
# Convention : Reuss Voigt Hill
#
# Bulk Modulus (GPa) = 14.13230 33.42476 23.77853
# Shear Modulus (GPa) = 18.98162 33.19675 26.08918
#
# Velocity S-wave (km/s) = 2.72721 3.60661 3.19729
# Velocity P-wave (km/s) = 3.93121 5.51729 4.79035
#
# Compressibility (1/GPa) = 0.07075988
#
# Stress axis : x y z
#
# Youngs Moduli (GPa) = 15.40364 105.62600 126.81017
#
# Poissons Ratio (x) = 0.56076 -0.06470
# Poissons Ratio (y) = 0.08178 0.12146
# Poissons Ratio (z) = -0.00786 0.10117
#
# Static dielectric constant tensor:
#      x y z
#    x 2.184110 0.000000 0.000000 
#    y 0.000000 2.060390 0.000000 
#    z 0.000000 0.000000 2.156110 
# 
# From -- ./inp_files/2373.got.cif
#   From: 2010.05.17/outbox.cif.g08.bks.cpg/sg52_2_cif.got.tgz:2373.got - 2010.06.03 12:15:38.
