data_PCOD9409319
_publ_section_title
;
Structure prediction by ZEFSAII (Michael W. Deem and Ramdas Pophale) SiO2 
 PCOD9409319
Probable space group: P N N A
;
_chemical_formula_sum "Si O2"
_cell_formula_units_Z 48
_cell_length_a 29.537165
_cell_length_b 12.018540
_cell_length_c 5.628178
_cell_angle_alpha 90.000000
_cell_angle_beta 90.000000
_cell_angle_gamma 90.000000
_cell_volume 1997.967164
_symmetry_space_group_name_H-M "P N N A"
_symmetry_group_IT_number 52
_symmetry_cell_setting 'orthorhombic'
loop_
_space_group_symop_operation_xyz
x,y,z
1/2-x,-y,z
x,1/2-y,1/2-z
1/2-x,1/2+y,1/2-z
-x,-y,-z
1/2+x,y,-z
-x,1/2+y,1/2+z
1/2+x,1/2-y,1/2+z
loop_
_atom_site_type_symbol
_atom_site_label
_atom_site_fract_x
_atom_site_fract_y
_atom_site_fract_z
Si Si1 0.169907 0.368778 0.504144
Si Si2 0.205989 0.112010 0.495307
Si Si3 0.304425 0.184524 0.504311
Si Si4 0.902938 0.357760 0.911658
Si Si5 0.071404 0.438246 0.423041
Si Si6 0.517929 0.585336 0.197799
O O1 0.190153 0.243827 0.498459
O O2 0.187322 0.425652 0.746958
O O3 0.115151 0.368741 0.500627
O O4 0.186230 0.427016 0.259302
O O5 0.260125 0.109342 0.487912
O O6 0.304046 0.250000 0.250000
O O7 0.354372 0.133781 0.535044
O O8 0.296746 0.250000 0.750000
O O9 0.899397 0.250000 0.750000
O O10 0.911608 0.471478 0.769518
O O11 0.947104 0.335184 0.068755
O O12 0.049657 0.513389 0.628669
O O13 0.027503 0.373007 0.325619
O O14 0.500000 0.500000 0.000000
#
# Coordination Sequence:
#
# PCOD9409319 Si02
#       6
#     8   8   8   8   8   8
#     4  10  20  36  66  91 127 167 221 257 333 382
#     4  10  19  39  63  95 129 175 216 270 319 398
#     4  11  20  38  65  93 129 178 215 268 325 375
#     4  10  24  39  67  93 127 172 224 266 326 395
#     4  10  22  42  67  91 130 175 206 283 332 389
#     4   9  21  43  64  88 123 166 212 269 342 383
#
# _framework density 24.024419999999999
#
# number of rings (size 3 to 8) (size 9 to 14) (size 15 to 20)
#    0.000    2.000    3.333    0.000    9.333    0.000 
#    0.000   10.833    0.000    0.000    0.000    0.000 
#    0.000    0.000    0.000    0.000    0.000    0.000 
#
# Total GULP energy -268113.610688 kJ/mol
# GULP energy per Si atom -5585.700223 kJ/mol
# Density = 2.396974 g / cm^3
# Si number density = 24.024420 Si / 1000 Ang^3
#
#
#
# Elastic Constant Matrix: (Units=GPa)
#
#
# Indices 1 2 3 4 5 6 
#
# 1 233.1153 18.5538 57.2500 0.0000 0.0000 0.0000
# 2 18.5538 53.7270 5.3433 0.0000 0.0000 0.0000
# 3 57.2500 5.3433 160.0621 0.0000 0.0000 0.0000
# 4 0.0000 0.0000 0.0000 24.7535 0.0000 0.0000
# 5 0.0000 0.0000 0.0000 0.0000 80.5000 0.0000
# 6 0.0000 0.0000 0.0000 0.0000 0.0000 30.4503
#
#
#
# Elastic Compliance Matrix: (Units=1/GPa)
#
#
# Indices 1 2 3 4 5 6 
#
# 1 0.004820 -0.001498 -0.001674 0.000000 0.000000 0.000000
# 2 -0.001498 0.019140 -0.000103 0.000000 0.000000 0.000000
# 3 -0.001674 -0.000103 0.006850 0.000000 0.000000 0.000000
# 4 0.000000 0.000000 0.000000 0.040398 0.000000 0.000000
# 5 0.000000 0.000000 0.000000 0.000000 0.012422 0.000000
# 6 0.000000 0.000000 0.000000 0.000000 0.000000 0.032840
#
#
# Mechanical properties :
#
#
# Convention : Reuss Voigt Hill
#
# Bulk Modulus (GPa) = 41.22068 67.68870 54.45469
# Shear Modulus (GPa) = 38.13648 51.52459 44.83053
#
# Velocity S-wave (km/s) = 3.98855 4.63609 4.32446
# Velocity P-wave (km/s) = 6.19729 7.54280 6.90291
#
# Compressibility (1/GPa) = 0.02425967
#
# Stress axis : x y z
#
# Youngs Moduli (GPa) = 207.46606 52.24603 145.99042
#
# Poissons Ratio (x) = 0.07827 0.24439
# Poissons Ratio (y) = 0.31080 0.01506
# Poissons Ratio (z) = 0.34730 0.00539
#
# Static dielectric constant tensor:
#      x y z
#    x 1.948780 0.000000 0.000000 
#    y 0.000000 2.005770 0.000000 
#    z 0.000000 0.000000 1.854250 
# 
# From -- ./inp_files/5885.got.cif
#   From: 2010.05.17/outbox.cif.g08.bks.cpg/sg52_3_cif.got.tgz:5885.got - 2010.06.03 12:15:38.
