data_PCOD9409902
_publ_section_title
;
Structure prediction by ZEFSAII (Michael W. Deem and Ramdas Pophale) SiO2 
 PCOD9409902
Probable space group: P N N A
;
_chemical_formula_sum "Si O2"
_cell_formula_units_Z 40
_cell_length_a 12.274547
_cell_length_b 6.140203
_cell_length_c 23.014801
_cell_angle_alpha 90.000000
_cell_angle_beta 90.000000
_cell_angle_gamma 90.000000
_cell_volume 1734.584362
_symmetry_space_group_name_H-M "P N N A"
_symmetry_group_IT_number 52
_symmetry_cell_setting 'orthorhombic'
loop_
_space_group_symop_operation_xyz
x,y,z
1/2-x,-y,z
x,1/2-y,1/2-z
1/2-x,1/2+y,1/2-z
-x,-y,-z
1/2+x,y,-z
-x,1/2+y,1/2+z
1/2+x,1/2-y,1/2+z
loop_
_atom_site_type_symbol
_atom_site_label
_atom_site_fract_x
_atom_site_fract_y
_atom_site_fract_z
Si Si1 0.518976 0.616716 0.876652
Si Si2 0.868388 0.018234 0.817466
Si Si3 0.919968 0.488705 0.237770
Si Si4 0.079208 0.227599 0.063768
Si Si5 0.630531 0.043823 0.057153
O O1 0.450319 0.480344 0.830115
O O2 0.576083 0.483367 0.927232
O O3 0.435847 0.787529 0.903782
O O4 0.610774 0.738695 0.840087
O O5 0.876443 0.873576 0.876119
O O6 0.750000 0.000000 0.790110
O O7 0.969887 0.972471 0.775982
O O8 0.884522 0.750000 0.250000
O O9 0.862274 0.250000 0.250000
O O10 0.140489 0.140467 0.007654
O O11 0.952582 0.157836 0.055231
O O12 0.750000 0.000000 0.080898
#
# Coordination Sequence:
#
# PCOD9409902 Si02
#       5
#     8   8   8   8   8
#     4  10  21  38  59  91 126 178 216 274 335 398
#     4  10  21  36  58  93 132 172 213 266 334 408
#     4  10  20  37  60  92 128 175 217 266 334 401
#     4  10  20  39  61  90 130 167 214 276 332 397
#     4  10  22  39  63  92 126 172 224 275 336 400
#
# _framework density 23.060282000000001
#
# number of rings (size 3 to 8) (size 9 to 14) (size 15 to 20)
#    0.000    2.000    2.000    1.200    0.000    4.000 
#    0.000    2.000    0.000    0.000  104.000    0.000 
#    0.000    0.000    0.000    0.000    0.000    0.000 
#
# Total GULP energy -223122.979303 kJ/mol
# GULP energy per Si atom -5578.074483 kJ/mol
# Density = 2.300780 g / cm^3
# Si number density = 23.060282 Si / 1000 Ang^3
#
#
#
# Elastic Constant Matrix: (Units=GPa)
#
#
# Indices 1 2 3 4 5 6 
#
# 1 84.9520 17.4124 -0.1319 0.0000 0.0000 0.0000
# 2 17.4124 112.7591 4.9745 0.0000 0.0000 0.0000
# 3 -0.1319 4.9745 74.4125 0.0000 0.0000 0.0000
# 4 0.0000 0.0000 0.0000 41.9398 0.0000 0.0000
# 5 0.0000 0.0000 0.0000 0.0000 -21.5672 0.0000
# 6 0.0000 0.0000 0.0000 0.0000 0.0000 -14.2220
#
#
#
# Elastic Compliance Matrix: (Units=1/GPa)
#
#
# Indices 1 2 3 4 5 6 
#
# 1 0.012158 -0.001884 0.000147 0.000000 0.000000 0.000000
# 2 -0.001884 0.009187 -0.000617 0.000000 0.000000 0.000000
# 3 0.000147 -0.000617 0.013480 0.000000 0.000000 0.000000
# 4 0.000000 0.000000 0.000000 0.023844 0.000000 0.000000
# 5 0.000000 0.000000 0.000000 0.000000 -0.046367 0.000000
# 6 0.000000 0.000000 0.000000 0.000000 0.000000 -0.070314
#
#
# Mechanical properties :
#
#
# Convention : Reuss Voigt Hill
#
# Bulk Modulus (GPa) = 33.20416 35.18150 34.19283
# Shear Modulus (GPa) = -115.56483 17.88805 -48.83839
#
# Velocity S-wave (km/s) = -7.08682 2.78818 -4.60701
# Velocity P-wave (km/s) = 7.24803 5.06504 3.66601
#
# Compressibility (1/GPa) = 0.03011671
#
# Stress axis : x y z
#
# Youngs Moduli (GPa) = 82.25226 108.85393 74.18317
#
# Poissons Ratio (x) = 0.20507 -0.01094
# Poissons Ratio (y) = 0.15496 0.04581
# Poissons Ratio (z) = -0.01213 0.06721
#
# Static dielectric constant tensor:
#      x y z
#    x 1.812030 0.000000 0.000000 
#    y 0.000000 1.994740 0.000000 
#    z 0.000000 0.000000 1.906400 
# 
# From -- ./inp_files/42527.got.cif
#   From: 2010.05.17/outbox.cif.g08.bks.cpg/sg52_22_cif.got.tgz:42527.got - 2010.06.03 12:15:38.
