data_PCOD9409511
_publ_section_title
;
Structure prediction by ZEFSAII (Michael W. Deem and Ramdas Pophale) SiO2 
 PCOD9409511
Probable space group: P N N A
;
_chemical_formula_sum "Si O2"
_cell_formula_units_Z 44
_cell_length_a 14.597090
_cell_length_b 13.946628
_cell_length_c 11.435273
_cell_angle_alpha 90.000000
_cell_angle_beta 90.000000
_cell_angle_gamma 90.000000
_cell_volume 2327.994983
_symmetry_space_group_name_H-M "P N N A"
_symmetry_group_IT_number 52
_symmetry_cell_setting 'orthorhombic'
loop_
_space_group_symop_operation_xyz
x,y,z
1/2-x,-y,z
x,1/2-y,1/2-z
1/2-x,1/2+y,1/2-z
-x,-y,-z
1/2+x,y,-z
-x,1/2+y,1/2+z
1/2+x,1/2-y,1/2+z
loop_
_atom_site_type_symbol
_atom_site_label
_atom_site_fract_x
_atom_site_fract_y
_atom_site_fract_z
Si Si1 0.068439 0.097429 0.249159
Si Si2 0.338432 0.782688 0.619982
Si Si3 0.063812 0.487075 0.884217
Si Si4 0.163532 0.646540 0.997663
Si Si5 0.250000 0.500000 0.186850
Si Si6 0.520819 0.255326 0.554213
O O1 0.060964 0.169109 0.362406
O O2 0.024270 0.155724 0.142636
O O3 0.172425 0.059123 0.242859
O O4 0.003593 0.007938 0.278326
O O5 0.318037 0.750000 0.750000
O O6 0.386423 0.886814 0.620789
O O7 0.248455 0.790510 0.541918
O O8 0.412202 0.719730 0.551709
O O9 0.138701 0.570498 0.895826
O O10 0.000000 0.500000 0.000000
O O11 0.073659 0.714262 0.000221
O O12 0.195394 0.577822 0.105028
#
# Coordination Sequence:
#
# PCOD9409511 Si02
#       6
#     8   8   8   8   4   8
#     4  10  20  33  65  84 118 151 203 248 299 345
#     4  12  23  36  58  91 121 151 201 250 292 361
#     4  11  17  37  59  85 112 153 200 240 286 358
#     4  11  19  35  61  84 118 154 199 243 295 352
#     4  12  16  34  64  96 108 152 220 252 272 358
#     4  10  21  39  54  90 124 154 189 250 308 352
#
# _framework density 18.900383999999999
#
# number of rings (size 3 to 8) (size 9 to 14) (size 15 to 20)
#    0.000    1.091    9.091    0.000    5.091    0.000 
#    0.000    4.545    4.000    0.000    0.000    0.000 
#    0.000    0.000    0.000    0.000    0.000    0.000 
#
# Total GULP energy -245135.127783 kJ/mol
# GULP energy per Si atom -5571.252904 kJ/mol
# Density = 1.885737 g / cm^3
# Si number density = 18.900384 Si / 1000 Ang^3
#
#
#
# Elastic Constant Matrix: (Units=GPa)
#
#
# Indices 1 2 3 4 5 6 
#
# 1 99.2965 27.6522 5.2161 0.0000 0.0000 0.0000
# 2 27.6522 35.8098 11.9598 0.0000 0.0000 0.0000
# 3 5.2161 11.9598 32.6945 0.0000 0.0000 0.0000
# 4 0.0000 0.0000 0.0000 17.6627 0.0000 0.0000
# 5 0.0000 0.0000 0.0000 0.0000 9.0849 0.0000
# 6 0.0000 0.0000 0.0000 0.0000 0.0000 12.6689
#
#
#
# Elastic Compliance Matrix: (Units=1/GPa)
#
#
# Indices 1 2 3 4 5 6 
#
# 1 0.012923 -0.010584 0.001810 0.000000 0.000000 0.000000
# 2 -0.010584 0.040479 -0.013119 0.000000 0.000000 0.000000
# 3 0.001810 -0.013119 0.035096 0.000000 0.000000 0.000000
# 4 0.000000 0.000000 0.000000 0.056617 0.000000 0.000000
# 5 0.000000 0.000000 0.000000 0.000000 0.110072 0.000000
# 6 0.000000 0.000000 0.000000 0.000000 0.000000 0.078934
#
#
# Mechanical properties :
#
#
# Convention : Reuss Voigt Hill
#
# Bulk Modulus (GPa) = 22.36473 28.60634 25.48553
# Shear Modulus (GPa) = 12.72874 16.08148 14.40511
#
# Velocity S-wave (km/s) = 2.59794 2.92011 2.76372
# Velocity P-wave (km/s) = 4.56702 5.15146 4.86802
#
# Compressibility (1/GPa) = 0.04471326
#
# Stress axis : x y z
#
# Youngs Moduli (GPa) = 77.38080 24.70394 28.49290
#
# Poissons Ratio (x) = 0.26146 -0.05156
# Poissons Ratio (y) = 0.81897 0.37380
# Poissons Ratio (z) = -0.14004 0.32409
#
# Static dielectric constant tensor:
#      x y z
#    x 1.720100 0.000000 0.000000 
#    y 0.000000 1.692840 0.000000 
#    z 0.000000 0.000000 1.675780 
# 
# From -- ./inp_files/19428.got.cif
#   From: 2010.05.17/outbox.cif.g08.bks.cpg/sg52_10_cif.got.tgz:19428.got - 2010.06.03 12:15:38.
