data_PCOD9409642
_publ_section_title
;
Structure prediction by ZEFSAII (Michael W. Deem and Ramdas Pophale) SiO2 
 PCOD9409642
Probable space group: P N N A
;
_chemical_formula_sum "Si O2"
_cell_formula_units_Z 64
_cell_length_a 9.084000
_cell_length_b 26.774724
_cell_length_c 14.590703
_cell_angle_alpha 90.000000
_cell_angle_beta 90.000000
_cell_angle_gamma 90.000000
_cell_volume 3548.774024
_symmetry_space_group_name_H-M "P N N A"
_symmetry_group_IT_number 52
_symmetry_cell_setting 'orthorhombic'
loop_
_space_group_symop_operation_xyz
x,y,z
1/2-x,-y,z
x,1/2-y,1/2-z
1/2-x,1/2+y,1/2-z
-x,-y,-z
1/2+x,y,-z
-x,1/2+y,1/2+z
1/2+x,1/2-y,1/2+z
loop_
_atom_site_type_symbol
_atom_site_label
_atom_site_fract_x
_atom_site_fract_y
_atom_site_fract_z
Si Si1 0.274747 0.275946 0.095477
Si Si2 0.878710 0.039603 0.599856
Si Si3 0.889034 0.035319 0.392230
Si Si4 0.274973 0.130172 0.273482
Si Si5 0.775730 0.169945 0.095738
Si Si6 0.922167 0.168886 0.901572
Si Si7 0.574033 0.630303 0.229736
Si Si8 0.075909 0.722970 0.906333
O O1 0.292156 0.317557 0.172660
O O2 0.355874 0.224186 0.118456
O O3 0.099344 0.267218 0.081837
O O4 0.350578 0.294475 0.001554
O O5 0.932739 0.052381 0.496220
O O6 0.829388 0.086711 0.658463
O O7 0.750000 0.000000 0.587136
O O8 0.995861 0.004100 0.648513
O O9 0.873393 0.083825 0.330876
O O10 0.750000 0.000000 0.399273
O O11 0.367881 0.133747 0.180567
O O12 0.101083 0.124276 0.253372
O O13 0.598821 0.170819 0.091143
O O14 0.835432 0.135704 0.177265
O O15 0.840623 0.225479 0.115705
O O16 0.847607 0.155036 0.998538
O O17 0.593200 0.680904 0.170461
#
# Coordination Sequence:
#
# PCOD9409642 Si02
#       8
#     8   8   8   8   8   8   8   8
#     4  10  20  35  55  84 119 153 187 229 277 335
#     4  10  20  40  60  85 118 155 183 225 284 332
#     4  10  22  38  60  87 120 149 187 231 277 338
#     4  11  22  36  59  84 114 152 193 229 280 338
#     4  11  23  39  58  81 113 149 190 236 283 334
#     4  11  23  39  58  82 112 150 189 236 283 334
#     4  11  22  37  57  85 115 152 190 233 280 333
#     4  10  20  35  56  83 119 154 186 229 279 332
#
# _framework density 18.034397999999999
#
# number of rings (size 3 to 8) (size 9 to 14) (size 15 to 20)
#    0.000    1.500    1.250    6.000    1.750    5.000 
#    0.000    0.000    0.000    1.500    0.000    0.000 
#    0.000    0.000    0.000    0.000    0.000    0.000 
#
# Total GULP energy -357134.425102 kJ/mol
# GULP energy per Si atom -5580.225392 kJ/mol
# Density = 1.799335 g / cm^3
# Si number density = 18.034398 Si / 1000 Ang^3
#
#
#
# Elastic Constant Matrix: (Units=GPa)
#
#
# Indices 1 2 3 4 5 6 
#
# 1 113.6825 36.0055 58.0721 0.0000 0.0000 0.0000
# 2 36.0055 59.1870 68.2141 0.0000 0.0000 0.0000
# 3 58.0721 68.2141 121.2284 0.0000 0.0000 0.0000
# 4 0.0000 0.0000 0.0000 37.8088 0.0000 0.0000
# 5 0.0000 0.0000 0.0000 0.0000 25.6913 0.0000
# 6 0.0000 0.0000 0.0000 0.0000 0.0000 27.3211
#
#
#
# Elastic Compliance Matrix: (Units=1/GPa)
#
#
# Indices 1 2 3 4 5 6 
#
# 1 0.011719 -0.001875 -0.004559 0.000000 0.000000 0.000000
# 2 -0.001875 0.048369 -0.026318 0.000000 0.000000 0.000000
# 3 -0.004559 -0.026318 0.025242 0.000000 0.000000 0.000000
# 4 0.000000 0.000000 0.000000 0.026449 0.000000 0.000000
# 5 0.000000 0.000000 0.000000 0.000000 0.038924 0.000000
# 6 0.000000 0.000000 0.000000 0.000000 0.000000 0.036602
#
#
# Mechanical properties :
#
#
# Convention : Reuss Voigt Hill
#
# Bulk Modulus (GPa) = 50.44102 68.74237 59.59170
# Shear Modulus (GPa) = 19.27401 26.95132 23.11266
#
# Velocity S-wave (km/s) = 3.27270 3.86999 3.58381
# Velocity P-wave (km/s) = 6.50468 7.62688 7.08802
#
# Compressibility (1/GPa) = 0.01982513
#
# Stress axis : x y z
#
# Youngs Moduli (GPa) = 85.33149 20.67445 39.61689
#
# Poissons Ratio (x) = 0.03877 0.18060
# Poissons Ratio (y) = 0.16001 1.04266
# Poissons Ratio (z) = 0.38899 0.54412
#
# Static dielectric constant tensor:
#      x y z
#    x 1.902470 0.000000 0.000000 
#    y 0.000000 1.563090 0.000000 
#    z 0.000000 0.000000 1.632260 
# 
# From -- ./inp_files/25116.got.cif
#   From: 2010.05.17/outbox.cif.g08.bks.cpg/sg52_13_cif.got.tgz:25116.got - 2010.06.03 12:15:38.
