data_PCOD9409975
_publ_section_title
;
Structure prediction by ZEFSAII (Michael W. Deem and Ramdas Pophale) SiO2 
 PCOD9409975
Probable space group: P N N A
;
_chemical_formula_sum "Si O2"
_cell_formula_units_Z 36
_cell_length_a 16.025565
_cell_length_b 14.937400
_cell_length_c 8.497463
_cell_angle_alpha 90.000000
_cell_angle_beta 90.000000
_cell_angle_gamma 90.000000
_cell_volume 2034.125027
_symmetry_space_group_name_H-M "P N N A"
_symmetry_group_IT_number 52
_symmetry_cell_setting 'orthorhombic'
loop_
_space_group_symop_operation_xyz
x,y,z
1/2-x,-y,z
x,1/2-y,1/2-z
1/2-x,1/2+y,1/2-z
-x,-y,-z
1/2+x,y,-z
-x,1/2+y,1/2+z
1/2+x,1/2-y,1/2+z
loop_
_atom_site_type_symbol
_atom_site_label
_atom_site_fract_x
_atom_site_fract_y
_atom_site_fract_z
Si Si1 0.994431 0.912361 0.891264
Si Si2 0.015477 0.272201 0.931690
Si Si3 0.573493 0.934566 0.437618
Si Si4 0.750000 0.000000 0.543697
Si Si5 0.652632 0.156064 0.677764
O O1 0.906305 0.896564 0.801861
O O2 0.057861 0.917709 0.746062
O O3 0.007308 0.821903 0.988645
O O4 0.000000 0.000000 0.000000
O O5 0.033136 0.250000 0.750000
O O6 0.093813 0.315299 0.028666
O O7 0.942079 0.343976 0.962915
O O8 0.664070 0.977162 0.456162
O O9 0.500000 0.000000 0.500000
O O10 0.773495 0.910487 0.637323
O O11 0.680543 0.250000 0.750000
#
# Coordination Sequence:
#
# PCOD9409975 Si02
#       5
#     8   8   8   4   8
#     4  10  20  38  66  89 119 160 206 249 304 367
#     4  10  20  37  67  89 119 165 202 250 309 358
#     4  11  21  39  62  90 121 161 202 249 307 362
#     4  12  22  38  68  88 130 158 204 252 312 366
#     4   9  21  40  59  93 126 157 205 257 303 357
#
# _framework density 17.698028000000001
#
# number of rings (size 3 to 8) (size 9 to 14) (size 15 to 20)
#    0.000    1.778    4.444    3.333    0.000    0.889 
#    0.000    3.333    0.000    0.000    0.000    0.000 
#    0.000    0.000    0.000    0.000    0.000    0.000 
#
# Total GULP energy -200611.729300 kJ/mol
# GULP energy per Si atom -5572.548036 kJ/mol
# Density = 1.765775 g / cm^3
# Si number density = 17.698028 Si / 1000 Ang^3
#
#
#
# Elastic Constant Matrix: (Units=GPa)
#
#
# Indices 1 2 3 4 5 6 
#
# 1 93.4321 56.9633 31.7359 0.0000 0.0000 0.0000
# 2 56.9633 153.7521 65.3331 0.0000 0.0000 0.0000
# 3 31.7359 65.3331 120.6511 0.0000 0.0000 0.0000
# 4 0.0000 0.0000 0.0000 35.2103 0.0000 0.0000
# 5 0.0000 0.0000 0.0000 0.0000 5.5037 0.0000
# 6 0.0000 0.0000 0.0000 0.0000 0.0000 26.1531
#
#
#
# Elastic Compliance Matrix: (Units=1/GPa)
#
#
# Indices 1 2 3 4 5 6 
#
# 1 0.013944 -0.004686 -0.001130 0.000000 0.000000 0.000000
# 2 -0.004686 0.010022 -0.004195 0.000000 0.000000 0.000000
# 3 -0.001130 -0.004195 0.010857 0.000000 0.000000 0.000000
# 4 0.000000 0.000000 0.000000 0.028401 0.000000 0.000000
# 5 0.000000 0.000000 0.000000 0.000000 0.181696 0.000000
# 6 0.000000 0.000000 0.000000 0.000000 0.000000 0.038236
#
#
# Mechanical properties :
#
#
# Convention : Reuss Voigt Hill
#
# Bulk Modulus (GPa) = 67.55969 75.10000 71.32984
# Shear Modulus (GPa) = 16.22789 27.62695 21.92742
#
# Velocity S-wave (km/s) = 3.03137 3.95526 3.52373
# Velocity P-wave (km/s) = 7.10695 7.96147 7.54631
#
# Compressibility (1/GPa) = 0.01480173
#
# Stress axis : x y z
#
# Youngs Moduli (GPa) = 71.71738 99.77712 92.10528
#
# Poissons Ratio (x) = 0.46751 0.10412
# Poissons Ratio (y) = 0.33604 0.38635
# Poissons Ratio (z) = 0.08107 0.41853
#
# Static dielectric constant tensor:
#      x y z
#    x 1.607750 0.000000 0.000000 
#    y 0.000000 1.533190 0.000000 
#    z 0.000000 0.000000 1.632940 
# 
# From -- ./inp_files/9929.got.cif
#   From: 2010.05.17/outbox.cif.g08.bks.cpg/sg52_5_cif.got.tgz:9929.got - 2010.06.03 12:15:38.
