data_PCOD9409289
_publ_section_title
;
Structure prediction by ZEFSAII (Michael W. Deem and Ramdas Pophale) SiO2 
 PCOD9409289
Probable space group: P N N A
;
_chemical_formula_sum "Si O2"
_cell_formula_units_Z 56
_cell_length_a 9.176384
_cell_length_b 18.638394
_cell_length_c 12.438729
_cell_angle_alpha 90.000000
_cell_angle_beta 90.000000
_cell_angle_gamma 90.000000
_cell_volume 2127.433889
_symmetry_space_group_name_H-M "P N N A"
_symmetry_group_IT_number 52
_symmetry_cell_setting 'orthorhombic'
loop_
_space_group_symop_operation_xyz
x,y,z
1/2-x,-y,z
x,1/2-y,1/2-z
1/2-x,1/2+y,1/2-z
-x,-y,-z
1/2+x,y,-z
-x,1/2+y,1/2+z
1/2+x,1/2-y,1/2+z
loop_
_atom_site_type_symbol
_atom_site_label
_atom_site_fract_x
_atom_site_fract_y
_atom_site_fract_z
Si Si1 0.710301 0.343800 0.014437
Si Si2 0.750000 0.000000 0.047002
Si Si3 0.724555 0.328434 0.234190
Si Si4 0.985577 0.813212 0.836944
Si Si5 0.250000 0.000000 0.570876
Si Si6 0.559147 0.747601 0.566123
Si Si7 0.204255 0.604824 0.351185
Si Si8 0.046485 0.472431 0.742423
O O1 0.808399 0.328050 0.120773
O O2 0.715557 0.428980 0.002040
O O3 0.559034 0.313423 0.063228
O O4 0.789527 0.293069 0.930630
O O5 0.887310 0.997793 0.128457
O O6 0.729523 0.932888 0.966817
O O7 0.655126 0.250000 0.250000
O O8 0.624304 0.395902 0.240804
O O9 0.848943 0.337877 0.320898
O O10 0.964289 0.750000 0.750000
O O11 0.863508 0.871746 0.812906
O O12 0.989009 0.790928 0.961030
O O13 0.112644 0.986818 0.653520
O O14 0.605963 0.677536 0.635985
O O15 0.119528 0.548780 0.275696
#
# Coordination Sequence:
#
# PCOD9409289 Si02
#       8
#     8   4   8   8   4   8   8   8
#     4  11  23  42  70  93 131 172 227 283 339 403
#     4  11  24  40  60  95 140 182 208 275 340 412
#     4  10  19  38  65  91 125 176 213 268 336 396
#     4  11  23  39  62  95 134 169 218 272 334 396
#     4   9  24  44  66  97 126 182 224 275 348 412
#     4  12  23  43  66 101 129 178 229 284 331 403
#     4  12  25  39  66 101 138 174 223 281 335 395
#     4  10  22  42  64  93 131 172 228 268 328 423
#
# _framework density 26.322793999999998
#
# number of rings (size 3 to 8) (size 9 to 14) (size 15 to 20)
#    0.000    1.143    4.286    3.000    0.000    6.857 
#    0.000    0.000    0.000    0.000    0.000    0.000 
#    0.000    0.000    0.000    0.000    0.000    0.000 
#
# Total GULP energy -312573.363183 kJ/mol
# GULP energy per Si atom -5581.667200 kJ/mol
# Density = 2.626288 g / cm^3
# Si number density = 26.322794 Si / 1000 Ang^3
#
#
#
# Elastic Constant Matrix: (Units=GPa)
#
#
# Indices 1 2 3 4 5 6 
#
# 1 87.4054 30.2018 -20.9071 0.0000 0.0000 0.0000
# 2 30.2018 127.1304 6.2528 0.0000 0.0000 0.0000
# 3 -20.9071 6.2528 9.2722 0.0000 0.0000 0.0000
# 4 0.0000 0.0000 0.0000 44.4057 0.0000 0.0000
# 5 0.0000 0.0000 0.0000 0.0000 2.2766 0.0000
# 6 0.0000 0.0000 0.0000 0.0000 0.0000 42.1179
#
#
#
# Elastic Compliance Matrix: (Units=1/GPa)
#
#
# Indices 1 2 3 4 5 6 
#
# 1 0.041158 -0.014834 0.102807 0.000000 0.000000 0.000000
# 2 -0.014834 0.013482 -0.042540 0.000000 0.000000 0.000000
# 3 0.102807 -0.042540 0.368348 0.000000 0.000000 0.000000
# 4 0.000000 0.000000 0.000000 0.022520 0.000000 0.000000
# 5 0.000000 0.000000 0.000000 0.000000 0.439245 0.000000
# 6 0.000000 0.000000 0.000000 0.000000 0.000000 0.023743
#
#
# Mechanical properties :
#
#
# Convention : Reuss Voigt Hill
#
# Bulk Modulus (GPa) = 1.94608 28.32255 15.13432
# Shear Modulus (GPa) = 5.05605 31.64408 18.35006
#
# Velocity S-wave (km/s) = 1.38743 3.47097 2.64316
# Velocity P-wave (km/s) = 1.81866 5.18137 3.88292
#
# Compressibility (1/GPa) = 0.51385244
#
# Stress axis : x y z
#
# Youngs Moduli (GPa) = 24.29684 74.17145 2.71483
#
# Poissons Ratio (x) = 1.10026 -0.27910
# Poissons Ratio (y) = 0.36042 0.11549
# Poissons Ratio (z) = -2.49787 3.15526
#
# Static dielectric constant tensor:
#      x y z
#    x 2.181380 0.000000 0.000000 
#    y 0.000000 2.155810 0.000000 
#    z 0.000000 0.000000 2.250790 
# 
# From -- ./inp_files/25007.got.cif
#   From: 2010.05.17/outbox.cif.g08.bks.cpg/sg52_13_cif.got.tgz:25007.got - 2010.06.03 12:15:38.
