data_PCOD9409761
_publ_section_title
;
Structure prediction by ZEFSAII (Michael W. Deem and Ramdas Pophale) SiO2 
 PCOD9409761
Probable space group: P N N A
;
_chemical_formula_sum "Si O2"
_cell_formula_units_Z 36
_cell_length_a 8.613386
_cell_length_b 13.296267
_cell_length_c 14.617971
_cell_angle_alpha 90.000000
_cell_angle_beta 90.000000
_cell_angle_gamma 90.000000
_cell_volume 1674.135993
_symmetry_space_group_name_H-M "P N N A"
_symmetry_group_IT_number 52
_symmetry_cell_setting 'orthorhombic'
loop_
_space_group_symop_operation_xyz
x,y,z
1/2-x,-y,z
x,1/2-y,1/2-z
1/2-x,1/2+y,1/2-z
-x,-y,-z
1/2+x,y,-z
-x,1/2+y,1/2+z
1/2+x,1/2-y,1/2+z
loop_
_atom_site_type_symbol
_atom_site_label
_atom_site_fract_x
_atom_site_fract_y
_atom_site_fract_z
Si Si1 0.056373 0.281960 0.088563
Si Si2 0.335132 0.250000 0.750000
Si Si3 0.411094 0.194242 0.390968
Si Si4 0.949887 0.616865 0.288436
Si Si5 0.076014 0.041569 0.092016
O O1 0.227861 0.324860 0.104289
O O2 0.075217 0.161002 0.088444
O O3 0.940168 0.300498 0.172323
O O4 0.985459 0.312927 0.991117
O O5 0.219232 0.332656 0.706394
O O6 0.444918 0.306152 0.349570
O O7 0.492895 0.124468 0.315744
O O8 0.974302 0.507116 0.327592
O O9 0.250000 0.000000 0.100965
O O10 0.000000 0.000000 0.000000
#
# Coordination Sequence:
#
# PCOD9409761 Si02
#       5
#     8   4   8   8   8
#     4  12  21  38  61  91 120 166 209 256 307 361
#     4  10  24  36  60  84 120 168 214 256 294 378
#     4  10  20  36  59  83 125 160 210 247 303 375
#     4  10  21  38  55  89 127 164 201 249 316 372
#     4  12  24  36  60  94 133 159 192 262 318 362
#
# _framework density 21.503627999999999
#
# number of rings (size 3 to 8) (size 9 to 14) (size 15 to 20)
#    0.000    1.333    4.444    4.000    3.111    0.000 
#    0.000    0.000    0.000    1.333    0.000    0.000 
#    0.000    0.000    0.000    0.000    0.000    0.000 
#
# Total GULP energy -201389.951342 kJ/mol
# GULP energy per Si atom -5594.165315 kJ/mol
# Density = 2.145468 g / cm^3
# Si number density = 21.503628 Si / 1000 Ang^3
#
#
#
# Elastic Constant Matrix: (Units=GPa)
#
#
# Indices 1 2 3 4 5 6 
#
# 1 146.2845 -0.6456 47.1704 0.0000 0.0000 0.0000
# 2 -0.6456 27.7688 1.5200 0.0000 0.0000 0.0000
# 3 47.1704 1.5200 146.7136 0.0000 0.0000 0.0000
# 4 0.0000 0.0000 0.0000 25.4988 0.0000 0.0000
# 5 0.0000 0.0000 0.0000 0.0000 44.9242 0.0000
# 6 0.0000 0.0000 0.0000 0.0000 0.0000 20.7959
#
#
#
# Elastic Compliance Matrix: (Units=1/GPa)
#
#
# Indices 1 2 3 4 5 6 
#
# 1 0.007629 0.000312 -0.002456 0.000000 0.000000 0.000000
# 2 0.000312 0.036045 -0.000474 0.000000 0.000000 0.000000
# 3 -0.002456 -0.000474 0.007611 0.000000 0.000000 0.000000
# 4 0.000000 0.000000 0.000000 0.039217 0.000000 0.000000
# 5 0.000000 0.000000 0.000000 0.000000 0.022260 0.000000
# 6 0.000000 0.000000 0.000000 0.000000 0.000000 0.048086
#
#
# Mechanical properties :
#
#
# Convention : Reuss Voigt Hill
#
# Bulk Modulus (GPa) = 21.71612 46.31741 34.01677
# Shear Modulus (GPa) = 27.55822 36.42526 31.99174
#
# Velocity S-wave (km/s) = 3.58377 4.12018 3.86130
# Velocity P-wave (km/s) = 5.21971 6.64986 5.97771
#
# Compressibility (1/GPa) = 0.04604874
#
# Stress axis : x y z
#
# Youngs Moduli (GPa) = 131.07219 27.74319 131.39563
#
# Poissons Ratio (x) = -0.00865 0.32273
# Poissons Ratio (y) = -0.04087 0.06224
# Poissons Ratio (z) = 0.32194 0.01314
#
# Static dielectric constant tensor:
#      x y z
#    x 1.782100 0.000000 0.000000 
#    y 0.000000 1.790260 0.000000 
#    z 0.000000 0.000000 1.761740 
# 
# From -- ./inp_files/24343.got.cif
#   From: 2010.05.17/outbox.cif.g08.bks.cpg/sg52_13_cif.got.tgz:24343.got - 2010.06.03 12:15:38.
