data_PCOD9409804
_publ_section_title
;
Structure prediction by ZEFSAII (Michael W. Deem and Ramdas Pophale) SiO2 
 PCOD9409804
Probable space group: P N N A
;
_chemical_formula_sum "Si O2"
_cell_formula_units_Z 44
_cell_length_a 14.188249
_cell_length_b 11.886787
_cell_length_c 10.678877
_cell_angle_alpha 90.000000
_cell_angle_beta 90.000000
_cell_angle_gamma 90.000000
_cell_volume 1801.021372
_symmetry_space_group_name_H-M "P N N A"
_symmetry_group_IT_number 52
_symmetry_cell_setting 'orthorhombic'
loop_
_space_group_symop_operation_xyz
x,y,z
1/2-x,-y,z
x,1/2-y,1/2-z
1/2-x,1/2+y,1/2-z
-x,-y,-z
1/2+x,y,-z
-x,1/2+y,1/2+z
1/2+x,1/2-y,1/2+z
loop_
_atom_site_type_symbol
_atom_site_label
_atom_site_fract_x
_atom_site_fract_y
_atom_site_fract_z
Si Si1 0.572236 0.674623 0.134690
Si Si2 0.231458 0.348782 0.958482
Si Si3 0.234021 0.892616 0.073913
Si Si4 0.388183 0.750000 0.750000
Si Si5 0.478483 0.125704 0.056625
Si Si6 0.378734 0.620378 0.205894
O O1 0.609520 0.750000 0.250000
O O2 0.661566 0.614708 0.071275
O O3 0.488430 0.592062 0.180998
O O4 0.527779 0.771714 0.044420
O O5 0.171821 0.336855 0.833376
O O6 0.241731 0.219703 0.003148
O O7 0.177189 0.399275 0.077382
O O8 0.126381 0.877851 0.114460
O O9 0.310589 0.916460 0.181930
O O10 0.250000 0.000000 0.985366
O O11 0.449803 0.828024 0.841679
O O12 0.500000 0.000000 0.000000
O O13 0.387992 0.750000 0.250000
#
# Coordination Sequence:
#
# PCOD9409804 Si02
#       6
#     8   8   8   4   8   8
#     4  10  20  36  63  88 123 174 218 269 340 402
#     4  10  20  36  61  89 122 170 219 263 328 404
#     4  10  22  38  64  94 129 166 217 276 330 401
#     4  12  22  40  64  94 132 176 214 286 340 406
#     4  11  25  40  66 101 130 170 230 282 339 408
#     4   9  19  34  60  85 120 166 220 258 328 402
#
# _framework density 24.430582999999999
#
# number of rings (size 3 to 8) (size 9 to 14) (size 15 to 20)
#    0.000    1.818    2.727    1.091   11.455    0.000 
#    0.000    0.000    4.000    3.273    0.000    0.000 
#    0.000    0.000    0.000    0.000    0.000    0.000 
#
# Total GULP energy -245584.511338 kJ/mol
# GULP energy per Si atom -5581.466167 kJ/mol
# Density = 2.437498 g / cm^3
# Si number density = 24.430583 Si / 1000 Ang^3
#
#
#
# Elastic Constant Matrix: (Units=GPa)
#
#
# Indices 1 2 3 4 5 6 
#
# 1 145.7645 24.8099 61.3668 0.0000 0.0000 0.0000
# 2 24.8099 54.4933 15.7168 0.0000 0.0000 0.0000
# 3 61.3668 15.7168 122.3527 0.0000 0.0000 0.0000
# 4 0.0000 0.0000 0.0000 15.4427 0.0000 0.0000
# 5 0.0000 0.0000 0.0000 0.0000 54.4329 0.0000
# 6 0.0000 0.0000 0.0000 0.0000 0.0000 22.8745
#
#
#
# Elastic Compliance Matrix: (Units=1/GPa)
#
#
# Indices 1 2 3 4 5 6 
#
# 1 0.009130 -0.002945 -0.004201 0.000000 0.000000 0.000000
# 2 -0.002945 0.020007 -0.001093 0.000000 0.000000 0.000000
# 3 -0.004201 -0.001093 0.010421 0.000000 0.000000 0.000000
# 4 0.000000 0.000000 0.000000 0.064755 0.000000 0.000000
# 5 0.000000 0.000000 0.000000 0.000000 0.018371 0.000000
# 6 0.000000 0.000000 0.000000 0.000000 0.000000 0.043717
#
#
# Mechanical properties :
#
#
# Convention : Reuss Voigt Hill
#
# Bulk Modulus (GPa) = 43.32815 58.48863 50.90839
# Shear Modulus (GPa) = 26.23674 33.26451 29.75062
#
# Velocity S-wave (km/s) = 3.28064 3.69398 3.49343
# Velocity P-wave (km/s) = 5.66779 6.49513 6.09551
#
# Compressibility (1/GPa) = 0.02307968
#
# Stress axis : x y z
#
# Youngs Moduli (GPa) = 109.52526 49.98256 95.96443
#
# Poissons Ratio (x) = 0.14721 0.40315
# Poissons Ratio (y) = 0.32258 0.10487
# Poissons Ratio (z) = 0.46012 0.05462
#
# Static dielectric constant tensor:
#      x y z
#    x 2.036980 0.000000 0.000000 
#    y 0.000000 2.103460 0.000000 
#    z 0.000000 0.000000 1.991050 
# 
# From -- ./inp_files/19442.got.cif
#   From: 2010.05.17/outbox.cif.g08.bks.cpg/sg52_10_cif.got.tgz:19442.got - 2010.06.03 12:15:38.
