data_PCOD9409746
_publ_section_title
;
Structure prediction by ZEFSAII (Michael W. Deem and Ramdas Pophale) SiO2 
 PCOD9409746
Probable space group: P N N A
;
_chemical_formula_sum "Si O2"
_cell_formula_units_Z 60
_cell_length_a 14.228227
_cell_length_b 17.317030
_cell_length_c 11.340911
_cell_angle_alpha 90.000000
_cell_angle_beta 90.000000
_cell_angle_gamma 90.000000
_cell_volume 2794.294249
_symmetry_space_group_name_H-M "P N N A"
_symmetry_group_IT_number 52
_symmetry_cell_setting 'orthorhombic'
loop_
_space_group_symop_operation_xyz
x,y,z
1/2-x,-y,z
x,1/2-y,1/2-z
1/2-x,1/2+y,1/2-z
-x,-y,-z
1/2+x,y,-z
-x,1/2+y,1/2+z
1/2+x,1/2-y,1/2+z
loop_
_atom_site_type_symbol
_atom_site_label
_atom_site_fract_x
_atom_site_fract_y
_atom_site_fract_z
Si Si1 0.688403 0.252962 0.408644
Si Si2 0.240094 0.138425 0.120255
Si Si3 0.797062 0.581634 0.854788
Si Si4 0.563830 0.693963 0.644466
Si Si5 0.102379 0.402734 0.694454
Si Si6 0.750000 0.500000 0.441220
Si Si7 0.447597 0.612163 0.957158
Si Si8 0.644415 0.825596 0.491317
O O1 0.702583 0.294778 0.535996
O O2 0.665333 0.323509 0.319263
O O3 0.601296 0.195955 0.432318
O O4 0.784638 0.204043 0.389207
O O5 0.173346 0.116488 0.228510
O O6 0.337185 0.159344 0.184193
O O7 0.266251 0.070874 0.029457
O O8 0.750000 0.500000 0.828941
O O9 0.720107 0.634120 0.922370
O O10 0.882553 0.572791 0.945376
O O11 0.530638 0.750000 0.750000
O O12 0.489339 0.626671 0.623429
O O13 0.595159 0.747210 0.537194
O O14 0.162942 0.471513 0.638897
O O15 0.065817 0.422207 0.825665
O O16 0.553063 0.619214 0.007351
#
# Coordination Sequence:
#
# PCOD9409746 Si02
#       8
#     8   8   8   8   8   4   8   8
#     4   9  20  34  64  88 119 147 195 266 300 341
#     4  10  20  38  59  87 119 154 202 245 304 366
#     4  11  23  37  60  82 120 167 198 244 300 371
#     4  11  17  32  65  90 109 152 201 255 282 357
#     4  11  20  37  60  89 118 158 200 246 306 361
#     4  10  24  38  56  82 126 162 188 252 304 368
#     4  11  21  35  63  86 120 156 202 251 298 369
#     4  10  20  36  57  94 113 153 210 245 300 359
#
# _framework density 21.472328000000001
#
# number of rings (size 3 to 8) (size 9 to 14) (size 15 to 20)
#    0.000    1.600    4.667    0.400    0.933    1.067 
#    0.000    0.000   11.733    0.000    0.000    0.000 
#    0.000    0.000    0.000    0.000    0.000    0.000 
#
# Total GULP energy -334211.264713 kJ/mol
# GULP energy per Si atom -5570.187745 kJ/mol
# Density = 2.142346 g / cm^3
# Si number density = 21.472328 Si / 1000 Ang^3
#
#
#
# Elastic Constant Matrix: (Units=GPa)
#
#
# Indices 1 2 3 4 5 6 
#
# 1 82.2683 -12.4486 20.7803 0.0000 0.0000 0.0000
# 2 -12.4486 36.6713 0.8893 0.0000 0.0000 0.0000
# 3 20.7803 0.8893 57.5898 0.0000 0.0000 0.0000
# 4 0.0000 0.0000 0.0000 23.1223 0.0000 0.0000
# 5 0.0000 0.0000 0.0000 0.0000 24.7830 0.0000
# 6 0.0000 0.0000 0.0000 0.0000 0.0000 25.2827
#
#
#
# Elastic Compliance Matrix: (Units=1/GPa)
#
#
# Indices 1 2 3 4 5 6 
#
# 1 0.014220 0.004954 -0.005208 0.000000 0.000000 0.000000
# 2 0.004954 0.029005 -0.002235 0.000000 0.000000 0.000000
# 3 -0.005208 -0.002235 0.019278 0.000000 0.000000 0.000000
# 4 0.000000 0.000000 0.000000 0.043248 0.000000 0.000000
# 5 0.000000 0.000000 0.000000 0.000000 0.040350 0.000000
# 6 0.000000 0.000000 0.000000 0.000000 0.000000 0.039553
#
#
# Mechanical properties :
#
#
# Convention : Reuss Voigt Hill
#
# Bulk Modulus (GPa) = 17.38393 21.66348 19.52370
# Shear Modulus (GPa) = 23.83131 25.79149 24.81140
#
# Velocity S-wave (km/s) = 3.33507 3.46952 3.40296
# Velocity P-wave (km/s) = 4.78997 5.11479 4.95504
#
# Compressibility (1/GPa) = 0.05752440
#
# Stress axis : x y z
#
# Youngs Moduli (GPa) = 70.32190 34.47680 51.87320
#
# Poissons Ratio (x) = -0.17078 0.27014
# Poissons Ratio (y) = -0.34834 0.11595
# Poissons Ratio (z) = 0.36621 0.07707
#
# Static dielectric constant tensor:
#      x y z
#    x 1.836770 0.000000 0.000000 
#    y 0.000000 1.870460 0.000000 
#    z 0.000000 0.000000 1.801450 
# 
# From -- ./inp_files/19818.got.cif
#   From: 2010.05.17/outbox.cif.g08.bks.cpg/sg52_10_cif.got.tgz:19818.got - 2010.06.03 12:15:38.
