data_PCOD9409179
_publ_section_title
;
Structure prediction by ZEFSAII (Michael W. Deem and Ramdas Pophale) SiO2 
 PCOD9409179
Probable space group: P N N A
;
_chemical_formula_sum "Si O2"
_cell_formula_units_Z 40
_cell_length_a 17.401836
_cell_length_b 13.781779
_cell_length_c 7.342922
_cell_angle_alpha 90.000000
_cell_angle_beta 90.000000
_cell_angle_gamma 90.000000
_cell_volume 1761.040191
_symmetry_space_group_name_H-M "P N N A"
_symmetry_group_IT_number 52
_symmetry_cell_setting 'orthorhombic'
loop_
_space_group_symop_operation_xyz
x,y,z
1/2-x,-y,z
x,1/2-y,1/2-z
1/2-x,1/2+y,1/2-z
-x,-y,-z
1/2+x,y,-z
-x,1/2+y,1/2+z
1/2+x,1/2-y,1/2+z
loop_
_atom_site_type_symbol
_atom_site_label
_atom_site_fract_x
_atom_site_fract_y
_atom_site_fract_z
Si Si1 0.008199 0.750000 0.750000
Si Si2 0.339460 0.970920 0.784477
Si Si3 0.112507 0.646333 0.470444
Si Si4 0.898958 0.643101 0.965855
Si Si5 0.005229 0.750000 0.250000
Si Si6 0.225659 0.284375 0.545845
O O1 0.067471 0.724940 0.591056
O O2 0.951847 0.842827 0.711977
O O3 0.381450 0.950150 0.591570
O O4 0.330678 0.873510 0.905059
O O5 0.250000 0.000000 0.749792
O O6 0.381640 0.049668 0.909407
O O7 0.060217 0.657278 0.292410
O O8 0.199971 0.677934 0.441937
O O9 0.817330 0.696799 0.946487
O O10 0.947014 0.713806 0.097225
O O11 0.250470 0.250000 0.750000
#
# Coordination Sequence:
#
# PCOD9409179 Si02
#       6
#     4   8   8   8   4   8
#     4  10  22  34  52  84 118 148 184 236 304 346
#     4   9  18  33  60  84 104 148 206 237 277 344
#     4  10  20  34  56  83 111 148 194 239 285 351
#     4  10  19  37  56  80 113 153 189 234 295 350
#     4  10  20  34  52  86 114 150 186 236 300 348
#     4   9  16  34  58  78 105 151 194 234 284 352
#
# _framework density 22.713849
#
# number of rings (size 3 to 8) (size 9 to 14) (size 15 to 20)
#    0.000    2.400    4.000    0.000    0.000    2.400 
#    0.000    0.000    0.000    1.200    0.000    0.000 
#    0.000    0.000    0.000    0.000    0.000    0.000 
#
# Total GULP energy -222684.694658 kJ/mol
# GULP energy per Si atom -5567.117366 kJ/mol
# Density = 2.266215 g / cm^3
# Si number density = 22.713849 Si / 1000 Ang^3
#
#
#
# Elastic Constant Matrix: (Units=GPa)
#
#
# Indices 1 2 3 4 5 6 
#
# 1 87.9485 21.3918 21.8233 0.0000 0.0000 0.0000
# 2 21.3918 64.3748 5.8564 0.0000 0.0000 0.0000
# 3 21.8233 5.8564 29.8368 0.0000 0.0000 0.0000
# 4 0.0000 0.0000 0.0000 28.8301 0.0000 0.0000
# 5 0.0000 0.0000 0.0000 0.0000 2.6607 0.0000
# 6 0.0000 0.0000 0.0000 0.0000 0.0000 18.6118
#
#
#
# Elastic Compliance Matrix: (Units=1/GPa)
#
#
# Indices 1 2 3 4 5 6 
#
# 1 0.014846 -0.004017 -0.010070 0.000000 0.000000 0.000000
# 2 -0.004017 0.016903 -0.000380 0.000000 0.000000 0.000000
# 3 -0.010070 -0.000380 0.040956 0.000000 0.000000 0.000000
# 4 0.000000 0.000000 0.000000 0.034686 0.000000 0.000000
# 5 0.000000 0.000000 0.000000 0.000000 0.375837 0.000000
# 6 0.000000 0.000000 0.000000 0.000000 0.000000 0.053729
#
#
# Mechanical properties :
#
#
# Convention : Reuss Voigt Hill
#
# Bulk Modulus (GPa) = 22.84602 31.14477 26.99539
# Shear Modulus (GPa) = 8.61352 18.89310 13.75331
#
# Velocity S-wave (km/s) = 1.94947 2.88720 2.46337
# Velocity P-wave (km/s) = 3.89195 4.98559 4.47233
#
# Compressibility (1/GPa) = 0.04377131
#
# Stress axis : x y z
#
# Youngs Moduli (GPa) = 67.35711 59.15938 24.41654
#
# Poissons Ratio (x) = 0.23766 0.24588
# Poissons Ratio (y) = 0.27059 0.00927
# Poissons Ratio (z) = 0.67831 0.02245
#
# Static dielectric constant tensor:
#      x y z
#    x 1.828350 0.000000 0.000000 
#    y 0.000000 1.897720 0.000000 
#    z 0.000000 0.000000 2.178400 
# 
# From -- ./inp_files/11891.got.cif
#   From: 2010.05.17/outbox.cif.g08.bks.cpg/sg52_6_cif.got.tgz:11891.got - 2010.06.03 12:15:38.
