data_PCOD9409369
_publ_section_title
;
Structure prediction by ZEFSAII (Michael W. Deem and Ramdas Pophale) SiO2 
 PCOD9409369
Probable space group: P N N A
;
_chemical_formula_sum "Si O2"
_cell_formula_units_Z 52
_cell_length_a 12.897894
_cell_length_b 19.713691
_cell_length_c 8.300225
_cell_angle_alpha 90.000000
_cell_angle_beta 90.000000
_cell_angle_gamma 90.000000
_cell_volume 2110.457514
_symmetry_space_group_name_H-M "P N N A"
_symmetry_group_IT_number 52
_symmetry_cell_setting 'orthorhombic'
loop_
_space_group_symop_operation_xyz
x,y,z
1/2-x,-y,z
x,1/2-y,1/2-z
1/2-x,1/2+y,1/2-z
-x,-y,-z
1/2+x,y,-z
-x,1/2+y,1/2+z
1/2+x,1/2-y,1/2+z
loop_
_atom_site_type_symbol
_atom_site_label
_atom_site_fract_x
_atom_site_fract_y
_atom_site_fract_z
Si Si1 0.916981 0.585913 0.728426
Si Si2 0.825643 0.795371 0.599492
Si Si3 0.899348 0.179787 0.740796
Si Si4 0.776459 0.750000 0.250000
Si Si5 0.141670 0.872869 0.895613
Si Si6 0.488297 0.044171 0.344265
Si Si7 0.879584 0.977490 0.060803
O O1 0.870348 0.630284 0.868973
O O2 0.902905 0.505336 0.760925
O O3 0.861649 0.587655 0.554321
O O4 0.033856 0.612529 0.700210
O O5 0.869644 0.750000 0.750000
O O6 0.704672 0.802493 0.643786
O O7 0.833696 0.732223 0.080901
O O8 0.960046 0.250000 0.750000
O O9 0.950837 0.119531 0.644254
O O10 0.880118 0.154463 0.923531
O O11 0.707829 0.816867 0.200495
O O12 0.180332 0.950940 0.922382
O O13 0.592863 0.045711 0.240327
O O14 0.500000 0.000000 0.500000
O O15 0.000000 0.000000 0.000000
#
# Coordination Sequence:
#
# PCOD9409369 Si02
#       7
#     8   8   8   4   8   8   8
#     4  10  21  42  68  92 130 181 231 285 347 401
#     4  11  26  44  64  97 146 183 224 298 364 424
#     4  11  20  39  65  97 136 185 224 272 360 425
#     4  12  24  44  68 100 146 180 234 280 358 448
#     4  10  19  40  71  93 122 186 233 274 335 425
#     4  10  20  37  62 103 137 165 236 299 326 414
#     4   8  16  36  63  89 123 166 223 276 327 384
#
# _framework density 24.639208
#
# number of rings (size 3 to 8) (size 9 to 14) (size 15 to 20)
#    0.000    2.154    7.692    0.000    5.385    0.615 
#    2.769    0.000    1.692    0.000    0.000    0.000 
#    0.000    0.000    0.000    0.000    0.000    0.000 
#
# Total GULP energy -289820.697893 kJ/mol
# GULP energy per Si atom -5573.474959 kJ/mol
# Density = 2.458313 g / cm^3
# Si number density = 24.639208 Si / 1000 Ang^3
#
#
#
# Elastic Constant Matrix: (Units=GPa)
#
#
# Indices 1 2 3 4 5 6 
#
# 1 36.6233 32.0446 22.8282 0.0000 0.0000 0.0000
# 2 32.0446 197.5320 52.1872 0.0000 0.0000 0.0000
# 3 22.8282 52.1872 147.7288 0.0000 0.0000 0.0000
# 4 0.0000 0.0000 0.0000 48.2631 0.0000 0.0000
# 5 0.0000 0.0000 0.0000 0.0000 17.0487 0.0000
# 6 0.0000 0.0000 0.0000 0.0000 0.0000 6.8490
#
#
#
# Elastic Compliance Matrix: (Units=1/GPa)
#
#
# Indices 1 2 3 4 5 6 
#
# 1 0.033462 -0.004480 -0.003588 0.000000 0.000000 0.000000
# 2 -0.004480 0.006184 -0.001492 0.000000 0.000000 0.000000
# 3 -0.003588 -0.001492 0.007851 0.000000 0.000000 0.000000
# 4 0.000000 0.000000 0.000000 0.020720 0.000000 0.000000
# 5 0.000000 0.000000 0.000000 0.000000 0.058655 0.000000
# 6 0.000000 0.000000 0.000000 0.000000 0.000000 0.146006
#
#
# Mechanical properties :
#
#
# Convention : Reuss Voigt Hill
#
# Bulk Modulus (GPa) = 35.24225 66.22269 50.73247
# Shear Modulus (GPa) = 16.58615 32.75377 24.66996
#
# Velocity S-wave (km/s) = 2.59735 3.64996 3.16768
# Velocity P-wave (km/s) = 4.83005 6.68568 5.83213
#
# Compressibility (1/GPa) = 0.02837503
#
# Stress axis : x y z
#
# Youngs Moduli (GPa) = 29.88486 161.72067 127.37726
#
# Poissons Ratio (x) = 0.72457 0.45703
# Poissons Ratio (y) = 0.13390 0.19005
# Poissons Ratio (z) = 0.10723 0.24130
#
# Static dielectric constant tensor:
#      x y z
#    x 2.033520 0.000000 0.000000 
#    y 0.000000 2.043500 0.000000 
#    z 0.000000 0.000000 0.325650 
# 
# From -- ./inp_files/12381.got.cif
#   From: 2010.05.17/outbox.cif.g08.bks.cpg/sg52_7_cif.got.tgz:12381.got - 2010.06.03 12:15:38.
