data_PCOD9409356
_publ_section_title
;
Structure prediction by ZEFSAII (Michael W. Deem and Ramdas Pophale) SiO2 
 PCOD9409356
Probable space group: P N N A
;
_chemical_formula_sum "Si O2"
_cell_formula_units_Z 48
_cell_length_a 8.700338
_cell_length_b 13.860314
_cell_length_c 16.455887
_cell_angle_alpha 90.000000
_cell_angle_beta 90.000000
_cell_angle_gamma 90.000000
_cell_volume 1984.405813
_symmetry_space_group_name_H-M "P N N A"
_symmetry_group_IT_number 52
_symmetry_cell_setting 'orthorhombic'
loop_
_space_group_symop_operation_xyz
x,y,z
1/2-x,-y,z
x,1/2-y,1/2-z
1/2-x,1/2+y,1/2-z
-x,-y,-z
1/2+x,y,-z
-x,1/2+y,1/2+z
1/2+x,1/2-y,1/2+z
loop_
_atom_site_type_symbol
_atom_site_label
_atom_site_fract_x
_atom_site_fract_y
_atom_site_fract_z
Si Si1 0.410827 0.533713 0.808699
Si Si2 0.112574 0.350983 0.227112
Si Si3 0.416451 0.199874 0.012345
Si Si4 0.905487 0.935106 0.126268
Si Si5 0.325700 0.102791 0.422746
Si Si6 0.136150 0.390296 0.399674
O O1 0.250000 0.500000 0.843085
O O2 0.493842 0.435504 0.782252
O O3 0.395895 0.587992 0.722489
O O4 0.516476 0.581122 0.875890
O O5 0.039070 0.250000 0.250000
O O6 0.215574 0.352916 0.147277
O O7 0.205247 0.374089 0.310010
O O8 0.544704 0.161814 0.077844
O O9 0.363195 0.310719 0.016555
O O10 0.269292 0.135269 0.036930
O O11 0.495469 0.179024 0.926363
O O12 0.750000 0.000000 0.109796
O O13 0.046476 0.008267 0.103361
O O14 0.250000 0.000000 0.448625
#
# Coordination Sequence:
#
# PCOD9409356 Si02
#       6
#     8   8   8   8   8   8
#     4   9  20  38  59  95 129 158 210 278 325 368
#     4  10  19  40  66  88 117 168 220 263 309 389
#     4  12  23  40  63  92 130 173 210 262 337 393
#     4  10  21  39  61  93 135 168 206 262 331 403
#     4  10  22  42  67  92 124 172 232 270 313 396
#     4  11  23  38  61  92 128 164 211 262 325 393
#
# _framework density 24.188600999999998
#
# number of rings (size 3 to 8) (size 9 to 14) (size 15 to 20)
#    0.000    1.667    1.667    3.000    0.000    2.667 
#   12.000    0.833    0.000    0.000    0.000    0.000 
#    0.000    0.000    0.000    0.000    0.000    0.000 
#
# Total GULP energy -267897.890972 kJ/mol
# GULP energy per Si atom -5581.206062 kJ/mol
# Density = 2.413355 g / cm^3
# Si number density = 24.188601 Si / 1000 Ang^3
#
#
#
# Elastic Constant Matrix: (Units=GPa)
#
#
# Indices 1 2 3 4 5 6 
#
# 1 64.7127 3.5932 6.5091 0.0000 0.0000 0.0000
# 2 3.5932 98.0450 25.1123 0.0000 0.0000 0.0000
# 3 6.5091 25.1123 49.4745 0.0000 0.0000 0.0000
# 4 0.0000 0.0000 0.0000 20.3046 0.0000 0.0000
# 5 0.0000 0.0000 0.0000 0.0000 37.5831 0.0000
# 6 0.0000 0.0000 0.0000 0.0000 0.0000 6.2506
#
#
#
# Elastic Compliance Matrix: (Units=1/GPa)
#
#
# Indices 1 2 3 4 5 6 
#
# 1 0.015660 -0.000053 -0.002033 0.000000 0.000000 0.000000
# 2 -0.000053 0.011724 -0.005944 0.000000 0.000000 0.000000
# 3 -0.002033 -0.005944 0.023497 0.000000 0.000000 0.000000
# 4 0.000000 0.000000 0.000000 0.049250 0.000000 0.000000
# 5 0.000000 0.000000 0.000000 0.000000 0.026608 0.000000
# 6 0.000000 0.000000 0.000000 0.000000 0.000000 0.159984
#
#
# Mechanical properties :
#
#
# Convention : Reuss Voigt Hill
#
# Bulk Modulus (GPa) = 28.71872 31.40682 30.06277
# Shear Modulus (GPa) = 15.90380 24.62884 20.26632
#
# Velocity S-wave (km/s) = 2.56694 3.19439 2.89770
# Velocity P-wave (km/s) = 4.54799 5.15924 4.86323
#
# Compressibility (1/GPa) = 0.03482050
#
# Stress axis : x y z
#
# Youngs Moduli (GPa) = 63.85539 85.29719 42.55884
#
# Poissons Ratio (x) = 0.00453 0.08654
# Poissons Ratio (y) = 0.00339 0.25296
# Poissons Ratio (z) = 0.12984 0.50698
#
# Static dielectric constant tensor:
#      x y z
#    x 1.964910 0.000000 0.000000 
#    y 0.000000 1.840110 0.000000 
#    z 0.000000 0.000000 1.977340 
# 
# From -- ./inp_files/35879.got.cif
#   From: 2010.05.17/outbox.cif.g08.bks.cpg/sg52_18_cif.got.tgz:35879.got - 2010.06.03 12:15:38.
