data_PCOD9409830
_publ_section_title
;
Structure prediction by ZEFSAII (Michael W. Deem and Ramdas Pophale) SiO2 
 PCOD9409830
Probable space group: P N N A
;
_chemical_formula_sum "Si O2"
_cell_formula_units_Z 48
_cell_length_a 9.433117
_cell_length_b 14.812267
_cell_length_c 18.180864
_cell_angle_alpha 90.000000
_cell_angle_beta 90.000000
_cell_angle_gamma 90.000000
_cell_volume 2540.336633
_symmetry_space_group_name_H-M "P N N A"
_symmetry_group_IT_number 52
_symmetry_cell_setting 'orthorhombic'
loop_
_space_group_symop_operation_xyz
x,y,z
1/2-x,-y,z
x,1/2-y,1/2-z
1/2-x,1/2+y,1/2-z
-x,-y,-z
1/2+x,y,-z
-x,1/2+y,1/2+z
1/2+x,1/2-y,1/2+z
loop_
_atom_site_type_symbol
_atom_site_label
_atom_site_fract_x
_atom_site_fract_y
_atom_site_fract_z
Si Si1 0.319274 0.084302 0.589259
Si Si2 0.227551 0.105487 0.931518
Si Si3 0.791882 0.747683 0.661313
Si Si4 0.938105 0.298797 0.545750
Si Si5 0.402235 0.869664 0.463871
Si Si6 0.608043 0.725100 0.334340
O O1 0.216668 0.098525 0.519777
O O2 0.477458 0.061935 0.562741
O O3 0.339026 0.181754 0.627460
O O4 0.250000 0.000000 0.632127
O O5 0.287065 0.145177 0.855328
O O6 0.065712 0.132362 0.942387
O O7 0.250000 0.000000 0.939228
O O8 0.322781 0.160801 0.989911
O O9 0.774876 0.750000 0.750000
O O10 0.649780 0.714409 0.621099
O O11 0.827569 0.836133 0.611709
O O12 0.944341 0.697957 0.647001
O O13 0.011348 0.210188 0.508334
O O14 0.606536 0.750000 0.250000
#
# Coordination Sequence:
#
# PCOD9409830 Si02
#       6
#     8   8   8   8   8   8
#     4  11  21  35  60  88 113 154 202 255 301 362
#     4  12  23  37  62  92 119 162 213 257 301 366
#     4  10  20  36  64  87 118 166 203 247 319 373
#     4  12  19  39  61  87 122 158 209 254 305 364
#     4  11  18  37  60  86 119 153 202 251 303 362
#     4  10  21  40  60  82 124 165 198 253 321 371
#
# _framework density 18.895133000000001
#
# number of rings (size 3 to 8) (size 9 to 14) (size 15 to 20)
#    0.000    1.000    8.333    1.000    0.000    1.333 
#    0.000    0.000    0.000    3.000    0.000    0.000 
#    0.000    0.000    0.000    0.000    0.000    0.000 
#
# Total GULP energy -267287.537112 kJ/mol
# GULP energy per Si atom -5568.490357 kJ/mol
# Density = 1.885213 g / cm^3
# Si number density = 18.895133 Si / 1000 Ang^3
#
#
#
# Elastic Constant Matrix: (Units=GPa)
#
#
# Indices 1 2 3 4 5 6 
#
# 1 142.3818 35.3723 41.1674 0.0000 0.0000 0.0000
# 2 35.3723 60.3200 14.4411 0.0000 0.0000 0.0000
# 3 41.1674 14.4411 84.8592 0.0000 0.0000 0.0000
# 4 0.0000 0.0000 0.0000 10.6321 0.0000 0.0000
# 5 0.0000 0.0000 0.0000 0.0000 31.8383 0.0000
# 6 0.0000 0.0000 0.0000 0.0000 0.0000 21.4397
#
#
#
# Elastic Compliance Matrix: (Units=1/GPa)
#
#
# Indices 1 2 3 4 5 6 
#
# 1 0.009216 -0.004518 -0.003702 0.000000 0.000000 0.000000
# 2 -0.004518 0.019497 -0.001126 0.000000 0.000000 0.000000
# 3 -0.003702 -0.001126 0.013772 0.000000 0.000000 0.000000
# 4 0.000000 0.000000 0.000000 0.094054 0.000000 0.000000
# 5 0.000000 0.000000 0.000000 0.000000 0.031409 0.000000
# 6 0.000000 0.000000 0.000000 0.000000 0.000000 0.046642
#
#
# Mechanical properties :
#
#
# Convention : Reuss Voigt Hill
#
# Bulk Modulus (GPa) = 42.02994 52.16921 47.09957
# Shear Modulus (GPa) = 20.72841 25.88739 23.30790
#
# Velocity S-wave (km/s) = 3.31573 3.70544 3.51599
# Velocity P-wave (km/s) = 6.07872 6.78062 6.43924
#
# Compressibility (1/GPa) = 0.02379256
#
# Stress axis : x y z
#
# Youngs Moduli (GPa) = 108.50402 51.28900 72.61179
#
# Poissons Ratio (x) = 0.23173 0.26882
# Poissons Ratio (y) = 0.49024 0.08177
# Poissons Ratio (z) = 0.40170 0.05776
#
# Static dielectric constant tensor:
#      x y z
#    x 1.674810 0.000000 0.000000 
#    y 0.000000 1.700750 0.000000 
#    z 0.000000 0.000000 1.700000 
# 
# From -- ./inp_files/31232.got.cif
#   From: 2010.05.17/outbox.cif.g08.bks.cpg/sg52_16_cif.got.tgz:31232.got - 2010.06.03 12:15:38.
