data_PCOD9409741
_publ_section_title
;
Structure prediction by ZEFSAII (Michael W. Deem and Ramdas Pophale) SiO2 
 PCOD9409741
Probable space group: P N N A
;
_chemical_formula_sum "Si O2"
_cell_formula_units_Z 48
_cell_length_a 8.888140
_cell_length_b 24.815151
_cell_length_c 11.460656
_cell_angle_alpha 90.000000
_cell_angle_beta 90.000000
_cell_angle_gamma 90.000000
_cell_volume 2527.768433
_symmetry_space_group_name_H-M "P N N A"
_symmetry_group_IT_number 52
_symmetry_cell_setting 'orthorhombic'
loop_
_space_group_symop_operation_xyz
x,y,z
1/2-x,-y,z
x,1/2-y,1/2-z
1/2-x,1/2+y,1/2-z
-x,-y,-z
1/2+x,y,-z
-x,1/2+y,1/2+z
1/2+x,1/2-y,1/2+z
loop_
_atom_site_type_symbol
_atom_site_label
_atom_site_fract_x
_atom_site_fract_y
_atom_site_fract_z
Si Si1 0.240595 0.212658 0.461831
Si Si2 0.606457 0.686770 0.746364
Si Si3 0.576982 0.610720 0.548411
Si Si4 0.213859 0.438983 0.648445
Si Si5 0.263759 0.833245 0.719097
Si Si6 0.535323 0.787885 0.093268
O O1 0.324902 0.172985 0.372376
O O2 0.219924 0.181430 0.583847
O O3 0.095258 0.242734 0.406837
O O4 0.346517 0.261272 0.504100
O O5 0.647321 0.750000 0.750000
O O6 0.660995 0.644903 0.649639
O O7 0.425975 0.685117 0.730989
O O8 0.457711 0.571553 0.609484
O O9 0.685952 0.579282 0.462051
O O10 0.491942 0.656105 0.469494
O O11 0.250000 0.500000 0.679089
O O12 0.248628 0.396142 0.750707
O O13 0.127908 0.804168 0.789795
#
# Coordination Sequence:
#
# PCOD9409741 Si02
#       6
#     8   8   8   8   8   8
#     4  12  21  36  56  85 126 163 197 229 298 365
#     4  11  20  35  55  81 128 163 185 233 296 362
#     4  10  20  36  57  86 115 146 197 242 300 363
#     4  10  21  39  64  82 110 151 201 264 311 339
#     4  10  22  39  55  86 120 157 206 244 291 364
#     4  11  21  36  59  85 124 163 190 239 292 371
#
# _framework density 18.989080999999999
#
# number of rings (size 3 to 8) (size 9 to 14) (size 15 to 20)
#    0.000    1.333    3.333    5.000    0.000    1.333 
#    3.000    0.000    0.000    5.000    0.000    0.000 
#    0.000    0.000    0.000    0.000    0.000    1.333 
#
# Total GULP energy -267548.733626 kJ/mol
# GULP energy per Si atom -5573.931951 kJ/mol
# Density = 1.894586 g / cm^3
# Si number density = 18.989081 Si / 1000 Ang^3
#
#
#
# Elastic Constant Matrix: (Units=GPa)
#
#
# Indices 1 2 3 4 5 6 
#
# 1 81.6217 25.7322 42.2374 0.0000 0.0000 0.0000
# 2 25.7322 105.8902 40.4246 0.0000 0.0000 0.0000
# 3 42.2374 40.4246 78.6775 0.0000 0.0000 0.0000
# 4 0.0000 0.0000 0.0000 22.1384 0.0000 0.0000
# 5 0.0000 0.0000 0.0000 0.0000 30.0110 0.0000
# 6 0.0000 0.0000 0.0000 0.0000 0.0000 20.5532
#
#
#
# Elastic Compliance Matrix: (Units=1/GPa)
#
#
# Indices 1 2 3 4 5 6 
#
# 1 0.017020 -0.000806 -0.008723 0.000000 0.000000 0.000000
# 2 -0.000806 0.011786 -0.005623 0.000000 0.000000 0.000000
# 3 -0.008723 -0.005623 0.020282 0.000000 0.000000 0.000000
# 4 0.000000 0.000000 0.000000 0.045170 0.000000 0.000000
# 5 0.000000 0.000000 0.000000 0.000000 0.033321 0.000000
# 6 0.000000 0.000000 0.000000 0.000000 0.000000 0.048654
#
#
# Mechanical properties :
#
#
# Convention : Reuss Voigt Hill
#
# Bulk Modulus (GPa) = 53.23608 53.66421 53.45015
# Shear Modulus (GPa) = 23.49641 25.06021 24.27831
#
# Velocity S-wave (km/s) = 3.52143 3.63673 3.57955
# Velocity P-wave (km/s) = 6.68057 6.77911 6.73002
#
# Compressibility (1/GPa) = 0.01878425
#
# Stress axis : x y z
#
# Youngs Moduli (GPa) = 58.75603 84.84446 49.30476
#
# Poissons Ratio (x) = 0.06838 0.43007
# Poissons Ratio (y) = 0.04735 0.27725
# Poissons Ratio (z) = 0.51251 0.47709
#
# Static dielectric constant tensor:
#      x y z
#    x 1.717340 0.000000 0.000000 
#    y 0.000000 1.656120 0.000000 
#    z 0.000000 0.000000 1.764750 
# 
# From -- ./inp_files/16926.got.cif
#   From: 2010.05.17/outbox.cif.g08.bks.cpg/sg52_9_cif.got.tgz:16926.got - 2010.06.03 12:15:38.
