data_PCOD9409320
_publ_section_title
;
Structure prediction by ZEFSAII (Michael W. Deem and Ramdas Pophale) SiO2 
 PCOD9409320
Probable space group: P N N A
;
_chemical_formula_sum "Si O2"
_cell_formula_units_Z 48
_cell_length_a 8.446783
_cell_length_b 12.978751
_cell_length_c 19.143282
_cell_angle_alpha 90.000000
_cell_angle_beta 90.000000
_cell_angle_gamma 90.000000
_cell_volume 2098.652991
_symmetry_space_group_name_H-M "P N N A"
_symmetry_group_IT_number 52
_symmetry_cell_setting 'orthorhombic'
loop_
_space_group_symop_operation_xyz
x,y,z
1/2-x,-y,z
x,1/2-y,1/2-z
1/2-x,1/2+y,1/2-z
-x,-y,-z
1/2+x,y,-z
-x,1/2+y,1/2+z
1/2+x,1/2-y,1/2+z
loop_
_atom_site_type_symbol
_atom_site_label
_atom_site_fract_x
_atom_site_fract_y
_atom_site_fract_z
Si Si1 0.341343 0.602584 0.077765
Si Si2 0.432563 0.470022 0.805394
Si Si3 0.416599 0.312375 0.184772
Si Si4 0.577783 0.445118 0.668123
Si Si5 0.545167 0.358452 0.402795
Si Si6 0.303675 0.683489 0.461457
O O1 0.250000 0.500000 0.051590
O O2 0.496782 0.571794 0.121393
O O3 0.221938 0.656314 0.132524
O O4 0.359476 0.697803 0.025619
O O5 0.250000 0.500000 0.807936
O O6 0.515180 0.579711 0.792478
O O7 0.497046 0.404606 0.739259
O O8 0.350363 0.250000 0.250000
O O9 0.549101 0.260479 0.350865
O O10 0.750000 0.500000 0.681189
O O11 0.468133 0.536756 0.639542
O O12 0.602607 0.364714 0.604759
O O13 0.377433 0.337182 0.441362
O O14 0.668757 0.368572 0.464328
#
# Coordination Sequence:
#
# PCOD9409320 Si02
#       6
#     8   8   8   8   8   8
#     4   9  21  39  62  84 116 156 209 241 289 366
#     4  11  23  37  56  92 122 151 193 258 311 340
#     4  10  19  39  64  82 112 159 203 240 291 360
#     4  10  20  37  60  84 119 161 201 236 292 374
#     4  10  21  37  60  86 119 155 199 244 299 354
#     4  10  22  37  58  89 116 159 198 241 301 357
#
# _framework density 22.871815999999999
#
# number of rings (size 3 to 8) (size 9 to 14) (size 15 to 20)
#    0.000    2.000    1.667    2.000    4.667    2.667 
#    3.000    8.333    0.000    0.000    0.000    0.000 
#    0.000    0.000    0.000    0.000    0.000    0.000 
#
# Total GULP energy -268009.798933 kJ/mol
# GULP energy per Si atom -5583.537478 kJ/mol
# Density = 2.281976 g / cm^3
# Si number density = 22.871816 Si / 1000 Ang^3
#
#
#
# Elastic Constant Matrix: (Units=GPa)
#
#
# Indices 1 2 3 4 5 6 
#
# 1 22.7683 -11.6493 4.7021 0.0000 0.0000 0.0000
# 2 -11.6493 58.0295 -5.4658 0.0000 0.0000 0.0000
# 3 4.7021 -5.4658 34.6652 0.0000 0.0000 0.0000
# 4 0.0000 0.0000 0.0000 25.5268 0.0000 0.0000
# 5 0.0000 0.0000 0.0000 0.0000 -0.6720 0.0000
# 6 0.0000 0.0000 0.0000 0.0000 0.0000 7.7026
#
#
#
# Elastic Compliance Matrix: (Units=1/GPa)
#
#
# Indices 1 2 3 4 5 6 
#
# 1 0.049877 0.009517 -0.005265 0.000000 0.000000 0.000000
# 2 0.009517 0.019308 0.001754 0.000000 0.000000 0.000000
# 3 -0.005265 0.001754 0.029838 0.000000 0.000000 0.000000
# 4 0.000000 0.000000 0.000000 0.039175 0.000000 0.000000
# 5 0.000000 0.000000 0.000000 0.000000 -1.488181 0.000000
# 6 0.000000 0.000000 0.000000 0.000000 0.000000 0.129826
#
#
# Mechanical properties :
#
#
# Convention : Reuss Voigt Hill
#
# Bulk Modulus (GPa) = 9.00622 10.07078 9.53850
# Shear Modulus (GPa) = -4.18356 15.03655 5.42649
#
# Velocity S-wave (km/s) = -1.35392 2.56682 1.54199
# Velocity P-wave (km/s) = 1.22560 3.63283 2.71104
#
# Compressibility (1/GPa) = 0.11103437
#
# Stress axis : x y z
#
# Youngs Moduli (GPa) = 20.04916 51.79128 33.51431
#
# Poissons Ratio (x) = -0.49289 0.17645
# Poissons Ratio (y) = -0.19081 -0.05877
# Poissons Ratio (z) = 0.10556 -0.09082
#
# Static dielectric constant tensor:
#      x y z
#    x 1.882800 0.000000 0.000000 
#    y 0.000000 1.974550 0.000000 
#    z 0.000000 0.000000 2.027970 
# 
# From -- ./inp_files/35899.got.cif
#   From: 2010.05.17/outbox.cif.g08.bks.cpg/sg52_18_cif.got.tgz:35899.got - 2010.06.03 12:15:38.
