data_PCOD9409378
_publ_section_title
;
Structure prediction by ZEFSAII (Michael W. Deem and Ramdas Pophale) SiO2 
 PCOD9409378
Probable space group: P N N A
;
_chemical_formula_sum "Si O2"
_cell_formula_units_Z 60
_cell_length_a 19.265761
_cell_length_b 16.904729
_cell_length_c 9.482210
_cell_angle_alpha 90.000000
_cell_angle_beta 90.000000
_cell_angle_gamma 90.000000
_cell_volume 3088.189561
_symmetry_space_group_name_H-M "P N N A"
_symmetry_group_IT_number 52
_symmetry_cell_setting 'orthorhombic'
loop_
_space_group_symop_operation_xyz
x,y,z
1/2-x,-y,z
x,1/2-y,1/2-z
1/2-x,1/2+y,1/2-z
-x,-y,-z
1/2+x,y,-z
-x,1/2+y,1/2+z
1/2+x,1/2-y,1/2+z
loop_
_atom_site_type_symbol
_atom_site_label
_atom_site_fract_x
_atom_site_fract_y
_atom_site_fract_z
Si Si1 0.525729 0.719636 0.607514
Si Si2 0.199177 0.889756 0.918393
Si Si3 0.750000 0.500000 0.171959
Si Si4 0.320083 0.579504 0.369748
Si Si5 0.396300 0.759867 0.082621
Si Si6 0.701911 0.114387 0.543728
Si Si7 0.931647 0.452579 0.544031
Si Si8 0.320067 0.230952 0.416243
O O1 0.491009 0.750000 0.750000
O O2 0.471752 0.731098 0.483236
O O3 0.546632 0.627570 0.623367
O O4 0.596675 0.768989 0.587574
O O5 0.228084 0.927933 0.775418
O O6 0.248393 0.923807 0.043316
O O7 0.119322 0.918974 0.922740
O O8 0.197836 0.798385 0.967552
O O9 0.696103 0.457297 0.065843
O O10 0.354806 0.658553 0.435495
O O11 0.305397 0.587705 0.205009
O O12 0.378549 0.512198 0.381490
O O13 0.401276 0.750000 0.250000
O O14 0.353009 0.685648 0.022379
O O15 0.778494 0.153729 0.538123
O O16 0.000000 0.500000 0.500000
O O17 0.298778 0.250000 0.250000
#
# Coordination Sequence:
#
# PCOD9409378 Si02
#       8
#     8   8   4   8   8   8   8   8
#     4  10  23  38  62  93 130 166 212 266 331 400
#     4  11  22  40  62  93 127 165 212 270 333 383
#     4  12  28  38  56 102 138 164 202 276 352 388
#     4  11  20  41  72  92 120 171 228 279 320 396
#     4  10  21  42  65  92 122 170 220 275 326 391
#     4  11  24  40  65  94 128 167 226 270 327 399
#     4  11  22  38  66  96 127 166 219 269 332 399
#     4  10  19  41  68  93 117 165 229 271 312 384
#
# _framework density 19.42886
#
# number of rings (size 3 to 8) (size 9 to 14) (size 15 to 20)
#    0.000    1.333    5.333    0.400    1.867    2.667 
#    4.800    0.000    0.000    3.200    0.000    0.000 
#    0.000    0.000    0.000    0.000    0.000    0.000 
#
# Total GULP energy -334192.898177 kJ/mol
# GULP energy per Si atom -5569.881636 kJ/mol
# Density = 1.938464 g / cm^3
# Si number density = 19.428860 Si / 1000 Ang^3
#
#
#
# Elastic Constant Matrix: (Units=GPa)
#
#
# Indices 1 2 3 4 5 6 
#
# 1 95.2882 32.1175 20.5408 0.0000 0.0000 0.0000
# 2 32.1175 77.3574 25.2596 0.0000 0.0000 0.0000
# 3 20.5408 25.2596 56.2692 0.0000 0.0000 0.0000
# 4 0.0000 0.0000 0.0000 29.5099 0.0000 0.0000
# 5 0.0000 0.0000 0.0000 0.0000 17.8200 0.0000
# 6 0.0000 0.0000 0.0000 0.0000 0.0000 37.0561
#
#
#
# Elastic Compliance Matrix: (Units=1/GPa)
#
#
# Indices 1 2 3 4 5 6 
#
# 1 0.012524 -0.004343 -0.002622 0.000000 0.000000 0.000000
# 2 -0.004343 0.016654 -0.005890 0.000000 0.000000 0.000000
# 3 -0.002622 -0.005890 0.021373 0.000000 0.000000 0.000000
# 4 0.000000 0.000000 0.000000 0.033887 0.000000 0.000000
# 5 0.000000 0.000000 0.000000 0.000000 0.056117 0.000000
# 6 0.000000 0.000000 0.000000 0.000000 0.000000 0.026986
#
#
# Mechanical properties :
#
#
# Convention : Reuss Voigt Hill
#
# Bulk Modulus (GPa) = 40.25940 42.75007 41.50473
# Shear Modulus (GPa) = 24.81004 26.94367 25.87685
#
# Velocity S-wave (km/s) = 3.57735 3.72800 3.65345
# Velocity P-wave (km/s) = 6.15058 6.37038 6.26145
#
# Compressibility (1/GPa) = 0.02483892
#
# Stress axis : x y z
#
# Youngs Moduli (GPa) = 79.84886 60.04648 46.78790
#
# Poissons Ratio (x) = 0.26081 0.12267
# Poissons Ratio (y) = 0.34682 0.27560
# Poissons Ratio (z) = 0.20935 0.35370
#
# Static dielectric constant tensor:
#      x y z
#    x 1.660010 0.000000 0.000000 
#    y 0.000000 1.784100 0.000000 
#    z 0.000000 0.000000 1.685720 
# 
# From -- ./inp_files/12422.got.cif
#   From: 2010.05.17/outbox.cif.g08.bks.cpg/sg52_7_cif.got.tgz:12422.got - 2010.06.03 12:15:38.
