data_PCOD9409043
_publ_section_title
;
Structure prediction by ZEFSAII (Michael W. Deem and Ramdas Pophale) SiO2 
 PCOD9409043
Probable space group: P N N A
;
_chemical_formula_sum "Si O2"
_cell_formula_units_Z 32
_cell_length_a 26.466607
_cell_length_b 5.964009
_cell_length_c 9.583922
_cell_angle_alpha 90.000000
_cell_angle_beta 90.000000
_cell_angle_gamma 90.000000
_cell_volume 1512.794125
_symmetry_space_group_name_H-M "P N N A"
_symmetry_group_IT_number 52
_symmetry_cell_setting 'orthorhombic'
loop_
_space_group_symop_operation_xyz
x,y,z
1/2-x,-y,z
x,1/2-y,1/2-z
1/2-x,1/2+y,1/2-z
-x,-y,-z
1/2+x,y,-z
-x,1/2+y,1/2+z
1/2+x,1/2-y,1/2+z
loop_
_atom_site_type_symbol
_atom_site_label
_atom_site_fract_x
_atom_site_fract_y
_atom_site_fract_z
Si Si1 0.105233 0.750000 0.750000
Si Si2 0.368936 0.250000 0.250000
Si Si3 0.119332 0.047141 0.997902
Si Si4 0.798043 0.881750 0.610896
Si Si5 0.966029 0.624266 0.114733
O O1 0.133678 0.617947 0.628482
O O2 0.070006 0.567418 0.823674
O O3 0.395353 0.403296 0.365649
O O4 0.334791 0.422294 0.163004
O O5 0.166930 0.206899 0.029270
O O6 0.070946 0.194592 0.956567
O O7 0.779301 0.750000 0.750000
O O8 0.750000 0.000000 0.540757
O O9 0.990327 0.750000 0.250000
O O10 0.000000 0.500000 0.000000
#
# Coordination Sequence:
#
# PCOD9409043 Si02
#       5
#     4   4   8   8   8
#     4  10  22  46  62  91 134 179 216 270 324 394
#     4  10  20  38  60 105 126 165 214 274 318 396
#     4  10  22  39  67  97 128 179 216 266 336 390
#     4  10  19  35  60 101 135 165 207 272 333 381
#     4  10  23  46  67  97 131 179 222 279 334 398
#
# _framework density 21.152911
#
# number of rings (size 3 to 8) (size 9 to 14) (size 15 to 20)
#    0.000    2.000    1.250    1.500    0.000    4.000 
#   29.250    0.000    0.000    0.000  146.250    0.000 
#    0.000    0.000    0.000    0.000    0.000    0.000 
#
# Total GULP energy -178709.444405 kJ/mol
# GULP energy per Si atom -5584.670138 kJ/mol
# Density = 2.110477 g / cm^3
# Si number density = 21.152911 Si / 1000 Ang^3
#
#
#
# Elastic Constant Matrix: (Units=GPa)
#
#
# Indices 1 2 3 4 5 6 
#
# 1 68.5984 50.2473 72.7423 0.0000 0.0000 0.0000
# 2 50.2473 152.0786 88.9615 0.0000 0.0000 0.0000
# 3 72.7423 88.9615 147.6168 0.0000 0.0000 0.0000
# 4 0.0000 0.0000 0.0000 69.4642 0.0000 0.0000
# 5 0.0000 0.0000 0.0000 0.0000 17.8242 0.0000
# 6 0.0000 0.0000 0.0000 0.0000 0.0000 -6.9949
#
#
#
# Elastic Compliance Matrix: (Units=1/GPa)
#
#
# Indices 1 2 3 4 5 6 
#
# 1 0.030926 -0.002013 -0.014026 0.000000 0.000000 0.000000
# 2 -0.002013 0.010287 -0.005207 0.000000 0.000000 0.000000
# 3 -0.014026 -0.005207 0.016824 0.000000 0.000000 0.000000
# 4 0.000000 0.000000 0.000000 0.014396 0.000000 0.000000
# 5 0.000000 0.000000 0.000000 0.000000 0.056103 0.000000
# 6 0.000000 0.000000 0.000000 0.000000 0.000000 -0.142961
#
#
# Mechanical properties :
#
#
# Convention : Reuss Voigt Hill
#
# Bulk Modulus (GPa) = 64.33573 88.02180 76.17877
# Shear Modulus (GPa) = 150.37693 26.48156 88.42925
#
# Velocity S-wave (km/s) = 8.44066 3.54207 6.47267
# Velocity P-wave (km/s) = 11.20150 7.64401 9.58917
#
# Compressibility (1/GPa) = 0.01554346
#
# Stress axis : x y z
#
# Youngs Moduli (GPa) = 32.33546 97.21165 59.43714
#
# Poissons Ratio (x) = 0.19568 0.83369
# Poissons Ratio (y) = 0.06509 0.30952
# Poissons Ratio (z) = 0.45355 0.50622
#
# Static dielectric constant tensor:
#      x y z
#    x 1.738400 0.000000 0.000000 
#    y 0.000000 1.820670 0.000000 
#    z 0.000000 0.000000 1.831690 
# 
# From -- ./inp_files/15193.got.cif
#   From: 2010.05.17/outbox.cif.g08.bks.cpg/sg52_8_cif.got.tgz:15193.got - 2010.06.03 12:15:38.
