data_PCOD9409213
_publ_section_title
;
Structure prediction by ZEFSAII (Michael W. Deem and Ramdas Pophale) SiO2 
 PCOD9409213
Probable space group: P N N A
;
_chemical_formula_sum "Si O2"
_cell_formula_units_Z 56
_cell_length_a 22.631228
_cell_length_b 10.559515
_cell_length_c 11.506399
_cell_angle_alpha 90.000000
_cell_angle_beta 90.000000
_cell_angle_gamma 90.000000
_cell_volume 2749.739302
_symmetry_space_group_name_H-M "P N N A"
_symmetry_group_IT_number 52
_symmetry_cell_setting 'orthorhombic'
loop_
_space_group_symop_operation_xyz
x,y,z
1/2-x,-y,z
x,1/2-y,1/2-z
1/2-x,1/2+y,1/2-z
-x,-y,-z
1/2+x,y,-z
-x,1/2+y,1/2+z
1/2+x,1/2-y,1/2+z
loop_
_atom_site_type_symbol
_atom_site_label
_atom_site_fract_x
_atom_site_fract_y
_atom_site_fract_z
Si Si1 0.348350 0.566778 0.638008
Si Si2 0.726722 0.808224 0.124750
Si Si3 0.582857 0.046425 0.379113
Si Si4 0.063147 0.549736 0.465328
Si Si5 0.524418 0.835212 0.507155
Si Si6 0.310134 0.072059 0.478563
Si Si7 0.892555 0.104508 0.716572
O O1 0.308403 0.439429 0.636054
O O2 0.297963 0.672487 0.616747
O O3 0.391056 0.580332 0.751709
O O4 0.391340 0.537997 0.532653
O O5 0.716054 0.750000 0.250000
O O6 0.700128 0.715196 0.026232
O O7 0.543647 0.153181 0.447438
O O8 0.540482 0.921167 0.395038
O O9 0.641101 0.000723 0.446024
O O10 0.055416 0.698195 0.501205
O O11 0.081553 0.541517 0.331013
O O12 0.000000 0.500000 0.500000
O O13 0.559027 0.898529 0.615235
O O14 0.332633 0.062878 0.346144
O O15 0.250000 0.000000 0.496241
O O16 0.883854 0.250000 0.750000
#
# Coordination Sequence:
#
# PCOD9409213 Si02
#       7
#     8   8   8   8   8   8   8
#     4  11  23  37  61  91 125 159 201 270 321 373
#     4  11  22  38  60  93 123 160 210 257 328 381
#     4  10  19  37  62  90 117 155 207 263 312 381
#     4  11  23  38  58  89 126 163 204 260 319 379
#     4   9  20  36  63  87 116 163 210 249 319 385
#     4  11  22  39  62  85 122 164 208 256 308 377
#     4   9  19  40  60  81 114 163 209 243 298 371
#
# _framework density 20.365566000000001
#
# number of rings (size 3 to 8) (size 9 to 14) (size 15 to 20)
#    0.000    1.714    1.429    4.286    0.000    2.286 
#    5.143    0.000    0.000    1.714    0.000    0.000 
#    0.000    0.000    0.000    0.000    0.000    0.000 
#
# Total GULP energy -311861.868183 kJ/mol
# GULP energy per Si atom -5568.961932 kJ/mol
# Density = 2.031921 g / cm^3
# Si number density = 20.365566 Si / 1000 Ang^3
#
#
#
# Elastic Constant Matrix: (Units=GPa)
#
#
# Indices 1 2 3 4 5 6 
#
# 1 95.1589 1.5222 10.9668 0.0000 0.0000 0.0000
# 2 1.5222 30.0137 0.4467 0.0000 0.0000 0.0000
# 3 10.9668 0.4467 71.6032 0.0000 0.0000 0.0000
# 4 0.0000 0.0000 0.0000 13.2363 0.0000 0.0000
# 5 0.0000 0.0000 0.0000 0.0000 36.2544 0.0000
# 6 0.0000 0.0000 0.0000 0.0000 0.0000 26.5333
#
#
#
# Elastic Compliance Matrix: (Units=1/GPa)
#
#
# Indices 1 2 3 4 5 6 
#
# 1 0.010706 -0.000519 -0.001636 0.000000 0.000000 0.000000
# 2 -0.000519 0.033346 -0.000129 0.000000 0.000000 0.000000
# 3 -0.001636 -0.000129 0.014217 0.000000 0.000000 0.000000
# 4 0.000000 0.000000 0.000000 0.075550 0.000000 0.000000
# 5 0.000000 0.000000 0.000000 0.000000 0.027583 0.000000
# 6 0.000000 0.000000 0.000000 0.000000 0.000000 0.037688
#
#
# Mechanical properties :
#
#
# Convention : Reuss Voigt Hill
#
# Bulk Modulus (GPa) = 18.62127 24.73857 21.67992
# Shear Modulus (GPa) = 22.56741 27.46080 25.01411
#
# Velocity S-wave (km/s) = 3.33245 3.67603 3.50845
# Velocity P-wave (km/s) = 4.89595 5.49466 5.20392
#
# Compressibility (1/GPa) = 0.05370203
#
# Stress axis : x y z
#
# Youngs Moduli (GPa) = 93.40874 29.98826 70.33688
#
# Poissons Ratio (x) = 0.01555 0.11510
# Poissons Ratio (y) = 0.04844 0.00904
# Poissons Ratio (z) = 0.15286 0.00386
#
# Static dielectric constant tensor:
#      x y z
#    x 1.801310 0.000000 0.000000 
#    y 0.000000 1.818850 0.000000 
#    z 0.000000 0.000000 1.752090 
# 
# From -- ./inp_files/21696.got.cif
#   From: 2010.05.17/outbox.cif.g08.bks.cpg/sg52_11_cif.got.tgz:21696.got - 2010.06.03 12:15:38.
