data_PCOD9409893
_publ_section_title
;
Structure prediction by ZEFSAII (Michael W. Deem and Ramdas Pophale) SiO2 
 PCOD9409893
Probable space group: P N N A
;
_chemical_formula_sum "Si O2"
_cell_formula_units_Z 60
_cell_length_a 29.365920
_cell_length_b 7.667282
_cell_length_c 12.605798
_cell_angle_alpha 90.000000
_cell_angle_beta 90.000000
_cell_angle_gamma 90.000000
_cell_volume 2838.281011
_symmetry_space_group_name_H-M "P N N A"
_symmetry_group_IT_number 52
_symmetry_cell_setting 'orthorhombic'
loop_
_space_group_symop_operation_xyz
x,y,z
1/2-x,-y,z
x,1/2-y,1/2-z
1/2-x,1/2+y,1/2-z
-x,-y,-z
1/2+x,y,-z
-x,1/2+y,1/2+z
1/2+x,1/2-y,1/2+z
loop_
_atom_site_type_symbol
_atom_site_label
_atom_site_fract_x
_atom_site_fract_y
_atom_site_fract_z
Si Si1 0.582676 0.203705 0.370677
Si Si2 0.660681 0.735321 0.470936
Si Si3 0.928371 0.287042 0.134867
Si Si4 0.607197 0.890391 0.664695
Si Si5 0.245387 0.290837 0.627211
Si Si6 0.513912 0.814276 0.552140
Si Si7 0.836485 0.666787 0.519322
Si Si8 0.862665 0.750000 0.750000
O O1 0.596045 0.250000 0.250000
O O2 0.531053 0.264620 0.395993
O O3 0.616948 0.277110 0.459358
O O4 0.580050 0.993943 0.376830
O O5 0.621476 0.708117 0.382874
O O6 0.639018 0.862031 0.560510
O O7 0.707684 0.791260 0.416409
O O8 0.667658 0.542872 0.518486
O O9 0.947019 0.250000 0.250000
O O10 0.962375 0.215825 0.045656
O O11 0.623229 0.750000 0.750000
O O12 0.555552 0.847593 0.631482
O O13 0.608974 0.078521 0.719064
O O14 0.250000 0.500000 0.621889
O O15 0.237001 0.250000 0.750000
O O16 0.203548 0.248848 0.550340
O O17 0.500000 0.000000 0.500000
O O18 0.835131 0.718608 0.642060
#
# Coordination Sequence:
#
# PCOD9409893 Si02
#       8
#     8   8   8   8   8   8   8   4
#     4  11  22  40  60  89 128 165 215 275 325 386
#     4  10  21  42  65  93 130 168 221 268 336 395
#     4  10  20  37  59  87 122 167 206 260 326 389
#     4  11  22  43  67  94 131 179 219 274 332 396
#     4  10  23  41  66  97 131 170 220 274 331 399
#     4   9  20  39  59  88 130 165 220 269 324 392
#     4  11  23  42  63  97 129 171 219 275 333 401
#     4  12  24  42  68  98 132 176 224 268 338 394
#
# _framework density 21.139557
#
# number of rings (size 3 to 8) (size 9 to 14) (size 15 to 20)
#    0.000    1.600    1.333    4.400    0.000    4.267 
#   12.000    3.333    0.000    0.000    0.000    0.000 
#    0.000    0.000    0.000    0.000    0.000    0.000 
#
# Total GULP energy -335052.768483 kJ/mol
# GULP energy per Si atom -5584.212808 kJ/mol
# Density = 2.109144 g / cm^3
# Si number density = 21.139557 Si / 1000 Ang^3
#
#
#
# Elastic Constant Matrix: (Units=GPa)
#
#
# Indices 1 2 3 4 5 6 
#
# 1 126.4317 -1.4687 66.2438 0.0000 0.0000 0.0000
# 2 -1.4687 58.1034 24.3699 0.0000 0.0000 0.0000
# 3 66.2438 24.3699 172.0066 0.0000 0.0000 0.0000
# 4 0.0000 0.0000 0.0000 34.5114 0.0000 0.0000
# 5 0.0000 0.0000 0.0000 0.0000 11.9378 0.0000
# 6 0.0000 0.0000 0.0000 0.0000 0.0000 13.6046
#
#
#
# Elastic Compliance Matrix: (Units=1/GPa)
#
#
# Indices 1 2 3 4 5 6 
#
# 1 0.010125 0.002011 -0.004184 0.000000 0.000000 0.000000
# 2 0.002011 0.018697 -0.003424 0.000000 0.000000 0.000000
# 3 -0.004184 -0.003424 0.007910 0.000000 0.000000 0.000000
# 4 0.000000 0.000000 0.000000 0.028976 0.000000 0.000000
# 5 0.000000 0.000000 0.000000 0.000000 0.083767 0.000000
# 6 0.000000 0.000000 0.000000 0.000000 0.000000 0.073504
#
#
# Mechanical properties :
#
#
# Convention : Reuss Voigt Hill
#
# Bulk Modulus (GPa) = 39.15577 59.42575 49.29076
# Shear Modulus (GPa) = 20.60264 29.83722 25.21993
#
# Velocity S-wave (km/s) = 3.12525 3.76099 3.45776
# Velocity P-wave (km/s) = 5.62011 6.85801 6.26968
#
# Compressibility (1/GPa) = 0.02553902
#
# Stress axis : x y z
#
# Youngs Moduli (GPa) = 98.76392 53.48328 126.41799
#
# Poissons Ratio (x) = -0.10755 0.52898
# Poissons Ratio (y) = -0.19861 0.43279
# Poissons Ratio (z) = 0.41326 0.18310
#
# Static dielectric constant tensor:
#      x y z
#    x 1.795720 0.000000 0.000000 
#    y 0.000000 1.797220 0.000000 
#    z 0.000000 0.000000 1.775460 
# 
# From -- ./inp_files/23145.got.cif
#   From: 2010.05.17/outbox.cif.g08.bks.cpg/sg52_12_cif.got.tgz:23145.got - 2010.06.03 12:15:38.
