data_PCOD9409108
_publ_section_title
;
Structure prediction by ZEFSAII (Michael W. Deem and Ramdas Pophale) SiO2 
 PCOD9409108
Probable space group: P N N A
;
_chemical_formula_sum "Si O2"
_cell_formula_units_Z 40
_cell_length_a 15.289343
_cell_length_b 8.964372
_cell_length_c 13.330676
_cell_angle_alpha 90.000000
_cell_angle_beta 90.000000
_cell_angle_gamma 90.000000
_cell_volume 1827.093898
_symmetry_space_group_name_H-M "P N N A"
_symmetry_group_IT_number 52
_symmetry_cell_setting 'orthorhombic'
loop_
_space_group_symop_operation_xyz
x,y,z
1/2-x,-y,z
x,1/2-y,1/2-z
1/2-x,1/2+y,1/2-z
-x,-y,-z
1/2+x,y,-z
-x,1/2+y,1/2+z
1/2+x,1/2-y,1/2+z
loop_
_atom_site_type_symbol
_atom_site_label
_atom_site_fract_x
_atom_site_fract_y
_atom_site_fract_z
Si Si1 0.789587 0.662561 0.148600
Si Si2 0.050746 0.307836 0.136890
Si Si3 0.013874 0.398837 0.795948
Si Si4 0.437219 0.439967 0.588679
Si Si5 0.300087 0.627327 0.479607
O O1 0.750000 0.500000 0.152853
O O2 0.765903 0.750000 0.250000
O O3 0.756198 0.750031 0.051077
O O4 0.896389 0.650762 0.148770
O O5 0.060990 0.250000 0.250000
O O6 0.042782 0.486568 0.138318
O O7 0.960058 0.234536 0.096590
O O8 0.129338 0.225800 0.079765
O O9 0.970259 0.250000 0.750000
O O10 0.041187 0.491849 0.697115
O O11 0.500000 0.500000 0.500000
O O12 0.346798 0.512830 0.557028
O O13 0.250000 0.500000 0.414768
#
# Coordination Sequence:
#
# PCOD9409108 Si02
#       5
#     8   8   8   8   8
#     4  11  23  36  56  87 129 163 200 257 326 391
#     4   9  21  39  64  89 117 163 213 258 314 366
#     4  10  19  36  58  88 124 158 207 262 319 366
#     4   9  18  36  57  87 115 156 205 256 310 370
#     4  11  22  39  59  90 126 166 213 253 320 382
#
# _framework density 21.892692
#
# number of rings (size 3 to 8) (size 9 to 14) (size 15 to 20)
#    0.000    2.000    4.000    0.600    2.800    1.600 
#    0.000    3.000    0.000    4.800    0.000    0.000 
#    0.000    0.000    0.000    0.000    0.000    0.000 
#
# Total GULP energy -222872.921255 kJ/mol
# GULP energy per Si atom -5571.823031 kJ/mol
# Density = 2.184286 g / cm^3
# Si number density = 21.892692 Si / 1000 Ang^3
#
#
#
# Elastic Constant Matrix: (Units=GPa)
#
#
# Indices 1 2 3 4 5 6 
#
# 1 42.1469 45.8313 12.5645 0.0000 0.0000 0.0000
# 2 45.8313 202.3706 22.7536 0.0000 0.0000 0.0000
# 3 12.5645 22.7536 51.5649 0.0000 0.0000 0.0000
# 4 0.0000 0.0000 0.0000 33.3008 0.0000 0.0000
# 5 0.0000 0.0000 0.0000 0.0000 -0.1088 0.0000
# 6 0.0000 0.0000 0.0000 0.0000 0.0000 39.6189
#
#
#
# Elastic Compliance Matrix: (Units=1/GPa)
#
#
# Indices 1 2 3 4 5 6 
#
# 1 0.032630 -0.006835 -0.004935 0.000000 0.000000 0.000000
# 2 -0.006835 0.006631 -0.001261 0.000000 0.000000 0.000000
# 3 -0.004935 -0.001261 0.021152 0.000000 0.000000 0.000000
# 4 0.000000 0.000000 0.000000 0.030029 0.000000 0.000000
# 5 0.000000 0.000000 0.000000 0.000000 -9.194083 0.000000
# 6 0.000000 0.000000 0.000000 0.000000 0.000000 0.025240
#
#
# Mechanical properties :
#
#
# Convention : Reuss Voigt Hill
#
# Bulk Modulus (GPa) = 29.11016 50.93124 40.02070
# Shear Modulus (GPa) = -0.55304 28.89106 14.16901
#
# Velocity S-wave (km/s) = -0.50315 3.63666 2.54678
# Velocity P-wave (km/s) = 3.60390 6.39909 5.19309
#
# Compressibility (1/GPa) = 0.03435226
#
# Stress axis : x y z
#
# Youngs Moduli (GPa) = 30.64657 150.80462 47.27745
#
# Poissons Ratio (x) = 1.03074 0.23330
# Poissons Ratio (y) = 0.20947 0.05960
# Poissons Ratio (z) = 0.15123 0.19011
#
# Static dielectric constant tensor:
#      x y z
#    x 1.988160 0.000000 0.000000 
#    y 0.000000 -1.600590 0.000000 
#    z 0.000000 0.000000 1.810030 
# 
# From -- ./inp_files/26905.got.cif
#   From: 2010.05.17/outbox.cif.g08.bks.cpg/sg52_14_cif.got.tgz:26905.got - 2010.06.03 12:15:38.
