data_PCOD9409277
_publ_section_title
;
Structure prediction by ZEFSAII (Michael W. Deem and Ramdas Pophale) SiO2 
 PCOD9409277
Probable space group: P N N A
;
_chemical_formula_sum "Si O2"
_cell_formula_units_Z 52
_cell_length_a 14.110614
_cell_length_b 19.104356
_cell_length_c 8.551251
_cell_angle_alpha 90.000000
_cell_angle_beta 90.000000
_cell_angle_gamma 90.000000
_cell_volume 2305.196589
_symmetry_space_group_name_H-M "P N N A"
_symmetry_group_IT_number 52
_symmetry_cell_setting 'orthorhombic'
loop_
_space_group_symop_operation_xyz
x,y,z
1/2-x,-y,z
x,1/2-y,1/2-z
1/2-x,1/2+y,1/2-z
-x,-y,-z
1/2+x,y,-z
-x,1/2+y,1/2+z
1/2+x,1/2-y,1/2+z
loop_
_atom_site_type_symbol
_atom_site_label
_atom_site_fract_x
_atom_site_fract_y
_atom_site_fract_z
Si Si1 0.585509 0.416151 0.155490
Si Si2 0.319364 0.250000 0.250000
Si Si3 0.947472 0.176019 0.262011
Si Si4 0.348056 0.850200 0.367210
Si Si5 0.153219 0.501375 0.287578
Si Si6 0.043421 0.868183 0.091487
Si Si7 0.112768 0.559814 0.965478
O O1 0.553306 0.374293 0.307812
O O2 0.619730 0.496180 0.157825
O O3 0.656229 0.374106 0.046363
O O4 0.491153 0.428613 0.046908
O O5 0.243158 0.196385 0.328737
O O6 0.389242 0.194774 0.158978
O O7 0.899104 0.250000 0.250000
O O8 0.880053 0.128509 0.365984
O O9 0.050220 0.187463 0.344158
O O10 0.965528 0.144507 0.091300
O O11 0.365145 0.921500 0.263415
O O12 0.250000 0.500000 0.381950
O O13 0.083075 0.552992 0.376390
O O14 0.170188 0.541876 0.121242
#
# Coordination Sequence:
#
# PCOD9409277 Si02
#       7
#     8   4   8   8   8   8   8
#     4   8  17  37  63  85 107 153 210 245 275 361
#     4  12  24  36  62  94 124 156 192 250 316 366
#     4  11  23  37  60  86 124 162 198 253 307 352
#     4  10  21  40  64  84 120 162 199 242 311 363
#     4  10  19  38  64  88 118 158 206 254 297 360
#     4  11  24  36  63  94 118 154 211 255 292 360
#     4   8  17  34  59  86 111 155 202 237 292 360
#
# _framework density 22.557728999999998
#
# number of rings (size 3 to 8) (size 9 to 14) (size 15 to 20)
#    0.000    2.154    2.308    2.769    6.462    2.462 
#    0.000    0.769   10.154    0.000    0.000    0.000 
#    0.000    0.000    0.000    0.000    0.000    0.000 
#
# Total GULP energy -289520.535322 kJ/mol
# GULP energy per Si atom -5567.702602 kJ/mol
# Density = 2.250639 g / cm^3
# Si number density = 22.557729 Si / 1000 Ang^3
#
#
#
# Elastic Constant Matrix: (Units=GPa)
#
#
# Indices 1 2 3 4 5 6 
#
# 1 45.9174 6.1815 -2.1232 0.0000 0.0000 0.0000
# 2 6.1815 132.5451 24.3658 0.0000 0.0000 0.0000
# 3 -2.1232 24.3658 46.2536 0.0000 0.0000 0.0000
# 4 0.0000 0.0000 0.0000 29.1638 0.0000 0.0000
# 5 0.0000 0.0000 0.0000 0.0000 15.1287 0.0000
# 6 0.0000 0.0000 0.0000 0.0000 0.0000 17.6645
#
#
#
# Elastic Compliance Matrix: (Units=1/GPa)
#
#
# Indices 1 2 3 4 5 6 
#
# 1 0.022039 -0.001344 0.001720 0.000000 0.000000 0.000000
# 2 -0.001344 0.008436 -0.004505 0.000000 0.000000 0.000000
# 3 0.001720 -0.004505 0.024072 0.000000 0.000000 0.000000
# 4 0.000000 0.000000 0.000000 0.034289 0.000000 0.000000
# 5 0.000000 0.000000 0.000000 0.000000 0.066099 0.000000
# 6 0.000000 0.000000 0.000000 0.000000 0.000000 0.056611
#
#
# Mechanical properties :
#
#
# Convention : Reuss Voigt Hill
#
# Bulk Modulus (GPa) = 21.60431 31.28491 26.44461
# Shear Modulus (GPa) = 21.25541 25.47753 23.36647
#
# Velocity S-wave (km/s) = 3.07297 3.36436 3.22196
# Velocity P-wave (km/s) = 4.71052 5.38431 5.05864
#
# Compressibility (1/GPa) = 0.04628705
#
# Stress axis : x y z
#
# Youngs Moduli (GPa) = 45.37481 118.54650 41.54152
#
# Poissons Ratio (x) = 0.15932 -0.07144
# Poissons Ratio (y) = 0.06098 0.18716
# Poissons Ratio (z) = -0.07803 0.53410
#
# Static dielectric constant tensor:
#      x y z
#    x 1.950100 0.000000 0.000000 
#    y 0.000000 1.963620 0.000000 
#    z 0.000000 0.000000 1.838430 
# 
# From -- ./inp_files/12358.got.cif
#   From: 2010.05.17/outbox.cif.g08.bks.cpg/sg52_7_cif.got.tgz:12358.got - 2010.06.03 12:15:38.
