data_PCOD9409533
_publ_section_title
;
Structure prediction by ZEFSAII (Michael W. Deem and Ramdas Pophale) SiO2 
 PCOD9409533
Probable space group: P N N A
;
_chemical_formula_sum "Si O2"
_cell_formula_units_Z 28
_cell_length_a 21.012843
_cell_length_b 5.128032
_cell_length_c 12.311027
_cell_angle_alpha 90.000000
_cell_angle_beta 90.000000
_cell_angle_gamma 90.000000
_cell_volume 1326.568944
_symmetry_space_group_name_H-M "P N N A"
_symmetry_group_IT_number 52
_symmetry_cell_setting 'orthorhombic'
loop_
_space_group_symop_operation_xyz
x,y,z
1/2-x,-y,z
x,1/2-y,1/2-z
1/2-x,1/2+y,1/2-z
-x,-y,-z
1/2+x,y,-z
-x,1/2+y,1/2+z
1/2+x,1/2-y,1/2+z
loop_
_atom_site_type_symbol
_atom_site_label
_atom_site_fract_x
_atom_site_fract_y
_atom_site_fract_z
Si Si1 0.821498 0.602496 0.987589
Si Si2 0.018558 0.005786 0.177214
Si Si3 0.896566 0.410394 0.464185
Si Si4 0.291908 0.750000 0.250000
O O1 0.750000 0.500000 0.006644
O O2 0.826705 0.645848 0.857104
O O3 0.869048 0.378937 0.027442
O O4 0.840719 0.875477 0.041701
O O5 0.037363 0.250000 0.250000
O O6 0.948036 0.055826 0.130180
O O7 0.019716 0.750000 0.250000
O O8 0.065170 0.969083 0.075374
O O9 0.250000 0.500000 0.287531
#
# Coordination Sequence:
#
# PCOD9409533 Si02
#       4
#     8   8   8   4
#     4  11  22  38  60  90 130 161 195 250 301 373
#     4  11  24  43  65  89 121 160 207 262 301 349
#     4  11  24  40  64  94 119 163 208 242 312 367
#     4  10  20  34  52  86 126 164 198 228 298 372
#
# _framework density 21.107082999999999
#
# number of rings (size 3 to 8) (size 9 to 14) (size 15 to 20)
#    0.000    1.143    0.000    7.714    6.000    4.571 
#    0.000    0.000    0.000   17.143    0.000    0.000 
#    0.000    0.000    0.000    0.000    0.000    0.000 
#
# Total GULP energy -156701.058281 kJ/mol
# GULP energy per Si atom -5596.466367 kJ/mol
# Density = 2.105904 g / cm^3
# Si number density = 21.107083 Si / 1000 Ang^3
#
#
#
# Elastic Constant Matrix: (Units=GPa)
#
#
# Indices 1 2 3 4 5 6 
#
# 1 69.8527 7.0351 10.1523 0.0000 0.0000 0.0000
# 2 7.0351 138.6254 23.9649 0.0000 0.0000 0.0000
# 3 10.1523 23.9649 33.2655 0.0000 0.0000 0.0000
# 4 0.0000 0.0000 0.0000 0.4827 0.0000 0.0000
# 5 0.0000 0.0000 0.0000 0.0000 7.2607 0.0000
# 6 0.0000 0.0000 0.0000 0.0000 0.0000 47.2775
#
#
#
# Elastic Compliance Matrix: (Units=1/GPa)
#
#
# Indices 1 2 3 4 5 6 
#
# 1 0.014980 0.000034 -0.004597 0.000000 0.000000 0.000000
# 2 0.000034 0.008240 -0.005947 0.000000 0.000000 0.000000
# 3 -0.004597 -0.005947 0.035748 0.000000 0.000000 0.000000
# 4 0.000000 0.000000 0.000000 2.071625 0.000000 0.000000
# 5 0.000000 0.000000 0.000000 0.000000 0.137728 0.000000
# 6 0.000000 0.000000 0.000000 0.000000 0.000000 0.021152
#
#
# Mechanical properties :
#
#
# Convention : Reuss Voigt Hill
#
# Bulk Modulus (GPa) = 26.35006 36.00537 31.17771
# Shear Modulus (GPa) = 2.15226 24.37692 13.26459
#
# Velocity S-wave (km/s) = 1.01089 3.40209 2.50960
# Velocity P-wave (km/s) = 3.72473 5.70331 4.81671
#
# Compressibility (1/GPa) = 0.03795058
#
# Stress axis : x y z
#
# Youngs Moduli (GPa) = 66.75362 121.35968 27.97354
#
# Poissons Ratio (x) = -0.00418 0.12859
# Poissons Ratio (y) = -0.00230 0.16635
# Poissons Ratio (z) = 0.30685 0.72169
#
# Static dielectric constant tensor:
#      x y z
#    x 1.788480 0.000000 0.000000 
#    y 0.000000 1.716440 0.000000 
#    z 0.000000 0.000000 1.720220 
# 
# From -- ./inp_files/21091.got.cif
#   From: 2010.05.17/outbox.cif.g08.bks.cpg/sg52_11_cif.got.tgz:21091.got - 2010.06.03 12:15:38.
