data_PCOD9409608
_publ_section_title
;
Structure prediction by ZEFSAII (Michael W. Deem and Ramdas Pophale) SiO2 
 PCOD9409608
Probable space group: P N N A
;
_chemical_formula_sum "Si O2"
_cell_formula_units_Z 56
_cell_length_a 10.171202
_cell_length_b 16.689147
_cell_length_c 13.944915
_cell_angle_alpha 90.000000
_cell_angle_beta 90.000000
_cell_angle_gamma 90.000000
_cell_volume 2367.130988
_symmetry_space_group_name_H-M "P N N A"
_symmetry_group_IT_number 52
_symmetry_cell_setting 'orthorhombic'
loop_
_space_group_symop_operation_xyz
x,y,z
1/2-x,-y,z
x,1/2-y,1/2-z
1/2-x,1/2+y,1/2-z
-x,-y,-z
1/2+x,y,-z
-x,1/2+y,1/2+z
1/2+x,1/2-y,1/2+z
loop_
_atom_site_type_symbol
_atom_site_label
_atom_site_fract_x
_atom_site_fract_y
_atom_site_fract_z
Si Si1 0.501454 0.669983 0.814981
Si Si2 0.133932 0.272617 0.354083
Si Si3 0.886521 0.163262 0.367448
Si Si4 0.121800 0.552923 0.045178
Si Si5 0.427997 0.084407 0.833408
Si Si6 0.825877 0.761090 0.054247
Si Si7 0.875498 0.588604 0.358686
O O1 0.532967 0.750000 0.750000
O O2 0.599109 0.602488 0.855868
O O3 0.429727 0.694681 0.913420
O O4 0.399091 0.623954 0.746842
O O5 0.189089 0.250000 0.250000
O O6 0.226741 0.267774 0.446340
O O7 0.029004 0.202432 0.372887
O O8 0.046483 0.353976 0.353571
O O9 0.846544 0.115376 0.460889
O O10 0.893333 0.103799 0.277563
O O11 0.789402 0.240713 0.369274
O O12 0.250000 0.500000 0.059593
O O13 0.000000 0.500000 0.000000
O O14 0.281183 0.086425 0.879467
O O15 0.458650 0.992403 0.859298
O O16 0.912753 0.841081 0.069546
#
# Coordination Sequence:
#
# PCOD9409608 Si02
#       7
#     8   8   8   8   8   8   8
#     4  10  21  39  64  95 132 180 219 272 351 437
#     4  10  22  38  61  90 128 169 229 276 341 408
#     4  11  21  37  62  91 130 167 220 285 349 401
#     4  12  26  42  68 104 138 179 230 297 361 422
#     4  10  20  35  58  98 125 163 221 302 334 391
#     4  11  20  38  63  93 125 179 221 278 345 419
#     4  10  20  34  64  91 131 163 226 284 345 394
#
# _framework density 23.657330999999999
#
# number of rings (size 3 to 8) (size 9 to 14) (size 15 to 20)
#    0.000    1.429    4.286    1.714    2.000    0.571 
#    0.000    0.714    0.000    0.000    3.714    0.000 
#    0.000    0.000    0.000    0.000    0.000    0.000 
#
# Total GULP energy -311793.324047 kJ/mol
# GULP energy per Si atom -5567.737929 kJ/mol
# Density = 2.360349 g / cm^3
# Si number density = 23.657331 Si / 1000 Ang^3
#
#
#
# Elastic Constant Matrix: (Units=GPa)
#
#
# Indices 1 2 3 4 5 6 
#
# 1 57.1604 1.4476 -4.2166 0.0000 0.0000 0.0000
# 2 1.4476 85.1261 2.7231 0.0000 0.0000 0.0000
# 3 -4.2166 2.7231 103.4634 0.0000 0.0000 0.0000
# 4 0.0000 0.0000 0.0000 19.0947 0.0000 0.0000
# 5 0.0000 0.0000 0.0000 0.0000 3.4064 0.0000
# 6 0.0000 0.0000 0.0000 0.0000 0.0000 13.7177
#
#
#
# Elastic Compliance Matrix: (Units=1/GPa)
#
#
# Indices 1 2 3 4 5 6 
#
# 1 0.017556 -0.000322 0.000724 0.000000 0.000000 0.000000
# 2 -0.000322 0.011763 -0.000323 0.000000 0.000000 0.000000
# 3 0.000724 -0.000323 0.009703 0.000000 0.000000 0.000000
# 4 0.000000 0.000000 0.000000 0.052371 0.000000 0.000000
# 5 0.000000 0.000000 0.000000 0.000000 0.293564 0.000000
# 6 0.000000 0.000000 0.000000 0.000000 0.000000 0.072899
#
#
# Mechanical properties :
#
#
# Convention : Reuss Voigt Hill
#
# Bulk Modulus (GPa) = 25.52221 27.29535 26.40878
# Shear Modulus (GPa) = 10.62119 23.63014 17.12567
#
# Velocity S-wave (km/s) = 2.12117 3.16389 2.69347
# Velocity P-wave (km/s) = 4.10010 4.99097 4.56731
#
# Compressibility (1/GPa) = 0.03918157
#
# Stress axis : x y z
#
# Youngs Moduli (GPa) = 56.96004 85.01178 103.05826
#
# Poissons Ratio (x) = 0.02735 -0.07461
# Poissons Ratio (y) = 0.01832 0.03326
# Poissons Ratio (z) = -0.04124 0.02743
#
# Static dielectric constant tensor:
#      x y z
#    x 1.952410 0.000000 0.000000 
#    y 0.000000 2.194370 0.000000 
#    z 0.000000 0.000000 1.941060 
# 
# From -- ./inp_files/26144.got.cif
#   From: 2010.05.17/outbox.cif.g08.bks.cpg/sg52_14_cif.got.tgz:26144.got - 2010.06.03 12:15:38.
