data_PCOD9409686
_publ_section_title
;
Structure prediction by ZEFSAII (Michael W. Deem and Ramdas Pophale) SiO2 
 PCOD9409686
Probable space group: P N N A
;
_chemical_formula_sum "Si O2"
_cell_formula_units_Z 44
_cell_length_a 9.825807
_cell_length_b 23.781266
_cell_length_c 8.016534
_cell_angle_alpha 90.000000
_cell_angle_beta 90.000000
_cell_angle_gamma 90.000000
_cell_volume 1873.224541
_symmetry_space_group_name_H-M "P N N A"
_symmetry_group_IT_number 52
_symmetry_cell_setting 'orthorhombic'
loop_
_space_group_symop_operation_xyz
x,y,z
1/2-x,-y,z
x,1/2-y,1/2-z
1/2-x,1/2+y,1/2-z
-x,-y,-z
1/2+x,y,-z
-x,1/2+y,1/2+z
1/2+x,1/2-y,1/2+z
loop_
_atom_site_type_symbol
_atom_site_label
_atom_site_fract_x
_atom_site_fract_y
_atom_site_fract_z
Si Si1 0.042465 0.172116 0.362240
Si Si2 0.163000 0.157945 0.852360
Si Si3 0.065612 0.793971 0.976865
Si Si4 0.750000 0.500000 0.073937
Si Si5 0.881124 0.971635 0.097317
Si Si6 0.293125 0.376048 0.002274
O O1 0.954428 0.130564 0.478854
O O2 0.996579 0.167313 0.171205
O O3 0.985351 0.232048 0.426550
O O4 0.202812 0.160224 0.370872
O O5 0.273603 0.194133 0.959464
O O6 0.136066 0.094768 0.913305
O O7 0.229931 0.148404 0.671545
O O8 0.017064 0.188535 0.859037
O O9 0.873211 0.509352 0.207819
O O10 0.735474 0.557994 0.977371
O O11 0.750000 0.000000 0.018053
O O12 0.000000 0.000000 0.000000
#
# Coordination Sequence:
#
# PCOD9409686 Si02
#       6
#     8   8   8   4   8   8
#     4  10  22  37  59  79 118 152 194 234 294 345
#     4  10  20  35  61  82 117 147 191 239 299 334
#     4  10  21  37  55  88 112 150 193 245 283 352
#     4   8  20  36  60  82 118 150 196 238 290 350
#     4   9  17  31  55  85 114 148 185 239 285 345
#     4  10  21  40  59  83 115 159 188 241 290 351
#
# _framework density 23.488907000000001
#
# number of rings (size 3 to 8) (size 9 to 14) (size 15 to 20)
#    0.545    1.818    0.000    2.182    2.545    4.364 
#    0.000    0.000    2.000    0.000    0.000    0.000 
#    0.000    0.000    0.000    0.000    0.000    0.000 
#
# Total GULP energy -245402.045544 kJ/mol
# GULP energy per Si atom -5577.319217 kJ/mol
# Density = 2.343545 g / cm^3
# Si number density = 23.488907 Si / 1000 Ang^3
#
#
#
# Elastic Constant Matrix: (Units=GPa)
#
#
# Indices 1 2 3 4 5 6 
#
# 1 77.7916 -2.0916 -2.2058 0.0000 0.0000 0.0000
# 2 -2.0916 64.2735 6.8105 0.0000 0.0000 0.0000
# 3 -2.2058 6.8105 27.1435 0.0000 0.0000 0.0000
# 4 0.0000 0.0000 0.0000 18.8836 0.0000 0.0000
# 5 0.0000 0.0000 0.0000 0.0000 27.4331 0.0000
# 6 0.0000 0.0000 0.0000 0.0000 0.0000 28.1094
#
#
#
# Elastic Compliance Matrix: (Units=1/GPa)
#
#
# Indices 1 2 3 4 5 6 
#
# 1 0.012891 0.000317 0.000968 0.000000 0.000000 0.000000
# 2 0.000317 0.015991 -0.003987 0.000000 0.000000 0.000000
# 3 0.000968 -0.003987 0.037920 0.000000 0.000000 0.000000
# 4 0.000000 0.000000 0.000000 0.052956 0.000000 0.000000
# 5 0.000000 0.000000 0.000000 0.000000 0.036452 0.000000
# 6 0.000000 0.000000 0.000000 0.000000 0.000000 0.035575
#
#
# Mechanical properties :
#
#
# Convention : Reuss Voigt Hill
#
# Bulk Modulus (GPa) = 16.28691 19.35943 17.82317
# Shear Modulus (GPa) = 22.97209 25.99824 24.48517
#
# Velocity S-wave (km/s) = 3.13069 3.33052 3.23215
# Velocity P-wave (km/s) = 4.47406 4.80100 4.64041
#
# Compressibility (1/GPa) = 0.06139901
#
# Stress axis : x y z
#
# Youngs Moduli (GPa) = 77.57453 62.53423 26.37121
#
# Poissons Ratio (x) = -0.01982 -0.02553
# Poissons Ratio (y) = -0.02458 0.10513
# Poissons Ratio (z) = -0.07509 0.24930
#
# Static dielectric constant tensor:
#      x y z
#    x 1.912700 0.000000 0.000000 
#    y 0.000000 1.835210 0.000000 
#    z 0.000000 0.000000 1.956730 
# 
# From -- ./inp_files/16906.got.cif
#   From: 2010.05.17/outbox.cif.g08.bks.cpg/sg52_9_cif.got.tgz:16906.got - 2010.06.03 12:15:38.
