data_PCOD9409269
_publ_section_title
;
Structure prediction by ZEFSAII (Michael W. Deem and Ramdas Pophale) SiO2 
 PCOD9409269
Probable space group: P N N A
;
_chemical_formula_sum "Si O2"
_cell_formula_units_Z 48
_cell_length_a 11.120884
_cell_length_b 16.042704
_cell_length_c 12.375302
_cell_angle_alpha 90.000000
_cell_angle_beta 90.000000
_cell_angle_gamma 90.000000
_cell_volume 2207.865876
_symmetry_space_group_name_H-M "P N N A"
_symmetry_group_IT_number 52
_symmetry_cell_setting 'orthorhombic'
loop_
_space_group_symop_operation_xyz
x,y,z
1/2-x,-y,z
x,1/2-y,1/2-z
1/2-x,1/2+y,1/2-z
-x,-y,-z
1/2+x,y,-z
-x,1/2+y,1/2+z
1/2+x,1/2-y,1/2+z
loop_
_atom_site_type_symbol
_atom_site_label
_atom_site_fract_x
_atom_site_fract_y
_atom_site_fract_z
Si Si1 0.484416 0.830032 0.330892
Si Si2 0.045101 0.294721 0.515331
Si Si3 0.874632 0.750000 0.250000
Si Si4 0.250000 0.500000 0.024323
Si Si5 0.214733 0.867363 0.322146
Si Si6 0.236700 0.912553 0.682744
Si Si7 0.197514 0.820744 0.084183
O O1 0.495016 0.750000 0.250000
O O2 0.474194 0.788377 0.447114
O O3 0.359194 0.875323 0.310205
O O4 0.597414 0.889918 0.327567
O O5 0.056899 0.270277 0.640254
O O6 0.170353 0.333835 0.469886
O O7 0.915644 0.340443 0.507010
O O8 0.796659 0.831873 0.269527
O O9 0.170501 0.557305 0.103106
O O10 0.295748 0.566898 0.935204
O O11 0.174505 0.866337 0.198311
O O12 0.197482 0.777876 0.380819
O O13 0.250000 0.000000 0.744439
#
# Coordination Sequence:
#
# PCOD9409269 Si02
#       7
#     8   8   4   4   8   8   8
#     4  11  19  40  68  95 135 194 233 293 354 434
#     4  11  22  36  69  97 131 185 243 279 352 422
#     4  12  22  42  68  98 146 186 232 302 350 438
#     4  10  22  40  62 104 138 172 232 308 346 420
#     4  10  19  38  62  93 137 177 233 285 365 411
#     4  10  24  40  64 107 141 184 230 296 371 416
#     4  10  21  39  62  99 129 182 238 283 344 425
#
# _framework density 21.740449999999999
#
# number of rings (size 3 to 8) (size 9 to 14) (size 15 to 20)
#    0.500    1.000    4.167    5.000    0.000    0.667 
#    6.000    0.000    1.833    2.000    0.000    0.000 
#    0.000    0.000    0.000    0.000    0.000    0.000 
#
# Total GULP energy -267429.995639 kJ/mol
# GULP energy per Si atom -5571.458242 kJ/mol
# Density = 2.169097 g / cm^3
# Si number density = 21.740450 Si / 1000 Ang^3
#
#
#
# Elastic Constant Matrix: (Units=GPa)
#
#
# Indices 1 2 3 4 5 6 
#
# 1 129.6819 24.0776 22.5996 0.0000 0.0000 0.0000
# 2 24.0776 97.2153 27.0260 0.0000 0.0000 0.0000
# 3 22.5996 27.0260 82.6942 0.0000 0.0000 0.0000
# 4 0.0000 0.0000 0.0000 24.9004 0.0000 0.0000
# 5 0.0000 0.0000 0.0000 0.0000 -20.9018 0.0000
# 6 0.0000 0.0000 0.0000 0.0000 0.0000 -52.9650
#
#
#
# Elastic Compliance Matrix: (Units=1/GPa)
#
#
# Indices 1 2 3 4 5 6 
#
# 1 0.008309 -0.001569 -0.001758 0.000000 0.000000 0.000000
# 2 -0.001569 0.011611 -0.003366 0.000000 0.000000 0.000000
# 3 -0.001758 -0.003366 0.013673 0.000000 0.000000 0.000000
# 4 0.000000 0.000000 0.000000 0.040160 0.000000 0.000000
# 5 0.000000 0.000000 0.000000 0.000000 -0.047843 0.000000
# 6 0.000000 0.000000 0.000000 0.000000 0.000000 -0.018880
#
#
# Mechanical properties :
#
#
# Convention : Reuss Voigt Hill
#
# Bulk Modulus (GPa) = 49.48758 50.77754 50.13256
# Shear Modulus (GPa) = 184.15421 5.93258 95.04340
#
# Velocity S-wave (km/s) = 9.21356 1.65371 6.61908
# Velocity P-wave (km/s) = 11.66184 5.20128 9.02917
#
# Compressibility (1/GPa) = 0.02020709
#
# Stress axis : x y z
#
# Youngs Moduli (GPa) = 120.35327 86.12683 73.13598
#
# Poissons Ratio (x) = 0.13515 0.12857
# Poissons Ratio (y) = 0.18886 0.24616
# Poissons Ratio (z) = 0.21157 0.28988
#
# Static dielectric constant tensor:
#      x y z
#    x 1.869640 0.000000 0.000000 
#    y 0.000000 1.799790 0.000000 
#    z 0.000000 0.000000 1.870610 
# 
# From -- ./inp_files/18245.got.cif
#   From: 2010.05.17/outbox.cif.g08.bks.cpg/sg52_10_cif.got.tgz:18245.got - 2010.06.03 12:15:38.
