data_PCOD9409756
_publ_section_title
;
Structure prediction by ZEFSAII (Michael W. Deem and Ramdas Pophale) SiO2 
 PCOD9409756
Probable space group: P N N A
;
_chemical_formula_sum "Si O2"
_cell_formula_units_Z 48
_cell_length_a 8.895473
_cell_length_b 14.978500
_cell_length_c 18.145837
_cell_angle_alpha 90.000000
_cell_angle_beta 90.000000
_cell_angle_gamma 90.000000
_cell_volume 2417.766607
_symmetry_space_group_name_H-M "P N N A"
_symmetry_group_IT_number 52
_symmetry_cell_setting 'orthorhombic'
loop_
_space_group_symop_operation_xyz
x,y,z
1/2-x,-y,z
x,1/2-y,1/2-z
1/2-x,1/2+y,1/2-z
-x,-y,-z
1/2+x,y,-z
-x,1/2+y,1/2+z
1/2+x,1/2-y,1/2+z
loop_
_atom_site_type_symbol
_atom_site_label
_atom_site_fract_x
_atom_site_fract_y
_atom_site_fract_z
Si Si1 0.820865 0.212344 0.921533
Si Si2 0.320647 0.410338 0.134998
Si Si3 0.313180 0.403903 0.702511
Si Si4 0.177426 0.092036 0.635200
Si Si5 0.821523 0.783664 0.075646
Si Si6 0.851758 0.649879 0.720950
O O1 0.792161 0.318360 0.908508
O O2 0.744505 0.161925 0.853108
O O3 0.000003 0.199698 0.921827
O O4 0.748766 0.185293 0.998859
O O5 0.250000 0.500000 0.101607
O O6 0.499069 0.420682 0.143013
O O7 0.244723 0.395456 0.214740
O O8 0.250000 0.500000 0.679200
O O9 0.247423 0.388016 0.784327
O O10 0.255988 0.331581 0.644538
O O11 0.492958 0.400824 0.707190
O O12 0.204808 0.177680 0.584809
O O13 0.250000 0.000000 0.608201
O O14 0.889584 0.750000 0.750000
#
# Coordination Sequence:
#
# PCOD9409756 Si02
#       6
#     8   8   8   8   8   8
#     4  10  23  38  58  82 112 153 191 229 288 339
#     4  10  20  36  58  86 116 145 186 236 281 337
#     4  11  22  37  59  86 112 147 192 236 285 338
#     4  10  21  36  59  88 115 149 189 231 284 337
#     4  11  22  40  58  81 118 153 188 237 282 338
#     4  10  20  37  59  83 112 149 189 235 287 339
#
# _framework density 19.853031999999999
#
# number of rings (size 3 to 8) (size 9 to 14) (size 15 to 20)
#    0.000    1.667    0.000    5.500    0.000    7.333 
#    0.000    7.500    0.000    0.000    0.000    0.000 
#    0.000    0.000    0.000    0.000    0.000    0.000 
#
# Total GULP energy -268371.667729 kJ/mol
# GULP energy per Si atom -5591.076411 kJ/mol
# Density = 1.980785 g / cm^3
# Si number density = 19.853032 Si / 1000 Ang^3
#
#
#
# Elastic Constant Matrix: (Units=GPa)
#
#
# Indices 1 2 3 4 5 6 
#
# 1 84.1434 26.9180 23.5594 0.0000 0.0000 0.0000
# 2 26.9180 46.1662 -3.9424 0.0000 0.0000 0.0000
# 3 23.5594 -3.9424 52.0298 0.0000 0.0000 0.0000
# 4 0.0000 0.0000 0.0000 7.5780 0.0000 0.0000
# 5 0.0000 0.0000 0.0000 0.0000 -100.9768 0.0000
# 6 0.0000 0.0000 0.0000 0.0000 0.0000 47.5959
#
#
#
# Elastic Compliance Matrix: (Units=1/GPa)
#
#
# Indices 1 2 3 4 5 6 
#
# 1 0.018014 -0.011273 -0.009011 0.000000 0.000000 0.000000
# 2 -0.011273 0.028856 0.007291 0.000000 0.000000 0.000000
# 3 -0.009011 0.007291 0.023852 0.000000 0.000000 0.000000
# 4 0.000000 0.000000 0.000000 0.131962 0.000000 0.000000
# 5 0.000000 0.000000 0.000000 0.000000 -0.009903 0.000000
# 6 0.000000 0.000000 0.000000 0.000000 0.000000 0.021010
#
#
# Mechanical properties :
#
#
# Convention : Reuss Voigt Hill
#
# Bulk Modulus (GPa) = 22.35298 30.60105 26.47702
# Shear Modulus (GPa) = 19.63185 -0.10695 9.76245
#
# Velocity S-wave (km/s) = 3.14802 -0.23235 2.21992
# Velocity P-wave (km/s) = 4.94945 3.92113 4.46499
#
# Compressibility (1/GPa) = 0.04473677
#
# Stress axis : x y z
#
# Youngs Moduli (GPa) = 55.51364 34.65468 41.92466
#
# Poissons Ratio (x) = 0.39065 0.37777
# Poissons Ratio (y) = 0.62578 -0.30566
# Poissons Ratio (z) = 0.50022 -0.25266
#
# Static dielectric constant tensor:
#      x y z
#    x 1.658540 0.000000 0.000000 
#    y 0.000000 1.727250 0.000000 
#    z 0.000000 0.000000 1.660310 
# 
# From -- ./inp_files/31207.got.cif
#   From: 2010.05.17/outbox.cif.g08.bks.cpg/sg52_16_cif.got.tgz:31207.got - 2010.06.03 12:15:38.
