data_PCOD9409459
_publ_section_title
;
Structure prediction by ZEFSAII (Michael W. Deem and Ramdas Pophale) SiO2 
 PCOD9409459
Probable space group: P N N A
;
_chemical_formula_sum "Si O2"
_cell_formula_units_Z 48
_cell_length_a 20.270505
_cell_length_b 12.189506
_cell_length_c 9.796937
_cell_angle_alpha 90.000000
_cell_angle_beta 90.000000
_cell_angle_gamma 90.000000
_cell_volume 2420.700106
_symmetry_space_group_name_H-M "P N N A"
_symmetry_group_IT_number 52
_symmetry_cell_setting 'orthorhombic'
loop_
_space_group_symop_operation_xyz
x,y,z
1/2-x,-y,z
x,1/2-y,1/2-z
1/2-x,1/2+y,1/2-z
-x,-y,-z
1/2+x,y,-z
-x,1/2+y,1/2+z
1/2+x,1/2-y,1/2+z
loop_
_atom_site_type_symbol
_atom_site_label
_atom_site_fract_x
_atom_site_fract_y
_atom_site_fract_z
Si Si1 0.176688 0.378200 0.906676
Si Si2 0.750000 0.500000 0.871808
Si Si3 0.364173 0.129636 0.259965
Si Si4 0.844973 0.099518 0.027424
Si Si5 0.434255 0.064963 0.535642
Si Si6 0.303196 0.636076 0.594537
Si Si7 0.913219 0.250000 0.250000
O O1 0.120988 0.473455 0.918558
O O2 0.209501 0.379251 0.757128
O O3 0.158350 0.250395 0.926011
O O4 0.228963 0.404468 0.024773
O O5 0.689914 0.536570 0.780620
O O6 0.333025 0.250000 0.250000
O O7 0.408954 0.119506 0.393810
O O8 0.389679 0.115376 0.106840
O O9 0.767090 0.132507 0.017013
O O10 0.870948 0.174714 0.148546
O O11 0.844406 0.970639 0.056835
O O12 0.446234 0.159048 0.649619
O O13 0.500000 0.000000 0.500000
#
# Coordination Sequence:
#
# PCOD9409459 Si02
#       7
#     8   4   8   8   8   8   4
#     4  10  20  36  60  93 128 171 212 265 322 386
#     4  10  20  32  58  92 132 172 198 256 342 390
#     4  11  22  39  62  95 135 166 213 268 329 389
#     4  11  21  36  62 100 130 166 207 260 327 405
#     4  11  26  48  66  91 126 176 233 277 325 385
#     4  10  20  33  59  98 137 164 210 259 320 408
#     4  12  22  44  72  88 120 174 220 268 330 386
#
# _framework density 19.828973000000001
#
# number of rings (size 3 to 8) (size 9 to 14) (size 15 to 20)
#    0.000    1.333    3.333    4.000    4.667    0.000 
#    6.000    2.500    0.000    0.000    0.000    0.000 
#    0.000    0.000    0.000    0.000    0.000    0.000 
#
# Total GULP energy -267396.050271 kJ/mol
# GULP energy per Si atom -5570.751047 kJ/mol
# Density = 1.978384 g / cm^3
# Si number density = 19.828973 Si / 1000 Ang^3
#
#
#
# Elastic Constant Matrix: (Units=GPa)
#
#
# Indices 1 2 3 4 5 6 
#
# 1 35.5693 14.5397 21.9982 0.0000 0.0000 0.0000
# 2 14.5397 149.2951 46.8395 0.0000 0.0000 0.0000
# 3 21.9982 46.8395 129.5745 0.0000 0.0000 0.0000
# 4 0.0000 0.0000 0.0000 23.4965 0.0000 0.0000
# 5 0.0000 0.0000 0.0000 0.0000 6.2206 0.0000
# 6 0.0000 0.0000 0.0000 0.0000 0.0000 6.3444
#
#
#
# Elastic Compliance Matrix: (Units=1/GPa)
#
#
# Indices 1 2 3 4 5 6 
#
# 1 0.031739 -0.001580 -0.004817 0.000000 0.000000 0.000000
# 2 -0.001580 0.007634 -0.002491 0.000000 0.000000 0.000000
# 3 -0.004817 -0.002491 0.009436 0.000000 0.000000 0.000000
# 4 0.000000 0.000000 0.000000 0.042559 0.000000 0.000000
# 5 0.000000 0.000000 0.000000 0.000000 0.160755 0.000000
# 6 0.000000 0.000000 0.000000 0.000000 0.000000 0.157619
#
#
# Mechanical properties :
#
#
# Convention : Reuss Voigt Hill
#
# Bulk Modulus (GPa) = 32.22465 53.46598 42.84532
# Shear Modulus (GPa) = 11.41911 22.61642 17.01776
#
# Velocity S-wave (km/s) = 2.40235 3.38090 2.93273
# Velocity P-wave (km/s) = 4.89711 6.50098 5.75519
#
# Compressibility (1/GPa) = 0.03103214
#
# Stress axis : x y z
#
# Youngs Moduli (GPa) = 31.50671 131.00006 105.97710
#
# Poissons Ratio (x) = 0.20693 0.51054
# Poissons Ratio (y) = 0.04977 0.26402
# Poissons Ratio (z) = 0.15178 0.32636
#
# Static dielectric constant tensor:
#      x y z
#    x 1.672750 0.000000 0.000000 
#    y 0.000000 1.742290 0.000000 
#    z 0.000000 0.000000 1.761750 
# 
# From -- ./inp_files/14333.got.cif
#   From: 2010.05.17/outbox.cif.g08.bks.cpg/sg52_8_cif.got.tgz:14333.got - 2010.06.03 12:15:38.
