data_PCOD9409712
_publ_section_title
;
Structure prediction by ZEFSAII (Michael W. Deem and Ramdas Pophale) SiO2 
 PCOD9409712
Probable space group: P N N A
;
_chemical_formula_sum "Si O2"
_cell_formula_units_Z 36
_cell_length_a 8.978072
_cell_length_b 8.230064
_cell_length_c 17.689483
_cell_angle_alpha 90.000000
_cell_angle_beta 90.000000
_cell_angle_gamma 90.000000
_cell_volume 1307.077794
_symmetry_space_group_name_H-M "P N N A"
_symmetry_group_IT_number 52
_symmetry_cell_setting 'orthorhombic'
loop_
_space_group_symop_operation_xyz
x,y,z
1/2-x,-y,z
x,1/2-y,1/2-z
1/2-x,1/2+y,1/2-z
-x,-y,-z
1/2+x,y,-z
-x,1/2+y,1/2+z
1/2+x,1/2-y,1/2+z
loop_
_atom_site_type_symbol
_atom_site_label
_atom_site_fract_x
_atom_site_fract_y
_atom_site_fract_z
Si Si1 0.537787 0.906700 0.903788
Si Si2 0.513895 0.250000 0.250000
Si Si3 0.242952 0.236020 0.524741
Si Si4 0.750000 0.500000 0.243162
Si Si5 0.534465 0.297086 0.904200
Si Si6 0.981457 0.250000 0.250000
O O1 0.568658 0.838799 0.819152
O O2 0.372311 0.848548 0.928581
O O3 0.551495 0.100511 0.909485
O O4 0.650287 0.828525 0.964355
O O5 0.627439 0.377767 0.209742
O O6 0.363361 0.157041 0.580397
O O7 0.136767 0.132181 0.469536
O O8 0.865567 0.380400 0.285056
O O9 0.571535 0.331412 0.817251
#
# Coordination Sequence:
#
# PCOD9409712 Si02
#       6
#     8   4   8   4   8   4
#     4  11  20  36  59  91 116 159 194 253 291 349
#     4  11  22  35  62  86 126 148 208 232 302 346
#     4  10  21  35  59  88 125 148 204 249 300 333
#     4  10  20  36  54  90 114 160 184 254 272 360
#     4  11  20  36  59  91 116 159 194 253 291 349
#     4  11  22  35  62  86 126 148 208 232 302 346
#
# _framework density 27.542355000000001
#
# number of rings (size 3 to 8) (size 9 to 14) (size 15 to 20)
#    0.000    1.333    2.222    8.000    0.000    0.889 
#    0.000    0.000    0.000   21.333    0.000    0.000 
#    0.000    0.000    0.000    0.000    0.000    0.000 
#
# Total GULP energy -201140.652703 kJ/mol
# GULP energy per Si atom -5587.240353 kJ/mol
# Density = 2.747967 g / cm^3
# Si number density = 27.542355 Si / 1000 Ang^3
#
#
#
# Elastic Constant Matrix: (Units=GPa)
#
#
# Indices 1 2 3 4 5 6 
#
# 1 108.8698 14.2958 20.5798 0.0000 0.0000 0.0000
# 2 14.2958 75.4148 18.8012 0.0000 0.0000 0.0000
# 3 20.5798 18.8012 170.3171 0.0000 0.0000 0.0000
# 4 0.0000 0.0000 0.0000 42.4921 0.0000 0.0000
# 5 0.0000 0.0000 0.0000 0.0000 43.2631 0.0000
# 6 0.0000 0.0000 0.0000 0.0000 0.0000 36.1801
#
#
#
# Elastic Compliance Matrix: (Units=1/GPa)
#
#
# Indices 1 2 3 4 5 6 
#
# 1 0.009577 -0.001570 -0.000984 0.000000 0.000000 0.000000
# 2 -0.001570 0.013893 -0.001344 0.000000 0.000000 0.000000
# 3 -0.000984 -0.001344 0.006139 0.000000 0.000000 0.000000
# 4 0.000000 0.000000 0.000000 0.023534 0.000000 0.000000
# 5 0.000000 0.000000 0.000000 0.000000 0.023114 0.000000
# 6 0.000000 0.000000 0.000000 0.000000 0.000000 0.027639
#
#
# Mechanical properties :
#
#
# Convention : Reuss Voigt Hill
#
# Bulk Modulus (GPa) = 45.84476 51.32836 48.58656
# Shear Modulus (GPa) = 42.02971 44.44871 43.23921
#
# Velocity S-wave (km/s) = 3.91065 4.02161 3.96652
# Velocity P-wave (km/s) = 6.08869 6.34359 6.21745
#
# Compressibility (1/GPa) = 0.02181274
#
# Stress axis : x y z
#
# Youngs Moduli (GPa) = 104.41181 71.98028 162.90250
#
# Poissons Ratio (x) = 0.11303 0.16028
# Poissons Ratio (y) = 0.16395 0.21892
# Poissons Ratio (z) = 0.10273 0.09673
#
# Static dielectric constant tensor:
#      x y z
#    x 2.151080 0.000000 0.000000 
#    y 0.000000 2.262220 0.000000 
#    z 0.000000 0.000000 2.222620 
# 
# From -- ./inp_files/35564.got.cif
#   From: 2010.05.17/outbox.cif.g08.bks.cpg/sg52_18_cif.got.tgz:35564.got - 2010.06.03 12:15:38.
