data_PCOD9409934
_publ_section_title
;
Structure prediction by ZEFSAII (Michael W. Deem and Ramdas Pophale) SiO2 
 PCOD9409934
Probable space group: P N N A
;
_chemical_formula_sum "Si O2"
_cell_formula_units_Z 64
_cell_length_a 15.628294
_cell_length_b 24.026037
_cell_length_c 8.948947
_cell_angle_alpha 90.000000
_cell_angle_beta 90.000000
_cell_angle_gamma 90.000000
_cell_volume 3360.204044
_symmetry_space_group_name_H-M "P N N A"
_symmetry_group_IT_number 52
_symmetry_cell_setting 'orthorhombic'
loop_
_space_group_symop_operation_xyz
x,y,z
1/2-x,-y,z
x,1/2-y,1/2-z
1/2-x,1/2+y,1/2-z
-x,-y,-z
1/2+x,y,-z
-x,1/2+y,1/2+z
1/2+x,1/2-y,1/2+z
loop_
_atom_site_type_symbol
_atom_site_label
_atom_site_fract_x
_atom_site_fract_y
_atom_site_fract_z
Si Si1 0.003798 0.310444 0.178977
Si Si2 0.660794 0.123885 0.821471
Si Si3 0.496202 0.810444 0.678977
Si Si4 0.839206 0.623885 0.321471
Si Si5 0.338997 0.114069 0.322338
Si Si6 0.338997 0.114069 0.677662
Si Si7 0.602198 0.998715 0.176644
Si Si8 0.102198 0.998715 0.176644
O O1 0.991995 0.250000 0.250000
O O2 0.922592 0.349528 0.215092
O O3 0.088672 0.338657 0.245266
O O4 0.010581 0.306397 1.000000
O O5 0.754847 0.136182 0.759986
O O6 0.639776 0.059155 0.786680
O O7 0.657002 0.130512 1.000000
O O8 0.508006 0.750000 0.750000
O O9 0.411328 0.838656 0.745266
O O10 0.577408 0.849528 0.715092
O O11 0.745153 0.636182 0.259986
O O12 0.860224 0.559155 0.286680
O O13 0.326091 0.115631 0.500000
O O14 0.356928 0.051197 0.268979
O O15 0.356928 0.051197 0.731021
O O16 0.500000 1.000000 0.201028
O O17 0.617310 0.988162 0.000000
#
# Coordination Sequence:
#
# PCOD9409934 Si02
#       8
#     8   8   8   8   8   8   8   8
#     4  11  25  44  65  89 120 160 207 256 307 361
#     4  11  23  40  65  93 125 164 204 252 305 366
#     4  11  25  44  65  89 120 160 207 256 307 361
#     4  11  23  40  65  93 125 164 204 252 305 366
#     4  11  24  40  62  93 128 163 203 255 309 367
#     4  11  24  40  62  93 128 163 203 255 309 367
#     4  10  20  37  62  92 126 164 205 247 305 373
#     4  10  20  37  62  92 126 164 205 247 305 373
#
# _framework density 19.046461999999998
#
# number of rings (size 3 to 8) (size 9 to 14) (size 15 to 20)
#    0.000    1.250    2.500    3.000    0.000    9.500 
#    0.000    2.500    0.000    0.000    0.000    0.000 
#    0.000    0.000    0.000    0.000    0.000    0.000 
#
# Total GULP energy -358032.321063 kJ/mol
# GULP energy per Si atom -5594.255017 kJ/mol
# Density = 1.900311 g / cm^3
# Si number density = 19.046462 Si / 1000 Ang^3
#
#
#
# Elastic Constant Matrix: (Units=GPa)
#
#
# Indices 1 2 3 4 5 6 
#
# 1 77.2743 -2.3627 27.2945 0.0000 0.0000 0.0000
# 2 -2.3627 45.1282 19.9337 0.0000 0.0000 0.0000
# 3 27.2945 19.9337 39.1744 0.0000 0.0000 0.0000
# 4 0.0000 0.0000 0.0000 32.6709 0.0000 0.0000
# 5 0.0000 0.0000 0.0000 0.0000 40.1129 0.0000
# 6 0.0000 0.0000 0.0000 0.0000 0.0000 -1.9682
#
#
#
# Elastic Compliance Matrix: (Units=1/GPa)
#
#
# Indices 1 2 3 4 5 6 
#
# 1 0.019721 0.009161 -0.018402 0.000000 0.000000 0.000000
# 2 0.009161 0.032839 -0.023093 0.000000 0.000000 0.000000
# 3 -0.018402 -0.023093 0.050099 0.000000 0.000000 0.000000
# 4 0.000000 0.000000 0.000000 0.030608 0.000000 0.000000
# 5 0.000000 0.000000 0.000000 0.000000 0.024930 0.000000
# 6 0.000000 0.000000 0.000000 0.000000 0.000000 -0.508085
#
#
# Mechanical properties :
#
#
# Convention : Reuss Voigt Hill
#
# Bulk Modulus (GPa) = 26.32183 27.92311 27.12247
# Shear Modulus (GPa) = -18.34482 21.94388 1.79953
#
# Velocity S-wave (km/s) = -3.10685 3.39798 0.97307
# Velocity P-wave (km/s) = 0.98983 5.48519 3.94126
#
# Compressibility (1/GPa) = 0.03799128
#
# Stress axis : x y z
#
# Youngs Moduli (GPa) = 50.70781 30.45151 19.96051
#
# Poissons Ratio (x) = -0.27896 0.36731
# Poissons Ratio (y) = -0.46452 0.46094
# Poissons Ratio (z) = 0.93312 0.70321
#
# Static dielectric constant tensor:
#      x y z
#    x 1.649590 0.000000 0.000000 
#    y 0.000000 1.629780 0.000000 
#    z 0.000000 0.000000 1.632620 
# 
# From -- ./inp_files/11013.got.cif
#   From: 2010.05.17/outbox.cif.g08.bks.cpg/sg52_6_cif.got.tgz:11013.got - 2010.06.03 12:15:38.
