data_PCOD9409767
_publ_section_title
;
Structure prediction by ZEFSAII (Michael W. Deem and Ramdas Pophale) SiO2 
 PCOD9409767
Probable space group: P N N A
;
_chemical_formula_sum "Si O2"
_cell_formula_units_Z 44
_cell_length_a 8.276042
_cell_length_b 11.598672
_cell_length_c 22.702251
_cell_angle_alpha 90.000000
_cell_angle_beta 90.000000
_cell_angle_gamma 90.000000
_cell_volume 2179.213969
_symmetry_space_group_name_H-M "P N N A"
_symmetry_group_IT_number 52
_symmetry_cell_setting 'orthorhombic'
loop_
_space_group_symop_operation_xyz
x,y,z
1/2-x,-y,z
x,1/2-y,1/2-z
1/2-x,1/2+y,1/2-z
-x,-y,-z
1/2+x,y,-z
-x,1/2+y,1/2+z
1/2+x,1/2-y,1/2+z
loop_
_atom_site_type_symbol
_atom_site_label
_atom_site_fract_x
_atom_site_fract_y
_atom_site_fract_z
Si Si1 0.364296 0.395664 0.833842
Si Si2 0.991017 0.587039 0.711520
Si Si3 0.940541 0.469354 0.934972
Si Si4 0.852047 0.155338 0.798749
Si Si5 0.250000 0.000000 0.883663
Si Si6 0.396381 0.732797 0.604582
O O1 0.250000 0.500000 0.813453
O O2 0.451945 0.360623 0.773613
O O3 0.474827 0.451828 0.884721
O O4 0.250968 0.297981 0.862174
O O5 0.122815 0.559494 0.661781
O O6 0.917457 0.462591 0.728682
O O7 0.835106 0.648265 0.683445
O O8 0.750000 0.500000 0.930929
O O9 0.007174 0.337328 0.927663
O O10 0.000000 0.500000 0.000000
O O11 0.867537 0.250000 0.750000
O O12 0.969314 0.186594 0.851027
O O13 0.324088 0.890064 0.919503
#
# Coordination Sequence:
#
# PCOD9409767 Si02
#       6
#     8   8   8   8   4   8
#     4  10  20  36  59  87 121 165 217 264 321 369
#     4  10  21  34  52  84 128 170 214 247 308 380
#     4  11  24  43  69  94 120 155 215 284 334 374
#     4  10  21  33  50  79 126 169 211 249 304 376
#     4  10  22  38  56  88 132 180 206 248 314 400
#     4  10  23  38  59  89 127 167 211 259 320 388
#
# _framework density 20.190764999999999
#
# number of rings (size 3 to 8) (size 9 to 14) (size 15 to 20)
#    0.000    1.818    0.909    3.818   10.182    0.000 
#    0.000    0.000    0.000    4.364    0.000    2.545 
#    0.000    0.000    0.000    0.000    0.000    0.000 
#
# Total GULP energy -245110.830710 kJ/mol
# GULP energy per Si atom -5570.700698 kJ/mol
# Density = 2.014481 g / cm^3
# Si number density = 20.190765 Si / 1000 Ang^3
#
#
#
# Elastic Constant Matrix: (Units=GPa)
#
#
# Indices 1 2 3 4 5 6 
#
# 1 128.4326 45.6982 38.1979 0.0000 0.0000 0.0000
# 2 45.6982 149.4314 37.5336 0.0000 0.0000 0.0000
# 3 38.1979 37.5336 59.9344 0.0000 0.0000 0.0000
# 4 0.0000 0.0000 0.0000 15.0666 0.0000 0.0000
# 5 0.0000 0.0000 0.0000 0.0000 30.6242 0.0000
# 6 0.0000 0.0000 0.0000 0.0000 0.0000 36.9112
#
#
#
# Elastic Compliance Matrix: (Units=1/GPa)
#
#
# Indices 1 2 3 4 5 6 
#
# 1 0.009968 -0.001724 -0.005273 0.000000 0.000000 0.000000
# 2 -0.001724 0.008239 -0.004061 0.000000 0.000000 0.000000
# 3 -0.005273 -0.004061 0.022589 0.000000 0.000000 0.000000
# 4 0.000000 0.000000 0.000000 0.066372 0.000000 0.000000
# 5 0.000000 0.000000 0.000000 0.000000 0.032654 0.000000
# 6 0.000000 0.000000 0.000000 0.000000 0.000000 0.027092
#
#
# Mechanical properties :
#
#
# Convention : Reuss Voigt Hill
#
# Bulk Modulus (GPa) = 53.53421 64.51753 59.02587
# Shear Modulus (GPa) = 25.60725 30.94497 28.27611
#
# Velocity S-wave (km/s) = 3.56514 3.91913 3.74632
# Velocity P-wave (km/s) = 6.59687 7.24588 6.92898
#
# Compressibility (1/GPa) = 0.01867964
#
# Stress axis : x y z
#
# Youngs Moduli (GPa) = 100.32200 121.37002 44.26924
#
# Poissons Ratio (x) = 0.20922 0.23345
# Poissons Ratio (y) = 0.17293 0.17979
# Poissons Ratio (z) = 0.52903 0.49291
#
# Static dielectric constant tensor:
#      x y z
#    x 2.042730 0.000000 0.000000 
#    y 0.000000 1.773090 0.000000 
#    z 0.000000 0.000000 1.642720 
# 
# From -- ./inp_files/39381.got.cif
#   From: 2010.05.17/outbox.cif.g08.bks.cpg/sg52_20_cif.got.tgz:39381.got - 2010.06.03 12:15:38.
