data_PCOD9409195
_publ_section_title
;
Structure prediction by ZEFSAII (Michael W. Deem and Ramdas Pophale) SiO2 
 PCOD9409195
Probable space group: P N N A
;
_chemical_formula_sum "Si O2"
_cell_formula_units_Z 48
_cell_length_a 15.083865
_cell_length_b 8.073611
_cell_length_c 17.533761
_cell_angle_alpha 90.000000
_cell_angle_beta 90.000000
_cell_angle_gamma 90.000000
_cell_volume 2135.283479
_symmetry_space_group_name_H-M "P N N A"
_symmetry_group_IT_number 52
_symmetry_cell_setting 'orthorhombic'
loop_
_space_group_symop_operation_xyz
x,y,z
1/2-x,-y,z
x,1/2-y,1/2-z
1/2-x,1/2+y,1/2-z
-x,-y,-z
1/2+x,y,-z
-x,1/2+y,1/2+z
1/2+x,1/2-y,1/2+z
loop_
_atom_site_type_symbol
_atom_site_label
_atom_site_fract_x
_atom_site_fract_y
_atom_site_fract_z
Si Si1 0.515567 0.377725 0.162838
Si Si2 0.499896 0.794996 0.437887
Si Si3 0.354229 0.795103 0.946711
Si Si4 0.324635 0.323962 0.499942
Si Si5 0.328765 0.317006 0.327538
Si Si6 0.962544 0.583312 0.702194
O O1 0.510288 0.536857 0.108122
O O2 0.591482 0.259229 0.128259
O O3 0.419679 0.290405 0.164486
O O4 0.522652 0.458597 0.247372
O O5 0.410113 0.787583 0.485371
O O6 0.583068 0.770472 0.492957
O O7 0.499866 0.641063 0.378774
O O8 0.251368 0.744513 0.947460
O O9 0.346132 0.989462 0.970707
O O10 0.289944 0.316758 0.412547
O O11 0.283688 0.250000 0.250000
O O12 0.367524 0.498802 0.311048
O O13 0.952320 0.750000 0.750000
#
# Coordination Sequence:
#
# PCOD9409195 Si02
#       6
#     8   8   8   8   8   8
#     4  10  21  36  61  93 121 166 208 257 320 379
#     4  11  20  39  62  90 125 161 211 264 316 378
#     4  11  22  37  60  90 125 161 216 262 309 388
#     4  11  23  37  62  90 123 173 210 257 326 374
#     4  10  19  37  60  88 124 163 210 257 318 385
#     4   9  19  35  63  89 119 167 210 258 322 380
#
# _framework density 22.479448999999999
#
# number of rings (size 3 to 8) (size 9 to 14) (size 15 to 20)
#    0.000    1.667    3.333    2.000    0.000    0.667 
#    0.000    2.500    0.000   29.000    0.000    0.000 
#    0.000    0.000    0.000    0.000    0.000    0.000 
#
# Total GULP energy -268022.088755 kJ/mol
# GULP energy per Si atom -5583.793516 kJ/mol
# Density = 2.242829 g / cm^3
# Si number density = 22.479449 Si / 1000 Ang^3
#
#
#
# Elastic Constant Matrix: (Units=GPa)
#
#
# Indices 1 2 3 4 5 6 
#
# 1 56.9666 21.7156 9.4716 0.0000 0.0000 0.0000
# 2 21.7156 73.0595 38.1390 0.0000 0.0000 0.0000
# 3 9.4716 38.1390 110.4202 0.0000 0.0000 0.0000
# 4 0.0000 0.0000 0.0000 41.4681 0.0000 0.0000
# 5 0.0000 0.0000 0.0000 0.0000 25.0693 0.0000
# 6 0.0000 0.0000 0.0000 0.0000 0.0000 11.0899
#
#
#
# Elastic Compliance Matrix: (Units=1/GPa)
#
#
# Indices 1 2 3 4 5 6 
#
# 1 0.019812 -0.006102 0.000408 0.000000 0.000000 0.000000
# 2 -0.006102 0.018578 -0.005893 0.000000 0.000000 0.000000
# 3 0.000408 -0.005893 0.011057 0.000000 0.000000 0.000000
# 4 0.000000 0.000000 0.000000 0.024115 0.000000 0.000000
# 5 0.000000 0.000000 0.000000 0.000000 0.039889 0.000000
# 6 0.000000 0.000000 0.000000 0.000000 0.000000 0.090172
#
#
# Mechanical properties :
#
#
# Convention : Reuss Voigt Hill
#
# Bulk Modulus (GPa) = 38.06236 42.12208 40.09222
# Shear Modulus (GPa) = 21.22648 26.93347 24.07997
#
# Velocity S-wave (km/s) = 3.07622 3.46517 3.27647
# Velocity P-wave (km/s) = 5.43933 5.89818 5.67340
#
# Compressibility (1/GPa) = 0.02627267
#
# Stress axis : x y z
#
# Youngs Moduli (GPa) = 50.47358 53.82824 90.44181
#
# Poissons Ratio (x) = 0.32846 -0.03691
# Poissons Ratio (y) = 0.30799 0.53300
# Poissons Ratio (z) = -0.02060 0.31722
#
# Static dielectric constant tensor:
#      x y z
#    x 1.792810 0.000000 0.000000 
#    y 0.000000 1.885940 0.000000 
#    z 0.000000 0.000000 1.880420 
# 
# From -- ./inp_files/33078.got.cif
#   From: 2010.05.17/outbox.cif.g08.bks.cpg/sg52_17_cif.got.tgz:33078.got - 2010.06.03 12:15:38.
