data_PCOD9409362
_publ_section_title
;
Structure prediction by ZEFSAII (Michael W. Deem and Ramdas Pophale) SiO2 
 PCOD9409362
Probable space group: P N N A
;
_chemical_formula_sum "Si O2"
_cell_formula_units_Z 32
_cell_length_a 8.342211
_cell_length_b 8.801319
_cell_length_c 21.961191
_cell_angle_alpha 90.000000
_cell_angle_beta 90.000000
_cell_angle_gamma 90.000000
_cell_volume 1612.444672
_symmetry_space_group_name_H-M "P N N A"
_symmetry_group_IT_number 52
_symmetry_cell_setting 'orthorhombic'
loop_
_space_group_symop_operation_xyz
x,y,z
1/2-x,-y,z
x,1/2-y,1/2-z
1/2-x,1/2+y,1/2-z
-x,-y,-z
1/2+x,y,-z
-x,1/2+y,1/2+z
1/2+x,1/2-y,1/2+z
loop_
_atom_site_type_symbol
_atom_site_label
_atom_site_fract_x
_atom_site_fract_y
_atom_site_fract_z
Si Si1 0.750000 0.000000 0.108575
Si Si2 0.448747 0.253386 0.959951
Si Si3 0.038794 0.246008 0.822325
Si Si4 0.750000 0.500000 0.113910
Si Si5 0.705790 0.821326 0.582429
O O1 0.646800 0.890471 0.065360
O O2 0.867440 0.899837 0.150974
O O3 0.365097 0.397942 0.927812
O O4 0.632043 0.242386 0.940054
O O5 0.427912 0.282496 0.031557
O O6 0.028521 0.250000 0.750000
O O7 0.142287 0.389817 0.845373
O O8 0.866108 0.263479 0.854385
O O9 0.750000 0.000000 0.584477
#
# Coordination Sequence:
#
# PCOD9409362 Si02
#       5
#     4   8   8   4   8
#     4  10  25  44  66 100 127 168 210 272 336 364
#     4  11  22  40  68  97 128 160 210 273 321 377
#     4  11  24  43  64  93 130 173 217 258 315 388
#     4  10  19  40  68  88 123 164 216 256 312 378
#     4  12  23  41  68  99 127 171 217 261 321 382
#
# _framework density 19.845642999999999
#
# number of rings (size 3 to 8) (size 9 to 14) (size 15 to 20)
#    0.000    1.000    3.750    4.500    0.000    5.000 
#    4.500    1.250    0.000    0.000    0.000    0.000 
#    0.000    0.000    0.000    0.000    0.000    0.000 
#
# Total GULP energy -179100.687234 kJ/mol
# GULP energy per Si atom -5596.896476 kJ/mol
# Density = 1.980047 g / cm^3
# Si number density = 19.845643 Si / 1000 Ang^3
#
#
#
# Elastic Constant Matrix: (Units=GPa)
#
#
# Indices 1 2 3 4 5 6 
#
# 1 91.9470 21.8445 8.7648 0.0000 0.0000 0.0000
# 2 21.8445 103.6547 32.7678 0.0000 0.0000 0.0000
# 3 8.7648 32.7678 115.0023 0.0000 0.0000 0.0000
# 4 0.0000 0.0000 0.0000 10.0348 0.0000 0.0000
# 5 0.0000 0.0000 0.0000 0.0000 27.1397 0.0000
# 6 0.0000 0.0000 0.0000 0.0000 0.0000 14.7965
#
#
#
# Elastic Compliance Matrix: (Units=1/GPa)
#
#
# Indices 1 2 3 4 5 6 
#
# 1 0.011453 -0.002349 -0.000203 0.000000 0.000000 0.000000
# 2 -0.002349 0.011084 -0.002979 0.000000 0.000000 0.000000
# 3 -0.000203 -0.002979 0.009560 0.000000 0.000000 0.000000
# 4 0.000000 0.000000 0.000000 0.099653 0.000000 0.000000
# 5 0.000000 0.000000 0.000000 0.000000 0.036846 0.000000
# 6 0.000000 0.000000 0.000000 0.000000 0.000000 0.067584
#
#
# Mechanical properties :
#
#
# Convention : Reuss Voigt Hill
#
# Bulk Modulus (GPa) = 47.54348 48.59535 48.06942
# Shear Modulus (GPa) = 19.66520 26.87599 23.27059
#
# Velocity S-wave (km/s) = 3.15128 3.68401 3.42801
# Velocity P-wave (km/s) = 6.10323 6.52960 6.32001
#
# Compressibility (1/GPa) = 0.02103338
#
# Stress axis : x y z
#
# Youngs Moduli (GPa) = 87.31035 90.21731 104.60401
#
# Poissons Ratio (x) = 0.21196 0.02129
# Poissons Ratio (y) = 0.20513 0.31164
# Poissons Ratio (z) = 0.01777 0.26878
#
# Static dielectric constant tensor:
#      x y z
#    x 1.709420 0.000000 0.000000 
#    y 0.000000 1.707000 0.000000 
#    z 0.000000 0.000000 1.654410 
# 
# From -- ./inp_files/35485.got.cif
#   From: 2010.05.17/outbox.cif.g08.bks.cpg/sg52_18_cif.got.tgz:35485.got - 2010.06.03 12:15:38.
