data_PCOD9409407
_publ_section_title
;
Structure prediction by ZEFSAII (Michael W. Deem and Ramdas Pophale) SiO2 
 PCOD9409407
Probable space group: P N N A
;
_chemical_formula_sum "Si O2"
_cell_formula_units_Z 36
_cell_length_a 10.735162
_cell_length_b 6.951359
_cell_length_c 20.667134
_cell_angle_alpha 90.000000
_cell_angle_beta 90.000000
_cell_angle_gamma 90.000000
_cell_volume 1542.263484
_symmetry_space_group_name_H-M "P N N A"
_symmetry_group_IT_number 52
_symmetry_cell_setting 'orthorhombic'
loop_
_space_group_symop_operation_xyz
x,y,z
1/2-x,-y,z
x,1/2-y,1/2-z
1/2-x,1/2+y,1/2-z
-x,-y,-z
1/2+x,y,-z
-x,1/2+y,1/2+z
1/2+x,1/2-y,1/2+z
loop_
_atom_site_type_symbol
_atom_site_label
_atom_site_fract_x
_atom_site_fract_y
_atom_site_fract_z
Si Si1 0.641358 0.234041 0.987288
Si Si2 0.221895 0.271617 0.345023
Si Si3 0.047774 0.631290 0.694118
Si Si4 0.068177 0.750000 0.250000
Si Si5 0.875745 0.313079 0.451749
O O1 0.711476 0.275480 0.920050
O O2 0.498895 0.297084 0.976561
O O3 0.743292 0.290711 0.040330
O O4 0.627468 0.005236 0.003505
O O5 0.250000 0.500000 0.340782
O O6 0.334552 0.177736 0.305451
O O7 0.083351 0.255536 0.317013
O O8 0.117876 0.750000 0.750000
O O9 0.106085 0.627215 0.622831
O O10 0.013552 0.419755 0.719835
#
# Coordination Sequence:
#
# PCOD9409407 Si02
#       5
#     8   8   8   4   8
#     4   9  16  29  53  85 107 144 202 234 280 340
#     4   9  15  28  49  81 110 136 193 244 277 326
#     4  10  20  33  52  84 115 152 189 237 294 349
#     4  10  20  30  52  82 116 152 186 244 294 330
#     4   9  17  30  55  84 111 146 194 242 277 345
#
# _framework density 23.342317000000001
#
# number of rings (size 3 to 8) (size 9 to 14) (size 15 to 20)
#    0.000    2.667    3.333    0.000    3.111    0.000 
#    0.000    0.000    9.778    1.333   11.556    0.000 
#    0.000    0.000    0.000    0.000    0.000    0.000 
#
# Total GULP energy -200651.180676 kJ/mol
# GULP energy per Si atom -5573.643908 kJ/mol
# Density = 2.328919 g / cm^3
# Si number density = 23.342317 Si / 1000 Ang^3
#
#
#
# Elastic Constant Matrix: (Units=GPa)
#
#
# Indices 1 2 3 4 5 6 
#
# 1 128.1052 15.1593 47.8429 0.0000 0.0000 0.0000
# 2 15.1593 92.1294 35.0976 0.0000 0.0000 0.0000
# 3 47.8429 35.0976 159.6397 0.0000 0.0000 0.0000
# 4 0.0000 0.0000 0.0000 14.1446 0.0000 0.0000
# 5 0.0000 0.0000 0.0000 0.0000 87.2979 0.0000
# 6 0.0000 0.0000 0.0000 0.0000 0.0000 -6.0475
#
#
#
# Elastic Compliance Matrix: (Units=1/GPa)
#
#
# Indices 1 2 3 4 5 6 
#
# 1 0.008810 -0.000484 -0.002534 0.000000 0.000000 0.000000
# 2 -0.000484 0.011873 -0.002465 0.000000 0.000000 0.000000
# 3 -0.002534 -0.002465 0.007565 0.000000 0.000000 0.000000
# 4 0.000000 0.000000 0.000000 0.070698 0.000000 0.000000
# 5 0.000000 0.000000 0.000000 0.000000 0.011455 0.000000
# 6 0.000000 0.000000 0.000000 0.000000 0.000000 -0.165356
#
#
# Mechanical properties :
#
#
# Convention : Reuss Voigt Hill
#
# Bulk Modulus (GPa) = 57.86465 64.00821 60.93643
# Shear Modulus (GPa) = -130.79529 37.86396 -46.46566
#
# Velocity S-wave (km/s) = -7.49368 4.03192 -4.46648
# Velocity P-wave (km/s) = 7.07320 7.01115 0.66104
#
# Compressibility (1/GPa) = 0.01728171
#
# Stress axis : x y z
#
# Youngs Moduli (GPa) = 113.51185 84.22366 132.18019
#
# Poissons Ratio (x) = 0.04079 0.33491
# Poissons Ratio (y) = 0.05498 0.32585
# Poissons Ratio (z) = 0.28761 0.20763
#
# Static dielectric constant tensor:
#      x y z
#    x 1.961610 0.000000 0.000000 
#    y 0.000000 1.977000 0.000000 
#    z 0.000000 0.000000 1.905480 
# 
# From -- ./inp_files/36587.got.cif
#   From: 2010.05.17/outbox.cif.g08.bks.cpg/sg52_19_cif.got.tgz:36587.got - 2010.06.03 12:15:38.
