data_PCOD9409944
_publ_section_title
;
Structure prediction by ZEFSAII (Michael W. Deem and Ramdas Pophale) SiO2 
 PCOD9409944
Probable space group: P N N A
;
_chemical_formula_sum "Si O2"
_cell_formula_units_Z 60
_cell_length_a 26.639135
_cell_length_b 14.362728
_cell_length_c 7.908018
_cell_angle_alpha 90.000000
_cell_angle_beta 90.000000
_cell_angle_gamma 90.000000
_cell_volume 3025.691908
_symmetry_space_group_name_H-M "P N N A"
_symmetry_group_IT_number 52
_symmetry_cell_setting 'orthorhombic'
loop_
_space_group_symop_operation_xyz
x,y,z
1/2-x,-y,z
x,1/2-y,1/2-z
1/2-x,1/2+y,1/2-z
-x,-y,-z
1/2+x,y,-z
-x,1/2+y,1/2+z
1/2+x,1/2-y,1/2+z
loop_
_atom_site_type_symbol
_atom_site_label
_atom_site_fract_x
_atom_site_fract_y
_atom_site_fract_z
Si Si1 0.927570 0.447014 0.857823
Si Si2 0.680060 0.294509 0.562096
Si Si3 0.894415 0.275572 0.027266
Si Si4 0.108040 0.250000 0.750000
Si Si5 0.293967 0.194710 0.075102
Si Si6 0.421147 0.400470 0.650304
Si Si7 0.457023 0.932918 0.679810
Si Si8 0.349690 0.007354 0.076573
O O1 0.898389 0.491248 0.700210
O O2 0.984941 0.412133 0.852732
O O3 0.896822 0.351379 0.882392
O O4 0.930104 0.521406 0.013605
O O5 0.673336 0.250000 0.750000
O O6 0.642727 0.255318 0.418451
O O7 0.738318 0.286741 0.507911
O O8 0.670893 0.404578 0.577298
O O9 0.911985 0.338482 0.184170
O O10 0.928088 0.181889 0.013523
O O11 0.838393 0.235985 0.040232
O O12 0.073605 0.157049 0.739669
O O13 0.296737 0.250000 0.250000
O O14 0.308338 0.086973 0.112166
O O15 0.460618 0.480153 0.688768
O O16 0.372456 0.460690 0.602951
#
# Coordination Sequence:
#
# PCOD9409944 Si02
#       8
#     8   8   8   4   8   8   8   8
#     4  10  21  38  66  89 125 157 208 259 317 363
#     4  11  25  42  61  89 124 165 208 260 308 376
#     4   9  18  36  60  90 116 157 192 261 311 359
#     4  12  24  44  64  84 132 174 208 246 316 374
#     4  10  20  37  63  91 118 151 206 258 316 368
#     4   9  19  34  58  83 125 148 198 248 301 365
#     4  10  22  41  58  91 123 167 208 255 300 389
#     4  11  20  38  62  87 117 158 197 257 311 370
#
# _framework density 19.830175000000001
#
# number of rings (size 3 to 8) (size 9 to 14) (size 15 to 20)
#    0.000    1.867    2.667    1.200    0.000    4.800 
#    2.400    0.000    0.000    0.000    0.000    0.000 
#    0.000    0.000    0.000    0.000    0.000    0.000 
#
# Total GULP energy -334019.346806 kJ/mol
# GULP energy per Si atom -5566.989113 kJ/mol
# Density = 1.978504 g / cm^3
# Si number density = 19.830175 Si / 1000 Ang^3
#
#
#
# Elastic Constant Matrix: (Units=GPa)
#
#
# Indices 1 2 3 4 5 6 
#
# 1 74.3973 33.0688 11.9745 0.0000 0.0000 0.0000
# 2 33.0688 124.0320 14.1679 0.0000 0.0000 0.0000
# 3 11.9745 14.1679 40.3943 0.0000 0.0000 0.0000
# 4 0.0000 0.0000 0.0000 20.4480 0.0000 0.0000
# 5 0.0000 0.0000 0.0000 0.0000 17.2026 0.0000
# 6 0.0000 0.0000 0.0000 0.0000 0.0000 21.0730
#
#
#
# Elastic Compliance Matrix: (Units=1/GPa)
#
#
# Indices 1 2 3 4 5 6 
#
# 1 0.015662 -0.003798 -0.003311 0.000000 0.000000 0.000000
# 2 -0.003798 0.009320 -0.002143 0.000000 0.000000 0.000000
# 3 -0.003311 -0.002143 0.026489 0.000000 0.000000 0.000000
# 4 0.000000 0.000000 0.000000 0.048904 0.000000 0.000000
# 5 0.000000 0.000000 0.000000 0.000000 0.058131 0.000000
# 6 0.000000 0.000000 0.000000 0.000000 0.000000 0.047454
#
#
# Mechanical properties :
#
#
# Convention : Reuss Voigt Hill
#
# Bulk Modulus (GPa) = 30.33251 39.69399 35.01325
# Shear Modulus (GPa) = 21.23568 23.71890 22.47729
#
# Velocity S-wave (km/s) = 3.27598 3.46222 3.37039
# Velocity P-wave (km/s) = 5.44414 6.00359 5.73070
#
# Compressibility (1/GPa) = 0.03296793
#
# Stress axis : x y z
#
# Youngs Moduli (GPa) = 63.84787 107.29939 37.75135
#
# Poissons Ratio (x) = 0.40748 0.12499
# Poissons Ratio (y) = 0.24247 0.08090
# Poissons Ratio (z) = 0.21140 0.22995
#
# Static dielectric constant tensor:
#      x y z
#    x 1.696500 0.000000 0.000000 
#    y 0.000000 1.711360 0.000000 
#    z 0.000000 0.000000 1.808660 
# 
# From -- ./inp_files/15077.got.cif
#   From: 2010.05.17/outbox.cif.g08.bks.cpg/sg52_8_cif.got.tgz:15077.got - 2010.06.03 12:15:38.
