data_PCOD9409284
_publ_section_title
;
Structure prediction by ZEFSAII (Michael W. Deem and Ramdas Pophale) SiO2 
 PCOD9409284
Probable space group: P N N A
;
_chemical_formula_sum "Si O2"
_cell_formula_units_Z 64
_cell_length_a 15.091314
_cell_length_b 17.782767
_cell_length_c 12.110625
_cell_angle_alpha 90.000000
_cell_angle_beta 90.000000
_cell_angle_gamma 90.000000
_cell_volume 3250.071761
_symmetry_space_group_name_H-M "P N N A"
_symmetry_group_IT_number 52
_symmetry_cell_setting 'orthorhombic'
loop_
_space_group_symop_operation_xyz
x,y,z
1/2-x,-y,z
x,1/2-y,1/2-z
1/2-x,1/2+y,1/2-z
-x,-y,-z
1/2+x,y,-z
-x,1/2+y,1/2+z
1/2+x,1/2-y,1/2+z
loop_
_atom_site_type_symbol
_atom_site_label
_atom_site_fract_x
_atom_site_fract_y
_atom_site_fract_z
Si Si1 0.358268 0.160570 0.237473
Si Si2 0.564723 0.100057 0.555187
Si Si3 0.012863 0.952309 0.333116
Si Si4 0.229468 0.875267 0.468062
Si Si5 0.754420 0.301203 0.519356
Si Si6 0.069449 0.267826 0.374195
Si Si7 0.159794 0.964094 0.673672
Si Si8 0.621609 0.824438 0.177160
O O1 0.381126 0.250000 0.250000
O O2 0.441955 0.104909 0.248547
O O3 0.300768 0.127643 0.340304
O O4 0.303110 0.161745 0.124781
O O5 0.498058 0.083063 0.455101
O O6 0.667681 0.103060 0.521855
O O7 0.542345 0.184185 0.590049
O O8 0.557147 0.034072 0.646118
O O9 0.912282 0.971993 0.308848
O O10 0.220840 0.787185 0.497067
O O11 0.177846 0.930914 0.550268
O O12 0.649492 0.299549 0.550360
O O13 0.800256 0.335888 0.411885
O O14 0.105604 0.250000 0.250000
O O15 0.978534 0.315149 0.370949
O O16 0.125832 0.893949 0.741783
O O17 0.250000 0.000000 0.713566
O O18 0.637548 0.750000 0.250000
#
# Coordination Sequence:
#
# PCOD9409284 Si02
#       8
#     8   8   8   8   8   8   8   8
#     4  10  23  37  61  90 129 164 207 272 335 384
#     4  10  20  34  61  97 130 162 210 263 331 396
#     4  11  22  35  57  95 130 164 207 269 334 390
#     4  10  19  38  64  96 130 163 206 273 337 386
#     4  10  21  42  65  96 127 170 222 273 319 389
#     4  10  21  39  66  99 130 171 220 270 319 403
#     4  12  24  42  63  92 133 171 221 275 328 394
#     4  11  23  42  72  93 128 181 224 265 322 399
#
# _framework density 19.691873999999999
#
# number of rings (size 3 to 8) (size 9 to 14) (size 15 to 20)
#    0.000    1.500    2.500    4.875    3.500    0.000 
#    2.250    1.250    5.500    0.000    0.000    0.000 
#    0.000    0.000    0.000    0.000    0.000    0.000 
#
# Total GULP energy -356718.724694 kJ/mol
# GULP energy per Si atom -5573.730073 kJ/mol
# Density = 1.964705 g / cm^3
# Si number density = 19.691874 Si / 1000 Ang^3
#
#
#
# Elastic Constant Matrix: (Units=GPa)
#
#
# Indices 1 2 3 4 5 6 
#
# 1 117.6085 46.6932 37.9005 0.0000 0.0000 0.0000
# 2 46.6932 73.4079 22.0843 0.0000 0.0000 0.0000
# 3 37.9005 22.0843 55.1273 0.0000 0.0000 0.0000
# 4 0.0000 0.0000 0.0000 28.7390 0.0000 0.0000
# 5 0.0000 0.0000 0.0000 0.0000 12.2535 0.0000
# 6 0.0000 0.0000 0.0000 0.0000 0.0000 38.0054
#
#
#
# Elastic Compliance Matrix: (Units=1/GPa)
#
#
# Indices 1 2 3 4 5 6 
#
# 1 0.013128 -0.006407 -0.006459 0.000000 0.000000 0.000000
# 2 -0.006407 0.018617 -0.003053 0.000000 0.000000 0.000000
# 3 -0.006459 -0.003053 0.023803 0.000000 0.000000 0.000000
# 4 0.000000 0.000000 0.000000 0.034796 0.000000 0.000000
# 5 0.000000 0.000000 0.000000 0.000000 0.081610 0.000000
# 6 0.000000 0.000000 0.000000 0.000000 0.000000 0.026312
#
#
# Mechanical properties :
#
#
# Convention : Reuss Voigt Hill
#
# Bulk Modulus (GPa) = 42.17636 51.05551 46.61594
# Shear Modulus (GPa) = 21.00780 25.09727 23.05254
#
# Velocity S-wave (km/s) = 3.26977 3.57389 3.42521
# Velocity P-wave (km/s) = 5.97661 6.55848 6.27430
#
# Compressibility (1/GPa) = 0.02370997
#
# Stress axis : x y z
#
# Youngs Moduli (GPa) = 76.17251 53.71574 42.01096
#
# Poissons Ratio (x) = 0.34418 0.27134
# Poissons Ratio (y) = 0.48807 0.12825
# Poissons Ratio (z) = 0.49199 0.16398
#
# Static dielectric constant tensor:
#      x y z
#    x 1.736290 0.000000 0.000000 
#    y 0.000000 1.701560 0.000000 
#    z 0.000000 0.000000 1.709760 
# 
# From -- ./inp_files/19846.got.cif
#   From: 2010.05.17/outbox.cif.g08.bks.cpg/sg52_10_cif.got.tgz:19846.got - 2010.06.03 12:15:38.
