data_PCOD9409816
_publ_section_title
;
Structure prediction by ZEFSAII (Michael W. Deem and Ramdas Pophale) SiO2 
 PCOD9409816
Probable space group: P N N A
;
_chemical_formula_sum "Si O2"
_cell_formula_units_Z 60
_cell_length_a 20.982145
_cell_length_b 9.093705
_cell_length_c 17.195229
_cell_angle_alpha 90.000000
_cell_angle_beta 90.000000
_cell_angle_gamma 90.000000
_cell_volume 3280.943182
_symmetry_space_group_name_H-M "P N N A"
_symmetry_group_IT_number 52
_symmetry_cell_setting 'orthorhombic'
loop_
_space_group_symop_operation_xyz
x,y,z
1/2-x,-y,z
x,1/2-y,1/2-z
1/2-x,1/2+y,1/2-z
-x,-y,-z
1/2+x,y,-z
-x,1/2+y,1/2+z
1/2+x,1/2-y,1/2+z
loop_
_atom_site_type_symbol
_atom_site_label
_atom_site_fract_x
_atom_site_fract_y
_atom_site_fract_z
Si Si1 0.069747 0.704040 0.161817
Si Si2 0.138212 0.803899 0.568470
Si Si3 0.355921 0.750000 0.750000
Si Si4 0.561927 0.423065 0.125348
Si Si5 0.823714 0.025415 0.589012
Si Si6 0.931158 0.055367 0.972148
Si Si7 0.235510 0.331887 0.612241
Si Si8 0.131246 0.248097 0.490487
O O1 0.060397 0.750000 0.250000
O O2 0.137076 0.624634 0.148678
O O3 0.064958 0.844922 0.104915
O O4 0.013054 0.593419 0.137417
O O5 0.166751 0.891558 0.494002
O O6 0.101883 0.660811 0.536211
O O7 0.198239 0.755411 0.620458
O O8 0.089162 0.915561 0.608456
O O9 0.400617 0.642483 0.800273
O O10 0.309495 0.673515 0.687619
O O11 0.580514 0.321682 0.051026
O O12 0.750000 0.000000 0.606459
O O13 0.856717 0.867503 0.577379
O O14 0.889674 0.908233 0.963104
O O15 0.000000 0.000000 0.000000
O O16 0.250000 0.500000 0.592844
O O17 0.195405 0.261698 0.541804
#
# Coordination Sequence:
#
# PCOD9409816 Si02
#       8
#     8   8   4   8   8   8   8   8
#     4  11  24  43  64  87 125 164 202 254 327 378
#     4  10  22  36  62  93 119 160 207 257 293 364
#     4  10  24  34  58  82 132 174 190 240 302 378
#     4  10  21  39  60  86 123 165 206 240 302 367
#     4  10  21  39  66  91 115 153 206 259 310 366
#     4  11  22  38  63  92 120 155 208 262 304 356
#     4  11  21  36  56  90 131 163 204 244 307 356
#     4  10  20  36  62  90 120 154 203 265 293 352
#
# _framework density 18.287424000000001
#
# number of rings (size 3 to 8) (size 9 to 14) (size 15 to 20)
#    0.000    1.600    4.667    0.000    3.733    1.600 
#    0.000    2.000    0.000    0.000    0.000    0.000 
#    0.000    0.000    0.000    0.000    0.000    0.000 
#
# Total GULP energy -334976.012298 kJ/mol
# GULP energy per Si atom -5582.933538 kJ/mol
# Density = 1.824580 g / cm^3
# Si number density = 18.287424 Si / 1000 Ang^3
#
#
#
# Elastic Constant Matrix: (Units=GPa)
#
#
# Indices 1 2 3 4 5 6 
#
# 1 120.7237 43.4656 21.8849 0.0000 0.0000 0.0000
# 2 43.4656 105.0744 11.7033 0.0000 0.0000 0.0000
# 3 21.8849 11.7033 38.1192 0.0000 0.0000 0.0000
# 4 0.0000 0.0000 0.0000 7.2923 0.0000 0.0000
# 5 0.0000 0.0000 0.0000 0.0000 13.9562 0.0000
# 6 0.0000 0.0000 0.0000 0.0000 0.0000 35.1792
#
#
#
# Elastic Compliance Matrix: (Units=1/GPa)
#
#
# Indices 1 2 3 4 5 6 
#
# 1 0.010543 -0.003817 -0.004881 0.000000 0.000000 0.000000
# 2 -0.003817 0.011236 -0.001258 0.000000 0.000000 0.000000
# 3 -0.004881 -0.001258 0.029422 0.000000 0.000000 0.000000
# 4 0.000000 0.000000 0.000000 0.137132 0.000000 0.000000
# 5 0.000000 0.000000 0.000000 0.000000 0.071653 0.000000
# 6 0.000000 0.000000 0.000000 0.000000 0.000000 0.028426
#
#
# Mechanical properties :
#
#
# Convention : Reuss Voigt Hill
#
# Bulk Modulus (GPa) = 31.96081 46.44721 39.20401
# Shear Modulus (GPa) = 15.68614 23.74311 19.71463
#
# Velocity S-wave (km/s) = 2.93192 3.60714 3.28692
# Velocity P-wave (km/s) = 5.38298 6.54234 5.99077
#
# Compressibility (1/GPa) = 0.03128832
#
# Stress axis : x y z
#
# Youngs Moduli (GPa) = 94.85330 88.99685 33.98841
#
# Poissons Ratio (x) = 0.33974 0.16589
# Poissons Ratio (y) = 0.36210 0.04276
# Poissons Ratio (z) = 0.46294 0.11197
#
# Static dielectric constant tensor:
#      x y z
#    x 1.640590 0.000000 0.000000 
#    y 0.000000 1.617070 0.000000 
#    z 0.000000 0.000000 1.612250 
# 
# From -- ./inp_files/33778.got.cif
#   From: 2010.05.17/outbox.cif.g08.bks.cpg/sg52_17_cif.got.tgz:33778.got - 2010.06.03 12:15:38.
