data_PCOD9409887
_publ_section_title
;
Structure prediction by ZEFSAII (Michael W. Deem and Ramdas Pophale) SiO2 
 PCOD9409887
Probable space group: P N N A
;
_chemical_formula_sum "Si O2"
_cell_formula_units_Z 44
_cell_length_a 16.556974
_cell_length_b 5.046957
_cell_length_c 28.116527
_cell_angle_alpha 90.000000
_cell_angle_beta 90.000000
_cell_angle_gamma 90.000000
_cell_volume 2349.482671
_symmetry_space_group_name_H-M "P N N A"
_symmetry_group_IT_number 52
_symmetry_cell_setting 'orthorhombic'
loop_
_space_group_symop_operation_xyz
x,y,z
1/2-x,-y,z
x,1/2-y,1/2-z
1/2-x,1/2+y,1/2-z
-x,-y,-z
1/2+x,y,-z
-x,1/2+y,1/2+z
1/2+x,1/2-y,1/2+z
loop_
_atom_site_type_symbol
_atom_site_label
_atom_site_fract_x
_atom_site_fract_y
_atom_site_fract_z
Si Si1 0.554422 0.934975 0.044973
Si Si2 0.343866 0.501170 0.284041
Si Si3 0.507299 0.995469 0.850938
Si Si4 0.594769 0.511979 0.167216
Si Si5 0.158206 0.052582 0.563399
Si Si6 0.801150 0.750000 0.250000
O O1 0.501268 0.936305 0.093346
O O2 0.597480 0.653568 0.038948
O O3 0.624285 0.154647 0.053628
O O4 0.500000 0.000000 0.000000
O O5 0.250000 0.500000 0.299222
O O6 0.359140 0.250000 0.250000
O O7 0.405298 0.516717 0.327644
O O8 0.356806 0.750000 0.250000
O O9 0.445388 0.201319 0.825570
O O10 0.476130 0.698005 0.843264
O O11 0.648912 0.511716 0.119650
O O12 0.645555 0.394647 0.210287
O O13 0.250000 0.000000 0.548949
O O14 0.750000 0.500000 0.270629
#
# Coordination Sequence:
#
# PCOD9409887 Si02
#       6
#     8   8   8   8   8   4
#     4  10  21  38  60  85 114 144 187 242 288 339
#     4  10  21  36  56  81 111 148 187 235 284 334
#     4  10  21  37  57  82 109 149 188 229 282 342
#     4  10  22  35  55  81 110 151 188 225 269 327
#     4  10  20  37  59  82 112 149 189 226 280 343
#     4  12  24  36  50  78 118 150 186 232 274 312
#
# _framework density 18.727526000000001
#
# number of rings (size 3 to 8) (size 9 to 14) (size 15 to 20)
#    0.000    1.818    0.000    3.818    3.818    2.909 
#    0.000    1.818    0.000    2.182    0.000    0.000 
#    0.000    0.000    0.000    0.000    0.000    0.000 
#
# Total GULP energy -245767.780170 kJ/mol
# GULP energy per Si atom -5585.631368 kJ/mol
# Density = 1.868490 g / cm^3
# Si number density = 18.727526 Si / 1000 Ang^3
#
#
#
# Elastic Constant Matrix: (Units=GPa)
#
#
# Indices 1 2 3 4 5 6 
#
# 1 88.9448 2.7419 53.1998 0.0000 0.0000 0.0000
# 2 2.7419 81.1823 2.7864 0.0000 0.0000 0.0000
# 3 53.1998 2.7864 76.0274 0.0000 0.0000 0.0000
# 4 0.0000 0.0000 0.0000 2.7564 0.0000 0.0000
# 5 0.0000 0.0000 0.0000 0.0000 13.1650 0.0000
# 6 0.0000 0.0000 0.0000 0.0000 0.0000 22.6945
#
#
#
# Elastic Compliance Matrix: (Units=1/GPa)
#
#
# Indices 1 2 3 4 5 6 
#
# 1 0.019338 -0.000189 -0.013525 0.000000 0.000000 0.000000
# 2 -0.000189 0.012335 -0.000320 0.000000 0.000000 0.000000
# 3 -0.013525 -0.000320 0.022629 0.000000 0.000000 0.000000
# 4 0.000000 0.000000 0.000000 0.362793 0.000000 0.000000
# 5 0.000000 0.000000 0.000000 0.000000 0.075959 0.000000
# 6 0.000000 0.000000 0.000000 0.000000 0.000000 0.044064
#
#
# Mechanical properties :
#
#
# Convention : Reuss Voigt Hill
#
# Bulk Modulus (GPa) = 38.11705 40.40119 39.25912
# Shear Modulus (GPa) = 8.71186 20.21826 14.46506
#
# Velocity S-wave (km/s) = 2.15917 3.28929 2.78222
# Velocity P-wave (km/s) = 5.15884 6.00383 5.59730
#
# Compressibility (1/GPa) = 0.02623498
#
# Stress axis : x y z
#
# Youngs Moduli (GPa) = 51.71082 81.06800 44.19126
#
# Poissons Ratio (x) = 0.01532 0.59769
# Poissons Ratio (y) = 0.00977 0.01414
# Poissons Ratio (z) = 0.69939 0.02593
#
# Static dielectric constant tensor:
#      x y z
#    x 2.452590 0.000000 0.000000 
#    y 0.000000 1.646470 0.000000 
#    z 0.000000 0.000000 1.631330 
# 
# From -- ./inp_files/42941.got.cif
#   From: 2010.05.17/outbox.cif.g08.bks.cpg/sg52_22_cif.got.tgz:42941.got - 2010.06.03 12:15:38.
