data_PCOD9409222
_publ_section_title
;
Structure prediction by ZEFSAII (Michael W. Deem and Ramdas Pophale) SiO2 
 PCOD9409222
Probable space group: P N N A
;
_chemical_formula_sum "Si O2"
_cell_formula_units_Z 56
_cell_length_a 9.275480
_cell_length_b 13.754145
_cell_length_c 19.682350
_cell_angle_alpha 90.000000
_cell_angle_beta 90.000000
_cell_angle_gamma 90.000000
_cell_volume 2511.001327
_symmetry_space_group_name_H-M "P N N A"
_symmetry_group_IT_number 52
_symmetry_cell_setting 'orthorhombic'
loop_
_space_group_symop_operation_xyz
x,y,z
1/2-x,-y,z
x,1/2-y,1/2-z
1/2-x,1/2+y,1/2-z
-x,-y,-z
1/2+x,y,-z
-x,1/2+y,1/2+z
1/2+x,1/2-y,1/2+z
loop_
_atom_site_type_symbol
_atom_site_label
_atom_site_fract_x
_atom_site_fract_y
_atom_site_fract_z
Si Si1 0.915270 0.532342 0.778981
Si Si2 0.814525 0.892162 0.854963
Si Si3 0.321637 0.905652 0.759110
Si Si4 0.516866 0.730643 0.456001
Si Si5 0.908232 0.249683 0.897947
Si Si6 0.776171 0.777515 0.355770
Si Si7 0.833899 0.594130 0.924002
O O1 0.750000 0.500000 0.777711
O O2 0.913489 0.604285 0.713350
O O3 0.926202 0.569846 0.856128
O O4 0.021860 0.443788 0.762744
O O5 0.672320 0.824769 0.847602
O O6 0.911274 0.842581 0.914693
O O7 0.750000 0.000000 0.869613
O O8 0.238183 0.868815 0.691930
O O9 0.304867 0.817230 0.809624
O O10 0.250000 0.000000 0.790693
O O11 0.569946 0.695944 0.529510
O O12 0.656492 0.753684 0.410676
O O13 0.434071 0.833786 0.467231
O O14 0.797684 0.337403 0.902746
O O15 0.062937 0.292776 0.881744
O O16 0.750000 0.500000 0.953162
#
# Coordination Sequence:
#
# PCOD9409222 Si02
#       7
#     8   8   8   8   8   8   8
#     4  10  19  37  63  90 115 146 197 250 297 355
#     4  10  22  41  65  90 118 158 204 254 305 357
#     4  11  23  38  60  92 124 153 193 245 308 373
#     4  11  24  41  60  87 126 165 206 248 296 367
#     4  11  24  41  60  89 122 159 210 250 292 363
#     4  11  22  38  62  90 124 161 192 250 318 357
#     4  10  22  41  65  90 118 158 204 254 305 357
#
# _framework density 22.301859
#
# number of rings (size 3 to 8) (size 9 to 14) (size 15 to 20)
#    0.000    1.429    0.000    6.857    0.000    5.714 
#    0.000    5.714    0.000    0.000    0.000    0.000 
#    0.000    0.000    0.000    0.000    0.000    0.000 
#
# Total GULP energy -312370.787741 kJ/mol
# GULP energy per Si atom -5578.049781 kJ/mol
# Density = 2.225110 g / cm^3
# Si number density = 22.301859 Si / 1000 Ang^3
#
#
#
# Elastic Constant Matrix: (Units=GPa)
#
#
# Indices 1 2 3 4 5 6 
#
# 1 94.6001 7.3778 -10.9867 0.0000 0.0000 0.0000
# 2 7.3778 74.7925 -7.1937 0.0000 0.0000 0.0000
# 3 -10.9867 -7.1937 53.7168 0.0000 0.0000 0.0000
# 4 0.0000 0.0000 0.0000 348.8883 0.0000 0.0000
# 5 0.0000 0.0000 0.0000 0.0000 28.6724 0.0000
# 6 0.0000 0.0000 0.0000 0.0000 0.0000 36.4934
#
#
#
# Elastic Compliance Matrix: (Units=1/GPa)
#
#
# Indices 1 2 3 4 5 6 
#
# 1 0.010884 -0.000871 0.002109 0.000000 0.000000 0.000000
# 2 -0.000871 0.013614 0.001645 0.000000 0.000000 0.000000
# 3 0.002109 0.001645 0.019268 0.000000 0.000000 0.000000
# 4 0.000000 0.000000 0.000000 0.002866 0.000000 0.000000
# 5 0.000000 0.000000 0.000000 0.000000 0.034877 0.000000
# 6 0.000000 0.000000 0.000000 0.000000 0.000000 0.027402
#
#
# Mechanical properties :
#
#
# Convention : Reuss Voigt Hill
#
# Bulk Modulus (GPa) = 20.18824 22.38936 21.28880
# Shear Modulus (GPa) = 41.78689 98.40496 70.09592
#
# Velocity S-wave (km/s) = 4.33332 6.64980 5.61238
# Velocity P-wave (km/s) = 5.84027 8.30788 7.18086
#
# Compressibility (1/GPa) = 0.04953380
#
# Stress axis : x y z
#
# Youngs Moduli (GPa) = 91.88048 73.45139 51.89979
#
# Poissons Ratio (x) = 0.06396 -0.10948
# Poissons Ratio (y) = 0.08000 -0.08538
# Poissons Ratio (z) = -0.19382 -0.12084
#
# Static dielectric constant tensor:
#      x y z
#    x 1.810390 0.000000 0.000000 
#    y 0.000000 1.835170 0.000000 
#    z 0.000000 0.000000 1.911920 
# 
# From -- ./inp_files/36057.got.cif
#   From: 2010.05.17/outbox.cif.g08.bks.cpg/sg52_19_cif.got.tgz:36057.got - 2010.06.03 12:15:38.
