data_PCOD9409463
_publ_section_title
;
Structure prediction by ZEFSAII (Michael W. Deem and Ramdas Pophale) SiO2 
 PCOD9409463
Probable space group: P N N A
;
_chemical_formula_sum "Si O2"
_cell_formula_units_Z 40
_cell_length_a 31.495167
_cell_length_b 5.020052
_cell_length_c 16.325254
_cell_angle_alpha 90.000000
_cell_angle_beta 90.000000
_cell_angle_gamma 90.000000
_cell_volume 2581.143074
_symmetry_space_group_name_H-M "P N N A"
_symmetry_group_IT_number 52
_symmetry_cell_setting 'orthorhombic'
loop_
_space_group_symop_operation_xyz
x,y,z
1/2-x,-y,z
x,1/2-y,1/2-z
1/2-x,1/2+y,1/2-z
-x,-y,-z
1/2+x,y,-z
-x,1/2+y,1/2+z
1/2+x,1/2-y,1/2+z
loop_
_atom_site_type_symbol
_atom_site_label
_atom_site_fract_x
_atom_site_fract_y
_atom_site_fract_z
Si Si1 0.981639 0.636686 0.341330
Si Si2 0.125182 0.177434 0.346095
Si Si3 0.777416 0.751113 0.650353
Si Si4 0.962033 0.395551 0.059949
Si Si5 0.077531 0.825832 0.095723
O O1 0.975732 0.750000 0.250000
O O2 0.974497 0.332803 0.373189
O O3 0.031225 0.690434 0.362447
O O4 0.951547 0.831564 0.394297
O O5 0.121811 0.250000 0.250000
O O6 0.173522 0.228022 0.373650
O O7 0.094268 0.376012 0.394401
O O8 0.109856 0.876968 0.360618
O O9 0.750000 0.500000 0.623635
O O10 0.778272 0.750000 0.750000
O O11 0.750000 0.000000 0.623066
O O12 0.928778 0.266324 0.997693
O O13 0.000000 0.500000 0.000000
#
# Coordination Sequence:
#
# PCOD9409463 Si02
#       5
#     8   8   8   8   8
#     4  11  20  32  48  65  85 115 155 191 221 259
#     4  11  20  29  44  65  85 112 151 188 219 249
#     4   9  17  29  42  57  81 111 143 178 212 251
#     4  10  20  33  46  62  87 118 146 181 231 276
#     4  11  20  31  44  63  88 112 144 188 228 255
#
# _framework density 15.49701
#
# number of rings (size 3 to 8) (size 9 to 14) (size 15 to 20)
#    0.000    1.600    0.000    9.600    0.000    3.200 
#    0.000    0.000    0.000    0.000    0.000    0.000 
#    0.000    0.000    0.000    0.000    0.000  252.000 
#
# Total GULP energy -222807.433403 kJ/mol
# GULP energy per Si atom -5570.185835 kJ/mol
# Density = 1.546174 g / cm^3
# Si number density = 15.497010 Si / 1000 Ang^3
#
#
#
# Elastic Constant Matrix: (Units=GPa)
#
#
# Indices 1 2 3 4 5 6 
#
# 1 40.0843 -1.9572 6.3733 0.0000 0.0000 0.0000
# 2 -1.9572 83.4679 5.4145 0.0000 0.0000 0.0000
# 3 6.3733 5.4145 38.6947 0.0000 0.0000 0.0000
# 4 0.0000 0.0000 0.0000 41.3072 0.0000 0.0000
# 5 0.0000 0.0000 0.0000 0.0000 7.5463 0.0000
# 6 0.0000 0.0000 0.0000 0.0000 0.0000 14.6465
#
#
#
# Elastic Compliance Matrix: (Units=1/GPa)
#
#
# Indices 1 2 3 4 5 6 
#
# 1 0.025683 0.000885 -0.004354 0.000000 0.000000 0.000000
# 2 0.000885 0.012121 -0.001842 0.000000 0.000000 0.000000
# 3 -0.004354 -0.001842 0.026818 0.000000 0.000000 0.000000
# 4 0.000000 0.000000 0.000000 0.024209 0.000000 0.000000
# 5 0.000000 0.000000 0.000000 0.000000 0.132516 0.000000
# 6 0.000000 0.000000 0.000000 0.000000 0.000000 0.068276
#
#
# Mechanical properties :
#
#
# Convention : Reuss Voigt Hill
#
# Bulk Modulus (GPa) = 18.51859 20.21202 19.36531
# Shear Modulus (GPa) = 15.71118 22.86107 19.28613
#
# Velocity S-wave (km/s) = 3.18751 3.84499 3.53158
# Velocity P-wave (km/s) = 5.05200 5.72562 5.39933
#
# Compressibility (1/GPa) = 0.05399979
#
# Stress axis : x y z
#
# Youngs Moduli (GPa) = 38.93640 82.50235 37.28816
#
# Poissons Ratio (x) = -0.07299 0.16235
# Poissons Ratio (y) = -0.03445 0.06868
# Poissons Ratio (z) = 0.16953 0.15195
#
# Static dielectric constant tensor:
#      x y z
#    x 1.491240 0.000000 0.000000 
#    y 0.000000 1.537990 0.000000 
#    z 0.000000 0.000000 1.565540 
# 
# From -- ./inp_files/29306.got.cif
#   From: 2010.05.17/outbox.cif.g08.bks.cpg/sg52_15_cif.got.tgz:29306.got - 2010.06.03 12:15:38.
