data_PCOD9409710
_publ_section_title
;
Structure prediction by ZEFSAII (Michael W. Deem and Ramdas Pophale) SiO2 
 PCOD9409710
Probable space group: P N N A
;
_chemical_formula_sum "Si O2"
_cell_formula_units_Z 60
_cell_length_a 9.269832
_cell_length_b 11.831473
_cell_length_c 28.599893
_cell_angle_alpha 90.000000
_cell_angle_beta 90.000000
_cell_angle_gamma 90.000000
_cell_volume 3136.715202
_symmetry_space_group_name_H-M "P N N A"
_symmetry_group_IT_number 52
_symmetry_cell_setting 'orthorhombic'
loop_
_space_group_symop_operation_xyz
x,y,z
1/2-x,-y,z
x,1/2-y,1/2-z
1/2-x,1/2+y,1/2-z
-x,-y,-z
1/2+x,y,-z
-x,1/2+y,1/2+z
1/2+x,1/2-y,1/2+z
loop_
_atom_site_type_symbol
_atom_site_label
_atom_site_fract_x
_atom_site_fract_y
_atom_site_fract_z
Si Si1 0.142222 0.610577 0.976142
Si Si2 0.249228 0.863582 0.619192
Si Si3 0.067715 0.837003 0.711675
Si Si4 0.465381 0.926763 0.759234
Si Si5 0.526598 0.254936 0.174497
Si Si6 0.750000 0.000000 0.807059
Si Si7 0.189004 0.236935 0.155986
Si Si8 0.317107 0.620043 0.062253
O O1 0.250000 0.500000 0.975282
O O2 0.191023 0.677385 0.930180
O O3 0.970656 0.595310 0.965081
O O4 0.195729 0.662823 0.025098
O O5 0.401488 0.807703 0.629130
O O6 0.154026 0.831149 0.663620
O O7 0.250000 0.000000 0.619549
O O8 0.119891 0.750000 0.750000
O O9 0.907088 0.801333 0.694920
O O10 0.085060 0.955557 0.737932
O O11 0.411184 0.864683 0.806534
O O12 0.447989 0.841263 0.716724
O O13 0.631518 0.945785 0.773271
O O14 0.357384 0.252156 0.165786
O O15 0.826635 0.899525 0.836997
O O16 0.158264 0.294786 0.105505
O O17 0.250000 0.500000 0.080000
#
# Coordination Sequence:
#
# PCOD9409710 Si02
#       8
#     8   8   8   8   8   4   8   8
#     4  10  22  39  59  89 126 156 188 254 316 372
#     4  11  23  38  56  86 126 159 198 246 301 366
#     4  12  23  37  59  87 123 163 199 253 292 347
#     4  10  20  36  54  82 117 160 201 237 286 347
#     4  10  23  36  56  83 119 162 201 236 292 355
#     4  10  20  42  56  84 124 152 206 252 290 348
#     4  11  24  37  63  89 113 163 202 248 298 364
#     4  11  23  38  63  93 120 152 196 251 322 371
#
# _framework density 19.128291000000001
#
# number of rings (size 3 to 8) (size 9 to 14) (size 15 to 20)
#    0.000    1.333    4.000    2.400   11.200    0.000 
#    0.000    0.000    0.000    0.800    3.467    0.000 
#    0.000    0.000    0.000    0.000    0.000    0.000 
#
# Total GULP energy -334127.361562 kJ/mol
# GULP energy per Si atom -5568.789359 kJ/mol
# Density = 1.908475 g / cm^3
# Si number density = 19.128291 Si / 1000 Ang^3
#
#
#
# Elastic Constant Matrix: (Units=GPa)
#
#
# Indices 1 2 3 4 5 6 
#
# 1 81.7026 15.5398 10.0060 0.0000 0.0000 0.0000
# 2 15.5398 81.2241 30.2459 0.0000 0.0000 0.0000
# 3 10.0060 30.2459 88.5803 0.0000 0.0000 0.0000
# 4 0.0000 0.0000 0.0000 -6.2532 0.0000 0.0000
# 5 0.0000 0.0000 0.0000 0.0000 3.8390 0.0000
# 6 0.0000 0.0000 0.0000 0.0000 0.0000 16.8360
#
#
#
# Elastic Compliance Matrix: (Units=1/GPa)
#
#
# Indices 1 2 3 4 5 6 
#
# 1 0.012739 -0.002178 -0.000695 0.000000 0.000000 0.000000
# 2 -0.002178 0.014478 -0.004697 0.000000 0.000000 0.000000
# 3 -0.000695 -0.004697 0.012972 0.000000 0.000000 0.000000
# 4 0.000000 0.000000 0.000000 -0.159918 0.000000 0.000000
# 5 0.000000 0.000000 0.000000 0.000000 0.260487 0.000000
# 6 0.000000 0.000000 0.000000 0.000000 0.000000 0.059396
#
#
# Mechanical properties :
#
#
# Convention : Reuss Voigt Hill
#
# Bulk Modulus (GPa) = 39.92583 40.34337 40.13460
# Shear Modulus (GPa) = 22.35694 15.93205 19.14449
#
# Velocity S-wave (km/s) = 3.42246 2.88914 3.16705
# Velocity P-wave (km/s) = 6.04447 5.68034 5.86523
#
# Compressibility (1/GPa) = 0.02504644
#
# Stress axis : x y z
#
# Youngs Moduli (GPa) = 78.49922 69.07252 77.09138
#
# Poissons Ratio (x) = 0.15046 0.05359
# Poissons Ratio (y) = 0.17100 0.36212
# Poissons Ratio (z) = 0.05457 0.32446
#
# Static dielectric constant tensor:
#      x y z
#    x 1.800600 0.000000 0.000000 
#    y 0.000000 1.730740 0.000000 
#    z 0.000000 0.000000 1.717150 
# 
# From -- ./inp_files/44574.got.cif
#   From: 2010.05.17/outbox.cif.g08.bks.cpg/sg52_23_cif.got.tgz:44574.got - 2010.06.03 12:15:38.
