data_PCOD9409111
_publ_section_title
;
Structure prediction by ZEFSAII (Michael W. Deem and Ramdas Pophale) SiO2 
 PCOD9409111
Probable space group: P N N A
;
_chemical_formula_sum "Si O2"
_cell_formula_units_Z 44
_cell_length_a 13.952444
_cell_length_b 9.008447
_cell_length_c 18.388757
_cell_angle_alpha 90.000000
_cell_angle_beta 90.000000
_cell_angle_gamma 90.000000
_cell_volume 2311.280151
_symmetry_space_group_name_H-M "P N N A"
_symmetry_group_IT_number 52
_symmetry_cell_setting 'orthorhombic'
loop_
_space_group_symop_operation_xyz
x,y,z
1/2-x,-y,z
x,1/2-y,1/2-z
1/2-x,1/2+y,1/2-z
-x,-y,-z
1/2+x,y,-z
-x,1/2+y,1/2+z
1/2+x,1/2-y,1/2+z
loop_
_atom_site_type_symbol
_atom_site_label
_atom_site_fract_x
_atom_site_fract_y
_atom_site_fract_z
Si Si1 0.297354 0.149043 0.000236
Si Si2 0.025056 0.250000 0.750000
Si Si3 0.963103 0.248229 0.105386
Si Si4 0.635975 0.490410 0.159450
Si Si5 0.102351 0.199863 0.516999
Si Si6 0.464712 0.414316 0.390177
O O1 0.363552 0.105321 0.068708
O O2 0.250000 0.000000 0.969803
O O3 0.368759 0.217705 0.942311
O O4 0.207024 0.254985 0.011472
O O5 0.092559 0.374689 0.784336
O O6 0.965937 0.324337 0.684814
O O7 0.923124 0.356696 0.166924
O O8 0.008318 0.086779 0.121746
O O9 0.038100 0.333371 0.053104
O O10 0.750000 0.500000 0.168274
O O11 0.615075 0.424145 0.078656
O O12 0.045454 0.336711 0.557402
#
# Coordination Sequence:
#
# PCOD9409111 Si02
#       6
#     8   4   8   8   8   8
#     4  11  17  33  64  93 117 141 185 237 304 358
#     4  10  26  44  50  74 120 162 200 228 284 346
#     4  11  20  33  60  92 115 144 190 244 299 341
#     4  11  23  38  58  84 116 156 193 243 290 350
#     4  10  19  36  58  93 120 141 179 242 306 347
#     4  10  21  36  61  82 116 160 185 235 287 353
#
# _framework density 19.037068000000001
#
# number of rings (size 3 to 8) (size 9 to 14) (size 15 to 20)
#    0.000    1.455    5.455    1.636    0.000    2.182 
#    0.000    0.000    4.000    0.000    0.000    0.000 
#    0.000    0.000    0.000    0.000    0.000    0.000 
#
# Total GULP energy -245530.017593 kJ/mol
# GULP energy per Si atom -5580.227673 kJ/mol
# Density = 1.899374 g / cm^3
# Si number density = 19.037068 Si / 1000 Ang^3
#
#
#
# Elastic Constant Matrix: (Units=GPa)
#
#
# Indices 1 2 3 4 5 6 
#
# 1 111.0465 29.6168 19.2578 0.0000 0.0000 0.0000
# 2 29.6168 82.5936 26.8177 0.0000 0.0000 0.0000
# 3 19.2578 26.8177 45.4587 0.0000 0.0000 0.0000
# 4 0.0000 0.0000 0.0000 24.4302 0.0000 0.0000
# 5 0.0000 0.0000 0.0000 0.0000 6.2179 0.0000
# 6 0.0000 0.0000 0.0000 0.0000 0.0000 26.7603
#
#
#
# Elastic Compliance Matrix: (Units=1/GPa)
#
#
# Indices 1 2 3 4 5 6 
#
# 1 0.010215 -0.002793 -0.002680 0.000000 0.000000 0.000000
# 2 -0.002793 0.015740 -0.008102 0.000000 0.000000 0.000000
# 3 -0.002680 -0.008102 0.027913 0.000000 0.000000 0.000000
# 4 0.000000 0.000000 0.000000 0.040933 0.000000 0.000000
# 5 0.000000 0.000000 0.000000 0.000000 0.160825 0.000000
# 6 0.000000 0.000000 0.000000 0.000000 0.000000 0.037369
#
#
# Mechanical properties :
#
#
# Convention : Reuss Voigt Hill
#
# Bulk Modulus (GPa) = 37.42808 43.38703 40.40756
# Shear Modulus (GPa) = 15.19525 22.37545 18.78535
#
# Velocity S-wave (km/s) = 2.82830 3.43207 3.14471
# Velocity P-wave (km/s) = 5.51081 6.20853 5.87004
#
# Compressibility (1/GPa) = 0.02671791
#
# Stress axis : x y z
#
# Youngs Moduli (GPa) = 97.89699 63.53370 35.82553
#
# Poissons Ratio (x) = 0.17744 0.09600
# Poissons Ratio (y) = 0.27340 0.29027
# Poissons Ratio (z) = 0.26234 0.51477
#
# Static dielectric constant tensor:
#      x y z
#    x 1.632840 0.000000 0.000000 
#    y 0.000000 1.719930 0.000000 
#    z 0.000000 0.000000 1.651230 
# 
# From -- ./inp_files/32978.got.cif
#   From: 2010.05.17/outbox.cif.g08.bks.cpg/sg52_17_cif.got.tgz:32978.got - 2010.06.03 12:15:38.
