data_PCOD9409896
_publ_section_title
;
Structure prediction by ZEFSAII (Michael W. Deem and Ramdas Pophale) SiO2 
 PCOD9409896
Probable space group: P N N A
;
_chemical_formula_sum "Si O2"
_cell_formula_units_Z 48
_cell_length_a 7.981922
_cell_length_b 31.435955
_cell_length_c 9.276393
_cell_angle_alpha 90.000000
_cell_angle_beta 90.000000
_cell_angle_gamma 90.000000
_cell_volume 2327.626417
_symmetry_space_group_name_H-M "P N N A"
_symmetry_group_IT_number 52
_symmetry_cell_setting 'orthorhombic'
loop_
_space_group_symop_operation_xyz
x,y,z
1/2-x,-y,z
x,1/2-y,1/2-z
1/2-x,1/2+y,1/2-z
-x,-y,-z
1/2+x,y,-z
-x,1/2+y,1/2+z
1/2+x,1/2-y,1/2+z
loop_
_atom_site_type_symbol
_atom_site_label
_atom_site_fract_x
_atom_site_fract_y
_atom_site_fract_z
Si Si1 0.986727 0.167223 0.072642
Si Si2 0.628573 0.630388 0.892568
Si Si3 0.313038 0.919463 0.152148
Si Si4 0.750482 0.874579 0.293838
Si Si5 0.157003 0.544427 0.620988
Si Si6 0.203209 0.796270 0.201086
O O1 0.832201 0.158123 0.180734
O O2 0.095522 0.123098 0.085311
O O3 0.112762 0.203174 0.129611
O O4 0.915464 0.180569 0.917510
O O5 0.726045 0.594560 0.799981
O O6 0.437867 0.634085 0.842433
O O7 0.713706 0.674090 0.841506
O O8 0.639842 0.624069 0.062000
O O9 0.461948 0.953742 0.163104
O O10 0.178341 0.937584 0.040882
O O11 0.745010 0.920521 0.220089
O O12 0.250000 0.500000 0.633101
O O13 0.146728 0.750000 0.250000
#
# Coordination Sequence:
#
# PCOD9409896 Si02
#       6
#     8   8   8   8   8   8
#     4  10  21  40  61  84 116 156 193 230 284 351
#     4  11  22  40  62  86 114 155 197 236 290 353
#     4  10  20  37  60  85 115 153 196 235 286 351
#     4  11  22  40  62  83 115 156 195 234 287 355
#     4  11  21  36  58  88 117 151 195 244 289 338
#     4  11  23  39  61  90 118 149 193 243 287 334
#
# _framework density 20.621866000000001
#
# number of rings (size 3 to 8) (size 9 to 14) (size 15 to 20)
#    0.000    1.333    0.000   10.500    0.000    2.667 
#    0.000    5.833    0.000    0.000    0.000    0.000 
#    0.000    0.000    0.000    0.000    0.000    0.000 
#
# Total GULP energy -268254.544956 kJ/mol
# GULP energy per Si atom -5588.636353 kJ/mol
# Density = 2.057493 g / cm^3
# Si number density = 20.621866 Si / 1000 Ang^3
#
#
#
# Elastic Constant Matrix: (Units=GPa)
#
#
# Indices 1 2 3 4 5 6 
#
# 1 73.3589 -15.0764 -0.6786 0.0000 0.0000 0.0000
# 2 -15.0764 40.1048 33.5835 0.0000 0.0000 0.0000
# 3 -0.6786 33.5835 97.0625 0.0000 0.0000 0.0000
# 4 0.0000 0.0000 0.0000 8.5920 0.0000 0.0000
# 5 0.0000 0.0000 0.0000 0.0000 37.0858 0.0000
# 6 0.0000 0.0000 0.0000 0.0000 0.0000 16.0392
#
#
#
# Elastic Compliance Matrix: (Units=1/GPa)
#
#
# Indices 1 2 3 4 5 6 
#
# 1 0.015239 0.007940 -0.002641 0.000000 0.000000 0.000000
# 2 0.007940 0.039243 -0.013523 0.000000 0.000000 0.000000
# 3 -0.002641 -0.013523 0.014963 0.000000 0.000000 0.000000
# 4 0.000000 0.000000 0.000000 0.116387 0.000000 0.000000
# 5 0.000000 0.000000 0.000000 0.000000 0.026965 0.000000
# 6 0.000000 0.000000 0.000000 0.000000 0.000000 0.062347
#
#
# Mechanical properties :
#
#
# Convention : Reuss Voigt Hill
#
# Bulk Modulus (GPa) = 18.86843 27.35370 23.11106
# Shear Modulus (GPa) = 16.16779 25.18991 20.67885
#
# Velocity S-wave (km/s) = 2.80306 3.49881 3.17008
# Velocity P-wave (km/s) = 4.43235 5.44201 4.96292
#
# Compressibility (1/GPa) = 0.05299858
#
# Stress axis : x y z
#
# Youngs Moduli (GPa) = 65.62125 25.48213 66.83164
#
# Poissons Ratio (x) = -0.20233 0.17648
# Poissons Ratio (y) = -0.52103 0.90374
# Poissons Ratio (z) = 0.17329 0.34458
#
# Static dielectric constant tensor:
#      x y z
#    x 1.790080 0.000000 0.000000 
#    y 0.000000 1.736880 0.000000 
#    z 0.000000 0.000000 1.725560 
# 
# From -- ./inp_files/7673.got.cif
#   From: 2010.05.17/outbox.cif.g08.bks.cpg/sg52_4_cif.got.tgz:7673.got - 2010.06.03 12:15:38.
