data_PCOD9409351
_publ_section_title
;
Structure prediction by ZEFSAII (Michael W. Deem and Ramdas Pophale) SiO2 
 PCOD9409351
Probable space group: P N N A
;
_chemical_formula_sum "Si O2"
_cell_formula_units_Z 48
_cell_length_a 15.173388
_cell_length_b 17.392497
_cell_length_c 9.644691
_cell_angle_alpha 90.000000
_cell_angle_beta 90.000000
_cell_angle_gamma 90.000000
_cell_volume 2545.263904
_symmetry_space_group_name_H-M "P N N A"
_symmetry_group_IT_number 52
_symmetry_cell_setting 'orthorhombic'
loop_
_space_group_symop_operation_xyz
x,y,z
1/2-x,-y,z
x,1/2-y,1/2-z
1/2-x,1/2+y,1/2-z
-x,-y,-z
1/2+x,y,-z
-x,1/2+y,1/2+z
1/2+x,1/2-y,1/2+z
loop_
_atom_site_type_symbol
_atom_site_label
_atom_site_fract_x
_atom_site_fract_y
_atom_site_fract_z
Si Si1 0.686903 0.928544 0.736046
Si Si2 0.996424 0.504756 0.833647
Si Si3 0.564654 0.663226 0.241808
Si Si4 0.214221 0.856338 0.964969
Si Si5 0.682637 0.431392 0.218969
Si Si6 0.224516 0.676974 0.978310
O O1 0.588032 0.959347 0.719111
O O2 0.706412 0.862105 0.624814
O O3 0.750000 0.000000 0.703570
O O4 0.703996 0.898847 0.890430
O O5 0.998245 0.594030 0.787667
O O6 0.085752 0.465741 0.778252
O O7 0.000000 0.500000 0.000000
O O8 0.527857 0.750000 0.250000
O O9 0.622227 0.645312 0.379105
O O10 0.638239 0.664192 0.119247
O O11 0.284472 0.897639 0.864976
O O12 0.239929 0.767574 0.986673
O O13 0.750000 0.500000 0.181182
O O14 0.697085 0.366140 0.103080
#
# Coordination Sequence:
#
# PCOD9409351 Si02
#       6
#     8   8   8   8   8   8
#     4  12  25  40  62  93 131 170 218 271 321 380
#     4  12  22  39  68  99 124 168 226 273 316 387
#     4   9  19  38  65  90 124 166 202 256 327 387
#     4  10  22  40  61  91 129 171 205 262 333 383
#     4  11  19  39  67  92 122 162 217 268 320 389
#     4  10  19  40  65  87 125 172 211 258 322 392
#
# _framework density 18.858554999999999
#
# number of rings (size 3 to 8) (size 9 to 14) (size 15 to 20)
#    0.000    1.333    5.000    4.000    0.000    0.667 
#    0.000    6.667    0.000    0.000    0.000    0.000 
#    0.000    0.000    0.000    0.000    0.000    0.000 
#
# Total GULP energy -268276.868773 kJ/mol
# GULP energy per Si atom -5589.101433 kJ/mol
# Density = 1.881563 g / cm^3
# Si number density = 18.858555 Si / 1000 Ang^3
#
#
#
# Elastic Constant Matrix: (Units=GPa)
#
#
# Indices 1 2 3 4 5 6 
#
# 1 77.6851 32.9975 20.1545 0.0000 0.0000 0.0000
# 2 32.9975 124.2829 44.3926 0.0000 0.0000 0.0000
# 3 20.1545 44.3926 109.1482 0.0000 0.0000 0.0000
# 4 0.0000 0.0000 0.0000 39.0366 0.0000 0.0000
# 5 0.0000 0.0000 0.0000 0.0000 14.5443 0.0000
# 6 0.0000 0.0000 0.0000 0.0000 0.0000 22.4689
#
#
#
# Elastic Compliance Matrix: (Units=1/GPa)
#
#
# Indices 1 2 3 4 5 6 
#
# 1 0.014668 -0.003425 -0.001316 0.000000 0.000000 0.000000
# 2 -0.003425 0.010213 -0.003522 0.000000 0.000000 0.000000
# 3 -0.001316 -0.003522 0.010837 0.000000 0.000000 0.000000
# 4 0.000000 0.000000 0.000000 0.025617 0.000000 0.000000
# 5 0.000000 0.000000 0.000000 0.000000 0.068755 0.000000
# 6 0.000000 0.000000 0.000000 0.000000 0.000000 0.044506
#
#
# Mechanical properties :
#
#
# Convention : Reuss Voigt Hill
#
# Bulk Modulus (GPa) = 52.09667 56.24504 54.17086
# Shear Modulus (GPa) = 25.31399 29.44807 27.38103
#
# Velocity S-wave (km/s) = 3.66773 3.95590 3.81453
# Velocity P-wave (km/s) = 6.75435 7.12425 6.94176
#
# Compressibility (1/GPa) = 0.01919509
#
# Stress axis : x y z
#
# Youngs Moduli (GPa) = 68.17359 97.91198 92.27565
#
# Poissons Ratio (x) = 0.33530 0.12141
# Poissons Ratio (y) = 0.23346 0.32496
# Poissons Ratio (z) = 0.08970 0.34480
#
# Static dielectric constant tensor:
#      x y z
#    x 1.623200 0.000000 0.000000 
#    y 0.000000 1.657760 0.000000 
#    z 0.000000 0.000000 1.640980 
# 
# From -- ./inp_files/10420.got.cif
#   From: 2010.05.17/outbox.cif.g08.bks.cpg/sg52_6_cif.got.tgz:10420.got - 2010.06.03 12:15:38.
