data_PCOD9409612
_publ_section_title
;
Structure prediction by ZEFSAII (Michael W. Deem and Ramdas Pophale) SiO2 
 PCOD9409612
Probable space group: P N N A
;
_chemical_formula_sum "Si O2"
_cell_formula_units_Z 56
_cell_length_a 18.036322
_cell_length_b 11.486107
_cell_length_c 16.004366
_cell_angle_alpha 90.000000
_cell_angle_beta 90.000000
_cell_angle_gamma 90.000000
_cell_volume 3315.578482
_symmetry_space_group_name_H-M "P N N A"
_symmetry_group_IT_number 52
_symmetry_cell_setting 'orthorhombic'
loop_
_space_group_symop_operation_xyz
x,y,z
1/2-x,-y,z
x,1/2-y,1/2-z
1/2-x,1/2+y,1/2-z
-x,-y,-z
1/2+x,y,-z
-x,1/2+y,1/2+z
1/2+x,1/2-y,1/2+z
loop_
_atom_site_type_symbol
_atom_site_label
_atom_site_fract_x
_atom_site_fract_y
_atom_site_fract_z
Si Si1 0.417769 0.650311 0.472957
Si Si2 0.006538 0.558899 0.381020
Si Si3 0.890954 0.274098 0.926087
Si Si4 0.510522 0.882281 0.446781
Si Si5 0.774689 0.795757 0.884221
Si Si6 0.041433 0.531608 0.200699
Si Si7 0.193302 0.083780 0.280334
O O1 0.464579 0.568268 0.409329
O O2 0.436327 0.596501 0.563357
O O3 0.450122 0.781640 0.466570
O O4 0.331182 0.648539 0.449632
O O5 0.069296 0.651197 0.409390
O O6 0.996037 0.569771 0.281910
O O7 0.803729 0.252524 0.914901
O O8 0.927518 0.364134 0.858513
O O9 0.914391 0.324483 0.016719
O O10 0.500000 0.000000 0.500000
O O11 0.500400 0.933180 0.353798
O O12 0.764268 0.877438 0.803397
O O13 0.820038 0.691191 0.840790
O O14 0.116250 0.475796 0.238240
O O15 0.250000 0.000000 0.327225
#
# Coordination Sequence:
#
# PCOD9409612 Si02
#       7
#     8   8   8   8   8   8   8
#     4  10  20  35  48  73 109 140 177 216 265 325
#     4  10  21  33  50  73 110 141 179 220 264 323
#     4  10  21  34  50  77 113 143 172 220 277 327
#     4   9  20  35  51  72 106 136 180 220 265 318
#     4  11  21  30  49  75 113 141 173 215 269 338
#     4  11  18  33  53  74 108 141 183 224 265 325
#     4  11  20  29  46  79 108 142 172 210 274 331
#
# _framework density 16.889963000000002
#
# number of rings (size 3 to 8) (size 9 to 14) (size 15 to 20)
#    0.000    1.714    4.286    1.286    2.000    0.571 
#    0.000    0.000    0.000    0.000    0.000    0.000 
#  141.429    0.000    0.000    0.000    0.000    0.000 
#
# Total GULP energy -311766.285507 kJ/mol
# GULP energy per Si atom -5567.255098 kJ/mol
# Density = 1.685152 g / cm^3
# Si number density = 16.889963 Si / 1000 Ang^3
#
#
#
# Elastic Constant Matrix: (Units=GPa)
#
#
# Indices 1 2 3 4 5 6 
#
# 1 65.7047 11.0075 48.0990 0.0000 0.0000 0.0000
# 2 11.0075 80.4873 15.1714 0.0000 0.0000 0.0000
# 3 48.0990 15.1714 92.3611 0.0000 0.0000 0.0000
# 4 0.0000 0.0000 0.0000 12.5608 0.0000 0.0000
# 5 0.0000 0.0000 0.0000 0.0000 27.3641 0.0000
# 6 0.0000 0.0000 0.0000 0.0000 0.0000 21.3582
#
#
#
# Elastic Compliance Matrix: (Units=1/GPa)
#
#
# Indices 1 2 3 4 5 6 
#
# 1 0.024672 -0.000983 -0.012687 0.000000 0.000000 0.000000
# 2 -0.000983 0.012860 -0.001601 0.000000 0.000000 0.000000
# 3 -0.012687 -0.001601 0.017697 0.000000 0.000000 0.000000
# 4 0.000000 0.000000 0.000000 0.079613 0.000000 0.000000
# 5 0.000000 0.000000 0.000000 0.000000 0.036544 0.000000
# 6 0.000000 0.000000 0.000000 0.000000 0.000000 0.046820
#
#
# Mechanical properties :
#
#
# Convention : Reuss Voigt Hill
#
# Bulk Modulus (GPa) = 40.50473 43.01210 41.75841
# Shear Modulus (GPa) = 19.45705 23.20832 21.33269
#
# Velocity S-wave (km/s) = 3.39778 3.71089 3.55778
# Velocity P-wave (km/s) = 6.27908 6.62437 6.45403
#
# Compressibility (1/GPa) = 0.02468848
#
# Stress axis : x y z
#
# Youngs Moduli (GPa) = 40.53241 77.75780 56.50696
#
# Poissons Ratio (x) = 0.07641 0.71689
# Poissons Ratio (y) = 0.03983 0.09045
# Poissons Ratio (z) = 0.51423 0.12447
#
# Static dielectric constant tensor:
#      x y z
#    x 1.573230 0.000000 0.000000 
#    y 0.000000 1.649310 0.000000 
#    z 0.000000 0.000000 1.609500 
# 
# From -- ./inp_files/33813.got.cif
#   From: 2010.05.17/outbox.cif.g08.bks.cpg/sg52_17_cif.got.tgz:33813.got - 2010.06.03 12:15:38.
