data_PCOD9409675
_publ_section_title
;
Structure prediction by ZEFSAII (Michael W. Deem and Ramdas Pophale) SiO2 
 PCOD9409675
Probable space group: P N N A
;
_chemical_formula_sum "Si O2"
_cell_formula_units_Z 48
_cell_length_a 20.259291
_cell_length_b 10.651212
_cell_length_c 10.472627
_cell_angle_alpha 90.000000
_cell_angle_beta 90.000000
_cell_angle_gamma 90.000000
_cell_volume 2259.846326
_symmetry_space_group_name_H-M "P N N A"
_symmetry_group_IT_number 52
_symmetry_cell_setting 'orthorhombic'
loop_
_space_group_symop_operation_xyz
x,y,z
1/2-x,-y,z
x,1/2-y,1/2-z
1/2-x,1/2+y,1/2-z
-x,-y,-z
1/2+x,y,-z
-x,1/2+y,1/2+z
1/2+x,1/2-y,1/2+z
loop_
_atom_site_type_symbol
_atom_site_label
_atom_site_fract_x
_atom_site_fract_y
_atom_site_fract_z
Si Si1 0.914979 0.856734 0.643453
Si Si2 0.750000 0.000000 0.200827
Si Si3 0.179367 0.726268 0.597746
Si Si4 0.688985 0.149049 0.432221
Si Si5 0.035733 0.695383 0.538874
Si Si6 0.502962 0.463511 0.291915
Si Si7 0.400290 0.750000 0.750000
O O1 0.896504 0.750000 0.750000
O O2 0.854604 0.891529 0.551053
O O3 0.976935 0.791716 0.569399
O O4 0.944190 0.981788 0.707550
O O5 0.706907 0.914565 0.106230
O O6 0.799599 0.936239 0.305788
O O7 0.176421 0.750000 0.750000
O O8 0.237295 0.808293 0.535631
O O9 0.108563 0.751412 0.539164
O O10 0.646227 0.264042 0.373416
O O11 0.022218 0.620626 0.409333
O O12 0.035689 0.589289 0.650113
O O13 0.554806 0.371707 0.225133
#
# Coordination Sequence:
#
# PCOD9409675 Si02
#       7
#     8   4   8   8   8   8   4
#     4  10  22  42  64  90 125 170 207 256 315 381
#     4  10  20  36  58  92 118 152 204 256 316 360
#     4  10  20  35  59  89 116 155 201 264 307 368
#     4  11  22  39  61  90 125 158 205 257 316 375
#     4  10  20  39  63  90 122 160 219 257 311 375
#     4  10  22  36  62  91 125 165 207 260 313 382
#     4  12  20  40  60  96 124 160 204 256 322 370
#
# _framework density 21.240379999999998
#
# number of rings (size 3 to 8) (size 9 to 14) (size 15 to 20)
#    0.000    1.667    4.167    2.500    0.000    2.000 
#    6.000    1.667    0.000    0.000    0.000    0.000 
#    0.000    0.000    0.000    0.000    0.000    0.000 
#
# Total GULP energy -267738.599142 kJ/mol
# GULP energy per Si atom -5577.887482 kJ/mol
# Density = 2.119204 g / cm^3
# Si number density = 21.240380 Si / 1000 Ang^3
#
#
#
# Elastic Constant Matrix: (Units=GPa)
#
#
# Indices 1 2 3 4 5 6 
#
# 1 114.9492 3.5324 34.4218 0.0000 0.0000 0.0000
# 2 3.5324 29.0135 5.0587 0.0000 0.0000 0.0000
# 3 34.4218 5.0587 58.5542 0.0000 0.0000 0.0000
# 4 0.0000 0.0000 0.0000 12.5860 0.0000 0.0000
# 5 0.0000 0.0000 0.0000 0.0000 37.9798 0.0000
# 6 0.0000 0.0000 0.0000 0.0000 0.0000 25.0060
#
#
#
# Elastic Compliance Matrix: (Units=1/GPa)
#
#
# Indices 1 2 3 4 5 6 
#
# 1 0.010559 -0.000206 -0.006190 0.000000 0.000000 0.000000
# 2 -0.000206 0.034998 -0.002902 0.000000 0.000000 0.000000
# 3 -0.006190 -0.002902 0.020968 0.000000 0.000000 0.000000
# 4 0.000000 0.000000 0.000000 0.079453 0.000000 0.000000
# 5 0.000000 0.000000 0.000000 0.000000 0.026330 0.000000
# 6 0.000000 0.000000 0.000000 0.000000 0.000000 0.039990
#
#
# Mechanical properties :
#
#
# Convention : Reuss Voigt Hill
#
# Bulk Modulus (GPa) = 20.86452 32.06032 26.46242
# Shear Modulus (GPa) = 20.25352 25.74798 23.00075
#
# Velocity S-wave (km/s) = 3.09129 3.48547 3.29428
# Velocity P-wave (km/s) = 4.75245 5.59686 5.19185
#
# Compressibility (1/GPa) = 0.04792825
#
# Stress axis : x y z
#
# Youngs Moduli (GPa) = 94.70304 28.57313 47.69275
#
# Poissons Ratio (x) = 0.00590 0.29520
# Poissons Ratio (y) = 0.01955 0.13842
# Poissons Ratio (z) = 0.58617 0.08293
#
# Static dielectric constant tensor:
#      x y z
#    x 1.815550 0.000000 0.000000 
#    y 0.000000 1.895010 0.000000 
#    z 0.000000 0.000000 1.771730 
# 
# From -- ./inp_files/20674.got.cif
#   From: 2010.05.17/outbox.cif.g08.bks.cpg/sg52_11_cif.got.tgz:20674.got - 2010.06.03 12:15:38.
