data_PCOD9409012
_publ_section_title
;
Structure prediction by ZEFSAII (Michael W. Deem and Ramdas Pophale) SiO2 
 PCOD9409012
Probable space group: P N N A
;
_chemical_formula_sum "Si O2"
_cell_formula_units_Z 56
_cell_length_a 4.871301
_cell_length_b 25.364500
_cell_length_c 21.771670
_cell_angle_alpha 90.000000
_cell_angle_beta 90.000000
_cell_angle_gamma 90.000000
_cell_volume 2690.066489
_symmetry_space_group_name_H-M "P N N A"
_symmetry_group_IT_number 52
_symmetry_cell_setting 'orthorhombic'
loop_
_space_group_symop_operation_xyz
x,y,z
1/2-x,-y,z
x,1/2-y,1/2-z
1/2-x,1/2+y,1/2-z
-x,-y,-z
1/2+x,y,-z
-x,1/2+y,1/2+z
1/2+x,1/2-y,1/2+z
loop_
_atom_site_type_symbol
_atom_site_label
_atom_site_fract_x
_atom_site_fract_y
_atom_site_fract_z
Si Si1 0.518459 0.035070 0.116449
Si Si2 0.298341 0.829845 0.356586
Si Si3 0.806104 0.081616 0.236183
Si Si4 0.415969 0.251370 0.041885
Si Si5 0.295068 0.692909 0.777335
Si Si6 0.691694 0.865301 0.958760
Si Si7 0.196462 0.941985 0.317721
O O1 0.685233 0.055131 0.175979
O O2 0.405596 0.086281 0.081801
O O3 0.750000 0.000000 0.081188
O O4 0.250000 0.000000 0.129729
O O5 0.183295 0.796482 0.412646
O O6 0.606041 0.815437 0.337418
O O7 0.268384 0.892952 0.361472
O O8 0.108080 0.814648 0.298171
O O9 0.785844 0.144864 0.232659
O O10 0.610923 0.064676 0.292905
O O11 0.108405 0.065167 0.257508
O O12 0.365384 0.192700 0.068798
O O13 0.727077 0.254828 0.019117
O O14 0.249699 0.750000 0.750000
O O15 0.507131 0.867887 0.020766
O O16 0.250000 0.000000 0.342988
#
# Coordination Sequence:
#
# PCOD9409012 Si02
#       7
#     8   8   8   8   8   8   8
#     4  12  24  37  56  82 108 147 192 235 283 327
#     4  10  21  36  58  86 111 148 189 223 281 335
#     4  10  21  35  53  81 112 147 186 219 268 333
#     4  10  21  40  62  83 110 145 190 240 284 338
#     4  10  21  36  54  85 118 148 178 227 284 334
#     4  10  23  41  57  79 104 143 191 238 295 334
#     4  10  19  35  57  79 116 150 181 218 260 335
#
# _framework density 20.817330999999999
#
# number of rings (size 3 to 8) (size 9 to 14) (size 15 to 20)
#    0.000    1.714    0.000    4.714    2.000    1.714 
#    2.571    0.000    0.000    0.857    0.000    0.000 
#    0.000    0.000    0.000    0.000    0.000    0.000 
#
# Total GULP energy -312982.811227 kJ/mol
# GULP energy per Si atom -5588.978772 kJ/mol
# Density = 2.076995 g / cm^3
# Si number density = 20.817331 Si / 1000 Ang^3
#
#
#
# Elastic Constant Matrix: (Units=GPa)
#
#
# Indices 1 2 3 4 5 6 
#
# 1 80.2664 11.6417 -5.5696 0.0000 0.0000 0.0000
# 2 11.6417 205.8960 44.7463 0.0000 0.0000 0.0000
# 3 -5.5696 44.7463 26.6677 0.0000 0.0000 0.0000
# 4 0.0000 0.0000 0.0000 16.0590 0.0000 0.0000
# 5 0.0000 0.0000 0.0000 0.0000 18.9854 0.0000
# 6 0.0000 0.0000 0.0000 0.0000 0.0000 29.1282
#
#
#
# Elastic Compliance Matrix: (Units=1/GPa)
#
#
# Indices 1 2 3 4 5 6 
#
# 1 0.013204 -0.002118 0.006312 0.000000 0.000000 0.000000
# 2 -0.002118 0.007984 -0.013839 0.000000 0.000000 0.000000
# 3 0.006312 -0.013839 0.062038 0.000000 0.000000 0.000000
# 4 0.000000 0.000000 0.000000 0.062270 0.000000 0.000000
# 5 0.000000 0.000000 0.000000 0.000000 0.052672 0.000000
# 6 0.000000 0.000000 0.000000 0.000000 0.000000 0.034331
#
#
# Mechanical properties :
#
#
# Convention : Reuss Voigt Hill
#
# Bulk Modulus (GPa) = 15.64095 46.05188 30.84641
# Shear Modulus (GPa) = 18.30816 30.30197 24.30507
#
# Velocity S-wave (km/s) = 2.96880 3.81939 3.42064
# Velocity P-wave (km/s) = 4.39106 6.45137 5.51823
#
# Compressibility (1/GPa) = 0.06393475
#
# Stress axis : x y z
#
# Youngs Moduli (GPa) = 75.73615 125.24704 16.11913
#
# Poissons Ratio (x) = 0.26531 -0.10174
# Poissons Ratio (y) = 0.16043 0.22308
# Poissons Ratio (z) = -0.47804 1.73333
#
# Static dielectric constant tensor:
#      x y z
#    x 1.723360 0.000000 0.000000 
#    y 0.000000 1.780530 0.000000 
#    z 0.000000 0.000000 1.731570 
# 
# From -- ./inp_files/35250.got.cif
#   From: 2010.05.17/outbox.cif.g08.bks.cpg/sg52_18_cif.got.tgz:35250.got - 2010.06.03 12:15:38.
