data_PCOD9409564
_publ_section_title
;
Structure prediction by ZEFSAII (Michael W. Deem and Ramdas Pophale) SiO2 
 PCOD9409564
Probable space group: P N N A
;
_chemical_formula_sum "Si O2"
_cell_formula_units_Z 52
_cell_length_a 26.435214
_cell_length_b 12.343300
_cell_length_c 8.502271
_cell_angle_alpha 90.000000
_cell_angle_beta 90.000000
_cell_angle_gamma 90.000000
_cell_volume 2774.272126
_symmetry_space_group_name_H-M "P N N A"
_symmetry_group_IT_number 52
_symmetry_cell_setting 'orthorhombic'
loop_
_space_group_symop_operation_xyz
x,y,z
1/2-x,-y,z
x,1/2-y,1/2-z
1/2-x,1/2+y,1/2-z
-x,-y,-z
1/2+x,y,-z
-x,1/2+y,1/2+z
1/2+x,1/2-y,1/2+z
loop_
_atom_site_type_symbol
_atom_site_label
_atom_site_fract_x
_atom_site_fract_y
_atom_site_fract_z
Si Si1 0.861206 0.681111 0.986204
Si Si2 0.898179 0.600917 0.669954
Si Si3 0.174695 0.750000 0.750000
Si Si4 0.932523 0.750000 0.250000
Si Si5 0.245270 0.871678 0.500541
Si Si6 0.817243 0.250000 0.750000
Si Si7 0.888160 0.130765 0.000655
Si Si8 0.503766 0.128672 0.983692
O O1 0.879228 0.598157 0.849402
O O2 0.869371 0.801033 0.914963
O O3 0.802379 0.669288 0.017198
O O4 0.896232 0.676344 0.140626
O O5 0.890254 0.491846 0.568500
O O6 0.957089 0.637651 0.661180
O O7 0.210162 0.815132 0.630037
O O8 0.140359 0.839873 0.838056
O O9 0.967413 0.818558 0.131786
O O10 0.219303 0.835864 0.336489
O O11 0.250000 0.000000 0.514812
O O12 0.854747 0.304942 0.625857
O O13 0.946299 0.169327 0.021228
O O14 0.500000 0.000000 0.000000
#
# Coordination Sequence:
#
# PCOD9409564 Si02
#       8
#     8   8   4   4   8   4   8   8
#     4  10  20  36  58  84 112 143 186 237 283 332
#     4   9  19  36  59  84 111 148 186 227 282 338
#     4  10  25  38  56  82 110 152 191 226 284 330
#     4  10  20  34  56  84 112 142 184 232 276 328
#     4  11  23  39  57  82 111 144 186 232 277 330
#     4  10  21  36  56  80 108 146 189 222 276 334
#     4  10  20  38  55  79 115 149 185 232 273 330
#     4   9  19  35  56  82 112 146 184 225 277 334
#
# _framework density 18.743655
#
# number of rings (size 3 to 8) (size 9 to 14) (size 15 to 20)
#    0.000    2.154    0.000    2.769    0.000    7.385 
#    0.000    6.154    0.000    0.000    0.000    0.000 
#    0.000    0.000    0.000    0.000    0.000    0.000 
#
# Total GULP energy -289759.752905 kJ/mol
# GULP energy per Si atom -5572.302940 kJ/mol
# Density = 1.870099 g / cm^3
# Si number density = 18.743655 Si / 1000 Ang^3
#
#
#
# Elastic Constant Matrix: (Units=GPa)
#
#
# Indices 1 2 3 4 5 6 
#
# 1 187.0467 43.3053 63.8373 0.0000 0.0000 0.0000
# 2 43.3053 73.3654 12.8374 0.0000 0.0000 0.0000
# 3 63.8373 12.8374 86.9852 0.0000 0.0000 0.0000
# 4 0.0000 0.0000 0.0000 18.3454 0.0000 0.0000
# 5 0.0000 0.0000 0.0000 0.0000 -13.0838 0.0000
# 6 0.0000 0.0000 0.0000 0.0000 0.0000 26.1890
#
#
#
# Elastic Compliance Matrix: (Units=1/GPa)
#
#
# Indices 1 2 3 4 5 6 
#
# 1 0.008056 -0.003819 -0.005348 0.000000 0.000000 0.000000
# 2 -0.003819 0.015802 0.000471 0.000000 0.000000 0.000000
# 3 -0.005348 0.000471 0.015352 0.000000 0.000000 0.000000
# 4 0.000000 0.000000 0.000000 0.054510 0.000000 0.000000
# 5 0.000000 0.000000 0.000000 0.000000 -0.076430 0.000000
# 6 0.000000 0.000000 0.000000 0.000000 0.000000 0.038184
#
#
# Mechanical properties :
#
#
# Convention : Reuss Voigt Hill
#
# Bulk Modulus (GPa) = 45.83730 65.26192 55.54961
# Shear Modulus (GPa) = 62.39128 21.45128 41.92128
#
# Velocity S-wave (km/s) = 5.77571 3.38665 4.73436
# Velocity P-wave (km/s) = 8.30581 7.08423 7.71922
#
# Compressibility (1/GPa) = 0.02181629
#
# Stress axis : x y z
#
# Youngs Moduli (GPa) = 124.13302 63.28138 65.13862
#
# Poissons Ratio (x) = 0.24169 0.34839
# Poissons Ratio (y) = 0.47410 -0.03067
# Poissons Ratio (z) = 0.66392 -0.02979
#
# Static dielectric constant tensor:
#      x y z
#    x 1.664640 0.000000 0.000000 
#    y 0.000000 1.643470 0.000000 
#    z 0.000000 0.000000 1.674400 
# 
# From -- ./inp_files/15027.got.cif
#   From: 2010.05.17/outbox.cif.g08.bks.cpg/sg52_8_cif.got.tgz:15027.got - 2010.06.03 12:15:38.
