data_PCOD9409906
_publ_section_title
;
Structure prediction by ZEFSAII (Michael W. Deem and Ramdas Pophale) SiO2 
 PCOD9409906
Probable space group: P N N A
;
_chemical_formula_sum "Si O2"
_cell_formula_units_Z 60
_cell_length_a 31.971526
_cell_length_b 11.983560
_cell_length_c 7.028077
_cell_angle_alpha 90.000000
_cell_angle_beta 90.000000
_cell_angle_gamma 90.000000
_cell_volume 2692.686118
_symmetry_space_group_name_H-M "P N N A"
_symmetry_group_IT_number 52
_symmetry_cell_setting 'orthorhombic'
loop_
_space_group_symop_operation_xyz
x,y,z
1/2-x,-y,z
x,1/2-y,1/2-z
1/2-x,1/2+y,1/2-z
-x,-y,-z
1/2+x,y,-z
-x,1/2+y,1/2+z
1/2+x,1/2-y,1/2+z
loop_
_atom_site_type_symbol
_atom_site_label
_atom_site_fract_x
_atom_site_fract_y
_atom_site_fract_z
Si Si1 0.009114 0.199494 0.564365
Si Si2 0.338967 0.723474 0.531493
Si Si3 0.356835 0.967121 0.489603
Si Si4 0.553262 0.982919 0.540512
Si Si5 0.709046 0.943471 0.794017
Si Si6 0.863747 0.021372 0.065947
Si Si7 0.264353 0.750000 0.250000
Si Si8 0.055799 0.857544 0.852693
O O1 0.031381 0.250000 0.750000
O O2 0.973279 0.113472 0.641500
O O3 0.984609 0.298533 0.451362
O O4 0.037472 0.110999 0.448103
O O5 0.328831 0.750000 0.750000
O O6 0.363619 0.608721 0.504553
O O7 0.296005 0.715273 0.415878
O O8 0.363628 0.834397 0.474472
O O9 0.398388 0.024446 0.410457
O O10 0.315848 0.989765 0.367375
O O11 0.354418 0.009928 0.707387
O O12 0.546660 0.945302 0.317658
O O13 0.731998 0.843726 0.686842
O O14 0.750000 0.000000 0.885854
O O15 0.674269 0.920737 0.953573
O O16 0.907817 0.081845 0.030890
O O17 0.076469 0.750000 0.750000
#
# Coordination Sequence:
#
# PCOD9409906 Si02
#       8
#     8   8   8   8   8   8   4   8
#     4  10  21  37  65  94 130 165 207 266 334 386
#     4  10  20  37  61  85 120 167 214 259 317 380
#     4  10  22  41  66  89 128 173 218 264 326 382
#     4   9  21  41  61  92 131 168 213 266 316 403
#     4  12  24  39  64  91 128 165 213 275 329 386
#     4  10  22  39  64  93 123 171 219 263 318 393
#     4  12  24  40  56  92 128 156 210 280 320 380
#     4   9  20  40  64  90 136 164 211 268 322 394
#
# _framework density 22.282581
#
# number of rings (size 3 to 8) (size 9 to 14) (size 15 to 20)
#    0.000    1.867    2.667    0.000    1.867    8.000 
#    0.000    0.000   13.200    0.000    0.000    0.000 
#    0.000    0.000    0.000    0.000    0.000    0.000 
#
# Total GULP energy -334236.405353 kJ/mol
# GULP energy per Si atom -5570.606756 kJ/mol
# Density = 2.223186 g / cm^3
# Si number density = 22.282581 Si / 1000 Ang^3
#
#
#
# Elastic Constant Matrix: (Units=GPa)
#
#
# Indices 1 2 3 4 5 6 
#
# 1 70.4342 24.0609 9.8744 0.0000 0.0000 0.0000
# 2 24.0609 67.1463 18.3729 0.0000 0.0000 0.0000
# 3 9.8744 18.3729 62.9400 0.0000 0.0000 0.0000
# 4 0.0000 0.0000 0.0000 24.7643 0.0000 0.0000
# 5 0.0000 0.0000 0.0000 0.0000 18.1894 0.0000
# 6 0.0000 0.0000 0.0000 0.0000 0.0000 41.5663
#
#
#
# Elastic Compliance Matrix: (Units=1/GPa)
#
#
# Indices 1 2 3 4 5 6 
#
# 1 0.016227 -0.005562 -0.000922 0.000000 0.000000 0.000000
# 2 -0.005562 0.018092 -0.004409 0.000000 0.000000 0.000000
# 3 -0.000922 -0.004409 0.017320 0.000000 0.000000 0.000000
# 4 0.000000 0.000000 0.000000 0.040381 0.000000 0.000000
# 5 0.000000 0.000000 0.000000 0.000000 0.054977 0.000000
# 6 0.000000 0.000000 0.000000 0.000000 0.000000 0.024058
#
#
# Mechanical properties :
#
#
# Convention : Reuss Voigt Hill
#
# Bulk Modulus (GPa) = 33.49768 33.90411 33.70089
# Shear Modulus (GPa) = 24.65575 26.78481 25.72028
#
# Velocity S-wave (km/s) = 3.33002 3.47082 3.40115
# Velocity P-wave (km/s) = 5.46362 5.59560 5.53000
#
# Compressibility (1/GPa) = 0.02985282
#
# Stress axis : x y z
#
# Youngs Moduli (GPa) = 61.62531 55.27179 57.73755
#
# Poissons Ratio (x) = 0.30745 0.05324
# Poissons Ratio (y) = 0.34279 0.25455
# Poissons Ratio (z) = 0.05682 0.24368
#
# Static dielectric constant tensor:
#      x y z
#    x 1.801790 0.000000 0.000000 
#    y 0.000000 1.937420 0.000000 
#    z 0.000000 0.000000 1.873580 
# 
# From -- ./inp_files/15695.got.cif
#   From: 2010.05.17/outbox.cif.g08.bks.cpg/sg52_8_cif.got.tgz:15695.got - 2010.06.03 12:15:38.
