data_PCOD9409565
_publ_section_title
;
Structure prediction by ZEFSAII (Michael W. Deem and Ramdas Pophale) SiO2 
 PCOD9409565
Probable space group: P N N A
;
_chemical_formula_sum "Si O2"
_cell_formula_units_Z 40
_cell_length_a 20.081511
_cell_length_b 8.399443
_cell_length_c 11.775229
_cell_angle_alpha 90.000000
_cell_angle_beta 90.000000
_cell_angle_gamma 90.000000
_cell_volume 1986.169171
_symmetry_space_group_name_H-M "P N N A"
_symmetry_group_IT_number 52
_symmetry_cell_setting 'orthorhombic'
loop_
_space_group_symop_operation_xyz
x,y,z
1/2-x,-y,z
x,1/2-y,1/2-z
1/2-x,1/2+y,1/2-z
-x,-y,-z
1/2+x,y,-z
-x,1/2+y,1/2+z
1/2+x,1/2-y,1/2+z
loop_
_atom_site_type_symbol
_atom_site_label
_atom_site_fract_x
_atom_site_fract_y
_atom_site_fract_z
Si Si1 0.304075 0.709018 0.383652
Si Si2 0.087622 0.100754 0.511550
Si Si3 0.507904 0.631161 0.596340
Si Si4 0.019909 0.919413 0.686748
Si Si5 0.343838 0.160848 0.127917
O O1 0.304954 0.750000 0.250000
O O2 0.344425 0.833135 0.460071
O O3 0.337064 0.532210 0.380856
O O4 0.227267 0.710504 0.423995
O O5 0.049149 0.241972 0.575943
O O6 0.041475 0.073575 0.401153
O O7 0.082835 0.962542 0.606095
O O8 0.500000 0.500000 0.500000
O O9 0.497017 0.547425 0.716725
O O10 0.582578 0.699111 0.583590
O O11 0.024960 0.750000 0.750000
O O12 0.342997 0.250000 0.250000
#
# Coordination Sequence:
#
# PCOD9409565 Si02
#       5
#     8   8   8   8   8
#     4  10  20  36  55  86 122 157 196 253 320 375
#     4  11  22  36  61  86 122 161 200 262 314 366
#     4  12  21  36  59  91 120 158 198 254 308 369
#     4  11  22  37  56  90 123 159 209 258 310 368
#     4  10  20  34  56  84 123 155 196 256 314 372
#
# _framework density 20.139271999999998
#
# number of rings (size 3 to 8) (size 9 to 14) (size 15 to 20)
#    0.000    1.200    4.000    3.600    0.000    1.600 
#    0.000    0.000    0.000    0.000   15.600    0.000 
#    0.000    0.000    0.000    0.000    0.000    0.000 
#
# Total GULP energy -223158.090182 kJ/mol
# GULP energy per Si atom -5578.952255 kJ/mol
# Density = 2.009343 g / cm^3
# Si number density = 20.139272 Si / 1000 Ang^3
#
#
#
# Elastic Constant Matrix: (Units=GPa)
#
#
# Indices 1 2 3 4 5 6 
#
# 1 110.6499 14.5513 34.9402 0.0000 0.0000 0.0000
# 2 14.5513 63.2029 49.3413 0.0000 0.0000 0.0000
# 3 34.9402 49.3413 121.7520 0.0000 0.0000 0.0000
# 4 0.0000 0.0000 0.0000 46.6283 0.0000 0.0000
# 5 0.0000 0.0000 0.0000 0.0000 18.5152 0.0000
# 6 0.0000 0.0000 0.0000 0.0000 0.0000 24.3434
#
#
#
# Elastic Compliance Matrix: (Units=1/GPa)
#
#
# Indices 1 2 3 4 5 6 
#
# 1 0.009938 -0.000090 -0.002816 0.000000 0.000000 0.000000
# 2 -0.000090 0.023145 -0.009354 0.000000 0.000000 0.000000
# 3 -0.002816 -0.009354 0.012812 0.000000 0.000000 0.000000
# 4 0.000000 0.000000 0.000000 0.021446 0.000000 0.000000
# 5 0.000000 0.000000 0.000000 0.000000 0.054010 0.000000
# 6 0.000000 0.000000 0.000000 0.000000 0.000000 0.041079
#
#
# Mechanical properties :
#
#
# Convention : Reuss Voigt Hill
#
# Bulk Modulus (GPa) = 46.78013 54.80784 50.79398
# Shear Modulus (GPa) = 25.76313 31.01551 28.38932
#
# Velocity S-wave (km/s) = 3.58054 3.92861 3.75860
# Velocity P-wave (km/s) = 6.35393 6.91752 6.64171
#
# Compressibility (1/GPa) = 0.02137660
#
# Stress axis : x y z
#
# Youngs Moduli (GPa) = 100.61930 43.20526 78.05010
#
# Poissons Ratio (x) = 0.00389 0.21976
# Poissons Ratio (y) = 0.00906 0.73009
# Poissons Ratio (z) = 0.28331 0.40414
#
# Static dielectric constant tensor:
#      x y z
#    x 1.721050 0.000000 0.000000 
#    y 0.000000 1.795520 0.000000 
#    z 0.000000 0.000000 1.718440 
# 
# From -- ./inp_files/21446.got.cif
#   From: 2010.05.17/outbox.cif.g08.bks.cpg/sg52_11_cif.got.tgz:21446.got - 2010.06.03 12:15:38.
