data_PCOD9409313
_publ_section_title
;
Structure prediction by ZEFSAII (Michael W. Deem and Ramdas Pophale) SiO2 
 PCOD9409313
Probable space group: P N N A
;
_chemical_formula_sum "Si O2"
_cell_formula_units_Z 56
_cell_length_a 18.777038
_cell_length_b 9.217222
_cell_length_c 16.184978
_cell_angle_alpha 90.000000
_cell_angle_beta 90.000000
_cell_angle_gamma 90.000000
_cell_volume 2801.168580
_symmetry_space_group_name_H-M "P N N A"
_symmetry_group_IT_number 52
_symmetry_cell_setting 'orthorhombic'
loop_
_space_group_symop_operation_xyz
x,y,z
1/2-x,-y,z
x,1/2-y,1/2-z
1/2-x,1/2+y,1/2-z
-x,-y,-z
1/2+x,y,-z
-x,1/2+y,1/2+z
1/2+x,1/2-y,1/2+z
loop_
_atom_site_type_symbol
_atom_site_label
_atom_site_fract_x
_atom_site_fract_y
_atom_site_fract_z
Si Si1 0.048541 0.194796 0.367792
Si Si2 0.269120 0.668034 0.501204
Si Si3 0.573879 0.468038 0.169873
Si Si4 0.176471 0.727285 0.845200
Si Si5 0.455438 0.449895 0.655591
Si Si6 0.567225 0.295665 0.453412
Si Si7 0.716107 0.160586 0.665432
O O1 0.034553 0.228659 0.464354
O O2 0.130154 0.157794 0.348123
O O3 0.995418 0.065564 0.347735
O O4 0.022653 0.346113 0.326307
O O5 0.250000 0.500000 0.490421
O O6 0.229968 0.736387 0.581101
O O7 0.352469 0.669176 0.520743
O O8 0.255099 0.757131 0.416804
O O9 0.642931 0.566538 0.149294
O O10 0.569703 0.451606 0.268040
O O11 0.570144 0.325332 0.116846
O O12 0.202891 0.750000 0.750000
O O13 0.109815 0.837851 0.856295
O O14 0.468343 0.559287 0.581293
O O15 0.730330 0.250000 0.750000
O O16 0.750000 0.000000 0.670474
#
# Coordination Sequence:
#
# PCOD9409313 Si02
#       7
#     8   8   8   8   8   8   8
#     4  10  22  41  64  86 124 163 204 258 328 374
#     4  11  23  41  61  91 134 172 214 262 314 380
#     4  10  21  37  61  89 125 158 209 260 317 382
#     4   9  20  37  60  87 128 175 206 253 319 380
#     4  10  19  39  61  88 121 166 204 257 312 382
#     4  11  22  35  59  93 123 162 211 261 307 379
#     4  11  25  46  71  95 124 166 217 270 324 379
#
# _framework density 19.991655999999999
#
# number of rings (size 3 to 8) (size 9 to 14) (size 15 to 20)
#    0.000    1.714    1.429    3.857    4.000    1.143 
#    0.000    2.857    0.000    0.000    0.000    0.000 
#    0.000    0.000    0.000    0.000    0.000    0.000 
#
# Total GULP energy -312650.239275 kJ/mol
# GULP energy per Si atom -5583.039987 kJ/mol
# Density = 1.994615 g / cm^3
# Si number density = 19.991656 Si / 1000 Ang^3
#
#
#
# Elastic Constant Matrix: (Units=GPa)
#
#
# Indices 1 2 3 4 5 6 
#
# 1 33.8950 12.8710 16.1900 0.0000 0.0000 0.0000
# 2 12.8710 121.3247 56.6113 0.0000 0.0000 0.0000
# 3 16.1900 56.6113 89.8733 0.0000 0.0000 0.0000
# 4 0.0000 0.0000 0.0000 30.6906 0.0000 0.0000
# 5 0.0000 0.0000 0.0000 0.0000 37.6770 0.0000
# 6 0.0000 0.0000 0.0000 0.0000 0.0000 19.1771
#
#
#
# Elastic Compliance Matrix: (Units=1/GPa)
#
#
# Indices 1 2 3 4 5 6 
#
# 1 0.032368 -0.001010 -0.005195 0.000000 0.000000 0.000000
# 2 -0.001010 0.011705 -0.007191 0.000000 0.000000 0.000000
# 3 -0.005195 -0.007191 0.016592 0.000000 0.000000 0.000000
# 4 0.000000 0.000000 0.000000 0.032583 0.000000 0.000000
# 5 0.000000 0.000000 0.000000 0.000000 0.026541 0.000000
# 6 0.000000 0.000000 0.000000 0.000000 0.000000 0.052146
#
#
# Mechanical properties :
#
#
# Convention : Reuss Voigt Hill
#
# Bulk Modulus (GPa) = 29.52153 46.27084 37.89618
# Shear Modulus (GPa) = 23.80757 28.13697 25.97227
#
# Velocity S-wave (km/s) = 3.45465 3.75565 3.60829
# Velocity P-wave (km/s) = 5.54182 6.48089 6.02966
#
# Compressibility (1/GPa) = 0.03387358
#
# Stress axis : x y z
#
# Youngs Moduli (GPa) = 30.89509 85.43453 60.26940
#
# Poissons Ratio (x) = 0.08628 0.31308
# Poissons Ratio (y) = 0.03120 0.43340
# Poissons Ratio (z) = 0.16049 0.61436
#
# Static dielectric constant tensor:
#      x y z
#    x 1.686920 0.000000 0.000000 
#    y 0.000000 1.681160 0.000000 
#    z 0.000000 0.000000 1.762850 
# 
# From -- ./inp_files/28798.got.cif
#   From: 2010.05.17/outbox.cif.g08.bks.cpg/sg52_15_cif.got.tgz:28798.got - 2010.06.03 12:15:38.
