data_PCOD9409103
_publ_section_title
;
Structure prediction by ZEFSAII (Michael W. Deem and Ramdas Pophale) SiO2 
 PCOD9409103
Probable space group: P N N A
;
_chemical_formula_sum "Si O2"
_cell_formula_units_Z 64
_cell_length_a 12.586504
_cell_length_b 24.748164
_cell_length_c 9.083484
_cell_angle_alpha 90.000000
_cell_angle_beta 90.000000
_cell_angle_gamma 90.000000
_cell_volume 2829.440457
_symmetry_space_group_name_H-M "P N N A"
_symmetry_group_IT_number 52
_symmetry_cell_setting 'orthorhombic'
loop_
_space_group_symop_operation_xyz
x,y,z
1/2-x,-y,z
x,1/2-y,1/2-z
1/2-x,1/2+y,1/2-z
-x,-y,-z
1/2+x,y,-z
-x,1/2+y,1/2+z
1/2+x,1/2-y,1/2+z
loop_
_atom_site_type_symbol
_atom_site_label
_atom_site_fract_x
_atom_site_fract_y
_atom_site_fract_z
Si Si1 0.147377 0.466347 0.882638
Si Si2 0.420763 0.981834 0.288235
Si Si3 0.860225 0.410901 0.641198
Si Si4 0.533510 0.616599 0.359925
Si Si5 0.564883 0.362941 0.197526
Si Si6 0.269443 0.803030 0.189629
Si Si7 0.424036 0.790438 0.953546
Si Si8 0.480351 0.684738 0.107851
O O1 0.250000 0.500000 0.842682
O O2 0.156080 0.407629 0.807791
O O3 0.037364 0.493982 0.830477
O O4 0.136850 0.465184 0.060428
O O5 0.452018 0.929447 0.193536
O O6 0.354991 0.028016 0.201535
O O7 0.780471 0.362310 0.682885
O O8 0.877229 0.409252 0.464742
O O9 0.965095 0.390264 0.725480
O O10 0.472940 0.656674 0.470008
O O11 0.560793 0.655079 0.220015
O O12 0.584150 0.307262 0.283587
O O13 0.537610 0.354323 0.028031
O O14 0.206315 0.750000 0.250000
O O15 0.373095 0.807452 0.295519
O O16 0.308098 0.786401 0.026631
O O17 0.494296 0.741852 0.022937
#
# Coordination Sequence:
#
# PCOD9409103 Si02
#       8
#     8   8   8   8   8   8   8   8
#     4  10  22  37  58  86 121 154 193 251 308 362
#     4  10  21  38  57  86 117 154 202 245 299 372
#     4  10  22  35  57  85 119 152 193 250 301 357
#     4  10  19  36  58  82 114 152 192 245 300 358
#     4  10  20  37  58  87 112 153 200 243 301 360
#     4   9  20  38  56  83 119 156 194 247 299 352
#     4   9  20  36  58  83 114 153 202 242 297 361
#     4  10  19  37  61  83 114 160 203 243 299 363
#
# _framework density 22.619312000000001
#
# number of rings (size 3 to 8) (size 9 to 14) (size 15 to 20)
#    0.000    2.250    1.250    1.875    1.750    3.000 
#    0.000    1.250    0.000    6.000    0.000    0.000 
#    0.000    0.000    0.000    0.000    0.000    0.000 
#
# Total GULP energy -356473.583418 kJ/mol
# GULP energy per Si atom -5569.899741 kJ/mol
# Density = 2.256783 g / cm^3
# Si number density = 22.619312 Si / 1000 Ang^3
#
#
#
# Elastic Constant Matrix: (Units=GPa)
#
#
# Indices 1 2 3 4 5 6 
#
# 1 18.2264 12.4232 39.0348 0.0000 0.0000 0.0000
# 2 12.4232 118.0461 36.3521 0.0000 0.0000 0.0000
# 3 39.0348 36.3521 96.4988 0.0000 0.0000 0.0000
# 4 0.0000 0.0000 0.0000 76.7521 0.0000 0.0000
# 5 0.0000 0.0000 0.0000 0.0000 8.4233 0.0000
# 6 0.0000 0.0000 0.0000 0.0000 0.0000 28.0634
#
#
#
# Elastic Compliance Matrix: (Units=1/GPa)
#
#
# Indices 1 2 3 4 5 6 
#
# 1 0.419020 0.009162 -0.172949 0.000000 0.000000 0.000000
# 2 0.009162 0.009783 -0.007391 0.000000 0.000000 0.000000
# 3 -0.172949 -0.007391 0.083107 0.000000 0.000000 0.000000
# 4 0.000000 0.000000 0.000000 0.013029 0.000000 0.000000
# 5 0.000000 0.000000 0.000000 0.000000 0.118718 0.000000
# 6 0.000000 0.000000 0.000000 0.000000 0.000000 0.035634
#
#
# Mechanical properties :
#
#
# Convention : Reuss Voigt Hill
#
# Bulk Modulus (GPa) = 5.89789 45.37682 25.63735
# Shear Modulus (GPa) = 4.63751 32.31185 18.47468
#
# Velocity S-wave (km/s) = 1.43342 3.78366 2.86101
# Velocity P-wave (km/s) = 2.31359 6.26041 4.71940
#
# Compressibility (1/GPa) = 0.16955223
#
# Stress axis : x y z
#
# Youngs Moduli (GPa) = 2.38652 102.21534 12.03270
#
# Poissons Ratio (x) = -0.93646 2.08104
# Poissons Ratio (y) = -0.02186 0.08894
# Poissons Ratio (z) = 0.41275 0.75552
#
# Static dielectric constant tensor:
#      x y z
#    x 1.858420 0.000000 0.000000 
#    y 0.000000 1.936930 0.000000 
#    z 0.000000 0.000000 1.884720 
# 
# From -- ./inp_files/11002.got.cif
#   From: 2010.05.17/outbox.cif.g08.bks.cpg/sg52_6_cif.got.tgz:11002.got - 2010.06.03 12:15:38.
