data_PCOD9409885
_publ_section_title
;
Structure prediction by ZEFSAII (Michael W. Deem and Ramdas Pophale) SiO2 
 PCOD9409885
Probable space group: P N N A
;
_chemical_formula_sum "Si O2"
_cell_formula_units_Z 64
_cell_length_a 11.961067
_cell_length_b 9.460731
_cell_length_c 31.296570
_cell_angle_alpha 90.000000
_cell_angle_beta 90.000000
_cell_angle_gamma 90.000000
_cell_volume 3541.533549
_symmetry_space_group_name_H-M "P N N A"
_symmetry_group_IT_number 52
_symmetry_cell_setting 'orthorhombic'
loop_
_space_group_symop_operation_xyz
x,y,z
1/2-x,-y,z
x,1/2-y,1/2-z
1/2-x,1/2+y,1/2-z
-x,-y,-z
1/2+x,y,-z
-x,1/2+y,1/2+z
1/2+x,1/2-y,1/2+z
loop_
_atom_site_type_symbol
_atom_site_label
_atom_site_fract_x
_atom_site_fract_y
_atom_site_fract_z
Si Si1 0.231018 0.332398 0.436302
Si Si2 0.504386 0.764251 0.343846
Si Si3 0.473843 0.638172 0.061749
Si Si4 0.383428 0.996377 0.818291
Si Si5 0.977332 0.224361 0.699399
Si Si6 0.149023 0.899431 0.486679
Si Si7 0.752952 0.829660 0.652881
Si Si8 0.378330 0.461550 0.783126
O O1 0.250000 0.500000 0.435798
O O2 0.106226 0.273906 0.446127
O O3 0.308974 0.249715 0.469397
O O4 0.255272 0.258935 0.390757
O O5 0.512974 0.844328 0.389377
O O6 0.543390 0.602321 0.347136
O O7 0.375736 0.786884 0.329387
O O8 0.587827 0.822019 0.307903
O O9 0.404591 0.493953 0.051802
O O10 0.568169 0.628235 0.026101
O O11 0.394881 0.037905 0.767901
O O12 0.250000 0.000000 0.828066
O O13 0.442708 0.843844 0.820647
O O14 0.969243 0.250000 0.750000
O O15 0.853505 0.214267 0.680686
O O16 0.041268 0.076996 0.695611
O O17 0.250000 0.000000 0.501560
O O18 0.750000 0.000000 0.646570
O O19 0.250000 0.500000 0.790339
#
# Coordination Sequence:
#
# PCOD9409885 Si02
#       8
#     8   8   8   8   8   8   8   8
#     4  10  21  35  60  86 111 152 186 226 292 352
#     4  11  21  35  59  86 114 150 193 243 291 343
#     4   9  20  36  58  87 112 148 191 233 280 350
#     4  10  22  39  57  80 118 157 192 240 296 348
#     4  10  22  37  56  85 116 152 196 240 288 341
#     4   9  18  38  61  82 116 150 186 232 285 342
#     4  11  22  39  57  85 117 149 196 241 285 347
#     4  10  20  37  59  81 109 157 206 239 284 344
#
# _framework density 18.071268
#
# number of rings (size 3 to 8) (size 9 to 14) (size 15 to 20)
#    0.000    2.000    1.250    3.000    3.500    4.000 
#    0.000    0.625    2.750    0.000    0.000    0.000 
#    0.000    0.000    0.000    0.000    0.000    0.000 
#
# Total GULP energy -356679.040182 kJ/mol
# GULP energy per Si atom -5573.110003 kJ/mol
# Density = 1.803014 g / cm^3
# Si number density = 18.071268 Si / 1000 Ang^3
#
#
#
# Elastic Constant Matrix: (Units=GPa)
#
#
# Indices 1 2 3 4 5 6 
#
# 1 91.9372 33.3778 26.0462 0.0000 0.0000 0.0000
# 2 33.3778 120.3938 12.1781 0.0000 0.0000 0.0000
# 3 26.0462 12.1781 21.0283 0.0000 0.0000 0.0000
# 4 0.0000 0.0000 0.0000 7.9122 0.0000 0.0000
# 5 0.0000 0.0000 0.0000 0.0000 28.4254 0.0000
# 6 0.0000 0.0000 0.0000 0.0000 0.0000 19.2475
#
#
#
# Elastic Compliance Matrix: (Units=1/GPa)
#
#
# Indices 1 2 3 4 5 6 
#
# 1 0.017629 -0.002845 -0.020188 0.000000 0.000000 0.000000
# 2 -0.002845 0.009282 -0.001851 0.000000 0.000000 0.000000
# 3 -0.020188 -0.001851 0.073633 0.000000 0.000000 0.000000
# 4 0.000000 0.000000 0.000000 0.126387 0.000000 0.000000
# 5 0.000000 0.000000 0.000000 0.000000 0.035180 0.000000
# 6 0.000000 0.000000 0.000000 0.000000 0.000000 0.051955
#
#
# Mechanical properties :
#
#
# Convention : Reuss Voigt Hill
#
# Bulk Modulus (GPa) = 19.69492 41.84038 30.76765
# Shear Modulus (GPa) = 13.13161 21.90085 17.51623
#
# Velocity S-wave (km/s) = 2.69858 3.48503 3.11671
# Velocity P-wave (km/s) = 4.54224 6.27672 5.47855
#
# Compressibility (1/GPa) = 0.05077451
#
# Stress axis : x y z
#
# Youngs Moduli (GPa) = 56.72311 107.73312 13.58090
#
# Poissons Ratio (x) = 0.30655 0.27418
# Poissons Ratio (y) = 0.16140 0.02514
# Poissons Ratio (z) = 1.14515 0.19942
#
# Static dielectric constant tensor:
#      x y z
#    x 1.635920 0.000000 0.000000 
#    y 0.000000 1.626760 0.000000 
#    z 0.000000 0.000000 1.602780 
# 
# From -- ./inp_files/44840.got.cif
#   From: 2010.05.17/outbox.cif.g08.bks.cpg/sg52_23_cif.got.tgz:44840.got - 2010.06.03 12:15:38.
