data_PCOD9409015
_publ_section_title
;
Structure prediction by ZEFSAII (Michael W. Deem and Ramdas Pophale) SiO2 
 PCOD9409015
Probable space group: P N N A
;
_chemical_formula_sum "Si O2"
_cell_formula_units_Z 56
_cell_length_a 14.280677
_cell_length_b 9.189471
_cell_length_c 22.998373
_cell_angle_alpha 90.000000
_cell_angle_beta 90.000000
_cell_angle_gamma 90.000000
_cell_volume 3018.119430
_symmetry_space_group_name_H-M "P N N A"
_symmetry_group_IT_number 52
_symmetry_cell_setting 'orthorhombic'
loop_
_space_group_symop_operation_xyz
x,y,z
1/2-x,-y,z
x,1/2-y,1/2-z
1/2-x,1/2+y,1/2-z
-x,-y,-z
1/2+x,y,-z
-x,1/2+y,1/2+z
1/2+x,1/2-y,1/2+z
loop_
_atom_site_type_symbol
_atom_site_label
_atom_site_fract_x
_atom_site_fract_y
_atom_site_fract_z
Si Si1 0.363746 0.853703 0.647291
Si Si2 0.634690 0.666275 0.573759
Si Si3 0.850892 0.679198 0.573854
Si Si4 0.839746 0.183898 0.314898
Si Si5 0.466160 0.653662 0.976767
Si Si6 0.033408 0.830624 0.193555
Si Si7 0.967618 0.825126 0.812142
O O1 0.256826 0.797849 0.649965
O O2 0.405035 0.866012 0.582194
O O3 0.433650 0.743097 0.679191
O O4 0.362464 0.010948 0.679866
O O5 0.741514 0.713777 0.567446
O O6 0.632968 0.492991 0.563068
O O7 0.557767 0.749185 0.536140
O O8 0.601777 0.693729 0.639571
O O9 0.906668 0.768994 0.526404
O O10 0.890067 0.705678 0.638924
O O11 0.824116 0.250000 0.250000
O O12 0.932652 0.266635 0.336009
O O13 0.500000 0.500000 0.000000
O O14 0.070978 0.750000 0.250000
O O15 0.024287 0.003250 0.199637
O O16 0.949941 0.750000 0.750000
#
# Coordination Sequence:
#
# PCOD9409015 Si02
#       7
#     8   8   8   8   8   8   8
#     4  10  22  37  54  83 114 150 195 235 286 350
#     4   9  22  40  59  84 110 148 195 231 281 345
#     4  10  21  41  62  81 114 154 191 237 285 344
#     4  10  20  35  55  80 115 152 189 238 290 346
#     4  11  23  39  61  87 118 151 191 245 298 350
#     4  10  19  35  57  80 112 147 184 234 286 340
#     4  10  21  35  56  85 114 148 191 238 289 345
#
# _framework density 18.554601999999999
#
# number of rings (size 3 to 8) (size 9 to 14) (size 15 to 20)
#    0.000    2.000    0.000    3.429    0.000    8.571 
#    0.000    2.857    0.000    0.000    0.000    0.000 
#    0.000    0.000    0.000    0.000    0.000    0.000 
#
# Total GULP energy -312552.481127 kJ/mol
# GULP energy per Si atom -5581.294306 kJ/mol
# Density = 1.851237 g / cm^3
# Si number density = 18.554602 Si / 1000 Ang^3
#
#
#
# Elastic Constant Matrix: (Units=GPa)
#
#
# Indices 1 2 3 4 5 6 
#
# 1 153.2112 70.2926 64.4657 0.0000 0.0000 0.0000
# 2 70.2926 88.2198 70.4907 0.0000 0.0000 0.0000
# 3 64.4657 70.4907 106.7520 0.0000 0.0000 0.0000
# 4 0.0000 0.0000 0.0000 32.6204 0.0000 0.0000
# 5 0.0000 0.0000 0.0000 0.0000 1.9857 0.0000
# 6 0.0000 0.0000 0.0000 0.0000 0.0000 13.3686
#
#
#
# Elastic Compliance Matrix: (Units=1/GPa)
#
#
# Indices 1 2 3 4 5 6 
#
# 1 0.010434 -0.006942 -0.001717 0.000000 0.000000 0.000000
# 2 -0.006942 0.028615 -0.014703 0.000000 0.000000 0.000000
# 3 -0.001717 -0.014703 0.020113 0.000000 0.000000 0.000000
# 4 0.000000 0.000000 0.000000 0.030656 0.000000 0.000000
# 5 0.000000 0.000000 0.000000 0.000000 0.503611 0.000000
# 6 0.000000 0.000000 0.000000 0.000000 0.000000 0.074802
#
#
# Mechanical properties :
#
#
# Convention : Reuss Voigt Hill
#
# Bulk Modulus (GPa) = 80.39713 84.29788 82.34750
# Shear Modulus (GPa) = 6.95313 19.12387 13.03850
#
# Velocity S-wave (km/s) = 1.93792 3.21390 2.65374
# Velocity P-wave (km/s) = 6.95927 7.70086 7.33944
#
# Compressibility (1/GPa) = 0.01243825
#
# Stress axis : x y z
#
# Youngs Moduli (GPa) = 95.83682 34.94730 49.71888
#
# Poissons Ratio (x) = 0.24260 0.08538
# Poissons Ratio (y) = 0.66528 0.73100
# Poissons Ratio (z) = 0.16458 0.51382
#
# Static dielectric constant tensor:
#      x y z
#    x 1.631050 0.000000 0.000000 
#    y 0.000000 1.659750 0.000000 
#    z 0.000000 0.000000 1.635180 
# 
# From -- ./inp_files/37321.got.cif
#   From: 2010.05.17/outbox.cif.g08.bks.cpg/sg52_19_cif.got.tgz:37321.got - 2010.06.03 12:15:38.
