data_PCOD9409559
_publ_section_title
;
Structure prediction by ZEFSAII (Michael W. Deem and Ramdas Pophale) SiO2 
 PCOD9409559
Probable space group: P N N A
;
_chemical_formula_sum "Si O2"
_cell_formula_units_Z 36
_cell_length_a 20.533827
_cell_length_b 10.569669
_cell_length_c 7.487421
_cell_angle_alpha 90.000000
_cell_angle_beta 90.000000
_cell_angle_gamma 90.000000
_cell_volume 1625.038067
_symmetry_space_group_name_H-M "P N N A"
_symmetry_group_IT_number 52
_symmetry_cell_setting 'orthorhombic'
loop_
_space_group_symop_operation_xyz
x,y,z
1/2-x,-y,z
x,1/2-y,1/2-z
1/2-x,1/2+y,1/2-z
-x,-y,-z
1/2+x,y,-z
-x,1/2+y,1/2+z
1/2+x,1/2-y,1/2+z
loop_
_atom_site_type_symbol
_atom_site_label
_atom_site_fract_x
_atom_site_fract_y
_atom_site_fract_z
Si Si1 0.800679 0.107600 0.525611
Si Si2 0.066177 0.987047 0.105626
Si Si3 0.550267 0.885936 0.526646
Si Si4 0.965765 0.750000 0.750000
Si Si5 0.199833 0.895097 0.037859
O O1 0.875626 0.087950 0.465601
O O2 0.799628 0.103764 0.743775
O O3 0.784652 0.252981 0.477684
O O4 0.750000 0.000000 0.465427
O O5 0.076247 0.125473 0.199523
O O6 0.056691 0.883929 0.260499
O O7 0.127340 0.941710 0.991572
O O8 0.000000 0.000000 0.000000
O O9 0.514299 0.778212 0.415009
O O10 0.500000 0.000000 0.500000
O O11 0.250000 0.000000 0.974641
#
# Coordination Sequence:
#
# PCOD9409559 Si02
#       5
#     8   8   8   4   8
#     4   9  17  31  52  76 105 142 184 233 282 341
#     4  10  20  34  55  83 113 150 196 248 300 358
#     4   9  19  34  54  82 110 148 195 238 292 351
#     4  10  20  34  56  80 114 154 194 246 298 356
#     4   9  18  30  48  78 111 141 180 230 285 343
#
# _framework density 22.153326
#
# number of rings (size 3 to 8) (size 9 to 14) (size 15 to 20)
#    0.000    2.667    0.000    1.333    0.000    9.778 
#    0.000    0.000    0.000   12.000    0.000    0.000 
#    0.000    0.000    0.000    0.000    0.000    0.000 
#
# Total GULP energy -200849.153149 kJ/mol
# GULP energy per Si atom -5579.143143 kJ/mol
# Density = 2.210290 g / cm^3
# Si number density = 22.153326 Si / 1000 Ang^3
#
#
#
# Elastic Constant Matrix: (Units=GPa)
#
#
# Indices 1 2 3 4 5 6 
#
# 1 134.2329 93.3752 7.9159 0.0000 0.0000 0.0000
# 2 93.3752 206.8250 14.8916 0.0000 0.0000 0.0000
# 3 7.9159 14.8916 60.0588 0.0000 0.0000 0.0000
# 4 0.0000 0.0000 0.0000 17.4009 0.0000 0.0000
# 5 0.0000 0.0000 0.0000 0.0000 16.6808 0.0000
# 6 0.0000 0.0000 0.0000 0.0000 0.0000 38.5195
#
#
#
# Elastic Compliance Matrix: (Units=1/GPa)
#
#
# Indices 1 2 3 4 5 6 
#
# 1 0.010863 -0.004889 -0.000220 0.000000 0.000000 0.000000
# 2 -0.004889 0.007123 -0.001122 0.000000 0.000000 0.000000
# 3 -0.000220 -0.001122 0.016957 0.000000 0.000000 0.000000
# 4 0.000000 0.000000 0.000000 0.057468 0.000000 0.000000
# 5 0.000000 0.000000 0.000000 0.000000 0.059949 0.000000
# 6 0.000000 0.000000 0.000000 0.000000 0.000000 0.025961
#
#
# Mechanical properties :
#
#
# Convention : Reuss Voigt Hill
#
# Bulk Modulus (GPa) = 44.47718 70.38690 57.43204
# Shear Modulus (GPa) = 25.21727 33.51582 29.36655
#
# Velocity S-wave (km/s) = 3.37754 3.89382 3.64484
# Velocity P-wave (km/s) = 5.94398 7.21508 6.61016
#
# Compressibility (1/GPa) = 0.02248344
#
# Stress axis : x y z
#
# Youngs Moduli (GPa) = 92.05272 140.39326 58.97111
#
# Poissons Ratio (x) = 0.68633 0.01295
# Poissons Ratio (y) = 0.45001 0.06615
# Poissons Ratio (z) = 0.02022 0.15749
#
# Static dielectric constant tensor:
#      x y z
#    x 1.747670 0.000000 0.000000 
#    y 0.000000 1.851840 0.000000 
#    z 0.000000 0.000000 2.359560 
# 
# From -- ./inp_files/13082.got.cif
#   From: 2010.05.17/outbox.cif.g08.bks.cpg/sg52_7_cif.got.tgz:13082.got - 2010.06.03 12:15:38.
