data_PCOD9409177
_publ_section_title
;
Structure prediction by ZEFSAII (Michael W. Deem and Ramdas Pophale) SiO2 
 PCOD9409177
Probable space group: P N N A
;
_chemical_formula_sum "Si O2"
_cell_formula_units_Z 40
_cell_length_a 7.312011
_cell_length_b 9.491620
_cell_length_c 22.060140
_cell_angle_alpha 90.000000
_cell_angle_beta 90.000000
_cell_angle_gamma 90.000000
_cell_volume 1531.036143
_symmetry_space_group_name_H-M "P N N A"
_symmetry_group_IT_number 52
_symmetry_cell_setting 'orthorhombic'
loop_
_space_group_symop_operation_xyz
x,y,z
1/2-x,-y,z
x,1/2-y,1/2-z
1/2-x,1/2+y,1/2-z
-x,-y,-z
1/2+x,y,-z
-x,1/2+y,1/2+z
1/2+x,1/2-y,1/2+z
loop_
_atom_site_type_symbol
_atom_site_label
_atom_site_fract_x
_atom_site_fract_y
_atom_site_fract_z
Si Si1 0.928280 0.710391 0.423811
Si Si2 0.947021 0.441425 0.207630
Si Si3 0.359530 0.812914 0.058333
Si Si4 0.094577 0.874232 0.839806
Si Si5 0.547802 0.007905 0.583677
O O1 0.150350 0.702593 0.419840
O O2 0.866391 0.647156 0.488298
O O3 0.797433 0.650381 0.369952
O O4 0.912560 0.881731 0.432633
O O5 0.750000 0.500000 0.191018
O O6 0.954112 0.278616 0.188603
O O7 0.953836 0.465226 0.279590
O O8 0.067409 0.514137 0.156513
O O9 0.463242 0.913845 0.104934
O O10 0.486035 0.671027 0.066904
O O11 0.750000 0.000000 0.555837
#
# Coordination Sequence:
#
# PCOD9409177 Si02
#       5
#     8   8   8   8   8
#     4  11  18  33  53  81 112 142 175 219 276 327
#     4  10  19  37  55  74 111 142 187 223 262 328
#     4  10  20  31  52  82 113 143 174 220 270 333
#     4  10  21  35  54  81 107 149 177 223 275 315
#     4   9  19  32  51  82 112 143 176 219 278 328
#
# _framework density 26.126099
#
# number of rings (size 3 to 8) (size 9 to 14) (size 15 to 20)
#    0.000    2.000    4.000    0.600    0.000    0.000 
#    3.600    2.000    0.000    1.200    0.000    0.000 
#    0.000    0.000    0.000    0.000    0.000    0.000 
#
# Total GULP energy -222880.188423 kJ/mol
# GULP energy per Si atom -5572.004711 kJ/mol
# Density = 2.606663 g / cm^3
# Si number density = 26.126099 Si / 1000 Ang^3
#
#
#
# Elastic Constant Matrix: (Units=GPa)
#
#
# Indices 1 2 3 4 5 6 
#
# 1 117.2811 8.5158 50.2963 0.0000 0.0000 0.0000
# 2 8.5158 68.9181 13.9743 0.0000 0.0000 0.0000
# 3 50.2963 13.9743 253.1007 0.0000 0.0000 0.0000
# 4 0.0000 0.0000 0.0000 38.2705 0.0000 0.0000
# 5 0.0000 0.0000 0.0000 0.0000 48.5597 0.0000
# 6 0.0000 0.0000 0.0000 0.0000 0.0000 30.8648
#
#
#
# Elastic Compliance Matrix: (Units=1/GPa)
#
#
# Indices 1 2 3 4 5 6 
#
# 1 0.009363 -0.000788 -0.001817 0.000000 0.000000 0.000000
# 2 -0.000788 0.014741 -0.000657 0.000000 0.000000 0.000000
# 3 -0.001817 -0.000657 0.004348 0.000000 0.000000 0.000000
# 4 0.000000 0.000000 0.000000 0.026130 0.000000 0.000000
# 5 0.000000 0.000000 0.000000 0.000000 0.020593 0.000000
# 6 0.000000 0.000000 0.000000 0.000000 0.000000 0.032399
#
#
# Mechanical properties :
#
#
# Convention : Reuss Voigt Hill
#
# Bulk Modulus (GPa) = 45.60683 64.98588 55.29635
# Shear Modulus (GPa) = 41.18316 47.97323 44.57819
#
# Velocity S-wave (km/s) = 3.97460 4.28976 4.13518
# Velocity P-wave (km/s) = 6.20948 7.03306 6.63406
#
# Compressibility (1/GPa) = 0.02192654
#
# Stress axis : x y z
#
# Youngs Moduli (GPa) = 106.80294 67.83957 229.97096
#
# Poissons Ratio (x) = 0.05349 0.41788
# Poissons Ratio (y) = 0.08421 0.15113
# Poissons Ratio (z) = 0.19407 0.04458
#
# Static dielectric constant tensor:
#      x y z
#    x 1.995360 0.000000 0.000000 
#    y 0.000000 2.272920 0.000000 
#    z 0.000000 0.000000 2.140880 
# 
# From -- ./inp_files/31073.got.cif
#   From: 2010.05.17/outbox.cif.g08.bks.cpg/sg52_16_cif.got.tgz:31073.got - 2010.06.03 12:15:38.
