data_PCOD9409546
_publ_section_title
;
Structure prediction by ZEFSAII (Michael W. Deem and Ramdas Pophale) SiO2 
 PCOD9409546
Probable space group: P N N A
;
_chemical_formula_sum "Si O2"
_cell_formula_units_Z 64
_cell_length_a 21.562032
_cell_length_b 5.220638
_cell_length_c 30.689485
_cell_angle_alpha 90.000000
_cell_angle_beta 90.000000
_cell_angle_gamma 90.000000
_cell_volume 3454.640555
_symmetry_space_group_name_H-M "P N N A"
_symmetry_group_IT_number 52
_symmetry_cell_setting 'orthorhombic'
loop_
_space_group_symop_operation_xyz
x,y,z
1/2-x,-y,z
x,1/2-y,1/2-z
1/2-x,1/2+y,1/2-z
-x,-y,-z
1/2+x,y,-z
-x,1/2+y,1/2+z
1/2+x,1/2-y,1/2+z
loop_
_atom_site_type_symbol
_atom_site_label
_atom_site_fract_x
_atom_site_fract_y
_atom_site_fract_z
Si Si1 0.111971 0.067575 0.483125
Si Si2 0.178757 0.931381 0.046884
Si Si3 0.324735 0.514820 0.621435
Si Si4 0.674588 0.999778 0.223732
Si Si5 0.967237 0.544440 0.897823
Si Si6 0.891147 0.483432 0.084643
Si Si7 0.102538 0.545323 0.366994
Si Si8 0.677989 0.500071 0.720528
O O1 0.138342 0.354426 0.478170
O O2 0.056254 0.035279 0.448330
O O3 0.097957 0.012688 0.533090
O O4 0.162258 0.854028 0.468616
O O5 0.157116 0.955132 0.096911
O O6 0.250000 0.000000 0.041274
O O7 0.250000 0.500000 0.617865
O O8 0.341918 0.499489 0.672818
O O9 0.350864 0.778642 0.602046
O O10 0.355404 0.276986 0.596419
O O11 0.653460 0.750000 0.250000
O O12 0.750000 0.000000 0.224676
O O13 0.653554 0.250000 0.250000
O O14 0.933460 0.311369 0.873371
O O15 0.040665 0.519829 0.894538
O O16 0.942757 0.812025 0.878983
O O17 0.132471 0.509096 0.320149
O O18 0.750000 0.500000 0.705525
O O19 0.668389 0.250000 0.750000
O O20 0.669238 0.750000 0.750000
#
# Coordination Sequence:
#
# PCOD9409546 Si02
#       8
#     8   8   8   8   8   8   8   8
#     4  10  22  36  55  80 108 148 191 231 268 320
#     4  10  20  34  54  82 113 146 184 225 278 331
#     4  11  24  38  58  89 115 142 177 220 289 349
#     4   9  17  33  57  80 104 134 168 206 248 309
#     4  10  22  39  59  79 103 148 202 233 268 320
#     4  12  23  39  59  80 115 148 181 232 277 332
#     4  10  20  37  58  81 111 146 189 240 276 316
#     4  10  20  34  57  89 120 152 190 231 284 343
#
# _framework density 18.525808000000001
#
# number of rings (size 3 to 8) (size 9 to 14) (size 15 to 20)
#    0.000    1.750    0.000    4.500    0.000    5.000 
#    0.000    8.750    0.000   15.000    0.000    0.000 
#    0.000    0.000    0.000    0.000    0.000    0.000 
#
# Total GULP energy -357532.088010 kJ/mol
# GULP energy per Si atom -5586.438875 kJ/mol
# Density = 1.848364 g / cm^3
# Si number density = 18.525808 Si / 1000 Ang^3
#
#
#
# Elastic Constant Matrix: (Units=GPa)
#
#
# Indices 1 2 3 4 5 6 
#
# 1 62.5235 -4.5950 16.9696 0.0000 0.0000 0.0000
# 2 -4.5950 85.9490 3.9352 0.0000 0.0000 0.0000
# 3 16.9696 3.9352 67.6661 0.0000 0.0000 0.0000
# 4 0.0000 0.0000 0.0000 6.0084 0.0000 0.0000
# 5 0.0000 0.0000 0.0000 0.0000 7.5440 0.0000
# 6 0.0000 0.0000 0.0000 0.0000 0.0000 16.8413
#
#
#
# Elastic Compliance Matrix: (Units=1/GPa)
#
#
# Indices 1 2 3 4 5 6 
#
# 1 0.017270 0.001125 -0.004396 0.000000 0.000000 0.000000
# 2 0.001125 0.011739 -0.000965 0.000000 0.000000 0.000000
# 3 -0.004396 -0.000965 0.015937 0.000000 0.000000 0.000000
# 4 0.000000 0.000000 0.000000 0.166434 0.000000 0.000000
# 5 0.000000 0.000000 0.000000 0.000000 0.132556 0.000000
# 6 0.000000 0.000000 0.000000 0.000000 0.000000 0.059378
#
#
# Mechanical properties :
#
#
# Convention : Reuss Voigt Hill
#
# Bulk Modulus (GPa) = 27.41760 27.63981 27.52870
# Shear Modulus (GPa) = 11.79399 19.40065 15.59732
#
# Velocity S-wave (km/s) = 2.52588 3.23959 2.90474
# Velocity P-wave (km/s) = 4.83100 5.38008 5.11292
#
# Compressibility (1/GPa) = 0.03647292
#
# Stress axis : x y z
#
# Youngs Moduli (GPa) = 57.90434 85.18542 62.74665
#
# Poissons Ratio (x) = -0.09580 0.27586
# Poissons Ratio (y) = -0.06512 0.06053
# Poissons Ratio (z) = 0.25457 0.08218
#
# Static dielectric constant tensor:
#      x y z
#    x 1.606940 0.000000 0.000000 
#    y 0.000000 1.619800 0.000000 
#    z 0.000000 0.000000 1.623010 
# 
# From -- ./inp_files/45161.got.cif
#   From: 2010.05.17/outbox.cif.g08.bks.cpg/sg52_23_cif.got.tgz:45161.got - 2010.06.03 12:15:38.
