data_PCOD9409382
_publ_section_title
;
Structure prediction by ZEFSAII (Michael W. Deem and Ramdas Pophale) SiO2 
 PCOD9409382
Probable space group: P N N A
;
_chemical_formula_sum "Si O2"
_cell_formula_units_Z 48
_cell_length_a 12.776533
_cell_length_b 8.694297
_cell_length_c 16.082986
_cell_angle_alpha 90.000000
_cell_angle_beta 90.000000
_cell_angle_gamma 90.000000
_cell_volume 1786.545892
_symmetry_space_group_name_H-M "P N N A"
_symmetry_group_IT_number 52
_symmetry_cell_setting 'orthorhombic'
loop_
_space_group_symop_operation_xyz
x,y,z
1/2-x,-y,z
x,1/2-y,1/2-z
1/2-x,1/2+y,1/2-z
-x,-y,-z
1/2+x,y,-z
-x,1/2+y,1/2+z
1/2+x,1/2-y,1/2+z
loop_
_atom_site_type_symbol
_atom_site_label
_atom_site_fract_x
_atom_site_fract_y
_atom_site_fract_z
Si Si1 0.955894 0.452881 0.801308
Si Si2 0.962112 0.703570 0.415235
Si Si3 0.669280 0.633531 0.179385
Si Si4 0.084231 0.879108 0.929990
Si Si5 0.867084 0.638334 0.671022
Si Si6 0.833217 0.625246 0.949386
O O1 0.878068 0.476631 0.721713
O O2 0.898900 0.530413 0.880342
O O3 0.996317 0.288947 0.834489
O O4 0.060351 0.556587 0.790005
O O5 0.887978 0.553916 0.406202
O O6 0.903150 0.826030 0.472866
O O7 0.055970 0.638540 0.473321
O O8 0.750000 0.500000 0.167114
O O9 0.706360 0.750000 0.250000
O O10 0.655719 0.740997 0.099235
O O11 0.977083 0.852267 0.877951
O O12 0.858678 0.750000 0.750000
O O13 0.795318 0.718366 0.599740
O O14 0.750000 0.500000 0.975001
#
# Coordination Sequence:
#
# PCOD9409382 Si02
#       6
#     8   8   8   8   8   8
#     4  11  20  42  70  99 133 189 239 293 369 431
#     4  10  22  36  70 102 139 182 238 293 364 438
#     4  12  24  43  69  99 141 186 236 298 360 433
#     4  10  19  42  66  98 136 184 237 292 353 436
#     4   9  16  37  71  90 130 179 237 301 350 422
#     4  10  20  38  70 105 140 191 244 299 370 437
#
# _framework density 26.86749
#
# number of rings (size 3 to 8) (size 9 to 14) (size 15 to 20)
#    0.000    1.667    6.667    0.500    0.000    2.667 
#    0.000    0.000   25.667    2.000   13.000    0.000 
#    0.000    0.000    0.000    0.000    0.000    0.000 
#
# Total GULP energy -268466.155943 kJ/mol
# GULP energy per Si atom -5593.044915 kJ/mol
# Density = 2.680634 g / cm^3
# Si number density = 26.867490 Si / 1000 Ang^3
#
#
#
# Elastic Constant Matrix: (Units=GPa)
#
#
# Indices 1 2 3 4 5 6 
#
# 1 47.3455 48.5318 14.3936 0.0000 0.0000 0.0000
# 2 48.5318 198.2618 72.3059 0.0000 0.0000 0.0000
# 3 14.3936 72.3059 147.1971 0.0000 0.0000 0.0000
# 4 0.0000 0.0000 0.0000 50.0013 0.0000 0.0000
# 5 0.0000 0.0000 0.0000 0.0000 15.6167 0.0000
# 6 0.0000 0.0000 0.0000 0.0000 0.0000 44.5197
#
#
#
# Elastic Compliance Matrix: (Units=1/GPa)
#
#
# Indices 1 2 3 4 5 6 
#
# 1 0.028268 -0.007202 0.000773 0.000000 0.000000 0.000000
# 2 -0.007202 0.007979 -0.003215 0.000000 0.000000 0.000000
# 3 0.000773 -0.003215 0.008297 0.000000 0.000000 0.000000
# 4 0.000000 0.000000 0.000000 0.019999 0.000000 0.000000
# 5 0.000000 0.000000 0.000000 0.000000 0.064034 0.000000
# 6 0.000000 0.000000 0.000000 0.000000 0.000000 0.022462
#
#
# Mechanical properties :
#
#
# Convention : Reuss Voigt Hill
#
# Bulk Modulus (GPa) = 39.59179 73.69635 56.64407
# Shear Modulus (GPa) = 27.97240 39.19907 33.58574
#
# Velocity S-wave (km/s) = 3.23015 3.82380 3.53944
# Velocity P-wave (km/s) = 5.35535 6.85452 6.15078
#
# Compressibility (1/GPa) = 0.02525776
#
# Stress axis : x y z
#
# Youngs Moduli (GPa) = 35.37510 125.32277 120.51908
#
# Poissons Ratio (x) = 0.90255 -0.09321
# Poissons Ratio (y) = 0.25476 0.38752
# Poissons Ratio (z) = -0.02736 0.40296
#
# Static dielectric constant tensor:
#      x y z
#    x 2.140860 0.000000 0.000000 
#    y 0.000000 2.251270 0.000000 
#    z 0.000000 0.000000 2.092730 
# 
# From -- ./inp_files/33024.got.cif
#   From: 2010.05.17/outbox.cif.g08.bks.cpg/sg52_17_cif.got.tgz:33024.got - 2010.06.03 12:15:38.
