data_PCOD9409660
_publ_section_title
;
Structure prediction by ZEFSAII (Michael W. Deem and Ramdas Pophale) SiO2 
 PCOD9409660
Probable space group: P N N A
;
_chemical_formula_sum "Si O2"
_cell_formula_units_Z 48
_cell_length_a 22.954586
_cell_length_b 19.127213
_cell_length_c 6.112887
_cell_angle_alpha 90.000000
_cell_angle_beta 90.000000
_cell_angle_gamma 90.000000
_cell_volume 2683.907391
_symmetry_space_group_name_H-M "P N N A"
_symmetry_group_IT_number 52
_symmetry_cell_setting 'orthorhombic'
loop_
_space_group_symop_operation_xyz
x,y,z
1/2-x,-y,z
x,1/2-y,1/2-z
1/2-x,1/2+y,1/2-z
-x,-y,-z
1/2+x,y,-z
-x,1/2+y,1/2+z
1/2+x,1/2-y,1/2+z
loop_
_atom_site_type_symbol
_atom_site_label
_atom_site_fract_x
_atom_site_fract_y
_atom_site_fract_z
Si Si1 0.967339 0.958987 0.804398
Si Si2 0.750000 0.000000 0.765144
Si Si3 0.744084 0.750000 0.750000
Si Si4 0.303462 0.127422 0.522340
Si Si5 0.080417 0.554393 0.909825
Si Si6 0.358689 0.551533 0.566102
Si Si7 0.785175 0.674635 0.355604
O O1 0.020378 0.917367 0.693894
O O2 0.940498 0.010582 0.620889
O O3 0.911288 0.923784 0.910531
O O4 0.000000 0.000000 0.000000
O O5 0.771338 0.064282 0.609988
O O6 0.695074 0.021485 0.920162
O O7 0.706669 0.798420 0.592635
O O8 0.780248 0.694151 0.609384
O O9 0.371103 0.110087 0.530085
O O10 0.273305 0.139077 0.758686
O O11 0.114237 0.504216 0.735625
O O12 0.334217 0.618332 0.692301
O O13 0.795275 0.750000 0.250000
#
# Coordination Sequence:
#
# PCOD9409660 Si02
#       7
#     8   4   4   8   8   8   8
#     4   9  20  35  54  86 111 149 189 242 295 339
#     4  12  20  32  58  92 118 140 186 252 302 358
#     4  10  22  38  52  82 120 160 188 222 298 360
#     4  11  21  35  55  87 117 151 191 239 295 352
#     4  10  20  35  57  86 112 148 193 246 291 339
#     4  11  20  34  55  87 117 146 190 244 295 350
#     4  10  22  36  54  84 117 157 188 231 294 362
#
# _framework density 17.884373
#
# number of rings (size 3 to 8) (size 9 to 14) (size 15 to 20)
#    0.000    1.667    3.333    2.000    0.000    0.000 
#    0.000    0.000    0.000    0.000   84.500    0.000 
#    0.000    0.000    0.000    0.000    0.000    0.000 
#
# Total GULP energy -267327.494058 kJ/mol
# GULP energy per Si atom -5569.322793 kJ/mol
# Density = 1.784367 g / cm^3
# Si number density = 17.884373 Si / 1000 Ang^3
#
#
#
# Elastic Constant Matrix: (Units=GPa)
#
#
# Indices 1 2 3 4 5 6 
#
# 1 108.9067 12.7012 12.3030 0.0000 0.0000 0.0000
# 2 12.7012 46.6348 -5.3504 0.0000 0.0000 0.0000
# 3 12.3030 -5.3504 51.0357 0.0000 0.0000 0.0000
# 4 0.0000 0.0000 0.0000 22.4078 0.0000 0.0000
# 5 0.0000 0.0000 0.0000 0.0000 37.6905 0.0000
# 6 0.0000 0.0000 0.0000 0.0000 0.0000 15.4670
#
#
#
# Elastic Compliance Matrix: (Units=1/GPa)
#
#
# Indices 1 2 3 4 5 6 
#
# 1 0.009834 -0.002986 -0.002684 0.000000 0.000000 0.000000
# 2 -0.002986 0.022611 0.003090 0.000000 0.000000 0.000000
# 3 -0.002684 0.003090 0.020565 0.000000 0.000000 0.000000
# 4 0.000000 0.000000 0.000000 0.044627 0.000000 0.000000
# 5 0.000000 0.000000 0.000000 0.000000 0.026532 0.000000
# 6 0.000000 0.000000 0.000000 0.000000 0.000000 0.064654
#
#
# Mechanical properties :
#
#
# Convention : Reuss Voigt Hill
#
# Bulk Modulus (GPa) = 20.89826 27.32054 24.10940
# Shear Modulus (GPa) = 23.81728 27.57462 25.69595
#
# Velocity S-wave (km/s) = 3.65326 3.93087 3.79460
# Velocity P-wave (km/s) = 5.43191 5.99264 5.71915
#
# Compressibility (1/GPa) = 0.04785086
#
# Stress axis : x y z
#
# Youngs Moduli (GPa) = 101.69224 44.22620 48.62624
#
# Poissons Ratio (x) = 0.13206 0.13049
# Poissons Ratio (y) = 0.30367 -0.15027
# Poissons Ratio (z) = 0.27290 -0.13667
#
# Static dielectric constant tensor:
#      x y z
#    x 1.614100 0.000000 0.000000 
#    y 0.000000 1.591900 0.000000 
#    z 0.000000 0.000000 1.714150 
# 
# From -- ./inp_files/4395.got.cif
#   From: 2010.05.17/outbox.cif.g08.bks.cpg/sg52_3_cif.got.tgz:4395.got - 2010.06.03 12:15:38.
