data_PCOD9409827
_publ_section_title
;
Structure prediction by ZEFSAII (Michael W. Deem and Ramdas Pophale) SiO2 
 PCOD9409827
Probable space group: P N N A
;
_chemical_formula_sum "Si O2"
_cell_formula_units_Z 32
_cell_length_a 21.765078
_cell_length_b 5.003438
_cell_length_c 12.092904
_cell_angle_alpha 90.000000
_cell_angle_beta 90.000000
_cell_angle_gamma 90.000000
_cell_volume 1316.919886
_symmetry_space_group_name_H-M "P N N A"
_symmetry_group_IT_number 52
_symmetry_cell_setting 'orthorhombic'
loop_
_space_group_symop_operation_xyz
x,y,z
1/2-x,-y,z
x,1/2-y,1/2-z
1/2-x,1/2+y,1/2-z
-x,-y,-z
1/2+x,y,-z
-x,1/2+y,1/2+z
1/2+x,1/2-y,1/2+z
loop_
_atom_site_type_symbol
_atom_site_label
_atom_site_fract_x
_atom_site_fract_y
_atom_site_fract_z
Si Si1 0.847052 0.313023 0.504133
Si Si2 0.750000 0.000000 0.172543
Si Si3 0.006629 0.063055 0.169761
Si Si4 0.930356 0.684414 0.031897
Si Si5 0.622752 0.750000 0.750000
O O1 0.793776 0.337352 0.413561
O O2 0.876364 0.605753 0.495706
O O3 0.838296 0.239069 0.635458
O O4 0.897800 0.098190 0.466788
O O5 0.725531 0.250000 0.250000
O O6 0.968673 0.250000 0.250000
O O7 0.071895 0.978607 0.223536
O O8 0.022972 0.256976 0.067990
O O9 0.968624 0.807094 0.132619
#
# Coordination Sequence:
#
# PCOD9409827 Si02
#       5
#     8   4   8   8   4
#     4  11  24  47  72 108 144 195 254 322 381 440
#     4  12  28  54  80 102 140 196 268 334 380 446
#     4  10  20  36  63 106 160 200 231 284 363 459
#     4  10  23  38  66 104 151 195 243 283 369 454
#     4  10  22  40  74 108 158 184 236 316 384 454
#
# _framework density 24.299123999999999
#
# number of rings (size 3 to 8) (size 9 to 14) (size 15 to 20)
#    0.000    1.500    2.500    1.500    3.500    4.000 
#    2.250    3.750    0.000    0.000    0.000    0.000 
#    0.000    0.000    0.000    0.000    0.000    0.000 
#
# Total GULP energy -178450.386026 kJ/mol
# GULP energy per Si atom -5576.574563 kJ/mol
# Density = 2.424382 g / cm^3
# Si number density = 24.299124 Si / 1000 Ang^3
#
#
#
# Elastic Constant Matrix: (Units=GPa)
#
#
# Indices 1 2 3 4 5 6 
#
# 1 59.0414 12.9599 50.9243 0.0000 0.0000 0.0000
# 2 12.9599 73.3472 33.6994 0.0000 0.0000 0.0000
# 3 50.9243 33.6994 193.9067 0.0000 0.0000 0.0000
# 4 0.0000 0.0000 0.0000 42.9975 0.0000 0.0000
# 5 0.0000 0.0000 0.0000 0.0000 41.8584 0.0000
# 6 0.0000 0.0000 0.0000 0.0000 0.0000 42.7439
#
#
#
# Elastic Compliance Matrix: (Units=1/GPa)
#
#
# Indices 1 2 3 4 5 6 
#
# 1 0.022018 -0.001341 -0.005549 0.000000 0.000000 0.000000
# 2 -0.001341 0.014899 -0.002237 0.000000 0.000000 0.000000
# 3 -0.005549 -0.002237 0.007003 0.000000 0.000000 0.000000
# 4 0.000000 0.000000 0.000000 0.023257 0.000000 0.000000
# 5 0.000000 0.000000 0.000000 0.000000 0.023890 0.000000
# 6 0.000000 0.000000 0.000000 0.000000 0.000000 0.023395
#
#
# Mechanical properties :
#
#
# Convention : Reuss Voigt Hill
#
# Bulk Modulus (GPa) = 38.96310 57.94026 48.45168
# Shear Modulus (GPa) = 35.39273 40.76742 38.08008
#
# Velocity S-wave (km/s) = 3.82061 4.10046 3.96300
# Velocity P-wave (km/s) = 5.96090 6.80549 6.39715
#
# Compressibility (1/GPa) = 0.02566531
#
# Stress axis : x y z
#
# Youngs Moduli (GPa) = 45.41732 67.12067 142.78938
#
# Poissons Ratio (x) = 0.08999 0.79240
# Poissons Ratio (y) = 0.06089 0.31944
# Poissons Ratio (z) = 0.25204 0.15016
#
# Static dielectric constant tensor:
#      x y z
#    x 1.960890 0.000000 0.000000 
#    y 0.000000 1.831470 0.000000 
#    z 0.000000 0.000000 2.118330 
# 
# From -- ./inp_files/21988.got.cif
#   From: 2010.05.17/outbox.cif.g08.bks.cpg/sg52_11_cif.got.tgz:21988.got - 2010.06.03 12:15:38.
