data_PCOD9409168
_publ_section_title
;
Structure prediction by ZEFSAII (Michael W. Deem and Ramdas Pophale) SiO2 
 PCOD9409168
Probable space group: P N N A
;
_chemical_formula_sum "Si O2"
_cell_formula_units_Z 32
_cell_length_a 19.120345
_cell_length_b 14.672421
_cell_length_c 5.204272
_cell_angle_alpha 90.000000
_cell_angle_beta 90.000000
_cell_angle_gamma 90.000000
_cell_volume 1460.015582
_symmetry_space_group_name_H-M "P N N A"
_symmetry_group_IT_number 52
_symmetry_cell_setting 'orthorhombic'
loop_
_space_group_symop_operation_xyz
x,y,z
1/2-x,-y,z
x,1/2-y,1/2-z
1/2-x,1/2+y,1/2-z
-x,-y,-z
1/2+x,y,-z
-x,1/2+y,1/2+z
1/2+x,1/2-y,1/2+z
loop_
_atom_site_type_symbol
_atom_site_label
_atom_site_fract_x
_atom_site_fract_y
_atom_site_fract_z
Si Si1 0.745250 0.390654 0.743575
Si Si2 0.455495 0.473738 0.747817
Si Si3 0.117199 0.696537 0.500967
Si Si4 0.309809 0.578413 0.750571
O O1 0.750000 0.500000 0.779502
O O2 0.819622 0.354972 0.646660
O O3 0.690484 0.371215 0.519995
O O4 0.716027 0.359693 0.015945
O O5 0.500000 0.500000 0.500000
O O6 0.432979 0.371700 0.660833
O O7 0.382920 0.528149 0.787008
O O8 0.500000 0.500000 0.000000
O O9 0.084886 0.750000 0.250000
O O10 0.147325 0.750000 0.750000
O O11 0.250000 0.500000 0.719036
#
# Coordination Sequence:
#
# PCOD9409168 Si02
#       4
#     8   8   8   8
#     4  10  19  36  67  94 132 168 227 282 333 411
#     4  12  25  42  68 106 133 192 243 282 347 439
#     4  12  25  42  68 106 143 180 234 305 366 420
#     4  10  19  36  67  94 132 159 240 280 322 400
#
# _framework density 21.917573999999998
#
# number of rings (size 3 to 8) (size 9 to 14) (size 15 to 20)
#    0.000    1.000    5.000    4.500    7.000    0.000 
#    0.000    0.000    0.000   30.000    0.000    0.000 
#    0.000    0.000    0.000    0.000    0.000    0.000 
#
# Total GULP energy -178178.737474 kJ/mol
# GULP energy per Si atom -5568.085546 kJ/mol
# Density = 2.186769 g / cm^3
# Si number density = 21.917574 Si / 1000 Ang^3
#
#
#
# Elastic Constant Matrix: (Units=GPa)
#
#
# Indices 1 2 3 4 5 6 
#
# 1 119.2225 21.9414 32.9218 0.0000 0.0000 0.0000
# 2 21.9414 65.2779 32.1861 0.0000 0.0000 0.0000
# 3 32.9218 32.1861 199.5025 0.0000 0.0000 0.0000
# 4 0.0000 0.0000 0.0000 14.7599 0.0000 0.0000
# 5 0.0000 0.0000 0.0000 0.0000 60.0376 0.0000
# 6 0.0000 0.0000 0.0000 0.0000 0.0000 16.3765
#
#
#
# Elastic Compliance Matrix: (Units=1/GPa)
#
#
# Indices 1 2 3 4 5 6 
#
# 1 0.009159 -0.002535 -0.001102 0.000000 0.000000 0.000000
# 2 -0.002535 0.017345 -0.002380 0.000000 0.000000 0.000000
# 3 -0.001102 -0.002380 0.005578 0.000000 0.000000 0.000000
# 4 0.000000 0.000000 0.000000 0.067751 0.000000 0.000000
# 5 0.000000 0.000000 0.000000 0.000000 0.016656 0.000000
# 6 0.000000 0.000000 0.000000 0.000000 0.000000 0.061063
#
#
# Mechanical properties :
#
#
# Convention : Reuss Voigt Hill
#
# Bulk Modulus (GPa) = 49.88238 62.01128 55.94683
# Shear Modulus (GPa) = 25.47527 38.03171 31.75349
#
# Velocity S-wave (km/s) = 3.41298 4.17011 3.81040
# Velocity P-wave (km/s) = 6.19191 7.17919 6.70375
#
# Compressibility (1/GPa) = 0.02004716
#
# Stress axis : x y z
#
# Youngs Moduli (GPa) = 109.18700 57.65487 179.26468
#
# Poissons Ratio (x) = 0.14615 0.19762
# Poissons Ratio (y) = 0.27677 0.42664
# Poissons Ratio (z) = 0.12037 0.13721
#
# Static dielectric constant tensor:
#      x y z
#    x 1.594920 0.000000 0.000000 
#    y 0.000000 2.203710 0.000000 
#    z 0.000000 0.000000 1.944130 
# 
# From -- ./inp_files/3053.got.cif
#   From: 2010.05.17/outbox.cif.g08.bks.cpg/sg52_2_cif.got.tgz:3053.got - 2010.06.03 12:15:38.
