data_PCOD9409104
_publ_section_title
;
Structure prediction by ZEFSAII (Michael W. Deem and Ramdas Pophale) SiO2 
 PCOD9409104
Probable space group: P N N A
;
_chemical_formula_sum "Si O2"
_cell_formula_units_Z 56
_cell_length_a 28.003502
_cell_length_b 16.229814
_cell_length_c 6.182226
_cell_angle_alpha 90.000000
_cell_angle_beta 90.000000
_cell_angle_gamma 90.000000
_cell_volume 2809.769964
_symmetry_space_group_name_H-M "P N N A"
_symmetry_group_IT_number 52
_symmetry_cell_setting 'orthorhombic'
loop_
_space_group_symop_operation_xyz
x,y,z
1/2-x,-y,z
x,1/2-y,1/2-z
1/2-x,1/2+y,1/2-z
-x,-y,-z
1/2+x,y,-z
-x,1/2+y,1/2+z
1/2+x,1/2-y,1/2+z
loop_
_atom_site_type_symbol
_atom_site_label
_atom_site_fract_x
_atom_site_fract_y
_atom_site_fract_z
Si Si1 0.071635 0.329566 0.108434
Si Si2 0.271039 0.921427 0.166641
Si Si3 0.926230 0.508627 0.577088
Si Si4 0.329725 0.859608 0.540843
Si Si5 0.270218 0.338154 0.706530
Si Si6 0.493569 0.568799 0.814999
Si Si7 0.833897 0.486225 0.312846
O O1 0.058882 0.250000 0.250000
O O2 0.079906 0.411174 0.263606
O O3 0.121559 0.309216 0.983903
O O4 0.030383 0.354459 0.938150
O O5 0.308001 0.870958 0.304746
O O6 0.250000 0.000000 0.296753
O O7 0.235730 0.858853 0.047834
O O8 0.296787 0.967482 0.969658
O O9 0.957504 0.540653 0.374043
O O10 0.878466 0.472922 0.469917
O O11 0.954995 0.436000 0.698958
O O12 0.282675 0.836338 0.681525
O O13 0.346916 0.947888 0.630903
O O14 0.291850 0.250000 0.750000
O O15 0.305695 0.409399 0.785840
O O16 0.500000 0.500000 0.000000
#
# Coordination Sequence:
#
# PCOD9409104 Si02
#       7
#     8   8   8   8   8   8   8
#     4  11  23  34  57  94 125 150 192 253 316 369
#     4   9  18  33  52  75 109 153 199 237 287 350
#     4  10  19  38  64  85 115 159 199 244 295 372
#     4  11  20  34  54  82 118 162 194 238 299 364
#     4  10  23  35  51  80 124 159 200 256 295 336
#     4   9  20  39  60  88 113 149 193 242 311 366
#     4  10  19  36  58  84 109 157 209 243 284 363
#
# _framework density 19.930458999999999
#
# number of rings (size 3 to 8) (size 9 to 14) (size 15 to 20)
#    0.000    2.000    2.857    2.143    2.000    0.571 
#    0.000    0.000    0.000    9.429    0.000    0.000 
#    0.000    0.000    0.000    0.000    0.000    0.000 
#
# Total GULP energy -311769.901998 kJ/mol
# GULP energy per Si atom -5567.319679 kJ/mol
# Density = 1.988510 g / cm^3
# Si number density = 19.930459 Si / 1000 Ang^3
#
#
#
# Elastic Constant Matrix: (Units=GPa)
#
#
# Indices 1 2 3 4 5 6 
#
# 1 75.2556 26.3925 22.0773 0.0000 0.0000 0.0000
# 2 26.3925 78.4937 28.3508 0.0000 0.0000 0.0000
# 3 22.0773 28.3508 64.4378 0.0000 0.0000 0.0000
# 4 0.0000 0.0000 0.0000 21.8590 0.0000 0.0000
# 5 0.0000 0.0000 0.0000 0.0000 145.0632 0.0000
# 6 0.0000 0.0000 0.0000 0.0000 0.0000 10.8097
#
#
#
# Elastic Compliance Matrix: (Units=1/GPa)
#
#
# Indices 1 2 3 4 5 6 
#
# 1 0.015754 -0.003980 -0.003646 0.000000 0.000000 0.000000
# 2 -0.003980 0.016152 -0.005743 0.000000 0.000000 0.000000
# 3 -0.003646 -0.005743 0.019295 0.000000 0.000000 0.000000
# 4 0.000000 0.000000 0.000000 0.045748 0.000000 0.000000
# 5 0.000000 0.000000 0.000000 0.000000 0.006894 0.000000
# 6 0.000000 0.000000 0.000000 0.000000 0.000000 0.092510
#
#
# Mechanical properties :
#
#
# Convention : Reuss Voigt Hill
#
# Bulk Modulus (GPa) = 40.87927 41.31425 41.09676
# Shear Modulus (GPa) = 21.62214 44.97081 33.29647
#
# Velocity S-wave (km/s) = 3.29732 4.75530 4.09177
# Velocity P-wave (km/s) = 5.92047 7.13615 6.55655
#
# Compressibility (1/GPa) = 0.02446227
#
# Stress axis : x y z
#
# Youngs Moduli (GPa) = 63.47782 61.91048 51.82721
#
# Poissons Ratio (x) = 0.24640 0.18898
# Poissons Ratio (y) = 0.25264 0.29764
# Poissons Ratio (z) = 0.23146 0.35555
#
# Static dielectric constant tensor:
#      x y z
#    x 1.757660 0.000000 0.000000 
#    y 0.000000 1.483250 0.000000 
#    z 0.000000 0.000000 1.742430 
# 
# From -- ./inp_files/6411.got.cif
#   From: 2010.05.17/outbox.cif.g08.bks.cpg/sg52_4_cif.got.tgz:6411.got - 2010.06.03 12:15:38.
