data_PCOD9409856
_publ_section_title
;
Structure prediction by ZEFSAII (Michael W. Deem and Ramdas Pophale) SiO2 
 PCOD9409856
Probable space group: P N N A
;
_chemical_formula_sum "Si O2"
_cell_formula_units_Z 40
_cell_length_a 9.502245
_cell_length_b 13.366168
_cell_length_c 15.826118
_cell_angle_alpha 90.000000
_cell_angle_beta 90.000000
_cell_angle_gamma 90.000000
_cell_volume 2010.053139
_symmetry_space_group_name_H-M "P N N A"
_symmetry_group_IT_number 52
_symmetry_cell_setting 'orthorhombic'
loop_
_space_group_symop_operation_xyz
x,y,z
1/2-x,-y,z
x,1/2-y,1/2-z
1/2-x,1/2+y,1/2-z
-x,-y,-z
1/2+x,y,-z
-x,1/2+y,1/2+z
1/2+x,1/2-y,1/2+z
loop_
_atom_site_type_symbol
_atom_site_label
_atom_site_fract_x
_atom_site_fract_y
_atom_site_fract_z
Si Si1 0.166749 0.750000 0.250000
Si Si2 0.847595 0.307641 0.171455
Si Si3 0.223669 0.884154 0.400520
Si Si4 0.750000 0.000000 0.235918
Si Si5 0.080278 0.334007 0.640817
Si Si6 0.476216 0.796365 0.498821
O O1 0.247652 0.819374 0.316156
O O2 0.061296 0.682882 0.306328
O O3 0.916855 0.250000 0.250000
O O4 0.826457 0.420651 0.202867
O O5 0.695768 0.253470 0.159387
O O6 0.934465 0.294118 0.086742
O O7 0.329649 0.846198 0.472943
O O8 0.066264 0.861282 0.434007
O O9 0.250000 0.000000 0.385166
O O10 0.649757 0.064783 0.174571
O O11 0.045555 0.311624 0.542892
#
# Coordination Sequence:
#
# PCOD9409856 Si02
#       6
#     4   8   8   4   8   8
#     4  10  22  42  62  90 138 164 208 274 334 370
#     4  10  21  37  62  91 124 163 214 260 310 383
#     4  11  25  40  67  93 128 168 214 265 329 387
#     4  10  20  36  70  90 120 174 224 248 324 398
#     4  10  20  42  60  93 127 171 207 273 322 378
#     4  11  23  40  64  93 133 163 214 272 320 377
#
# _framework density 19.89997
#
# number of rings (size 3 to 8) (size 9 to 14) (size 15 to 20)
#    0.000    1.600    5.000    0.600    5.600    0.000 
#    0.000    4.000    2.200    0.000    0.000    0.000 
#    0.000    0.000    0.000    0.000    0.000    0.000 
#
# Total GULP energy -223216.089960 kJ/mol
# GULP energy per Si atom -5580.402249 kJ/mol
# Density = 1.985468 g / cm^3
# Si number density = 19.899970 Si / 1000 Ang^3
#
#
#
# Elastic Constant Matrix: (Units=GPa)
#
#
# Indices 1 2 3 4 5 6 
#
# 1 59.5770 12.6216 22.9137 0.0000 0.0000 0.0000
# 2 12.6216 73.4873 63.0321 0.0000 0.0000 0.0000
# 3 22.9137 63.0321 132.7519 0.0000 0.0000 0.0000
# 4 0.0000 0.0000 0.0000 21.1905 0.0000 0.0000
# 5 0.0000 0.0000 0.0000 0.0000 26.6303 0.0000
# 6 0.0000 0.0000 0.0000 0.0000 0.0000 17.4433
#
#
#
# Elastic Compliance Matrix: (Units=1/GPa)
#
#
# Indices 1 2 3 4 5 6 
#
# 1 0.018001 -0.000720 -0.002765 0.000000 0.000000 0.000000
# 2 -0.000720 0.022986 -0.010790 0.000000 0.000000 0.000000
# 3 -0.002765 -0.010790 0.013133 0.000000 0.000000 0.000000
# 4 0.000000 0.000000 0.000000 0.047191 0.000000 0.000000
# 5 0.000000 0.000000 0.000000 0.000000 0.037551 0.000000
# 6 0.000000 0.000000 0.000000 0.000000 0.000000 0.057329
#
#
# Mechanical properties :
#
#
# Convention : Reuss Voigt Hill
#
# Bulk Modulus (GPa) = 39.10750 51.43899 45.27325
# Shear Modulus (GPa) = 21.43487 24.20275 22.81881
#
# Velocity S-wave (km/s) = 3.28553 3.49122 3.38993
# Velocity P-wave (km/s) = 5.83846 6.49279 6.17430
#
# Compressibility (1/GPa) = 0.02557054
#
# Stress axis : x y z
#
# Youngs Moduli (GPa) = 55.55237 43.50434 76.14233
#
# Poissons Ratio (x) = 0.03132 0.21055
# Poissons Ratio (y) = 0.03999 0.82157
# Poissons Ratio (z) = 0.15362 0.46941
#
# Static dielectric constant tensor:
#      x y z
#    x 1.747870 0.000000 0.000000 
#    y 0.000000 1.676940 0.000000 
#    z 0.000000 0.000000 1.747390 
# 
# From -- ./inp_files/30924.got.cif
#   From: 2010.05.17/outbox.cif.g08.bks.cpg/sg52_16_cif.got.tgz:30924.got - 2010.06.03 12:15:38.
