data_PCOD9409418
_publ_section_title
;
Structure prediction by ZEFSAII (Michael W. Deem and Ramdas Pophale) SiO2 
 PCOD9409418
Probable space group: P N N A
;
_chemical_formula_sum "Si O2"
_cell_formula_units_Z 64
_cell_length_a 16.451520
_cell_length_b 10.768961
_cell_length_c 16.872675
_cell_angle_alpha 90.000000
_cell_angle_beta 90.000000
_cell_angle_gamma 90.000000
_cell_volume 2989.260581
_symmetry_space_group_name_H-M "P N N A"
_symmetry_group_IT_number 52
_symmetry_cell_setting 'orthorhombic'
loop_
_space_group_symop_operation_xyz
x,y,z
1/2-x,-y,z
x,1/2-y,1/2-z
1/2-x,1/2+y,1/2-z
-x,-y,-z
1/2+x,y,-z
-x,1/2+y,1/2+z
1/2+x,1/2-y,1/2+z
loop_
_atom_site_type_symbol
_atom_site_label
_atom_site_fract_x
_atom_site_fract_y
_atom_site_fract_z
Si Si1 0.039962 0.864599 0.592311
Si Si2 0.783568 0.231922 0.655383
Si Si3 0.846047 0.490082 0.198706
Si Si4 0.429863 0.389035 0.091403
Si Si5 0.109360 0.277947 0.422607
Si Si6 0.911175 0.771449 0.394976
Si Si7 0.658538 0.949978 0.957374
Si Si8 0.347781 0.494236 0.626891
O O1 0.118645 0.881831 0.644814
O O2 0.072551 0.869021 0.502715
O O3 0.977649 0.756518 0.612790
O O4 0.980881 0.985171 0.604215
O O5 0.783047 0.250000 0.750000
O O6 0.842019 0.116963 0.631737
O O7 0.691010 0.233187 0.622383
O O8 0.829791 0.342432 0.606697
O O9 0.750000 0.500000 0.198917
O O10 0.873747 0.621586 0.160146
O O11 0.877188 0.458321 0.286467
O O12 0.492466 0.282225 0.119874
O O13 0.106930 0.212667 0.510405
O O14 0.112036 0.426959 0.429962
O O15 0.877859 0.635451 0.380655
O O16 0.750000 0.000000 0.968773
O O17 0.629187 0.919394 0.046880
O O18 0.250000 0.500000 0.631038
#
# Coordination Sequence:
#
# PCOD9409418 Si02
#       8
#     8   8   8   8   8   8   8   8
#     4   9  19  39  57  85 130 164 198 254 321 373
#     4  11  23  39  65  94 113 162 227 265 310 386
#     4  10  20  31  58  94 124 155 205 252 301 384
#     4   9  20  37  59  87 119 158 212 256 305 381
#     4   9  19  39  63  84 121 166 197 256 327 373
#     4   9  18  36  62  82 116 165 202 253 315 366
#     4   8  17  38  63  81 118 155 200 259 308 367
#     4   9  17  33  58  87 115 158 202 248 312 369
#
# _framework density 21.409977000000001
#
# number of rings (size 3 to 8) (size 9 to 14) (size 15 to 20)
#    0.000    2.750    0.000    1.875    1.750    2.500 
#    6.750    5.625    5.500    0.000    0.000    0.000 
#    0.000    0.000    0.000    0.000    0.000    0.000 
#
# Total GULP energy -356659.412303 kJ/mol
# GULP energy per Si atom -5572.803317 kJ/mol
# Density = 2.136125 g / cm^3
# Si number density = 21.409977 Si / 1000 Ang^3
#
#
#
# Elastic Constant Matrix: (Units=GPa)
#
#
# Indices 1 2 3 4 5 6 
#
# 1 95.2523 12.3932 41.4218 0.0000 0.0000 0.0000
# 2 12.3932 27.8773 14.4811 0.0000 0.0000 0.0000
# 3 41.4218 14.4811 115.2717 0.0000 0.0000 0.0000
# 4 0.0000 0.0000 0.0000 18.3809 0.0000 0.0000
# 5 0.0000 0.0000 0.0000 0.0000 39.0804 0.0000
# 6 0.0000 0.0000 0.0000 0.0000 0.0000 36.3569
#
#
#
# Elastic Compliance Matrix: (Units=1/GPa)
#
#
# Indices 1 2 3 4 5 6 
#
# 1 0.012758 -0.003520 -0.004142 0.000000 0.000000 0.000000
# 2 -0.003520 0.039347 -0.003678 0.000000 0.000000 0.000000
# 3 -0.004142 -0.003678 0.010626 0.000000 0.000000 0.000000
# 4 0.000000 0.000000 0.000000 0.054404 0.000000 0.000000
# 5 0.000000 0.000000 0.000000 0.000000 0.025588 0.000000
# 6 0.000000 0.000000 0.000000 0.000000 0.000000 0.027505
#
#
# Mechanical properties :
#
#
# Convention : Reuss Voigt Hill
#
# Bulk Modulus (GPa) = 24.96889 41.66594 33.31742
# Shear Modulus (GPa) = 24.24143 30.10396 27.17270
#
# Velocity S-wave (km/s) = 3.36854 3.75383 3.56639
# Velocity P-wave (km/s) = 5.17852 6.18802 5.70564
#
# Compressibility (1/GPa) = 0.04004984
#
# Stress axis : x y z
#
# Youngs Moduli (GPa) = 78.38410 25.41497 94.11167
#
# Poissons Ratio (x) = 0.08946 0.38983
# Poissons Ratio (y) = 0.27591 0.34615
# Poissons Ratio (z) = 0.32468 0.09348
#
# Static dielectric constant tensor:
#      x y z
#    x 1.793280 0.000000 0.000000 
#    y 0.000000 1.824310 0.000000 
#    z 0.000000 0.000000 1.816280 
# 
# From -- ./inp_files/33288.got.cif
#   From: 2010.05.17/outbox.cif.g08.bks.cpg/sg52_17_cif.got.tgz:33288.got - 2010.06.03 12:15:38.
