data_PCOD9409397
_publ_section_title
;
Structure prediction by ZEFSAII (Michael W. Deem and Ramdas Pophale) SiO2 
 PCOD9409397
Probable space group: P N N A
;
_chemical_formula_sum "Si O2"
_cell_formula_units_Z 52
_cell_length_a 5.405701
_cell_length_b 20.074420
_cell_length_c 29.517382
_cell_angle_alpha 90.000000
_cell_angle_beta 90.000000
_cell_angle_gamma 90.000000
_cell_volume 3203.117442
_symmetry_space_group_name_H-M "P N N A"
_symmetry_group_IT_number 52
_symmetry_cell_setting 'orthorhombic'
loop_
_space_group_symop_operation_xyz
x,y,z
1/2-x,-y,z
x,1/2-y,1/2-z
1/2-x,1/2+y,1/2-z
-x,-y,-z
1/2+x,y,-z
-x,1/2+y,1/2+z
1/2+x,1/2-y,1/2+z
loop_
_atom_site_type_symbol
_atom_site_label
_atom_site_fract_x
_atom_site_fract_y
_atom_site_fract_z
Si Si1 0.490298 0.380726 0.611547
Si Si2 0.872389 0.589230 0.314320
Si Si3 0.679777 0.151112 0.713499
Si Si4 0.186316 0.425894 0.791106
Si Si5 0.760392 0.197970 0.815111
Si Si6 0.258206 0.578905 0.527795
Si Si7 0.250000 0.500000 0.369790
O O1 0.358158 0.417385 0.653363
O O2 0.625567 0.321299 0.637795
O O3 0.293670 0.374548 0.571672
O O4 0.671015 0.440094 0.596560
O O5 0.816290 0.571243 0.263457
O O6 0.966316 0.665869 0.317719
O O7 0.080629 0.543000 0.335770
O O8 0.416527 0.122470 0.697313
O O9 0.664576 0.161216 0.768669
O O10 0.739558 0.224287 0.694425
O O11 0.911611 0.103691 0.699983
O O12 0.250000 0.500000 0.808431
O O13 0.250000 0.500000 0.540686
O O14 0.522517 0.591534 0.504818
#
# Coordination Sequence:
#
# PCOD9409397 Si02
#       7
#     8   8   8   8   8   8   4
#     4  11  20  33  50  67  92 124 168 206 253 299
#     4  10  20  30  47  67  91 119 164 206 247 286
#     4  10  21  35  48  69  99 122 160 203 249 290
#     4  11  21  32  49  68  93 126 160 199 243 284
#     4   9  21  32  49  68  92 126 158 205 251 292
#     4  10  23  36  50  68  95 128 163 209 260 297
#     4  10  20  28  44  72  90 118 156 216 252 278
#
# _framework density 16.234185
#
# number of rings (size 3 to 8) (size 9 to 14) (size 15 to 20)
#    0.000    1.846    1.538    2.769   14.000    1.231 
#    0.000    0.000    0.000    0.000    0.000    0.000 
#    0.000    0.000    0.000    0.000    0.000   15.385 
#
# Total GULP energy -289493.809694 kJ/mol
# GULP energy per Si atom -5567.188648 kJ/mol
# Density = 1.619723 g / cm^3
# Si number density = 16.234185 Si / 1000 Ang^3
#
#
#
# Elastic Constant Matrix: (Units=GPa)
#
#
# Indices 1 2 3 4 5 6 
#
# 1 65.5528 27.8742 11.2940 0.0000 0.0000 0.0000
# 2 27.8742 74.8193 12.4478 0.0000 0.0000 0.0000
# 3 11.2940 12.4478 42.7148 0.0000 0.0000 0.0000
# 4 0.0000 0.0000 0.0000 7.1497 0.0000 0.0000
# 5 0.0000 0.0000 0.0000 0.0000 11.4800 0.0000
# 6 0.0000 0.0000 0.0000 0.0000 0.0000 20.6631
#
#
#
# Elastic Compliance Matrix: (Units=1/GPa)
#
#
# Indices 1 2 3 4 5 6 
#
# 1 0.018492 -0.006385 -0.003029 0.000000 0.000000 0.000000
# 2 -0.006385 0.016251 -0.003048 0.000000 0.000000 0.000000
# 3 -0.003029 -0.003048 0.025100 0.000000 0.000000 0.000000
# 4 0.000000 0.000000 0.000000 0.139866 0.000000 0.000000
# 5 0.000000 0.000000 0.000000 0.000000 0.087108 0.000000
# 6 0.000000 0.000000 0.000000 0.000000 0.000000 0.048395
#
#
# Mechanical properties :
#
#
# Convention : Reuss Voigt Hill
#
# Bulk Modulus (GPa) = 28.63667 31.81322 30.22495
# Shear Modulus (GPa) = 13.44898 16.62329 15.03613
#
# Velocity S-wave (km/s) = 2.88138 3.20342 3.04666
# Velocity P-wave (km/s) = 5.36170 5.77248 5.57088
#
# Compressibility (1/GPa) = 0.03492026
#
# Stress axis : x y z
#
# Youngs Moduli (GPa) = 54.07798 61.53302 39.84063
#
# Poissons Ratio (x) = 0.39291 0.12066
# Poissons Ratio (y) = 0.34531 0.12142
# Poissons Ratio (z) = 0.16378 0.18753
#
# Static dielectric constant tensor:
#      x y z
#    x 1.707060 0.000000 0.000000 
#    y 0.000000 1.592630 0.000000 
#    z 0.000000 0.000000 1.553880 
# 
# From -- ./inp_files/41786.got.cif
#   From: 2010.05.17/outbox.cif.g08.bks.cpg/sg52_21_cif.got.tgz:41786.got - 2010.06.03 12:15:38.
