data_PCOD9409193
_publ_section_title
;
Structure prediction by ZEFSAII (Michael W. Deem and Ramdas Pophale) SiO2 
 PCOD9409193
Probable space group: P N N A
;
_chemical_formula_sum "Si O2"
_cell_formula_units_Z 36
_cell_length_a 14.714346
_cell_length_b 7.562281
_cell_length_c 15.497557
_cell_angle_alpha 90.000000
_cell_angle_beta 90.000000
_cell_angle_gamma 90.000000
_cell_volume 1724.475455
_symmetry_space_group_name_H-M "P N N A"
_symmetry_group_IT_number 52
_symmetry_cell_setting 'orthorhombic'
loop_
_space_group_symop_operation_xyz
x,y,z
1/2-x,-y,z
x,1/2-y,1/2-z
1/2-x,1/2+y,1/2-z
-x,-y,-z
1/2+x,y,-z
-x,1/2+y,1/2+z
1/2+x,1/2-y,1/2+z
loop_
_atom_site_type_symbol
_atom_site_label
_atom_site_fract_x
_atom_site_fract_y
_atom_site_fract_z
Si Si1 0.250000 0.000000 0.837476
Si Si2 0.607348 0.750000 0.250000
Si Si3 0.149659 0.438442 0.294407
Si Si4 0.591599 0.333041 0.418068
Si Si5 0.973126 0.250000 0.750000
Si Si6 0.997125 0.694421 0.583248
O O1 0.172870 0.909840 0.778141
O O2 0.301832 0.849107 0.893977
O O3 0.544605 0.790502 0.334370
O O4 0.250000 0.500000 0.314583
O O5 0.156145 0.250000 0.250000
O O6 0.093919 0.582814 0.239860
O O7 0.089242 0.406963 0.377685
O O8 0.536912 0.279429 0.332385
O O9 0.546508 0.223283 0.496916
O O10 0.568426 0.539411 0.439320
#
# Coordination Sequence:
#
# PCOD9409193 Si02
#       6
#     4   4   8   8   4   8
#     4  10  20  34  62  90 118 158 210 250 300 374
#     4  10  19  37  60  86 124 160 202 251 315 362
#     4  11  21  37  61  90 121 161 207 255 311 375
#     4   9  19  36  60  89 118 161 207 251 307 379
#     4  10  21  39  64  86 126 164 206 251 319 376
#     4   9  19  36  60  85 121 162 200 252 316 369
#
# _framework density 20.875914000000002
#
# number of rings (size 3 to 8) (size 9 to 14) (size 15 to 20)
#    0.000    2.222    2.222    0.667    1.556    0.000 
#    0.000    1.111    2.444    0.000    0.000    0.000 
#    0.000    0.000    0.000    0.000    0.000    0.000 
#
# Total GULP energy -200428.840699 kJ/mol
# GULP energy per Si atom -5567.467797 kJ/mol
# Density = 2.082840 g / cm^3
# Si number density = 20.875914 Si / 1000 Ang^3
#
#
#
# Elastic Constant Matrix: (Units=GPa)
#
#
# Indices 1 2 3 4 5 6 
#
# 1 149.3866 29.7086 60.4348 0.0000 0.0000 0.0000
# 2 29.7086 50.9187 17.3800 0.0000 0.0000 0.0000
# 3 60.4348 17.3800 134.7005 0.0000 0.0000 0.0000
# 4 0.0000 0.0000 0.0000 20.5156 0.0000 0.0000
# 5 0.0000 0.0000 0.0000 0.0000 42.1681 0.0000
# 6 0.0000 0.0000 0.0000 0.0000 0.0000 40.1231
#
#
#
# Elastic Compliance Matrix: (Units=1/GPa)
#
#
# Indices 1 2 3 4 5 6 
#
# 1 0.008896 -0.004004 -0.003475 0.000000 0.000000 0.000000
# 2 -0.004004 0.022346 -0.001087 0.000000 0.000000 0.000000
# 3 -0.003475 -0.001087 0.009123 0.000000 0.000000 0.000000
# 4 0.000000 0.000000 0.000000 0.048743 0.000000 0.000000
# 5 0.000000 0.000000 0.000000 0.000000 0.023715 0.000000
# 6 0.000000 0.000000 0.000000 0.000000 0.000000 0.024923
#
#
# Mechanical properties :
#
#
# Convention : Reuss Voigt Hill
#
# Bulk Modulus (GPa) = 43.04022 61.11695 52.07859
# Shear Modulus (GPa) = 30.74594 35.72685 33.23640
#
# Velocity S-wave (km/s) = 3.84186 4.14138 3.99443
# Velocity P-wave (km/s) = 6.35152 7.22551 6.80256
#
# Compressibility (1/GPa) = 0.02323408
#
# Stress axis : x y z
#
# Youngs Moduli (GPa) = 112.40905 44.74983 109.61276
#
# Poissons Ratio (x) = 0.17920 0.38087
# Poissons Ratio (y) = 0.45013 0.11911
# Poissons Ratio (z) = 0.39058 0.04863
#
# Static dielectric constant tensor:
#      x y z
#    x 1.776040 0.000000 0.000000 
#    y 0.000000 1.837180 0.000000 
#    z 0.000000 0.000000 2.240600 
# 
# From -- ./inp_files/26828.got.cif
#   From: 2010.05.17/outbox.cif.g08.bks.cpg/sg52_14_cif.got.tgz:26828.got - 2010.06.03 12:15:38.
