data_PCOD9409469
_publ_section_title
;
Structure prediction by ZEFSAII (Michael W. Deem and Ramdas Pophale) SiO2 
 PCOD9409469
Probable space group: P N N A
;
_chemical_formula_sum "Si O2"
_cell_formula_units_Z 40
_cell_length_a 5.252332
_cell_length_b 13.616521
_cell_length_c 24.118213
_cell_angle_alpha 90.000000
_cell_angle_beta 90.000000
_cell_angle_gamma 90.000000
_cell_volume 1724.898151
_symmetry_space_group_name_H-M "P N N A"
_symmetry_group_IT_number 52
_symmetry_cell_setting 'orthorhombic'
loop_
_space_group_symop_operation_xyz
x,y,z
1/2-x,-y,z
x,1/2-y,1/2-z
1/2-x,1/2+y,1/2-z
-x,-y,-z
1/2+x,y,-z
-x,1/2+y,1/2+z
1/2+x,1/2-y,1/2+z
loop_
_atom_site_type_symbol
_atom_site_label
_atom_site_fract_x
_atom_site_fract_y
_atom_site_fract_z
Si Si1 0.938802 0.890211 0.148874
Si Si2 0.750000 0.500000 0.794197
Si Si3 0.250000 0.500000 0.865647
Si Si4 0.560132 0.388496 0.693076
Si Si5 0.193024 0.867647 0.970425
Si Si6 0.648864 0.867319 0.467624
O O1 0.717739 0.841979 0.186587
O O2 0.824912 0.893664 0.087617
O O3 0.216091 0.841376 0.156211
O O4 0.999101 0.000980 0.169869
O O5 0.499236 0.522399 0.829448
O O6 0.667802 0.409358 0.754071
O O7 0.187443 0.589595 0.906854
O O8 0.166897 0.750173 0.968139
O O9 0.904596 0.899712 0.984049
O O10 0.881586 0.898871 0.506734
#
# Coordination Sequence:
#
# PCOD9409469 Si02
#       6
#     8   4   4   8   8   8
#     4   9  16  31  51  70  96 140 168 195 250 299
#     4  10  20  33  54  80  98 125 166 214 254 286
#     4  12  20  33  58  78  98 125 170 212 246 304
#     4   9  18  33  51  71 101 133 169 205 249 297
#     4  10  20  33  50  73 103 135 169 205 246 299
#     4  10  21  36  52  75 105 134 161 200 255 306
#
# _framework density 23.189772999999999
#
# number of rings (size 3 to 8) (size 9 to 14) (size 15 to 20)
#    0.000    2.400    0.000    5.400    0.000    0.000 
#    0.000   12.000    0.000   15.600    0.000    0.000 
#    0.000    0.000    0.000    0.000    0.000    0.000 
#
# Total GULP energy -223270.408424 kJ/mol
# GULP energy per Si atom -5581.760211 kJ/mol
# Density = 2.313699 g / cm^3
# Si number density = 23.189773 Si / 1000 Ang^3
#
#
#
# Elastic Constant Matrix: (Units=GPa)
#
#
# Indices 1 2 3 4 5 6 
#
# 1 231.1903 11.8830 67.9550 0.0000 0.0000 0.0000
# 2 11.8830 49.5517 -5.7441 0.0000 0.0000 0.0000
# 3 67.9550 -5.7441 118.1774 0.0000 0.0000 0.0000
# 4 0.0000 0.0000 0.0000 19.3661 0.0000 0.0000
# 5 0.0000 0.0000 0.0000 0.0000 46.7028 0.0000
# 6 0.0000 0.0000 0.0000 0.0000 0.0000 17.4373
#
#
#
# Elastic Compliance Matrix: (Units=1/GPa)
#
#
# Indices 1 2 3 4 5 6 
#
# 1 0.005335 -0.001644 -0.003148 0.000000 0.000000 0.000000
# 2 -0.001644 0.020802 0.001957 0.000000 0.000000 0.000000
# 3 -0.003148 0.001957 0.010367 0.000000 0.000000 0.000000
# 4 0.000000 0.000000 0.000000 0.051637 0.000000 0.000000
# 5 0.000000 0.000000 0.000000 0.000000 0.021412 0.000000
# 6 0.000000 0.000000 0.000000 0.000000 0.000000 0.057348
#
#
# Mechanical properties :
#
#
# Convention : Reuss Voigt Hill
#
# Bulk Modulus (GPa) = 32.43242 60.78966 46.61104
# Shear Modulus (GPa) = 27.34481 38.35628 32.85055
#
# Velocity S-wave (km/s) = 3.43764 4.07137 3.76785
# Velocity P-wave (km/s) = 5.45642 6.95502 6.25079
#
# Compressibility (1/GPa) = 0.03083334
#
# Stress axis : x y z
#
# Youngs Moduli (GPa) = 187.43413 48.07206 96.45965
#
# Poissons Ratio (x) = 0.07905 0.30364
# Poissons Ratio (y) = 0.30820 -0.18874
# Poissons Ratio (z) = 0.59001 -0.09406
#
# Static dielectric constant tensor:
#      x y z
#    x 2.020120 0.000000 0.000000 
#    y 0.000000 1.866920 0.000000 
#    z 0.000000 0.000000 1.894120 
# 
# From -- ./inp_files/30159.got.cif
#   From: 2010.05.17/outbox.cif.g08.bks.cpg/sg52_16_cif.got.tgz:30159.got - 2010.06.03 12:15:38.
