data_PCOD9409652
_publ_section_title
;
Structure prediction by ZEFSAII (Michael W. Deem and Ramdas Pophale) SiO2 
 PCOD9409652
Probable space group: P N N A
;
_chemical_formula_sum "Si O2"
_cell_formula_units_Z 48
_cell_length_a 9.181657
_cell_length_b 15.985881
_cell_length_c 18.319056
_cell_angle_alpha 90.000000
_cell_angle_beta 90.000000
_cell_angle_gamma 90.000000
_cell_volume 2688.813814
_symmetry_space_group_name_H-M "P N N A"
_symmetry_group_IT_number 52
_symmetry_cell_setting 'orthorhombic'
loop_
_space_group_symop_operation_xyz
x,y,z
1/2-x,-y,z
x,1/2-y,1/2-z
1/2-x,1/2+y,1/2-z
-x,-y,-z
1/2+x,y,-z
-x,1/2+y,1/2+z
1/2+x,1/2-y,1/2+z
loop_
_atom_site_type_symbol
_atom_site_label
_atom_site_fract_x
_atom_site_fract_y
_atom_site_fract_z
Si Si1 0.705573 0.593512 0.312708
Si Si2 0.537616 0.275340 0.666976
Si Si3 0.886849 0.718742 0.407784
Si Si4 0.797247 0.251036 0.946608
Si Si5 0.214705 0.860555 0.644883
Si Si6 0.638110 0.560591 0.993779
O O1 0.750000 0.500000 0.334272
O O2 0.548554 0.635372 0.334031
O O3 0.824174 0.652674 0.350950
O O4 0.714095 0.600862 0.224951
O O5 0.574085 0.250000 0.750000
O O6 0.677894 0.264340 0.616225
O O7 0.415177 0.208085 0.642868
O O8 0.784543 0.723037 0.479488
O O9 0.862392 0.809163 0.369967
O O10 0.052443 0.703715 0.430542
O O11 0.850142 0.347730 0.957588
O O12 0.185982 0.919989 0.576937
O O13 0.750000 0.500000 0.953405
O O14 0.500000 0.500000 0.000000
#
# Coordination Sequence:
#
# PCOD9409652 Si02
#       6
#     8   8   8   8   8   8
#     4  10  20  36  57  81 108 141 187 235 276 317
#     4   9  19  36  56  76 107 148 183 219 273 335
#     4  10  20  35  57  78 104 145 184 221 272 338
#     4  11  21  37  56  78 110 146 186 224 271 339
#     4   9  18  35  55  79 113 148 176 214 273 342
#     4  11  20  31  52  84 113 140 173 217 271 327
#
# _framework density 17.851738999999998
#
# number of rings (size 3 to 8) (size 9 to 14) (size 15 to 20)
#    0.000    2.000    0.000    8.000    0.000    1.333 
#    0.000    4.167    0.000    4.000    0.000    0.000 
#    0.000    0.000    0.000    0.000    0.000    0.000 
#
# Total GULP energy -267290.043097 kJ/mol
# GULP energy per Si atom -5568.542565 kJ/mol
# Density = 1.781111 g / cm^3
# Si number density = 17.851739 Si / 1000 Ang^3
#
#
#
# Elastic Constant Matrix: (Units=GPa)
#
#
# Indices 1 2 3 4 5 6 
#
# 1 110.0215 36.2240 33.0676 0.0000 0.0000 0.0000
# 2 36.2240 104.7152 37.2711 0.0000 0.0000 0.0000
# 3 33.0676 37.2711 78.1642 0.0000 0.0000 0.0000
# 4 0.0000 0.0000 0.0000 13.5327 0.0000 0.0000
# 5 0.0000 0.0000 0.0000 0.0000 26.2021 0.0000
# 6 0.0000 0.0000 0.0000 0.0000 0.0000 19.0171
#
#
#
# Elastic Compliance Matrix: (Units=1/GPa)
#
#
# Indices 1 2 3 4 5 6 
#
# 1 0.010963 -0.002579 -0.003408 0.000000 0.000000 0.000000
# 2 -0.002579 0.012109 -0.004683 0.000000 0.000000 0.000000
# 3 -0.003408 -0.004683 0.016468 0.000000 0.000000 0.000000
# 4 0.000000 0.000000 0.000000 0.073895 0.000000 0.000000
# 5 0.000000 0.000000 0.000000 0.000000 0.038165 0.000000
# 6 0.000000 0.000000 0.000000 0.000000 0.000000 0.052584
#
#
# Mechanical properties :
#
#
# Convention : Reuss Voigt Hill
#
# Bulk Modulus (GPa) = 54.94567 56.22515 55.58541
# Shear Modulus (GPa) = 21.58994 24.17295 22.88144
#
# Velocity S-wave (km/s) = 3.48142 3.68379 3.58404
# Velocity P-wave (km/s) = 6.85610 7.04683 6.95212
#
# Compressibility (1/GPa) = 0.01819980
#
# Stress axis : x y z
#
# Youngs Moduli (GPa) = 91.21916 82.58569 60.72351
#
# Poissons Ratio (x) = 0.21302 0.20694
# Poissons Ratio (y) = 0.23528 0.28434
# Poissons Ratio (z) = 0.31086 0.38671
#
# Static dielectric constant tensor:
#      x y z
#    x 1.605220 0.000000 0.000000 
#    y 0.000000 1.633920 0.000000 
#    z 0.000000 0.000000 1.618200 
# 
# From -- ./inp_files/31225.got.cif
#   From: 2010.05.17/outbox.cif.g08.bks.cpg/sg52_16_cif.got.tgz:31225.got - 2010.06.03 12:15:38.
