data_PCOD9409536
_publ_section_title
;
Structure prediction by ZEFSAII (Michael W. Deem and Ramdas Pophale) SiO2 
 PCOD9409536
Probable space group: P N N A
;
_chemical_formula_sum "Si O2"
_cell_formula_units_Z 28
_cell_length_a 5.255121
_cell_length_b 10.972353
_cell_length_c 22.977715
_cell_angle_alpha 90.000000
_cell_angle_beta 90.000000
_cell_angle_gamma 90.000000
_cell_volume 1324.919005
_symmetry_space_group_name_H-M "P N N A"
_symmetry_group_IT_number 52
_symmetry_cell_setting 'orthorhombic'
loop_
_space_group_symop_operation_xyz
x,y,z
1/2-x,-y,z
x,1/2-y,1/2-z
1/2-x,1/2+y,1/2-z
-x,-y,-z
1/2+x,y,-z
-x,1/2+y,1/2+z
1/2+x,1/2-y,1/2+z
loop_
_atom_site_type_symbol
_atom_site_label
_atom_site_fract_x
_atom_site_fract_y
_atom_site_fract_z
Si Si1 0.486667 0.137165 0.525196
Si Si2 0.380920 0.298701 0.846297
Si Si3 0.250000 0.500000 0.750200
Si Si4 0.384235 0.324736 0.310085
O O1 0.248358 0.198255 0.493660
O O2 0.446064 0.133776 0.593925
O O3 0.500000 0.000000 0.500000
O O4 0.359215 0.393869 0.792544
O O5 0.103167 0.237774 0.849558
O O6 0.605795 0.200326 0.836225
O O7 0.480355 0.550822 0.710857
O O8 0.376469 0.250000 0.250000
#
# Coordination Sequence:
#
# PCOD9409536 Si02
#       4
#     8   8   4   8
#     4  10  20  34  53  81 110 145 184 230 300 356
#     4  11  22  37  57  87 121 153 193 243 292 357
#     4  10  22  40  60  84 128 166 194 242 296 358
#     4  10  22  36  55  85 117 159 200 231 285 356
#
# _framework density 21.133365000000001
#
# number of rings (size 3 to 8) (size 9 to 14) (size 15 to 20)
#    0.000    1.714    0.000    6.000    0.000   17.143 
#    0.000    0.000    0.000    0.000    0.000   20.000 
#    0.000    0.000    0.000    0.000    0.000    0.000 
#
# Total GULP energy -156213.102432 kJ/mol
# GULP energy per Si atom -5579.039373 kJ/mol
# Density = 2.108526 g / cm^3
# Si number density = 21.133365 Si / 1000 Ang^3
#
#
#
# Elastic Constant Matrix: (Units=GPa)
#
#
# Indices 1 2 3 4 5 6 
#
# 1 170.9050 21.1727 22.9890 0.0000 0.0000 0.0000
# 2 21.1727 71.9203 31.0388 0.0000 0.0000 0.0000
# 3 22.9890 31.0388 95.5372 0.0000 0.0000 0.0000
# 4 0.0000 0.0000 0.0000 25.6734 0.0000 0.0000
# 5 0.0000 0.0000 0.0000 0.0000 24.6272 0.0000
# 6 0.0000 0.0000 0.0000 0.0000 0.0000 23.2572
#
#
#
# Elastic Compliance Matrix: (Units=1/GPa)
#
#
# Indices 1 2 3 4 5 6 
#
# 1 0.006160 -0.001365 -0.001039 0.000000 0.000000 0.000000
# 2 -0.001365 0.016474 -0.005024 0.000000 0.000000 0.000000
# 3 -0.001039 -0.005024 0.012349 0.000000 0.000000 0.000000
# 4 0.000000 0.000000 0.000000 0.038951 0.000000 0.000000
# 5 0.000000 0.000000 0.000000 0.000000 0.040605 0.000000
# 6 0.000000 0.000000 0.000000 0.000000 0.000000 0.042997
#
#
# Mechanical properties :
#
#
# Convention : Reuss Voigt Hill
#
# Bulk Modulus (GPa) = 49.68162 54.30707 51.99435
# Shear Modulus (GPa) = 27.91701 32.25568 30.08635
#
# Velocity S-wave (km/s) = 3.63849 3.91102 3.77721
# Velocity P-wave (km/s) = 6.41959 6.79322 6.60905
#
# Compressibility (1/GPa) = 0.02012817
#
# Stress axis : x y z
#
# Youngs Moduli (GPa) = 162.33620 60.70059 80.97655
#
# Poissons Ratio (x) = 0.08287 0.08412
# Poissons Ratio (y) = 0.22162 0.40681
# Poissons Ratio (z) = 0.16863 0.30495
#
# Static dielectric constant tensor:
#      x y z
#    x 1.939390 0.000000 0.000000 
#    y 0.000000 1.822530 0.000000 
#    z 0.000000 0.000000 1.734740 
# 
# From -- ./inp_files/34734.got.cif
#   From: 2010.05.17/outbox.cif.g08.bks.cpg/sg52_18_cif.got.tgz:34734.got - 2010.06.03 12:15:38.
