data_PCOD9409472
_publ_section_title
;
Structure prediction by ZEFSAII (Michael W. Deem and Ramdas Pophale) SiO2 
 PCOD9409472
Probable space group: P N N A
;
_chemical_formula_sum "Si O2"
_cell_formula_units_Z 60
_cell_length_a 19.773423
_cell_length_b 7.997417
_cell_length_c 17.611214
_cell_angle_alpha 90.000000
_cell_angle_beta 90.000000
_cell_angle_gamma 90.000000
_cell_volume 2784.972383
_symmetry_space_group_name_H-M "P N N A"
_symmetry_group_IT_number 52
_symmetry_cell_setting 'orthorhombic'
loop_
_space_group_symop_operation_xyz
x,y,z
1/2-x,-y,z
x,1/2-y,1/2-z
1/2-x,1/2+y,1/2-z
-x,-y,-z
1/2+x,y,-z
-x,1/2+y,1/2+z
1/2+x,1/2-y,1/2+z
loop_
_atom_site_type_symbol
_atom_site_label
_atom_site_fract_x
_atom_site_fract_y
_atom_site_fract_z
Si Si1 0.083919 0.728236 0.656956
Si Si2 0.689105 0.116758 0.314936
Si Si3 0.243344 0.202798 0.100542
Si Si4 0.125208 0.369555 0.312980
Si Si5 0.250000 0.500000 0.210304
Si Si6 0.533535 0.444596 0.163283
Si Si7 0.725675 0.691925 0.430741
Si Si8 0.003983 0.914533 0.160564
O O1 0.091936 0.750000 0.750000
O O2 0.156053 0.727309 0.614153
O O3 0.052270 0.548214 0.636619
O O4 0.027195 0.867136 0.632623
O O5 0.678357 0.250000 0.250000
O O6 0.615028 0.050388 0.330687
O O7 0.717652 0.198378 0.390306
O O8 0.750000 0.000000 0.286637
O O9 0.163255 0.226340 0.118695
O O10 0.271938 0.337891 0.160698
O O11 0.250000 0.000000 0.106507
O O12 0.273981 0.240957 0.018798
O O13 0.089607 0.250000 0.250000
O O14 0.185850 0.446239 0.261156
O O15 0.077995 0.508883 0.349676
O O16 0.509267 0.269901 0.127382
O O17 0.504112 0.423621 0.247668
O O18 0.750000 0.500000 0.424276
#
# Coordination Sequence:
#
# PCOD9409472 Si02
#       8
#     8   8   8   8   4   8   8   8
#     4  10  20  36  54  85 128 167 210 254 295 363
#     4  12  22  33  55  87 126 167 216 262 297 353
#     4  10  23  40  59  95 124 153 206 264 329 393
#     4  10  20  40  67  97 118 157 203 271 339 390
#     4  10  22  40  72  90 124 148 204 276 342 396
#     4  10  20  33  50  89 120 158 208 251 296 371
#     4  11  23  35  57  85 127 173 208 260 321 365
#     4  10  20  35  56  86 125 154 202 257 313 368
#
# _framework density 21.544198999999999
#
# number of rings (size 3 to 8) (size 9 to 14) (size 15 to 20)
#    0.000    1.600    3.333    2.800    4.667    2.133 
#    0.000    0.000    0.000    8.800    0.000   19.600 
#    0.000    0.000    0.000    0.000    0.000    0.000 
#
# Total GULP energy -334088.960242 kJ/mol
# GULP energy per Si atom -5568.149337 kJ/mol
# Density = 2.149516 g / cm^3
# Si number density = 21.544199 Si / 1000 Ang^3
#
#
#
# Elastic Constant Matrix: (Units=GPa)
#
#
# Indices 1 2 3 4 5 6 
#
# 1 60.8459 3.6328 17.4976 0.0000 0.0000 0.0000
# 2 3.6328 85.8816 21.0223 0.0000 0.0000 0.0000
# 3 17.4976 21.0223 69.1609 0.0000 0.0000 0.0000
# 4 0.0000 0.0000 0.0000 17.3344 0.0000 0.0000
# 5 0.0000 0.0000 0.0000 0.0000 -38.0406 0.0000
# 6 0.0000 0.0000 0.0000 0.0000 0.0000 104.8675
#
#
#
# Elastic Compliance Matrix: (Units=1/GPa)
#
#
# Indices 1 2 3 4 5 6 
#
# 1 0.017736 0.000376 -0.004601 0.000000 0.000000 0.000000
# 2 0.000376 0.012588 -0.003921 0.000000 0.000000 0.000000
# 3 -0.004601 -0.003921 0.016815 0.000000 0.000000 0.000000
# 4 0.000000 0.000000 0.000000 0.057689 0.000000 0.000000
# 5 0.000000 0.000000 0.000000 0.000000 -0.026288 0.000000
# 6 0.000000 0.000000 0.000000 0.000000 0.000000 0.009536
#
#
# Mechanical properties :
#
#
# Convention : Reuss Voigt Hill
#
# Bulk Modulus (GPa) = 32.41975 33.35484 32.88729
# Shear Modulus (GPa) = 43.61059 28.41464 36.01261
#
# Velocity S-wave (km/s) = 4.50403 3.63561 4.09292
# Velocity P-wave (km/s) = 6.49069 5.75666 6.13467
#
# Compressibility (1/GPa) = 0.03084540
#
# Stress axis : x y z
#
# Youngs Moduli (GPa) = 56.38332 79.44125 59.47015
#
# Poissons Ratio (x) = -0.02988 0.27365
# Poissons Ratio (y) = -0.02121 0.23321
# Poissons Ratio (z) = 0.25944 0.31152
#
# Static dielectric constant tensor:
#      x y z
#    x 1.774110 0.000000 0.000000 
#    y 0.000000 1.996900 0.000000 
#    z 0.000000 0.000000 1.788970 
# 
# From -- ./inp_files/33755.got.cif
#   From: 2010.05.17/outbox.cif.g08.bks.cpg/sg52_17_cif.got.tgz:33755.got - 2010.06.03 12:15:38.
