data_PCOD9409057
_publ_section_title
;
Structure prediction by ZEFSAII (Michael W. Deem and Ramdas Pophale) SiO2 
 PCOD9409057
Probable space group: P N N A
;
_chemical_formula_sum "Si O2"
_cell_formula_units_Z 56
_cell_length_a 21.339181
_cell_length_b 8.179111
_cell_length_c 15.281108
_cell_angle_alpha 90.000000
_cell_angle_beta 90.000000
_cell_angle_gamma 90.000000
_cell_volume 2667.096285
_symmetry_space_group_name_H-M "P N N A"
_symmetry_group_IT_number 52
_symmetry_cell_setting 'orthorhombic'
loop_
_space_group_symop_operation_xyz
x,y,z
1/2-x,-y,z
x,1/2-y,1/2-z
1/2-x,1/2+y,1/2-z
-x,-y,-z
1/2+x,y,-z
-x,1/2+y,1/2+z
1/2+x,1/2-y,1/2+z
loop_
_atom_site_type_symbol
_atom_site_label
_atom_site_fract_x
_atom_site_fract_y
_atom_site_fract_z
Si Si1 0.003957 0.292721 0.490972
Si Si2 0.888207 0.399607 0.969675
Si Si3 0.743033 0.798484 0.551718
Si Si4 0.493938 0.987687 0.162082
Si Si5 0.916684 0.750000 0.250000
Si Si6 0.619234 0.942890 0.729190
Si Si7 0.138682 0.290622 0.937621
Si Si8 0.250000 0.500000 0.316482
O O1 0.984458 0.327859 0.390119
O O2 0.078575 0.278717 0.507389
O O3 0.959570 0.144300 0.515694
O O4 0.981898 0.411643 0.571298
O O5 0.831141 0.269476 0.967212
O O6 0.886535 0.476397 0.873028
O O7 0.867685 0.517844 0.046224
O O8 0.793529 0.749389 0.477291
O O9 0.756768 0.669221 0.628761
O O10 0.750000 0.000000 0.565307
O O11 0.538580 0.094741 0.225134
O O12 0.430787 0.959805 0.214217
O O13 0.874714 0.739715 0.163434
O O14 0.606197 0.750000 0.750000
O O15 0.688510 0.979989 0.759331
#
# Coordination Sequence:
#
# PCOD9409057 Si02
#       8
#     8   8   8   8   4   8   8   4
#     4  10  19  35  61  94 121 169 216 264 327 393
#     4  11  22  40  62  87 133 171 206 273 340 388
#     4  10  23  42  62  91 132 171 214 274 328 396
#     4  10  19  35  61  88 130 161 211 271 323 390
#     4  10  20  40  64  86 110 166 218 266 334 394
#     4  12  21  37  60  95 129 173 217 263 327 405
#     4  10  22  39  63  87 122 166 215 268 332 389
#     4  12  24  36  66  94 126 178 220 248 324 410
#
# _framework density 20.996616
#
# number of rings (size 3 to 8) (size 9 to 14) (size 15 to 20)
#    0.000    1.429    3.571    2.143    3.000    2.286 
#    0.000    5.714   14.143    0.000    0.000    0.000 
#    0.000    0.000    0.000    0.000    0.000    0.000 
#
# Total GULP energy -311820.098960 kJ/mol
# GULP energy per Si atom -5568.216053 kJ/mol
# Density = 2.094883 g / cm^3
# Si number density = 20.996616 Si / 1000 Ang^3
#
#
#
# Elastic Constant Matrix: (Units=GPa)
#
#
# Indices 1 2 3 4 5 6 
#
# 1 78.4102 7.1519 76.8568 0.0000 0.0000 0.0000
# 2 7.1519 32.8297 29.0462 0.0000 0.0000 0.0000
# 3 76.8568 29.0462 117.5220 0.0000 0.0000 0.0000
# 4 0.0000 0.0000 0.0000 22.9426 0.0000 0.0000
# 5 0.0000 0.0000 0.0000 0.0000 38.3345 0.0000
# 6 0.0000 0.0000 0.0000 0.0000 0.0000 23.0194
#
#
#
# Elastic Compliance Matrix: (Units=1/GPa)
#
#
# Indices 1 2 3 4 5 6 
#
# 1 0.044094 0.020359 -0.033868 0.000000 0.000000 0.000000
# 2 0.020359 0.048386 -0.025273 0.000000 0.000000 0.000000
# 3 -0.033868 -0.025273 0.036905 0.000000 0.000000 0.000000
# 4 0.000000 0.000000 0.000000 0.043587 0.000000 0.000000
# 5 0.000000 0.000000 0.000000 0.000000 0.026086 0.000000
# 6 0.000000 0.000000 0.000000 0.000000 0.000000 0.043442
#
#
# Mechanical properties :
#
#
# Convention : Reuss Voigt Hill
#
# Bulk Modulus (GPa) = 19.29776 50.54132 34.91954
# Shear Modulus (GPa) = 14.82198 24.57309 19.69754
#
# Velocity S-wave (km/s) = 2.65980 3.42473 3.06621
# Velocity P-wave (km/s) = 4.31782 6.30569 5.40395
#
# Compressibility (1/GPa) = 0.05181949
#
# Stress axis : x y z
#
# Youngs Moduli (GPa) = 22.67894 20.66724 27.09684
#
# Poissons Ratio (x) = -0.42077 0.91772
# Poissons Ratio (y) = -0.46173 0.68483
# Poissons Ratio (z) = 0.76810 0.52233
#
# Static dielectric constant tensor:
#      x y z
#    x 1.807260 0.000000 0.000000 
#    y 0.000000 2.172960 0.000000 
#    z 0.000000 0.000000 1.804560 
# 
# From -- ./inp_files/28817.got.cif
#   From: 2010.05.17/outbox.cif.g08.bks.cpg/sg52_15_cif.got.tgz:28817.got - 2010.06.03 12:15:38.
