data_PCOD9409616
_publ_section_title
;
Structure prediction by ZEFSAII (Michael W. Deem and Ramdas Pophale) SiO2 
 PCOD9409616
Probable space group: P N N A
;
_chemical_formula_sum "Si O2"
_cell_formula_units_Z 48
_cell_length_a 10.180073
_cell_length_b 22.798491
_cell_length_c 8.837523
_cell_angle_alpha 90.000000
_cell_angle_beta 90.000000
_cell_angle_gamma 90.000000
_cell_volume 2051.103388
_symmetry_space_group_name_H-M "P N N A"
_symmetry_group_IT_number 52
_symmetry_cell_setting 'orthorhombic'
loop_
_space_group_symop_operation_xyz
x,y,z
1/2-x,-y,z
x,1/2-y,1/2-z
1/2-x,1/2+y,1/2-z
-x,-y,-z
1/2+x,y,-z
-x,1/2+y,1/2+z
1/2+x,1/2-y,1/2+z
loop_
_atom_site_type_symbol
_atom_site_label
_atom_site_fract_x
_atom_site_fract_y
_atom_site_fract_z
Si Si1 0.675405 0.079225 0.178814
Si Si2 0.452551 0.330285 0.349259
Si Si3 0.529021 0.002598 0.819129
Si Si4 0.755761 0.916112 0.847652
Si Si5 0.538138 0.285827 0.017300
Si Si6 0.294514 0.189889 0.652155
O O1 0.547536 0.115312 0.119825
O O2 0.607047 0.021606 0.251585
O O3 0.752052 0.128131 0.274249
O O4 0.751552 0.066567 0.025132
O O5 0.301869 0.350711 0.345398
O O6 0.493694 0.309845 0.182054
O O7 0.492914 0.281633 0.470366
O O8 0.644596 0.957068 0.771885
O O9 0.600686 0.064872 0.789986
O O10 0.500000 0.000000 0.000000
O O11 0.692820 0.298283 0.013216
O O12 0.445197 0.314013 0.894052
O O13 0.274792 0.250000 0.750000
#
# Coordination Sequence:
#
# PCOD9409616 Si02
#       6
#     8   8   8   8   8   8
#     4   9  16  29  48  70 101 132 165 214 267 305
#     4   9  17  31  47  68  96 136 164 218 256 305
#     4   8  15  26  43  74 101 126 159 213 261 308
#     4   9  15  26  49  73  97 128 170 203 264 320
#     4  10  20  35  52  71 104 138 177 214 266 311
#     4  11  20  37  52  75 105 143 173 223 267 316
#
# _framework density 23.402038999999998
#
# number of rings (size 3 to 8) (size 9 to 14) (size 15 to 20)
#    0.000    2.667    3.333    1.000    0.000    0.000 
#    3.000    5.000    0.000    1.000    0.000   16.333 
#    0.000    0.000    0.000    0.000    0.000    0.000 
#
# Total GULP energy -267228.062418 kJ/mol
# GULP energy per Si atom -5567.251300 kJ/mol
# Density = 2.334877 g / cm^3
# Si number density = 23.402039 Si / 1000 Ang^3
#
#
#
# Elastic Constant Matrix: (Units=GPa)
#
#
# Indices 1 2 3 4 5 6 
#
# 1 85.0336 7.0515 11.1818 0.0000 0.0000 0.0000
# 2 7.0515 47.2888 2.8066 0.0000 0.0000 0.0000
# 3 11.1818 2.8066 7.7788 0.0000 0.0000 0.0000
# 4 0.0000 0.0000 0.0000 16.3372 0.0000 0.0000
# 5 0.0000 0.0000 0.0000 0.0000 24.4815 0.0000
# 6 0.0000 0.0000 0.0000 0.0000 0.0000 26.2154
#
#
#
# Elastic Compliance Matrix: (Units=1/GPa)
#
#
# Indices 1 2 3 4 5 6 
#
# 1 0.014543 -0.000948 -0.020563 0.000000 0.000000 0.000000
# 2 -0.000948 0.021671 -0.006456 0.000000 0.000000 0.000000
# 3 -0.020563 -0.006456 0.160442 0.000000 0.000000 0.000000
# 4 0.000000 0.000000 0.000000 0.061210 0.000000 0.000000
# 5 0.000000 0.000000 0.000000 0.000000 0.040847 0.000000
# 6 0.000000 0.000000 0.000000 0.000000 0.000000 0.038146
#
#
# Mechanical properties :
#
#
# Convention : Reuss Voigt Hill
#
# Bulk Modulus (GPa) = 7.10617 20.24233 13.67425
# Shear Modulus (GPa) = 11.37139 21.34424 16.35782
#
# Velocity S-wave (km/s) = 2.20674 3.02332 2.64671
# Velocity P-wave (km/s) = 3.08805 4.56683 3.89820
#
# Compressibility (1/GPa) = 0.14072273
#
# Stress axis : x y z
#
# Youngs Moduli (GPa) = 68.76331 46.14415 6.23277
#
# Poissons Ratio (x) = 0.04375 0.12816
# Poissons Ratio (y) = 0.06520 0.04024
# Poissons Ratio (z) = 1.41395 0.29791
#
# Static dielectric constant tensor:
#      x y z
#    x 2.004430 0.000000 0.000000 
#    y 0.000000 2.055300 0.000000 
#    z 0.000000 0.000000 1.864870 
# 
# From -- ./inp_files/8852.got.cif
#   From: 2010.05.17/outbox.cif.g08.bks.cpg/sg52_5_cif.got.tgz:8852.got - 2010.06.03 12:15:38.
