data_PCOD9409956
_publ_section_title
;
Structure prediction by ZEFSAII (Michael W. Deem and Ramdas Pophale) SiO2 
 PCOD9409956
Probable space group: P N N A
;
_chemical_formula_sum "Si O2"
_cell_formula_units_Z 56
_cell_length_a 14.950051
_cell_length_b 12.001180
_cell_length_c 16.161259
_cell_angle_alpha 90.000000
_cell_angle_beta 90.000000
_cell_angle_gamma 90.000000
_cell_volume 2899.624857
_symmetry_space_group_name_H-M "P N N A"
_symmetry_group_IT_number 52
_symmetry_cell_setting 'orthorhombic'
loop_
_space_group_symop_operation_xyz
x,y,z
1/2-x,-y,z
x,1/2-y,1/2-z
1/2-x,1/2+y,1/2-z
-x,-y,-z
1/2+x,y,-z
-x,1/2+y,1/2+z
1/2+x,1/2-y,1/2+z
loop_
_atom_site_type_symbol
_atom_site_label
_atom_site_fract_x
_atom_site_fract_y
_atom_site_fract_z
Si Si1 0.706894 0.121348 0.500031
Si Si2 0.326247 0.091656 0.872947
Si Si3 0.516505 0.668816 0.670415
Si Si4 0.490731 0.917476 0.214409
Si Si5 0.541115 0.198865 0.612164
Si Si6 0.329601 0.749860 0.652298
Si Si7 0.383153 0.268997 0.491895
O O1 0.626872 0.154665 0.562030
O O2 0.668552 0.142620 0.406697
O O3 0.789521 0.205179 0.513922
O O4 0.750000 0.000000 0.509492
O O5 0.403353 0.081234 0.806017
O O6 0.269219 0.202537 0.858989
O O7 0.369498 0.111471 0.962626
O O8 0.250000 0.000000 0.869545
O O9 0.521135 0.750000 0.750000
O O10 0.539564 0.543026 0.696194
O O11 0.415963 0.674358 0.630058
O O12 0.579407 0.713800 0.598908
O O13 0.476052 0.879546 0.308470
O O14 0.449827 0.822944 0.153101
O O15 0.455948 0.206168 0.550224
O O16 0.339043 0.750000 0.750000
#
# Coordination Sequence:
#
# PCOD9409956 Si02
#       7
#     8   8   8   8   8   8   8
#     4  11  25  43  67  96 132 179 226 278 338 409
#     4  10  20  37  64  97 126 162 222 274 337 395
#     4  11  23  41  62  97 133 175 220 278 338 399
#     4  10  23  41  68  94 135 183 215 286 340 395
#     4  10  23  46  66  98 135 174 232 271 342 414
#     4  10  22  38  59  96 135 162 218 277 336 398
#     4  10  24  41  66  93 129 173 221 273 333 408
#
# _framework density 19.312843000000001
#
# number of rings (size 3 to 8) (size 9 to 14) (size 15 to 20)
#    0.000    1.714    2.857    0.000    8.000    8.000 
#    2.571    0.000    0.000    0.000    0.000    0.000 
#    0.000    0.000    0.000    0.000    0.000    0.000 
#
# Total GULP energy -311992.015637 kJ/mol
# GULP energy per Si atom -5571.285994 kJ/mol
# Density = 1.926889 g / cm^3
# Si number density = 19.312843 Si / 1000 Ang^3
#
#
#
# Elastic Constant Matrix: (Units=GPa)
#
#
# Indices 1 2 3 4 5 6 
#
# 1 105.7255 34.0633 69.3181 0.0000 0.0000 0.0000
# 2 34.0633 74.1944 42.5243 0.0000 0.0000 0.0000
# 3 69.3181 42.5243 140.2703 0.0000 0.0000 0.0000
# 4 0.0000 0.0000 0.0000 16.5193 0.0000 0.0000
# 5 0.0000 0.0000 0.0000 0.0000 25.5609 0.0000
# 6 0.0000 0.0000 0.0000 0.0000 0.0000 35.4558
#
#
#
# Elastic Compliance Matrix: (Units=1/GPa)
#
#
# Indices 1 2 3 4 5 6 
#
# 1 0.014558 -0.003099 -0.006255 0.000000 0.000000 0.000000
# 2 -0.003099 0.016972 -0.003614 0.000000 0.000000 0.000000
# 3 -0.006255 -0.003614 0.011316 0.000000 0.000000 0.000000
# 4 0.000000 0.000000 0.000000 0.060535 0.000000 0.000000
# 5 0.000000 0.000000 0.000000 0.000000 0.039122 0.000000
# 6 0.000000 0.000000 0.000000 0.000000 0.000000 0.028204
#
#
# Mechanical properties :
#
#
# Convention : Reuss Voigt Hill
#
# Bulk Modulus (GPa) = 59.13409 68.00019 63.56714
# Shear Modulus (GPa) = 24.71841 27.12616 25.92228
#
# Velocity S-wave (km/s) = 3.58144 3.75182 3.66762
# Velocity P-wave (km/s) = 6.91287 7.35217 7.13591
#
# Compressibility (1/GPa) = 0.01691072
#
# Stress axis : x y z
#
# Youngs Moduli (GPa) = 68.69270 58.92036 88.37385
#
# Poissons Ratio (x) = 0.18258 0.55274
# Poissons Ratio (y) = 0.21286 0.31938
# Poissons Ratio (z) = 0.42965 0.21294
#
# Static dielectric constant tensor:
#      x y z
#    x 1.704710 0.000000 0.000000 
#    y 0.000000 1.750350 0.000000 
#    z 0.000000 0.000000 2.818710 
# 
# From -- ./inp_files/27305.got.cif
#   From: 2010.05.17/outbox.cif.g08.bks.cpg/sg52_14_cif.got.tgz:27305.got - 2010.06.03 12:15:38.
