data_PCOD9409986
_publ_section_title
;
Structure prediction by ZEFSAII (Michael W. Deem and Ramdas Pophale) SiO2 
 PCOD9409986
Probable space group: P N N A
;
_chemical_formula_sum "Si O2"
_cell_formula_units_Z 60
_cell_length_a 13.865473
_cell_length_b 8.626622
_cell_length_c 25.248610
_cell_angle_alpha 90.000000
_cell_angle_beta 90.000000
_cell_angle_gamma 90.000000
_cell_volume 3020.041648
_symmetry_space_group_name_H-M "P N N A"
_symmetry_group_IT_number 52
_symmetry_cell_setting 'orthorhombic'
loop_
_space_group_symop_operation_xyz
x,y,z
1/2-x,-y,z
x,1/2-y,1/2-z
1/2-x,1/2+y,1/2-z
-x,-y,-z
1/2+x,y,-z
-x,1/2+y,1/2+z
1/2+x,1/2-y,1/2+z
loop_
_atom_site_type_symbol
_atom_site_label
_atom_site_fract_x
_atom_site_fract_y
_atom_site_fract_z
Si Si1 0.992198 0.792452 0.310147
Si Si2 0.133518 0.504752 0.665782
Si Si3 0.241481 0.688056 0.479211
Si Si4 0.143275 0.750000 0.750000
Si Si5 0.586902 0.792351 0.070559
Si Si6 0.845932 0.445241 0.156271
Si Si7 0.332352 0.390042 0.116097
Si Si8 0.077072 0.116440 0.471509
O O1 0.017704 0.750000 0.250000
O O2 0.087966 0.819957 0.344735
O O3 0.921751 0.654368 0.328021
O O4 0.923719 0.941385 0.318387
O O5 0.250000 0.500000 0.673366
O O6 0.093409 0.625681 0.710527
O O7 0.112060 0.560893 0.606357
O O8 0.250000 0.500000 0.477280
O O9 0.157342 0.719732 0.521200
O O10 0.213366 0.756605 0.421427
O O11 0.331256 0.797920 0.498370
O O12 0.198069 0.651939 0.794204
O O13 0.600894 0.655831 0.112931
O O14 0.480432 0.766766 0.049430
O O15 0.750000 0.500000 0.127625
O O16 0.250000 0.500000 0.142159
O O17 0.382998 0.508883 0.075287
O O18 0.000000 0.000000 0.500000
#
# Coordination Sequence:
#
# PCOD9409986 Si02
#       8
#     8   8   8   4   8   8   8   8
#     4  12  24  42  71  98 127 176 232 274 337 403
#     4  11  24  38  61  99 140 175 215 269 333 409
#     4  11  26  44  67  95 137 174 218 279 334 399
#     4  10  20  38  54  86 134 172 206 258 320 388
#     4  11  24  41  62  97 132 172 216 267 329 397
#     4  11  23  35  62  93 132 173 213 264 320 408
#     4  10  24  47  69  94 128 173 229 282 339 390
#     4  11  23  42  70  95 130 177 218 269 334 404
#
# _framework density 19.867276
#
# number of rings (size 3 to 8) (size 9 to 14) (size 15 to 20)
#    0.000    1.067    4.000    2.400    5.600    2.667 
#    0.000    0.667    1.467    0.000    0.000    0.000 
#    0.000    0.000    0.000    0.000    0.000    0.000 
#
# Total GULP energy -334198.591297 kJ/mol
# GULP energy per Si atom -5569.976522 kJ/mol
# Density = 1.982206 g / cm^3
# Si number density = 19.867276 Si / 1000 Ang^3
#
#
#
# Elastic Constant Matrix: (Units=GPa)
#
#
# Indices 1 2 3 4 5 6 
#
# 1 73.3669 36.6768 9.9538 0.0000 0.0000 0.0000
# 2 36.6768 99.0393 29.7177 0.0000 0.0000 0.0000
# 3 9.9538 29.7177 44.1004 0.0000 0.0000 0.0000
# 4 0.0000 0.0000 0.0000 26.5680 0.0000 0.0000
# 5 0.0000 0.0000 0.0000 0.0000 11.4561 0.0000
# 6 0.0000 0.0000 0.0000 0.0000 0.0000 24.2700
#
#
#
# Elastic Compliance Matrix: (Units=1/GPa)
#
#
# Indices 1 2 3 4 5 6 
#
# 1 0.016736 -0.006348 0.000500 0.000000 0.000000 0.000000
# 2 -0.006348 0.015064 -0.008718 0.000000 0.000000 0.000000
# 3 0.000500 -0.008718 0.028438 0.000000 0.000000 0.000000
# 4 0.000000 0.000000 0.000000 0.037639 0.000000 0.000000
# 5 0.000000 0.000000 0.000000 0.000000 0.087289 0.000000
# 6 0.000000 0.000000 0.000000 0.000000 0.000000 0.041203
#
#
# Mechanical properties :
#
#
# Convention : Reuss Voigt Hill
#
# Bulk Modulus (GPa) = 32.14882 41.02256 36.58569
# Shear Modulus (GPa) = 18.80631 21.80273 20.30452
#
# Velocity S-wave (km/s) = 3.08002 3.31633 3.20035
# Velocity P-wave (km/s) = 5.37267 5.94619 5.66669
#
# Compressibility (1/GPa) = 0.03110535
#
# Stress axis : x y z
#
# Youngs Moduli (GPa) = 59.75314 66.38493 35.16482
#
# Poissons Ratio (x) = 0.42139 -0.01759
# Poissons Ratio (y) = 0.37929 0.30657
# Poissons Ratio (z) = -0.02988 0.57875
#
# Static dielectric constant tensor:
#      x y z
#    x 1.704860 0.000000 0.000000 
#    y 0.000000 1.892040 0.000000 
#    z 0.000000 0.000000 1.722850 
# 
# From -- ./inp_files/42799.got.cif
#   From: 2010.05.17/outbox.cif.g08.bks.cpg/sg52_22_cif.got.tgz:42799.got - 2010.06.03 12:15:38.
