data_PCOD9409668
_publ_section_title
;
Structure prediction by ZEFSAII (Michael W. Deem and Ramdas Pophale) SiO2 
 PCOD9409668
Probable space group: P N N A
;
_chemical_formula_sum "Si O2"
_cell_formula_units_Z 40
_cell_length_a 14.116638
_cell_length_b 8.612352
_cell_length_c 15.761329
_cell_angle_alpha 90.000000
_cell_angle_beta 90.000000
_cell_angle_gamma 90.000000
_cell_volume 1916.222275
_symmetry_space_group_name_H-M "P N N A"
_symmetry_group_IT_number 52
_symmetry_cell_setting 'orthorhombic'
loop_
_space_group_symop_operation_xyz
x,y,z
1/2-x,-y,z
x,1/2-y,1/2-z
1/2-x,1/2+y,1/2-z
-x,-y,-z
1/2+x,y,-z
-x,1/2+y,1/2+z
1/2+x,1/2-y,1/2+z
loop_
_atom_site_type_symbol
_atom_site_label
_atom_site_fract_x
_atom_site_fract_y
_atom_site_fract_z
Si Si1 0.250000 0.500000 0.379937
Si Si2 0.250000 0.000000 0.728800
Si Si3 0.043259 0.892185 0.366347
Si Si4 0.424375 0.184957 0.657752
Si Si5 0.884452 0.750000 0.250000
Si Si6 0.917178 0.374612 0.502978
Si Si7 0.296550 0.250000 0.250000
O O1 0.164197 0.545180 0.441290
O O2 0.238199 0.352668 0.316840
O O3 0.173908 0.907699 0.672327
O O4 0.314593 0.883640 0.781563
O O5 0.062374 0.789332 0.449116
O O6 0.132695 0.863770 0.303520
O O7 0.953157 0.811336 0.321922
O O8 0.007732 0.069153 0.374306
O O9 0.452144 0.250000 0.750000
O O10 0.401486 0.322209 0.593228
O O11 0.000000 0.500000 0.500000
#
# Coordination Sequence:
#
# PCOD9409668 Si02
#       7
#     4   4   8   8   4   8   4
#     4  10  24  43  67 102 134 178 220 284 337 403
#     4  10  20  35  57  92 130 164 222 256 321 409
#     4   9  21  41  63  88 131 170 221 277 336 397
#     4  11  24  39  66  97 130 183 223 268 345 405
#     4   9  18  32  60  87 122 168 208 271 322 389
#     4  11  26  43  65 101 137 171 228 285 338 396
#     4   9  20  42  68  95 128 170 230 273 340 395
#
# _framework density 20.874406
#
# number of rings (size 3 to 8) (size 9 to 14) (size 15 to 20)
#    0.000    2.000    1.000    0.600   11.200    5.600 
#    0.000    4.000    0.000    0.000    0.000    0.000 
#    0.000    0.000    0.000    0.000    0.000    0.000 
#
# Total GULP energy -223114.829665 kJ/mol
# GULP energy per Si atom -5577.870742 kJ/mol
# Density = 2.082689 g / cm^3
# Si number density = 20.874406 Si / 1000 Ang^3
#
#
#
# Elastic Constant Matrix: (Units=GPa)
#
#
# Indices 1 2 3 4 5 6 
#
# 1 55.9360 53.8307 37.7496 0.0000 0.0000 0.0000
# 2 53.8307 105.2273 55.8437 0.0000 0.0000 0.0000
# 3 37.7496 55.8437 114.5894 0.0000 0.0000 0.0000
# 4 0.0000 0.0000 0.0000 44.9233 0.0000 0.0000
# 5 0.0000 0.0000 0.0000 0.0000 -36.1124 0.0000
# 6 0.0000 0.0000 0.0000 0.0000 0.0000 42.9500
#
#
#
# Elastic Compliance Matrix: (Units=1/GPa)
#
#
# Indices 1 2 3 4 5 6 
#
# 1 0.036489 -0.016574 -0.003944 0.000000 0.000000 0.000000
# 2 -0.016574 0.020346 -0.004456 0.000000 0.000000 0.000000
# 3 -0.003944 -0.004456 0.012197 0.000000 0.000000 0.000000
# 4 0.000000 0.000000 0.000000 0.022260 0.000000 0.000000
# 5 0.000000 0.000000 0.000000 0.000000 -0.027691 0.000000
# 6 0.000000 0.000000 0.000000 0.000000 0.000000 0.023283
#
#
# Mechanical properties :
#
#
# Convention : Reuss Voigt Hill
#
# Bulk Modulus (GPa) = 52.39246 63.40006 57.89626
# Shear Modulus (GPa) = 34.91811 18.90743 26.91277
#
# Velocity S-wave (km/s) = 4.09439 3.01287 3.59454
# Velocity P-wave (km/s) = 6.89242 6.52237 6.70994
#
# Compressibility (1/GPa) = 0.01908672
#
# Stress axis : x y z
#
# Youngs Moduli (GPa) = 27.40568 49.14906 81.98467
#
# Poissons Ratio (x) = 0.81457 0.32333
# Poissons Ratio (y) = 0.45421 0.36529
# Poissons Ratio (z) = 0.10808 0.21899
#
# Static dielectric constant tensor:
#      x y z
#    x 1.735580 0.000000 0.000000 
#    y 0.000000 1.764470 0.000000 
#    z 0.000000 0.000000 1.850310 
# 
# From -- ./inp_files/26996.got.cif
#   From: 2010.05.17/outbox.cif.g08.bks.cpg/sg52_14_cif.got.tgz:26996.got - 2010.06.03 12:15:38.
