data_PCOD9409409
_publ_section_title
;
Structure prediction by ZEFSAII (Michael W. Deem and Ramdas Pophale) SiO2 
 PCOD9409409
Probable space group: P N N A
;
_chemical_formula_sum "Si O2"
_cell_formula_units_Z 36
_cell_length_a 28.299871
_cell_length_b 5.102292
_cell_length_c 13.542016
_cell_angle_alpha 90.000000
_cell_angle_beta 90.000000
_cell_angle_gamma 90.000000
_cell_volume 1955.388640
_symmetry_space_group_name_H-M "P N N A"
_symmetry_group_IT_number 52
_symmetry_cell_setting 'orthorhombic'
loop_
_space_group_symop_operation_xyz
x,y,z
1/2-x,-y,z
x,1/2-y,1/2-z
1/2-x,1/2+y,1/2-z
-x,-y,-z
1/2+x,y,-z
-x,1/2+y,1/2+z
1/2+x,1/2-y,1/2+z
loop_
_atom_site_type_symbol
_atom_site_label
_atom_site_fract_x
_atom_site_fract_y
_atom_site_fract_z
Si Si1 0.616435 0.765446 0.451632
Si Si2 0.492187 0.394871 0.340909
Si Si3 0.070663 0.750000 0.750000
Si Si4 0.559649 0.252059 0.989652
Si Si5 0.783150 0.250592 0.133730
O O1 0.600513 0.847529 0.341669
O O2 0.594966 0.479495 0.473848
O O3 0.672715 0.756758 0.441093
O O4 0.589490 0.981021 0.518436
O O5 0.466713 0.250000 0.250000
O O6 0.536943 0.523987 0.288214
O O7 0.516005 0.229971 0.431102
O O8 0.462816 0.628676 0.391138
O O9 0.750000 0.500000 0.119982
O O10 0.798722 0.250000 0.250000
O O11 0.750000 0.000000 0.119189
#
# Coordination Sequence:
#
# PCOD9409409 Si02
#       5
#     8   8   4   8   8
#     4  11  20  36  49  77 103 141 181 221 265 329
#     4  10  20  34  49  73 104 145 187 229 266 307
#     4  10  20  30  54  68 104 150 178 216 268 300
#     4  10  23  32  52  73 105 141 190 220 267 322
#     4  10  20  33  52  76 102 135 176 220 268 329
#
# _framework density 18.410661999999999
#
# number of rings (size 3 to 8) (size 9 to 14) (size 15 to 20)
#    0.000    1.778    3.333    1.333    3.111    2.667 
#    0.000    0.000    0.000    0.000    0.000    0.000 
#    0.000    5.333    0.000    0.000    0.000    0.000 
#
# Total GULP energy -200843.540314 kJ/mol
# GULP energy per Si atom -5578.987231 kJ/mol
# Density = 1.836876 g / cm^3
# Si number density = 18.410662 Si / 1000 Ang^3
#
#
#
# Elastic Constant Matrix: (Units=GPa)
#
#
# Indices 1 2 3 4 5 6 
#
# 1 93.8876 32.3899 17.9942 0.0000 0.0000 0.0000
# 2 32.3899 89.4851 13.8400 0.0000 0.0000 0.0000
# 3 17.9942 13.8400 65.7004 0.0000 0.0000 0.0000
# 4 0.0000 0.0000 0.0000 32.1547 0.0000 0.0000
# 5 0.0000 0.0000 0.0000 0.0000 -70.6852 0.0000
# 6 0.0000 0.0000 0.0000 0.0000 0.0000 7.6735
#
#
#
# Elastic Compliance Matrix: (Units=1/GPa)
#
#
# Indices 1 2 3 4 5 6 
#
# 1 0.012577 -0.004155 -0.002569 0.000000 0.000000 0.000000
# 2 -0.004155 0.012924 -0.001585 0.000000 0.000000 0.000000
# 3 -0.002569 -0.001585 0.016258 0.000000 0.000000 0.000000
# 4 0.000000 0.000000 0.000000 0.031100 0.000000 0.000000
# 5 0.000000 0.000000 0.000000 0.000000 -0.014147 0.000000
# 6 0.000000 0.000000 0.000000 0.000000 0.000000 0.130319
#
#
# Mechanical properties :
#
#
# Convention : Reuss Voigt Hill
#
# Bulk Modulus (GPa) = 39.77503 41.94682 40.86093
# Shear Modulus (GPa) = 23.36134 6.15186 14.75660
#
# Velocity S-wave (km/s) = 3.56603 1.82995 2.83419
# Velocity P-wave (km/s) = 6.21343 5.22479 5.74043
#
# Compressibility (1/GPa) = 0.02514140
#
# Stress axis : x y z
#
# Youngs Moduli (GPa) = 79.51118 77.37526 61.50784
#
# Poissons Ratio (x) = 0.32149 0.15803
# Poissons Ratio (y) = 0.33036 0.09746
# Poissons Ratio (z) = 0.20429 0.12260
#
# Static dielectric constant tensor:
#      x y z
#    x 1.626680 0.000000 0.000000 
#    y 0.000000 1.653530 0.000000 
#    z 0.000000 0.000000 1.691930 
# 
# From -- ./inp_files/28981.got.cif
#   From: 2010.05.17/outbox.cif.g08.bks.cpg/sg52_15_cif.got.tgz:28981.got - 2010.06.03 12:15:38.
