data_PCOD9409119
_publ_section_title
;
Structure prediction by ZEFSAII (Michael W. Deem and Ramdas Pophale) SiO2 
 PCOD9409119
Probable space group: P N N A
;
_chemical_formula_sum "Si O2"
_cell_formula_units_Z 64
_cell_length_a 9.990147
_cell_length_b 28.973522
_cell_length_c 12.687348
_cell_angle_alpha 90.000000
_cell_angle_beta 90.000000
_cell_angle_gamma 90.000000
_cell_volume 3672.349629
_symmetry_space_group_name_H-M "P N N A"
_symmetry_group_IT_number 52
_symmetry_cell_setting 'orthorhombic'
loop_
_space_group_symop_operation_xyz
x,y,z
1/2-x,-y,z
x,1/2-y,1/2-z
1/2-x,1/2+y,1/2-z
-x,-y,-z
1/2+x,y,-z
-x,1/2+y,1/2+z
1/2+x,1/2-y,1/2+z
loop_
_atom_site_type_symbol
_atom_site_label
_atom_site_fract_x
_atom_site_fract_y
_atom_site_fract_z
Si Si1 0.277192 0.948660 0.876863
Si Si2 0.490363 0.244847 0.019664
Si Si3 0.264393 0.698881 0.953589
Si Si4 0.760350 0.644904 0.254451
Si Si5 0.716134 0.301394 0.801595
Si Si6 0.054422 0.668852 0.323283
Si Si7 0.984275 0.834954 0.860834
Si Si8 0.955317 0.087115 0.975002
O O1 0.259875 0.908913 0.788286
O O2 0.426003 0.943265 0.925611
O O3 0.250000 0.000000 0.836930
O O4 0.167216 0.938156 0.967993
O O5 0.613908 0.267757 0.081163
O O6 0.413269 0.211546 0.100445
O O7 0.381421 0.277804 0.965173
O O8 0.544731 0.209410 0.932655
O O9 0.256699 0.657773 0.869065
O O10 0.309667 0.692425 0.075046
O O11 0.633406 0.667389 0.312997
O O12 0.897340 0.664673 0.302768
O O13 0.702501 0.250000 0.750000
O O14 0.865107 0.320325 0.781477
O O15 0.618270 0.333699 0.734374
O O16 0.095501 0.622286 0.384341
O O17 0.979319 0.879203 0.936592
#
# Coordination Sequence:
#
# PCOD9409119 Si02
#       8
#     8   8   8   8   8   8   8   8
#     4  10  19  36  59  85 107 132 171 220 285 337
#     4  11  20  32  49  72  96 144 173 220 244 305
#     4  12  23  31  47  69 101 138 193 207 255 294
#     4  10  23  35  50  75 105 141 173 226 266 316
#     4  12  21  34  48  71  99 145 188 223 251 287
#     4  10  20  35  50  72 109 137 179 213 264 303
#     4  10  20  35  50  72 109 137 179 213 264 303
#     4   9  19  34  57  84 108 138 165 216 277 331
#
# _framework density 17.427536
#
# number of rings (size 3 to 8) (size 9 to 14) (size 15 to 20)
#    0.000    1.500    2.500    3.375    0.000    5.000 
#    0.000    0.000    0.000    0.000    0.000   25.375 
#    0.000    0.000    0.000    0.000    0.000    0.000 
#
# Total GULP energy -356968.816366 kJ/mol
# GULP energy per Si atom -5577.637756 kJ/mol
# Density = 1.738787 g / cm^3
# Si number density = 17.427536 Si / 1000 Ang^3
#
#
#
# Elastic Constant Matrix: (Units=GPa)
#
#
# Indices 1 2 3 4 5 6 
#
# 1 58.9037 18.0247 -10.3179 0.0000 0.0000 0.0000
# 2 18.0247 61.3389 21.6380 0.0000 0.0000 0.0000
# 3 -10.3179 21.6380 66.7122 0.0000 0.0000 0.0000
# 4 0.0000 0.0000 0.0000 10.8013 0.0000 0.0000
# 5 0.0000 0.0000 0.0000 0.0000 30.9634 0.0000
# 6 0.0000 0.0000 0.0000 0.0000 0.0000 12.6776
#
#
#
# Elastic Compliance Matrix: (Units=1/GPa)
#
#
# Indices 1 2 3 4 5 6 
#
# 1 0.020450 -0.008046 0.005772 0.000000 0.000000 0.000000
# 2 -0.008046 0.021575 -0.008242 0.000000 0.000000 0.000000
# 3 0.005772 -0.008242 0.018556 0.000000 0.000000 0.000000
# 4 0.000000 0.000000 0.000000 0.092581 0.000000 0.000000
# 5 0.000000 0.000000 0.000000 0.000000 0.032296 0.000000
# 6 0.000000 0.000000 0.000000 0.000000 0.000000 0.078879
#
#
# Mechanical properties :
#
#
# Convention : Reuss Voigt Hill
#
# Bulk Modulus (GPa) = 25.28450 27.29384 26.28917
# Shear Modulus (GPa) = 16.74756 21.39579 19.07168
#
# Velocity S-wave (km/s) = 3.10333 3.50766 3.31167
# Velocity P-wave (km/s) = 5.23266 5.66570 5.45348
#
# Compressibility (1/GPa) = 0.03954993
#
# Stress axis : x y z
#
# Youngs Moduli (GPa) = 48.89987 46.35087 53.89141
#
# Poissons Ratio (x) = 0.37292 -0.31108
# Poissons Ratio (y) = 0.39343 0.44417
# Poissons Ratio (z) = -0.28227 0.38203
#
# Static dielectric constant tensor:
#      x y z
#    x 1.650740 0.000000 0.000000 
#    y 0.000000 1.585960 0.000000 
#    z 0.000000 0.000000 1.610450 
# 
# From -- ./inp_files/18510.got.cif
#   From: 2010.05.17/outbox.cif.g08.bks.cpg/sg52_10_cif.got.tgz:18510.got - 2010.06.03 12:15:38.
