data_PCOD9409518
_publ_section_title
;
Structure prediction by ZEFSAII (Michael W. Deem and Ramdas Pophale) SiO2 
 PCOD9409518
Probable space group: P N N A
;
_chemical_formula_sum "Si O2"
_cell_formula_units_Z 36
_cell_length_a 10.947681
_cell_length_b 18.480951
_cell_length_c 6.618110
_cell_angle_alpha 90.000000
_cell_angle_beta 90.000000
_cell_angle_gamma 90.000000
_cell_volume 1338.999550
_symmetry_space_group_name_H-M "P N N A"
_symmetry_group_IT_number 52
_symmetry_cell_setting 'orthorhombic'
loop_
_space_group_symop_operation_xyz
x,y,z
1/2-x,-y,z
x,1/2-y,1/2-z
1/2-x,1/2+y,1/2-z
-x,-y,-z
1/2+x,y,-z
-x,1/2+y,1/2+z
1/2+x,1/2-y,1/2+z
loop_
_atom_site_type_symbol
_atom_site_label
_atom_site_fract_x
_atom_site_fract_y
_atom_site_fract_z
Si Si1 0.684962 0.191909 0.101978
Si Si2 0.993561 0.750000 0.750000
Si Si3 0.263163 0.418581 0.282043
Si Si4 0.009436 0.911546 0.752233
Si Si5 0.971228 0.929981 0.237294
O O1 0.741537 0.250000 0.250000
O O2 0.622238 0.134714 0.252813
O O3 0.589551 0.231514 0.948881
O O4 0.765134 0.144022 0.950039
O O5 0.052196 0.829970 0.712772
O O6 0.250000 0.500000 0.371858
O O7 0.132187 0.411315 0.173761
O O8 0.393563 0.415303 0.172751
O O9 0.068871 0.989324 0.702561
O O10 0.993985 0.923240 0.994508
#
# Coordination Sequence:
#
# PCOD9409518 Si02
#       5
#     8   4   8   8   8
#     4  10  20  34  50  75 105 131 166 211 251 293
#     4   8  16  32  50  68 102 126 158 208 250 284
#     4   8  14  28  51  72  94 133 169 201 248 298
#     4   8  14  26  49  70  95 128 164 200 243 293
#     4   8  14  28  48  71  95 131 165 194 245 302
#
# _framework density 26.885746000000001
#
# number of rings (size 3 to 8) (size 9 to 14) (size 15 to 20)
#    0.000    4.000    0.000    1.333    0.000    0.000 
#   16.000    1.111    0.000   10.667    0.000    0.000 
#    0.000    0.000    0.000    0.000    0.000    0.000 
#
# Total GULP energy -200595.529863 kJ/mol
# GULP energy per Si atom -5572.098052 kJ/mol
# Density = 2.682455 g / cm^3
# Si number density = 26.885746 Si / 1000 Ang^3
#
#
#
# Elastic Constant Matrix: (Units=GPa)
#
#
# Indices 1 2 3 4 5 6 
#
# 1 64.2560 70.8165 -27.5116 0.0000 0.0000 0.0000
# 2 70.8165 322.5239 58.3437 0.0000 0.0000 0.0000
# 3 -27.5116 58.3437 117.6418 0.0000 0.0000 0.0000
# 4 0.0000 0.0000 0.0000 63.9859 0.0000 0.0000
# 5 0.0000 0.0000 0.0000 0.0000 -9.3097 0.0000
# 6 0.0000 0.0000 0.0000 0.0000 0.0000 47.5700
#
#
#
# Elastic Compliance Matrix: (Units=1/GPa)
#
#
# Indices 1 2 3 4 5 6 
#
# 1 0.029829 -0.008581 0.011232 0.000000 0.000000 0.000000
# 2 -0.008581 0.005875 -0.004920 0.000000 0.000000 0.000000
# 3 0.011232 -0.004920 0.013567 0.000000 0.000000 0.000000
# 4 0.000000 0.000000 0.000000 0.015628 0.000000 0.000000
# 5 0.000000 0.000000 0.000000 0.000000 -0.107414 0.000000
# 6 0.000000 0.000000 0.000000 0.000000 0.000000 0.021022
#
#
# Mechanical properties :
#
#
# Convention : Reuss Voigt Hill
#
# Bulk Modulus (GPa) = 22.35583 78.63542 50.49563
# Shear Modulus (GPa) = -2447.97983 47.30079 -1200.33952
#
# Velocity S-wave (km/s) = -30.20743 4.19898 -21.15251
# Velocity P-wave (km/s) = 34.76088 7.26774 24.03641
#
# Compressibility (1/GPa) = 0.04473106
#
# Stress axis : x y z
#
# Youngs Moduli (GPa) = 33.52426 170.21737 73.70685
#
# Poissons Ratio (x) = 1.46070 -0.82785
# Poissons Ratio (y) = 0.28768 0.36267
# Poissons Ratio (z) = -0.37653 0.83754
#
# Static dielectric constant tensor:
#      x y z
#    x 2.175620 0.000000 0.000000 
#    y 0.000000 2.046930 0.000000 
#    z 0.000000 0.000000 2.249560 
# 
# From -- ./inp_files/10149.got.cif
#   From: 2010.05.17/outbox.cif.g08.bks.cpg/sg52_6_cif.got.tgz:10149.got - 2010.06.03 12:15:38.
