data_PCOD9409927
_publ_section_title
;
Structure prediction by ZEFSAII (Michael W. Deem and Ramdas Pophale) SiO2 
 PCOD9409927
Probable space group: P N N A
;
_chemical_formula_sum "Si O2"
_cell_formula_units_Z 48
_cell_length_a 14.709508
_cell_length_b 15.951143
_cell_length_c 8.903640
_cell_angle_alpha 90.000000
_cell_angle_beta 90.000000
_cell_angle_gamma 90.000000
_cell_volume 2089.091909
_symmetry_space_group_name_H-M "P N N A"
_symmetry_group_IT_number 52
_symmetry_cell_setting 'orthorhombic'
loop_
_space_group_symop_operation_xyz
x,y,z
1/2-x,-y,z
x,1/2-y,1/2-z
1/2-x,1/2+y,1/2-z
-x,-y,-z
1/2+x,y,-z
-x,1/2+y,1/2+z
1/2+x,1/2-y,1/2+z
loop_
_atom_site_type_symbol
_atom_site_label
_atom_site_fract_x
_atom_site_fract_y
_atom_site_fract_z
Si Si1 0.140920 0.418477 0.911117
Si Si2 0.390680 0.756872 0.424925
Si Si3 0.653157 0.911903 0.525766
Si Si4 0.408123 0.590128 0.583727
Si Si5 0.613180 0.554311 0.627599
Si Si6 0.828109 0.233638 0.925373
O O1 0.241214 0.415148 0.980535
O O2 0.105556 0.512774 0.936867
O O3 0.147816 0.399357 0.735597
O O4 0.087730 0.345618 0.998350
O O5 0.413436 0.750000 0.250000
O O6 0.431731 0.679588 0.514301
O O7 0.281105 0.741373 0.439080
O O8 0.647201 0.935574 0.702208
O O9 0.627450 0.814904 0.495884
O O10 0.503957 0.551200 0.634585
O O11 0.360708 0.529819 0.461709
O O12 0.642892 0.638939 0.540426
O O13 0.850302 0.250000 0.750000
#
# Coordination Sequence:
#
# PCOD9409927 Si02
#       6
#     8   8   8   8   8   8
#     4  10  21  37  59  91 122 155 204 256 303 356
#     4  10  20  37  62  90 120 159 203 245 300 369
#     4   9  19  38  60  86 120 161 202 242 303 368
#     4  11  24  39  59  92 126 159 205 260 306 357
#     4  10  22  41  61  85 123 167 205 246 308 369
#     4   8  17  34  59  84 108 151 203 240 284 356
#
# _framework density 22.976490999999999
#
# number of rings (size 3 to 8) (size 9 to 14) (size 15 to 20)
#    0.000    2.333    0.000    2.500    0.000   10.667 
#    0.000    5.833    0.000    0.000    0.000    0.000 
#    0.000    0.000    0.000    0.000    0.000    0.000 
#
# Total GULP energy -268049.085430 kJ/mol
# GULP energy per Si atom -5584.355946 kJ/mol
# Density = 2.292420 g / cm^3
# Si number density = 22.976491 Si / 1000 Ang^3
#
#
#
# Elastic Constant Matrix: (Units=GPa)
#
#
# Indices 1 2 3 4 5 6 
#
# 1 42.0821 -21.3684 5.9263 0.0000 0.0000 0.0000
# 2 -21.3684 104.3633 9.5092 0.0000 0.0000 0.0000
# 3 5.9263 9.5092 102.2261 0.0000 0.0000 0.0000
# 4 0.0000 0.0000 0.0000 27.3574 0.0000 0.0000
# 5 0.0000 0.0000 0.0000 0.0000 9.3180 0.0000
# 6 0.0000 0.0000 0.0000 0.0000 0.0000 29.2124
#
#
#
# Elastic Compliance Matrix: (Units=1/GPa)
#
#
# Indices 1 2 3 4 5 6 
#
# 1 0.026958 0.005710 -0.002094 0.000000 0.000000 0.000000
# 2 0.005710 0.010873 -0.001343 0.000000 0.000000 0.000000
# 3 -0.002094 -0.001343 0.010029 0.000000 0.000000 0.000000
# 4 0.000000 0.000000 0.000000 0.036553 0.000000 0.000000
# 5 0.000000 0.000000 0.000000 0.000000 0.107319 0.000000
# 6 0.000000 0.000000 0.000000 0.000000 0.000000 0.034232
#
#
# Mechanical properties :
#
#
# Convention : Reuss Voigt Hill
#
# Bulk Modulus (GPa) = 19.08134 26.31175 22.69654
# Shear Modulus (GPa) = 20.93060 30.15120 25.54090
#
# Velocity S-wave (km/s) = 3.02148 3.62645 3.33770
# Velocity P-wave (km/s) = 4.52716 5.38621 4.97526
#
# Compressibility (1/GPa) = 0.05240722
#
# Stress axis : x y z
#
# Youngs Moduli (GPa) = 37.09537 91.96728 99.71567
#
# Poissons Ratio (x) = -0.52517 0.20880
# Poissons Ratio (y) = -0.21183 0.13387
# Poissons Ratio (z) = 0.07768 0.12347
#
# Static dielectric constant tensor:
#      x y z
#    x 1.971730 0.000000 0.000000 
#    y 0.000000 1.928780 0.000000 
#    z 0.000000 0.000000 1.806160 
# 
# From -- ./inp_files/12048.got.cif
#   From: 2010.05.17/outbox.cif.g08.bks.cpg/sg52_7_cif.got.tgz:12048.got - 2010.06.03 12:15:38.
