data_PCOD9409644
_publ_section_title
;
Structure prediction by ZEFSAII (Michael W. Deem and Ramdas Pophale) SiO2 
 PCOD9409644
Probable space group: P N N A
;
_chemical_formula_sum "Si O2"
_cell_formula_units_Z 48
_cell_length_a 25.018299
_cell_length_b 8.665982
_cell_length_c 12.138717
_cell_angle_alpha 90.000000
_cell_angle_beta 90.000000
_cell_angle_gamma 90.000000
_cell_volume 2631.772519
_symmetry_space_group_name_H-M "P N N A"
_symmetry_group_IT_number 52
_symmetry_cell_setting 'orthorhombic'
loop_
_space_group_symop_operation_xyz
x,y,z
1/2-x,-y,z
x,1/2-y,1/2-z
1/2-x,1/2+y,1/2-z
-x,-y,-z
1/2+x,y,-z
-x,1/2+y,1/2+z
1/2+x,1/2-y,1/2+z
loop_
_atom_site_type_symbol
_atom_site_label
_atom_site_fract_x
_atom_site_fract_y
_atom_site_fract_z
Si Si1 0.006967 0.619375 0.840206
Si Si2 0.989130 0.832541 0.045857
Si Si3 0.384301 0.521484 0.949111
Si Si4 0.079054 0.637360 0.162772
Si Si5 0.690949 0.931400 0.250930
Si Si6 0.122938 0.336834 0.636711
O O1 0.022209 0.750000 0.750000
O O2 0.058570 0.524277 0.888044
O O3 0.961274 0.500722 0.798390
O O4 0.981695 0.713980 0.943402
O O5 0.940184 0.860141 0.128770
O O6 0.038791 0.758841 0.107113
O O7 0.000000 0.000000 0.000000
O O8 0.339950 0.464190 0.864422
O O9 0.371303 0.704931 0.956117
O O10 0.385836 0.438423 0.066433
O O11 0.107732 0.750000 0.250000
O O12 0.694930 0.750000 0.250000
O O13 0.750000 0.000000 0.248609
O O14 0.656599 0.007605 0.150213
O O15 0.136461 0.250000 0.750000
#
# Coordination Sequence:
#
# PCOD9409644 Si02
#       6
#     8   8   8   8   8   8
#     4  11  21  33  50  80 115 158 199 232 274 347
#     4  11  21  31  50  78 113 160 197 225 279 340
#     4  10  20  37  55  79 116 152 190 239 292 336
#     4  11  21  35  51  79 120 155 198 235 274 344
#     4  11  24  40  62  88 112 144 192 244 307 360
#     4  10  20  35  56  75 114 152 184 237 288 342
#
# _framework density 18.238657
#
# number of rings (size 3 to 8) (size 9 to 14) (size 15 to 20)
#    0.000    1.333    3.333    4.500   11.667    0.000 
#    0.000    0.000    0.000    0.000    0.000    2.333 
#    0.000    0.000    0.000    0.000    0.000    0.000 
#
# Total GULP energy -267311.826224 kJ/mol
# GULP energy per Si atom -5568.996380 kJ/mol
# Density = 1.819715 g / cm^3
# Si number density = 18.238657 Si / 1000 Ang^3
#
#
#
# Elastic Constant Matrix: (Units=GPa)
#
#
# Indices 1 2 3 4 5 6 
#
# 1 53.4902 26.6720 19.9093 0.0000 0.0000 0.0000
# 2 26.6720 143.7769 35.7264 0.0000 0.0000 0.0000
# 3 19.9093 35.7264 69.0880 0.0000 0.0000 0.0000
# 4 0.0000 0.0000 0.0000 37.7178 0.0000 0.0000
# 5 0.0000 0.0000 0.0000 0.0000 29.9717 0.0000
# 6 0.0000 0.0000 0.0000 0.0000 0.0000 25.0014
#
#
#
# Elastic Compliance Matrix: (Units=1/GPa)
#
#
# Indices 1 2 3 4 5 6 
#
# 1 0.021924 -0.002865 -0.004836 0.000000 0.000000 0.000000
# 2 -0.002865 0.008355 -0.003495 0.000000 0.000000 0.000000
# 3 -0.004836 -0.003495 0.017675 0.000000 0.000000 0.000000
# 4 0.000000 0.000000 0.000000 0.026513 0.000000 0.000000
# 5 0.000000 0.000000 0.000000 0.000000 0.033365 0.000000
# 6 0.000000 0.000000 0.000000 0.000000 0.000000 0.039998
#
#
# Mechanical properties :
#
#
# Convention : Reuss Voigt Hill
#
# Bulk Modulus (GPa) = 39.12139 47.88560 43.50349
# Shear Modulus (GPa) = 27.97319 30.80801 29.39060
#
# Velocity S-wave (km/s) = 3.92054 4.11440 4.01864
# Velocity P-wave (km/s) = 6.48000 6.99164 6.74068
#
# Compressibility (1/GPa) = 0.02556146
#
# Stress axis : x y z
#
# Youngs Moduli (GPa) = 45.61251 119.68595 56.57656
#
# Poissons Ratio (x) = 0.34295 0.27361
# Poissons Ratio (y) = 0.13070 0.19773
# Poissons Ratio (z) = 0.22059 0.41829
#
# Static dielectric constant tensor:
#      x y z
#    x 1.544500 0.000000 0.000000 
#    y 0.000000 1.716810 0.000000 
#    z 0.000000 0.000000 1.692980 
# 
# From -- ./inp_files/22754.got.cif
#   From: 2010.05.17/outbox.cif.g08.bks.cpg/sg52_12_cif.got.tgz:22754.got - 2010.06.03 12:15:38.
