data_PCOD9409824
_publ_section_title
;
Structure prediction by ZEFSAII (Michael W. Deem and Ramdas Pophale) SiO2 
 PCOD9409824
Probable space group: P N N A
;
_chemical_formula_sum "Si O2"
_cell_formula_units_Z 60
_cell_length_a 30.996963
_cell_length_b 18.959365
_cell_length_c 5.243262
_cell_angle_alpha 90.000000
_cell_angle_beta 90.000000
_cell_angle_gamma 90.000000
_cell_volume 3081.374555
_symmetry_space_group_name_H-M "P N N A"
_symmetry_group_IT_number 52
_symmetry_cell_setting 'orthorhombic'
loop_
_space_group_symop_operation_xyz
x,y,z
1/2-x,-y,z
x,1/2-y,1/2-z
1/2-x,1/2+y,1/2-z
-x,-y,-z
1/2+x,y,-z
-x,1/2+y,1/2+z
1/2+x,1/2-y,1/2+z
loop_
_atom_site_type_symbol
_atom_site_label
_atom_site_fract_x
_atom_site_fract_y
_atom_site_fract_z
Si Si1 0.909388 0.750000 0.750000
Si Si2 0.559423 0.832164 0.790322
Si Si3 0.457832 0.826629 0.859129
Si Si4 0.151089 0.378285 0.166853
Si Si5 0.601718 0.895894 0.288405
Si Si6 0.748427 0.335002 0.748683
Si Si7 0.387504 0.940887 0.815438
Si Si8 0.697609 0.664753 0.247039
O O1 0.943253 0.690890 0.646363
O O2 0.874440 0.695960 0.876311
O O3 0.570323 0.750000 0.750000
O O4 0.507548 0.838034 0.800172
O O5 0.580434 0.876390 0.559991
O O6 0.576912 0.855838 0.062981
O O7 0.443950 0.750000 0.750000
O O8 0.429028 0.891111 0.768555
O O9 0.200275 0.364359 0.243143
O O10 0.129681 0.420491 0.403630
O O11 0.146608 0.420021 0.902867
O O12 0.651058 0.870245 0.277589
O O13 0.600367 0.978320 0.222603
O O14 0.744938 0.250000 0.750000
O O15 0.776526 0.355346 0.502386
O O16 0.773984 0.355123 0.003090
O O17 0.692072 0.750000 0.250000
#
# Coordination Sequence:
#
# PCOD9409824 Si02
#       8
#     4   8   8   8   8   8   8   8
#     4  10  20  36  66  88 136 150 202 260 314 372
#     4  11  25  40  70  92 121 158 221 269 314 369
#     4  10  22  39  63  97 125 164 208 267 320 371
#     4  11  21  39  62  96 122 167 203 254 314 384
#     4  12  25  45  61  92 128 174 212 259 312 381
#     4  10  20  36  62  97 120 155 208 270 313 366
#     4  11  25  40  63  90 135 173 205 248 324 383
#     4  10  21  38  62  84 122 159 211 266 317 360
#
# _framework density 19.471831000000002
#
# number of rings (size 3 to 8) (size 9 to 14) (size 15 to 20)
#    0.000    1.333    2.000    3.600    3.733    2.133 
#    0.000    4.000    0.000    0.000    0.000    0.000 
#    0.000    0.000    0.000    0.000    0.000    0.000 
#
# Total GULP energy -334737.768220 kJ/mol
# GULP energy per Si atom -5578.962804 kJ/mol
# Density = 1.942751 g / cm^3
# Si number density = 19.471831 Si / 1000 Ang^3
#
#
#
# Elastic Constant Matrix: (Units=GPa)
#
#
# Indices 1 2 3 4 5 6 
#
# 1 104.3786 36.5230 14.6461 0.0000 0.0000 0.0000
# 2 36.5230 47.9421 -12.1080 0.0000 0.0000 0.0000
# 3 14.6461 -12.1080 67.2390 0.0000 0.0000 0.0000
# 4 0.0000 0.0000 0.0000 13.6658 0.0000 0.0000
# 5 0.0000 0.0000 0.0000 0.0000 28.2955 0.0000
# 6 0.0000 0.0000 0.0000 0.0000 0.0000 13.4799
#
#
#
# Elastic Compliance Matrix: (Units=1/GPa)
#
#
# Indices 1 2 3 4 5 6 
#
# 1 0.014776 -0.012645 -0.005495 0.000000 0.000000 0.000000
# 2 -0.012645 0.032673 0.008638 0.000000 0.000000 0.000000
# 3 -0.005495 0.008638 0.017625 0.000000 0.000000 0.000000
# 4 0.000000 0.000000 0.000000 0.073175 0.000000 0.000000
# 5 0.000000 0.000000 0.000000 0.000000 0.035341 0.000000
# 6 0.000000 0.000000 0.000000 0.000000 0.000000 0.074184
#
#
# Mechanical properties :
#
#
# Convention : Reuss Voigt Hill
#
# Bulk Modulus (GPa) = 21.70648 33.07574 27.39111
# Shear Modulus (GPa) = 17.72198 23.12148 20.42173
#
# Velocity S-wave (km/s) = 3.02012 3.44965 3.24201
# Velocity P-wave (km/s) = 4.83046 5.73499 5.30205
#
# Compressibility (1/GPa) = 0.04606919
#
# Stress axis : x y z
#
# Youngs Moduli (GPa) = 67.67711 30.60650 56.73823
#
# Poissons Ratio (x) = 0.38700 0.31180
# Poissons Ratio (y) = 0.85574 -0.49009
# Poissons Ratio (z) = 0.37192 -0.26437
#
# Static dielectric constant tensor:
#      x y z
#    x 1.650080 0.000000 0.000000 
#    y 0.000000 1.672610 0.000000 
#    z 0.000000 0.000000 3.640140 
# 
# From -- ./inp_files/5960.got.cif
#   From: 2010.05.17/outbox.cif.g08.bks.cpg/sg52_3_cif.got.tgz:5960.got - 2010.06.03 12:15:38.
