data_PCOD9409581
_publ_section_title
;
Structure prediction by ZEFSAII (Michael W. Deem and Ramdas Pophale) SiO2 
 PCOD9409581
Probable space group: P N N A
;
_chemical_formula_sum "Si O2"
_cell_formula_units_Z 40
_cell_length_a 20.776466
_cell_length_b 8.036424
_cell_length_c 12.013139
_cell_angle_alpha 90.000000
_cell_angle_beta 90.000000
_cell_angle_gamma 90.000000
_cell_volume 2005.815679
_symmetry_space_group_name_H-M "P N N A"
_symmetry_group_IT_number 52
_symmetry_cell_setting 'orthorhombic'
loop_
_space_group_symop_operation_xyz
x,y,z
1/2-x,-y,z
x,1/2-y,1/2-z
1/2-x,1/2+y,1/2-z
-x,-y,-z
1/2+x,y,-z
-x,1/2+y,1/2+z
1/2+x,1/2-y,1/2+z
loop_
_atom_site_type_symbol
_atom_site_label
_atom_site_fract_x
_atom_site_fract_y
_atom_site_fract_z
Si Si1 0.078587 0.868761 0.556979
Si Si2 0.427032 0.487782 0.547618
Si Si3 0.525946 0.310609 0.136695
Si Si4 0.176055 0.053877 0.133715
Si Si5 0.823866 0.547297 0.889102
O O1 0.086006 0.686096 0.609467
O O2 0.022250 0.834649 0.466071
O O3 0.057868 0.008664 0.644526
O O4 0.133947 0.952711 0.480892
O O5 0.500000 0.500000 0.500000
O O6 0.422745 0.664265 0.610397
O O7 0.375947 0.477198 0.448134
O O8 0.492993 0.250000 0.250000
O O9 0.170223 0.252384 0.113409
O O10 0.160160 0.002644 0.260689
O O11 0.250000 0.000000 0.112888
O O12 0.750000 0.500000 0.907374
#
# Coordination Sequence:
#
# PCOD9409581 Si02
#       5
#     8   8   8   8   8
#     4  10  21  37  58  86 116 152 197 239 300 350
#     4  10  21  36  56  86 118 154 196 241 294 350
#     4  10  22  39  57  83 117 156 198 246 293 348
#     4  10  20  35  56  89 125 155 193 240 299 366
#     4  10  20  34  57  88 121 156 190 237 304 365
#
# _framework density 19.942011000000001
#
# number of rings (size 3 to 8) (size 9 to 14) (size 15 to 20)
#    0.000    2.000    2.000    1.200    5.600    2.400 
#    0.000    0.000    0.000    1.200    0.000    0.000 
#    0.000    0.000    0.000    0.000    0.000    0.000 
#
# Total GULP energy -222831.880291 kJ/mol
# GULP energy per Si atom -5570.797007 kJ/mol
# Density = 1.989662 g / cm^3
# Si number density = 19.942011 Si / 1000 Ang^3
#
#
#
# Elastic Constant Matrix: (Units=GPa)
#
#
# Indices 1 2 3 4 5 6 
#
# 1 45.5613 22.1644 14.4591 0.0000 0.0000 0.0000
# 2 22.1644 151.1059 25.0511 0.0000 0.0000 0.0000
# 3 14.4591 25.0511 46.5566 0.0000 0.0000 0.0000
# 4 0.0000 0.0000 0.0000 27.0727 0.0000 0.0000
# 5 0.0000 0.0000 0.0000 0.0000 15.7585 0.0000
# 6 0.0000 0.0000 0.0000 0.0000 0.0000 30.3922
#
#
#
# Elastic Compliance Matrix: (Units=1/GPa)
#
#
# Indices 1 2 3 4 5 6 
#
# 1 0.025273 -0.002641 -0.006428 0.000000 0.000000 0.000000
# 2 -0.002641 0.007542 -0.003238 0.000000 0.000000 0.000000
# 3 -0.006428 -0.003238 0.025218 0.000000 0.000000 0.000000
# 4 0.000000 0.000000 0.000000 0.036938 0.000000 0.000000
# 5 0.000000 0.000000 0.000000 0.000000 0.063458 0.000000
# 6 0.000000 0.000000 0.000000 0.000000 0.000000 0.032903
#
#
# Mechanical properties :
#
#
# Convention : Reuss Voigt Hill
#
# Bulk Modulus (GPa) = 29.92326 40.73035 35.32681
# Shear Modulus (GPa) = 22.01812 26.74796 24.38304
#
# Velocity S-wave (km/s) = 3.32642 3.66633 3.50050
# Velocity P-wave (km/s) = 5.45812 6.19608 5.83877
#
# Compressibility (1/GPa) = 0.03341882
#
# Stress axis : x y z
#
# Youngs Moduli (GPa) = 39.56735 132.58860 39.65461
#
# Poissons Ratio (x) = 0.35023 0.25489
# Poissons Ratio (y) = 0.10452 0.12840
# Poissons Ratio (z) = 0.25433 0.42931
#
# Static dielectric constant tensor:
#      x y z
#    x 1.664050 0.000000 0.000000 
#    y 0.000000 1.872500 0.000000 
#    z 0.000000 0.000000 1.719810 
# 
# From -- ./inp_files/21476.got.cif
#   From: 2010.05.17/outbox.cif.g08.bks.cpg/sg52_11_cif.got.tgz:21476.got - 2010.06.03 12:15:38.
