data_PCOD9409527
_publ_section_title
;
Structure prediction by ZEFSAII (Michael W. Deem and Ramdas Pophale) SiO2 
 PCOD9409527
Probable space group: P N N A
;
_chemical_formula_sum "Si O2"
_cell_formula_units_Z 60
_cell_length_a 8.808412
_cell_length_b 24.261174
_cell_length_c 14.363357
_cell_angle_alpha 90.000000
_cell_angle_beta 90.000000
_cell_angle_gamma 90.000000
_cell_volume 3069.484096
_symmetry_space_group_name_H-M "P N N A"
_symmetry_group_IT_number 52
_symmetry_cell_setting 'orthorhombic'
loop_
_space_group_symop_operation_xyz
x,y,z
1/2-x,-y,z
x,1/2-y,1/2-z
1/2-x,1/2+y,1/2-z
-x,-y,-z
1/2+x,y,-z
-x,1/2+y,1/2+z
1/2+x,1/2-y,1/2+z
loop_
_atom_site_type_symbol
_atom_site_label
_atom_site_fract_x
_atom_site_fract_y
_atom_site_fract_z
Si Si1 0.967381 0.410326 0.055536
Si Si2 0.716002 0.436280 0.798551
Si Si3 0.207068 0.808807 0.877950
Si Si4 0.039499 0.403540 0.838533
Si Si5 0.710571 0.436118 0.593256
Si Si6 0.750000 0.500000 0.139419
Si Si7 0.787351 0.319586 0.166711
Si Si8 0.497318 0.133932 0.034453
O O1 0.864848 0.463507 0.078748
O O2 0.875390 0.357562 0.092740
O O3 0.115536 0.413207 0.119272
O O4 0.011374 0.410378 0.948660
O O5 0.750000 0.500000 0.819182
O O6 0.641912 0.432796 0.697227
O O7 0.877238 0.407102 0.792808
O O8 0.215808 0.742760 0.868180
O O9 0.154033 0.825860 0.773288
O O10 0.087784 0.827856 0.957184
O O11 0.373414 0.833825 0.905699
O O12 0.149074 0.454220 0.807094
O O13 0.120967 0.345845 0.825462
O O14 0.750000 0.500000 0.576271
O O15 0.592112 0.412489 0.520191
O O16 0.860932 0.397882 0.586402
#
# Coordination Sequence:
#
# PCOD9409527 Si02
#       8
#     8   8   8   8   8   4   8   8
#     4  11  22  35  56  83 119 157 196 231 283 340
#     4  11  21  34  55  84 121 149 189 234 280 339
#     4  10  22  42  63  82 115 149 196 239 287 337
#     4  11  22  35  56  83 119 157 196 231 283 340
#     4  10  21  37  61  91 117 143 183 236 286 349
#     4  10  20  34  52  78 118 162 192 222 280 340
#     4  10  23  40  58  84 115 152 192 245 283 333
#     4  10  21  40  66  84 112 151 186 232 294 350
#
# _framework density 19.547260000000001
#
# number of rings (size 3 to 8) (size 9 to 14) (size 15 to 20)
#    0.000    1.600    1.333    4.000    3.733    0.000 
#    0.000    0.000    8.800    6.400    0.000    0.000 
#    0.000    0.000    0.000    0.000    0.000    0.000 
#
# Total GULP energy -334921.157955 kJ/mol
# GULP energy per Si atom -5582.019299 kJ/mol
# Density = 1.950277 g / cm^3
# Si number density = 19.547260 Si / 1000 Ang^3
#
#
#
# Elastic Constant Matrix: (Units=GPa)
#
#
# Indices 1 2 3 4 5 6 
#
# 1 55.8713 7.0998 5.5242 0.0000 0.0000 0.0000
# 2 7.0998 92.6673 20.6800 0.0000 0.0000 0.0000
# 3 5.5242 20.6800 54.3922 0.0000 0.0000 0.0000
# 4 0.0000 0.0000 0.0000 32.3522 0.0000 0.0000
# 5 0.0000 0.0000 0.0000 0.0000 -18.7254 0.0000
# 6 0.0000 0.0000 0.0000 0.0000 0.0000 19.1805
#
#
#
# Elastic Compliance Matrix: (Units=1/GPa)
#
#
# Indices 1 2 3 4 5 6 
#
# 1 0.018177 -0.001072 -0.001439 0.000000 0.000000 0.000000
# 2 -0.001072 0.011855 -0.004398 0.000000 0.000000 0.000000
# 3 -0.001439 -0.004398 0.020203 0.000000 0.000000 0.000000
# 4 0.000000 0.000000 0.000000 0.030910 0.000000 0.000000
# 5 0.000000 0.000000 0.000000 0.000000 -0.053403 0.000000
# 6 0.000000 0.000000 0.000000 0.000000 0.000000 0.052136
#
#
# Mechanical properties :
#
#
# Convention : Reuss Voigt Hill
#
# Bulk Modulus (GPa) = 27.45917 29.94877 28.70397
# Shear Modulus (GPa) = 47.24361 17.86991 32.55676
#
# Velocity S-wave (km/s) = 4.92152 3.02684 4.08553
# Velocity P-wave (km/s) = 6.80979 5.25073 6.08044
#
# Compressibility (1/GPa) = 0.03641770
#
# Stress axis : x y z
#
# Youngs Moduli (GPa) = 55.01550 84.35279 49.49662
#
# Poissons Ratio (x) = 0.09039 0.07121
# Poissons Ratio (y) = 0.05895 0.21771
# Poissons Ratio (z) = 0.07915 0.37102
#
# Static dielectric constant tensor:
#      x y z
#    x 1.692850 0.000000 0.000000 
#    y 0.000000 1.654860 0.000000 
#    z 0.000000 0.000000 1.687770 
# 
# From -- ./inp_files/25091.got.cif
#   From: 2010.05.17/outbox.cif.g08.bks.cpg/sg52_13_cif.got.tgz:25091.got - 2010.06.03 12:15:38.
