data_PCOD9409281
_publ_section_title
;
Structure prediction by ZEFSAII (Michael W. Deem and Ramdas Pophale) SiO2 
 PCOD9409281
Probable space group: P N N A
;
_chemical_formula_sum "Si O2"
_cell_formula_units_Z 64
_cell_length_a 9.155149
_cell_length_b 20.479139
_cell_length_c 16.027009
_cell_angle_alpha 90.000000
_cell_angle_beta 90.000000
_cell_angle_gamma 90.000000
_cell_volume 3004.897009
_symmetry_space_group_name_H-M "P N N A"
_symmetry_group_IT_number 52
_symmetry_cell_setting 'orthorhombic'
loop_
_space_group_symop_operation_xyz
x,y,z
1/2-x,-y,z
x,1/2-y,1/2-z
1/2-x,1/2+y,1/2-z
-x,-y,-z
1/2+x,y,-z
-x,1/2+y,1/2+z
1/2+x,1/2-y,1/2+z
loop_
_atom_site_type_symbol
_atom_site_label
_atom_site_fract_x
_atom_site_fract_y
_atom_site_fract_z
Si Si1 0.133468 0.150666 0.678112
Si Si2 0.935305 0.221349 0.336639
Si Si3 0.768632 0.925792 0.938012
Si Si4 0.434611 0.256378 0.396393
Si Si5 0.128210 0.453159 0.966971
Si Si6 0.283829 0.852788 0.395028
Si Si7 0.128180 0.629700 0.281981
Si Si8 0.946175 0.157300 0.046705
O O1 0.301729 0.171580 0.681629
O O2 0.095632 0.100519 0.603350
O O3 0.055258 0.218023 0.654149
O O4 0.043739 0.125515 0.758463
O O5 0.993978 0.250000 0.250000
O O6 0.899206 0.287192 0.387997
O O7 0.060188 0.180944 0.383053
O O8 0.683631 0.921395 0.849591
O O9 0.928352 0.893447 0.925598
O O10 0.750000 0.000000 0.966108
O O11 0.687511 0.881986 0.006995
O O12 0.324149 0.202193 0.432545
O O13 0.349139 0.302242 0.331442
O O14 0.502944 0.300333 0.467877
O O15 0.250000 0.500000 0.928725
O O16 0.197288 0.414042 0.044784
O O17 0.000000 0.500000 0.000000
O O18 0.216212 0.870917 0.304732
#
# Coordination Sequence:
#
# PCOD9409281 Si02
#       8
#     8   8   8   8   8   8   8   8
#     4  11  22  38  59  86 120 158 198 256 315 370
#     4  12  22  36  60  95 126 153 197 259 327 380
#     4  11  24  42  64  91 125 172 220 261 315 388
#     4  10  19  38  64  92 118 151 197 253 325 382
#     4  12  25  41  59  85 120 167 214 250 296 368
#     4  11  21  38  62  91 124 160 202 257 311 376
#     4  10  22  40  64  89 120 160 204 256 320 382
#     4  11  22  39  63  93 125 159 204 264 318 382
#
# _framework density 21.298568
#
# number of rings (size 3 to 8) (size 9 to 14) (size 15 to 20)
#    0.000    1.000    0.000   10.125    0.000    2.500 
#    0.000    1.250    0.000    3.000    0.000    0.000 
#    0.000    0.000    0.000    0.000    0.000    0.000 
#
# Total GULP energy -357563.377684 kJ/mol
# GULP energy per Si atom -5586.927776 kJ/mol
# Density = 2.125009 g / cm^3
# Si number density = 21.298568 Si / 1000 Ang^3
#
#
#
# Elastic Constant Matrix: (Units=GPa)
#
#
# Indices 1 2 3 4 5 6 
#
# 1 87.8968 22.2941 -8.6013 0.0000 0.0000 0.0000
# 2 22.2941 63.8666 36.0320 0.0000 0.0000 0.0000
# 3 -8.6013 36.0320 76.8940 0.0000 0.0000 0.0000
# 4 0.0000 0.0000 0.0000 17.1599 0.0000 0.0000
# 5 0.0000 0.0000 0.0000 0.0000 25.4579 0.0000
# 6 0.0000 0.0000 0.0000 0.0000 0.0000 28.6105
#
#
#
# Elastic Compliance Matrix: (Units=1/GPa)
#
#
# Indices 1 2 3 4 5 6 
#
# 1 0.013853 -0.007762 0.005187 0.000000 0.000000 0.000000
# 2 -0.007762 0.025634 -0.012880 0.000000 0.000000 0.000000
# 3 0.005187 -0.012880 0.019621 0.000000 0.000000 0.000000
# 4 0.000000 0.000000 0.000000 0.058276 0.000000 0.000000
# 5 0.000000 0.000000 0.000000 0.000000 0.039281 0.000000
# 6 0.000000 0.000000 0.000000 0.000000 0.000000 0.034952
#
#
# Mechanical properties :
#
#
# Convention : Reuss Voigt Hill
#
# Bulk Modulus (GPa) = 35.46460 36.45634 35.96047
# Shear Modulus (GPa) = 21.55861 26.17450 23.86655
#
# Velocity S-wave (km/s) = 3.18498 3.50942 3.35112
# Velocity P-wave (km/s) = 5.49661 5.79442 5.64748
#
# Compressibility (1/GPa) = 0.02819713
#
# Stress axis : x y z
#
# Youngs Moduli (GPa) = 72.18469 39.01090 50.96667
#
# Poissons Ratio (x) = 0.30281 -0.26436
# Poissons Ratio (y) = 0.56031 0.65646
# Poissons Ratio (z) = -0.37442 0.50247
#
# Static dielectric constant tensor:
#      x y z
#    x 1.797940 0.000000 0.000000 
#    y 0.000000 1.785620 0.000000 
#    z 0.000000 0.000000 1.780470 
# 
# From -- ./inp_files/31605.got.cif
#   From: 2010.05.17/outbox.cif.g08.bks.cpg/sg52_16_cif.got.tgz:31605.got - 2010.06.03 12:15:38.
