data_PCOD9409853
_publ_section_title
;
Structure prediction by ZEFSAII (Michael W. Deem and Ramdas Pophale) SiO2 
 PCOD9409853
Probable space group: P N N A
;
_chemical_formula_sum "Si O2"
_cell_formula_units_Z 48
_cell_length_a 8.940258
_cell_length_b 14.627920
_cell_length_c 17.434466
_cell_angle_alpha 90.000000
_cell_angle_beta 90.000000
_cell_angle_gamma 90.000000
_cell_volume 2280.033764
_symmetry_space_group_name_H-M "P N N A"
_symmetry_group_IT_number 52
_symmetry_cell_setting 'orthorhombic'
loop_
_space_group_symop_operation_xyz
x,y,z
1/2-x,-y,z
x,1/2-y,1/2-z
1/2-x,1/2+y,1/2-z
-x,-y,-z
1/2+x,y,-z
-x,1/2+y,1/2+z
1/2+x,1/2-y,1/2+z
loop_
_atom_site_type_symbol
_atom_site_label
_atom_site_fract_x
_atom_site_fract_y
_atom_site_fract_z
Si Si1 0.324763 0.811809 0.546010
Si Si2 0.430944 0.750000 0.250000
Si Si3 0.506075 0.156561 0.594412
Si Si4 0.873945 0.824334 0.180609
Si Si5 0.191450 0.900413 0.221508
Si Si6 0.017442 0.541232 0.137012
Si Si7 0.250000 0.500000 0.746518
O O1 0.155601 0.845740 0.554324
O O2 0.378193 0.791472 0.460381
O O3 0.340855 0.725944 0.601980
O O4 0.434229 0.889562 0.580874
O O5 0.513119 0.796390 0.322300
O O6 0.323458 0.828331 0.216374
O O7 0.566744 0.052997 0.599409
O O8 0.867554 0.750000 0.250000
O O9 0.760403 0.907141 0.198151
O O10 0.041570 0.865680 0.180365
O O11 0.140673 0.909137 0.311034
O O12 0.250000 0.000000 0.197756
O O13 0.893483 0.506724 0.198781
#
# Coordination Sequence:
#
# PCOD9409853 Si02
#       7
#     8   4   8   8   8   8   4
#     4  12  26  43  68 103 145 185 225 301 365 423
#     4  12  26  44  68  98 138 186 238 278 348 428
#     4  12  28  41  71 102 146 180 238 291 359 428
#     4  11  21  39  71  95 144 187 240 279 354 419
#     4  11  22  38  69 103 135 185 234 285 340 421
#     4  11  20  41  66 102 142 179 227 284 364 424
#     4  10  20  36  68 104 126 184 242 282 332 430
#
# _framework density 21.052320999999999
#
# number of rings (size 3 to 8) (size 9 to 14) (size 15 to 20)
#    0.000    0.667    7.500    0.500    8.167    0.000 
#    0.000    0.000    1.833    2.000    0.000    0.000 
#    0.000    0.000    0.000    0.000    0.000    0.000 
#
# Total GULP energy -268548.856102 kJ/mol
# GULP energy per Si atom -5594.767835 kJ/mol
# Density = 2.100440 g / cm^3
# Si number density = 21.052321 Si / 1000 Ang^3
#
#
#
# Elastic Constant Matrix: (Units=GPa)
#
#
# Indices 1 2 3 4 5 6 
#
# 1 53.1196 6.9377 8.7944 0.0000 0.0000 0.0000
# 2 6.9377 116.2609 24.0131 0.0000 0.0000 0.0000
# 3 8.7944 24.0131 81.8428 0.0000 0.0000 0.0000
# 4 0.0000 0.0000 0.0000 27.9766 0.0000 0.0000
# 5 0.0000 0.0000 0.0000 0.0000 21.1488 0.0000
# 6 0.0000 0.0000 0.0000 0.0000 0.0000 41.6025
#
#
#
# Elastic Compliance Matrix: (Units=1/GPa)
#
#
# Indices 1 2 3 4 5 6 
#
# 1 0.019230 -0.000767 -0.001841 0.000000 0.000000 0.000000
# 2 -0.000767 0.009187 -0.002613 0.000000 0.000000 0.000000
# 3 -0.001841 -0.002613 0.013183 0.000000 0.000000 0.000000
# 4 0.000000 0.000000 0.000000 0.035744 0.000000 0.000000
# 5 0.000000 0.000000 0.000000 0.000000 0.047284 0.000000
# 6 0.000000 0.000000 0.000000 0.000000 0.000000 0.024037
#
#
# Mechanical properties :
#
#
# Convention : Reuss Voigt Hill
#
# Bulk Modulus (GPa) = 32.09523 36.74597 34.42060
# Shear Modulus (GPa) = 29.49948 32.24412 30.87180
#
# Velocity S-wave (km/s) = 3.74738 3.91784 3.83356
# Velocity P-wave (km/s) = 5.83116 6.16104 5.99837
#
# Compressibility (1/GPa) = 0.03115728
#
# Stress axis : x y z
#
# Youngs Moduli (GPa) = 52.00076 108.85139 75.85482
#
# Poissons Ratio (x) = 0.08352 0.13967
# Poissons Ratio (y) = 0.03990 0.19821
# Poissons Ratio (z) = 0.09575 0.28443
#
# Static dielectric constant tensor:
#      x y z
#    x 1.777420 0.000000 0.000000 
#    y 0.000000 1.783610 0.000000 
#    z 0.000000 0.000000 1.762720 
# 
# From -- ./inp_files/31293.got.cif
#   From: 2010.05.17/outbox.cif.g08.bks.cpg/sg52_16_cif.got.tgz:31293.got - 2010.06.03 12:15:38.
