data_PCOD9409414
_publ_section_title
;
Structure prediction by ZEFSAII (Michael W. Deem and Ramdas Pophale) SiO2 
 PCOD9409414
Probable space group: P N N A
;
_chemical_formula_sum "Si O2"
_cell_formula_units_Z 52
_cell_length_a 14.854482
_cell_length_b 7.115575
_cell_length_c 20.892837
_cell_angle_alpha 90.000000
_cell_angle_beta 90.000000
_cell_angle_gamma 90.000000
_cell_volume 2208.334862
_symmetry_space_group_name_H-M "P N N A"
_symmetry_group_IT_number 52
_symmetry_cell_setting 'orthorhombic'
loop_
_space_group_symop_operation_xyz
x,y,z
1/2-x,-y,z
x,1/2-y,1/2-z
1/2-x,1/2+y,1/2-z
-x,-y,-z
1/2+x,y,-z
-x,1/2+y,1/2+z
1/2+x,1/2-y,1/2+z
loop_
_atom_site_type_symbol
_atom_site_label
_atom_site_fract_x
_atom_site_fract_y
_atom_site_fract_z
Si Si1 0.924567 0.297285 0.677761
Si Si2 0.240173 0.272212 0.541725
Si Si3 0.250000 0.000000 0.742867
Si Si4 0.122395 0.143168 0.845542
Si Si5 0.385120 0.310766 0.859187
Si Si6 0.253259 0.270598 0.396075
Si Si7 0.076604 0.241389 0.173996
O O1 0.894228 0.250000 0.750000
O O2 0.852121 0.215095 0.628614
O O3 0.924502 0.518626 0.661613
O O4 0.030682 0.257347 0.674339
O O5 0.250000 0.500000 0.540515
O O6 0.156396 0.257309 0.589985
O O7 0.325219 0.175050 0.576624
O O8 0.232285 0.213449 0.468689
O O9 0.297065 0.859461 0.794847
O O10 0.330930 0.080660 0.697490
O O11 0.111354 0.917321 0.850781
O O12 0.492186 0.348738 0.857795
O O13 0.250000 0.500000 0.394385
O O14 0.174655 0.197944 0.349725
O O15 0.065059 0.250000 0.250000
#
# Coordination Sequence:
#
# PCOD9409414 Si02
#       7
#     8   8   4   8   8   8   8
#     4  10  21  34  56  87 109 142 189 240 281 329
#     4   9  18  33  53  79 110 144 179 229 283 337
#     4  12  20  32  56  80 118 146 178 228 284 352
#     4  10  20  31  53  82 113 137 174 230 287 331
#     4  10  20  33  53  81 110 143 179 222 286 337
#     4   9  19  36  56  78 109 146 193 233 274 330
#     4  10  20  36  57  82 110 147 187 232 285 339
#
# _framework density 23.547153999999999
#
# number of rings (size 3 to 8) (size 9 to 14) (size 15 to 20)
#    0.000    2.154    2.308    2.769    2.154    1.231 
#    0.000    6.154    3.385    0.923    0.000    0.000 
#    0.000    0.000    0.000    0.000    0.000    0.000 
#
# Total GULP energy -290156.751235 kJ/mol
# GULP energy per Si atom -5579.937524 kJ/mol
# Density = 2.349356 g / cm^3
# Si number density = 23.547154 Si / 1000 Ang^3
#
#
#
# Elastic Constant Matrix: (Units=GPa)
#
#
# Indices 1 2 3 4 5 6 
#
# 1 174.3759 2.9122 56.5225 0.0000 0.0000 0.0000
# 2 2.9122 97.2784 -22.8486 0.0000 0.0000 0.0000
# 3 56.5225 -22.8486 87.8724 0.0000 0.0000 0.0000
# 4 0.0000 0.0000 0.0000 11.6048 0.0000 0.0000
# 5 0.0000 0.0000 0.0000 0.0000 24.2248 0.0000
# 6 0.0000 0.0000 0.0000 0.0000 0.0000 34.8374
#
#
#
# Elastic Compliance Matrix: (Units=1/GPa)
#
#
# Indices 1 2 3 4 5 6 
#
# 1 0.007428 -0.001432 -0.005150 0.000000 0.000000 0.000000
# 2 -0.001432 0.011225 0.003840 0.000000 0.000000 0.000000
# 3 -0.005150 0.003840 0.015691 0.000000 0.000000 0.000000
# 4 0.000000 0.000000 0.000000 0.086171 0.000000 0.000000
# 5 0.000000 0.000000 0.000000 0.000000 0.041280 0.000000
# 6 0.000000 0.000000 0.000000 0.000000 0.000000 0.028705
#
#
# Mechanical properties :
#
#
# Convention : Reuss Voigt Hill
#
# Bulk Modulus (GPa) = 34.65164 48.07767 41.36465
# Shear Modulus (GPa) = 24.31847 35.66277 29.99062
#
# Velocity S-wave (km/s) = 3.21714 3.89591 3.57268
# Velocity P-wave (km/s) = 5.34301 6.37961 5.88418
#
# Compressibility (1/GPa) = 0.02885867
#
# Stress axis : x y z
#
# Youngs Moduli (GPa) = 134.62386 89.09068 63.72902
#
# Poissons Ratio (x) = 0.12759 0.32823
# Poissons Ratio (y) = 0.19279 -0.24470
# Poissons Ratio (z) = 0.69336 -0.34209
#
# Static dielectric constant tensor:
#      x y z
#    x 1.926320 0.000000 0.000000 
#    y 0.000000 2.075240 0.000000 
#    z 0.000000 0.000000 1.839990 
# 
# From -- ./inp_files/37272.got.cif
#   From: 2010.05.17/outbox.cif.g08.bks.cpg/sg52_19_cif.got.tgz:37272.got - 2010.06.03 12:15:38.
