data_PCOD9409867
_publ_section_title
;
Structure prediction by ZEFSAII (Michael W. Deem and Ramdas Pophale) SiO2 
 PCOD9409867
Probable space group: P N N A
;
_chemical_formula_sum "Si O2"
_cell_formula_units_Z 64
_cell_length_a 13.831331
_cell_length_b 16.746138
_cell_length_c 14.999342
_cell_angle_alpha 90.000000
_cell_angle_beta 90.000000
_cell_angle_gamma 90.000000
_cell_volume 3474.168258
_symmetry_space_group_name_H-M "P N N A"
_symmetry_group_IT_number 52
_symmetry_cell_setting 'orthorhombic'
loop_
_space_group_symop_operation_xyz
x,y,z
1/2-x,-y,z
x,1/2-y,1/2-z
1/2-x,1/2+y,1/2-z
-x,-y,-z
1/2+x,y,-z
-x,1/2+y,1/2+z
1/2+x,1/2-y,1/2+z
loop_
_atom_site_type_symbol
_atom_site_label
_atom_site_fract_x
_atom_site_fract_y
_atom_site_fract_z
Si Si1 0.146070 0.354066 0.849876
Si Si2 0.788281 0.591108 0.634075
Si Si3 0.463201 0.044752 0.413070
Si Si4 0.828369 0.571629 0.830408
Si Si5 0.968273 0.908375 0.997625
Si Si6 0.836782 0.837703 0.143224
Si Si7 0.721188 0.860136 0.511530
Si Si8 0.167639 0.822940 0.991592
O O1 0.045161 0.397239 0.873744
O O2 0.141364 0.257651 0.862801
O O3 0.170642 0.363768 0.745700
O O4 0.228044 0.385503 0.918684
O O5 0.750000 0.500000 0.632257
O O6 0.813257 0.612617 0.735492
O O7 0.884056 0.600176 0.575068
O O8 0.706350 0.642020 0.585066
O O9 0.369061 0.091274 0.449495
O O10 0.500000 0.000000 0.500000
O O11 0.428056 0.976283 0.344081
O O12 0.750000 0.500000 0.832979
O O13 0.804258 0.629407 0.913028
O O14 0.921873 0.882981 0.091705
O O15 0.059655 0.852813 0.976998
O O16 0.000000 0.000000 0.000000
O O17 0.738781 0.852701 0.087249
O O18 0.682552 0.771303 0.497220
#
# Coordination Sequence:
#
# PCOD9409867 Si02
#       8
#     8   8   8   8   8   8   8   8
#     4  10  20  40  61  84 119 157 199 247 288 356
#     4  10  20  37  57  84 121 152 190 247 293 349
#     4  11  21  36  60  87 116 150 194 242 298 351
#     4   9  20  36  56  85 115 147 191 240 291 350
#     4  11  21  35  59  86 120 154 197 243 299 351
#     4   9  22  38  59  88 117 156 204 240 293 358
#     4  10  21  39  60  82 115 153 197 244 295 352
#     4  10  21  39  60  82 116 158 195 244 298 350
#
# _framework density 18.421675
#
# number of rings (size 3 to 8) (size 9 to 14) (size 15 to 20)
#    0.000    2.000    2.500    0.750    1.750    1.500 
#    2.250    1.250    0.000    0.000    0.000    0.000 
#    0.000    0.000    0.000    0.000    0.000    0.000 
#
# Total GULP energy -356878.235638 kJ/mol
# GULP energy per Si atom -5576.222432 kJ/mol
# Density = 1.837975 g / cm^3
# Si number density = 18.421675 Si / 1000 Ang^3
#
#
#
# Elastic Constant Matrix: (Units=GPa)
#
#
# Indices 1 2 3 4 5 6 
#
# 1 95.3682 29.3609 39.2421 0.0000 0.0000 0.0000
# 2 29.3609 38.3641 26.7150 0.0000 0.0000 0.0000
# 3 39.2421 26.7150 137.2212 0.0000 0.0000 0.0000
# 4 0.0000 0.0000 0.0000 27.6093 0.0000 0.0000
# 5 0.0000 0.0000 0.0000 0.0000 16.7703 0.0000
# 6 0.0000 0.0000 0.0000 0.0000 0.0000 13.5057
#
#
#
# Elastic Compliance Matrix: (Units=1/GPa)
#
#
# Indices 1 2 3 4 5 6 
#
# 1 0.014302 -0.009368 -0.002266 0.000000 0.000000 0.000000
# 2 -0.009368 0.036290 -0.004386 0.000000 0.000000 0.000000
# 3 -0.002266 -0.004386 0.008790 0.000000 0.000000 0.000000
# 4 0.000000 0.000000 0.000000 0.036220 0.000000 0.000000
# 5 0.000000 0.000000 0.000000 0.000000 0.059629 0.000000
# 6 0.000000 0.000000 0.000000 0.000000 0.000000 0.074043
#
#
# Mechanical properties :
#
#
# Convention : Reuss Voigt Hill
#
# Bulk Modulus (GPa) = 36.57498 51.28772 43.93135
# Shear Modulus (GPa) = 18.48929 23.28610 20.88769
#
# Velocity S-wave (km/s) = 3.17151 3.55922 3.37094
# Velocity P-wave (km/s) = 5.77137 6.69269 6.24903
#
# Compressibility (1/GPa) = 0.02734109
#
# Stress axis : x y z
#
# Youngs Moduli (GPa) = 69.91919 27.55616 113.77144
#
# Poissons Ratio (x) = 0.25814 0.25785
# Poissons Ratio (y) = 0.65498 0.49902
# Poissons Ratio (z) = 0.15846 0.12087
#
# Static dielectric constant tensor:
#      x y z
#    x 1.657430 0.000000 0.000000 
#    y 0.000000 1.651080 0.000000 
#    z 0.000000 0.000000 1.640920 
# 
# From -- ./inp_files/26362.got.cif
#   From: 2010.05.17/outbox.cif.g08.bks.cpg/sg52_14_cif.got.tgz:26362.got - 2010.06.03 12:15:38.
