data_PCOD9409363
_publ_section_title
;
Structure prediction by ZEFSAII (Michael W. Deem and Ramdas Pophale) SiO2 
 PCOD9409363
Probable space group: P N N A
;
_chemical_formula_sum "Si O2"
_cell_formula_units_Z 40
_cell_length_a 14.167980
_cell_length_b 11.142876
_cell_length_c 11.430532
_cell_angle_alpha 90.000000
_cell_angle_beta 90.000000
_cell_angle_gamma 90.000000
_cell_volume 1804.561454
_symmetry_space_group_name_H-M "P N N A"
_symmetry_group_IT_number 52
_symmetry_cell_setting 'orthorhombic'
loop_
_space_group_symop_operation_xyz
x,y,z
1/2-x,-y,z
x,1/2-y,1/2-z
1/2-x,1/2+y,1/2-z
-x,-y,-z
1/2+x,y,-z
-x,1/2+y,1/2+z
1/2+x,1/2-y,1/2+z
loop_
_atom_site_type_symbol
_atom_site_label
_atom_site_fract_x
_atom_site_fract_y
_atom_site_fract_z
Si Si1 0.300781 0.620025 0.072855
Si Si2 0.986462 0.115310 0.411926
Si Si3 0.750000 0.500000 0.391862
Si Si4 0.858596 0.189349 0.956597
Si Si5 0.525533 0.750000 0.750000
Si Si6 0.869751 0.926936 0.314307
O O1 0.250000 0.500000 0.121078
O O2 0.405753 0.642900 0.121964
O O3 0.231091 0.731011 0.081496
O O4 0.313353 0.596641 0.933161
O O5 0.928906 0.224839 0.468587
O O6 0.917162 0.058719 0.315126
O O7 0.000000 0.000000 0.500000
O O8 0.820953 0.423428 0.471583
O O9 0.808064 0.585003 0.302257
O O10 0.914040 0.167600 0.836270
O O11 0.455525 0.835259 0.681126
#
# Coordination Sequence:
#
# PCOD9409363 Si02
#       6
#     8   8   4   8   4   8
#     4  11  18  39  72 101 125 172 244 284 318 410
#     4  10  19  40  69 102 125 175 239 290 318 414
#     4  12  28  42  66 108 144 174 220 302 372 426
#     4  12  25  44  64  98 145 178 229 284 355 426
#     4  12  24  44  66  88 140 190 218 286 356 412
#     4  11  21  42  71  98 130 176 230 287 356 398
#
# _framework density 22.166048
#
# number of rings (size 3 to 8) (size 9 to 14) (size 15 to 20)
#    0.000    0.800    9.000    1.200    0.000    3.200 
#    5.400    0.000    0.000    0.000    0.000    0.000 
#    0.000    0.000    0.000    0.000    0.000    0.000 
#
# Total GULP energy -223373.577989 kJ/mol
# GULP energy per Si atom -5584.339450 kJ/mol
# Density = 2.211560 g / cm^3
# Si number density = 22.166048 Si / 1000 Ang^3
#
#
#
# Elastic Constant Matrix: (Units=GPa)
#
#
# Indices 1 2 3 4 5 6 
#
# 1 109.0234 9.1601 6.3772 0.0000 0.0000 0.0000
# 2 9.1601 44.4156 3.4067 0.0000 0.0000 0.0000
# 3 6.3772 3.4067 42.5865 0.0000 0.0000 0.0000
# 4 0.0000 0.0000 0.0000 14.5687 0.0000 0.0000
# 5 0.0000 0.0000 0.0000 0.0000 -20.9821 0.0000
# 6 0.0000 0.0000 0.0000 0.0000 0.0000 39.1198
#
#
#
# Elastic Compliance Matrix: (Units=1/GPa)
#
#
# Indices 1 2 3 4 5 6 
#
# 1 0.009401 -0.001842 -0.001260 0.000000 0.000000 0.000000
# 2 -0.001842 0.023015 -0.001565 0.000000 0.000000 0.000000
# 3 -0.001260 -0.001565 0.023796 0.000000 0.000000 0.000000
# 4 0.000000 0.000000 0.000000 0.068640 0.000000 0.000000
# 5 0.000000 0.000000 0.000000 0.000000 -0.047660 0.000000
# 6 0.000000 0.000000 0.000000 0.000000 0.000000 0.025562
#
#
# Mechanical properties :
#
#
# Convention : Reuss Voigt Hill
#
# Bulk Modulus (GPa) = 21.33307 25.99039 23.66173
# Shear Modulus (GPa) = 39.14985 18.34674 28.74829
#
# Velocity S-wave (km/s) = 4.20719 2.88009 3.60523
# Velocity P-wave (km/s) = 5.76591 4.77605 5.29416
#
# Compressibility (1/GPa) = 0.04687557
#
# Stress axis : x y z
#
# Youngs Moduli (GPa) = 106.37351 43.45073 42.02463
#
# Poissons Ratio (x) = 0.08004 0.05297
# Poissons Ratio (y) = 0.19595 0.06578
# Poissons Ratio (z) = 0.13407 0.06801
#
# Static dielectric constant tensor:
#      x y z
#    x 1.850260 0.000000 0.000000 
#    y 0.000000 1.854610 0.000000 
#    z 0.000000 0.000000 1.881530 
# 
# From -- ./inp_files/19302.got.cif
#   From: 2010.05.17/outbox.cif.g08.bks.cpg/sg52_10_cif.got.tgz:19302.got - 2010.06.03 12:15:38.
