data_PCOD9409333
_publ_section_title
;
Structure prediction by ZEFSAII (Michael W. Deem and Ramdas Pophale) SiO2 
 PCOD9409333
Probable space group: P N N A
;
_chemical_formula_sum "Si O2"
_cell_formula_units_Z 32
_cell_length_a 5.386920
_cell_length_b 8.164885
_cell_length_c 30.548748
_cell_angle_alpha 90.000000
_cell_angle_beta 90.000000
_cell_angle_gamma 90.000000
_cell_volume 1343.643372
_symmetry_space_group_name_H-M "P N N A"
_symmetry_group_IT_number 52
_symmetry_cell_setting 'orthorhombic'
loop_
_space_group_symop_operation_xyz
x,y,z
1/2-x,-y,z
x,1/2-y,1/2-z
1/2-x,1/2+y,1/2-z
-x,-y,-z
1/2+x,y,-z
-x,1/2+y,1/2+z
1/2+x,1/2-y,1/2+z
loop_
_atom_site_type_symbol
_atom_site_label
_atom_site_fract_x
_atom_site_fract_y
_atom_site_fract_z
Si Si1 0.250000 0.000000 0.628595
Si Si2 0.060196 0.750000 0.250000
Si Si3 0.750000 0.000000 0.684783
Si Si4 0.750000 0.000000 0.190511
Si Si5 0.928566 0.683708 0.517255
Si Si6 0.597156 0.654519 0.394740
O O1 0.254778 0.175372 0.605227
O O2 0.501306 0.003663 0.656732
O O3 0.230184 0.653692 0.216426
O O4 0.892615 0.626555 0.278609
O O5 0.931114 0.096296 0.155841
O O6 0.194337 0.763957 0.506247
O O7 0.882228 0.678990 0.569691
O O8 0.000000 0.500000 0.500000
O O9 0.750000 0.500000 0.413018
#
# Coordination Sequence:
#
# PCOD9409333 Si02
#       6
#     4   4   4   4   8   8
#     4  12  27  50  66 109 140 192 234 309 350 453
#     4  12  26  40  80  98 148 192 256 308 372 436
#     4  12  28  48  70  99 149 179 256 299 370 420
#     4  10  23  46  70 106 139 197 240 300 368 425
#     4  10  19  39  68 102 136 179 229 287 352 432
#     4  10  22  44  74 101 145 184 239 287 369 424
#
# _framework density 23.815842
#
# number of rings (size 3 to 8) (size 9 to 14) (size 15 to 20)
#    0.750    0.500    5.000    0.750    3.500    3.000 
#    9.000    1.250    0.000    0.000    0.000    0.000 
#    0.000    0.000    0.000    0.000    0.000    0.000 
#
# Total GULP energy -178526.560398 kJ/mol
# GULP energy per Si atom -5578.955012 kJ/mol
# Density = 2.376164 g / cm^3
# Si number density = 23.815842 Si / 1000 Ang^3
#
#
#
# Elastic Constant Matrix: (Units=GPa)
#
#
# Indices 1 2 3 4 5 6 
#
# 1 127.1864 23.6176 46.7288 0.0000 0.0000 0.0000
# 2 23.6176 137.2672 45.1939 0.0000 0.0000 0.0000
# 3 46.7288 45.1939 146.5571 0.0000 0.0000 0.0000
# 4 0.0000 0.0000 0.0000-2213.2981 0.0000 0.0000
# 5 0.0000 0.0000 0.0000 0.0000 89.6659 0.0000
# 6 0.0000 0.0000 0.0000 0.0000 0.0000 30.2358
#
#
#
# Elastic Compliance Matrix: (Units=1/GPa)
#
#
# Indices 1 2 3 4 5 6 
#
# 1 0.008961 -0.000669 -0.002651 0.000000 0.000000 0.000000
# 2 -0.000669 0.008158 -0.002302 0.000000 0.000000 0.000000
# 3 -0.002651 -0.002302 0.008378 0.000000 0.000000 0.000000
# 4 0.000000 0.000000 0.000000 -0.000452 0.000000 0.000000
# 5 0.000000 0.000000 0.000000 0.000000 0.011153 0.000000
# 6 0.000000 0.000000 0.000000 0.000000 0.000000 0.033073
#
#
# Mechanical properties :
#
#
# Convention : Reuss Voigt Hill
#
# Bulk Modulus (GPa) = 70.16107 71.34349 70.75228
# Shear Modulus (GPa) = 58.63956 -398.98125 -170.17085
#
# Velocity S-wave (km/s) = 4.96745 -12.95729 -8.46215
# Velocity P-wave (km/s) = 7.90092 13.92242 8.10584
#
# Compressibility (1/GPa) = 0.01425292
#
# Stress axis : x y z
#
# Youngs Moduli (GPa) = 111.59977 122.57573 119.35374
#
# Poissons Ratio (x) = 0.08200 0.31637
# Poissons Ratio (y) = 0.07466 0.27481
# Poissons Ratio (z) = 0.29582 0.28222
#
# Static dielectric constant tensor:
#      x y z
#    x 1.980030 0.000000 0.000000 
#    y 0.000000 1.898060 0.000000 
#    z 0.000000 0.000000 1.919880 
# 
# From -- ./inp_files/43539.got.cif
#   From: 2010.05.17/outbox.cif.g08.bks.cpg/sg52_22_cif.got.tgz:43539.got - 2010.06.03 12:15:38.
