data_PCOD9409068
_publ_section_title
;
Structure prediction by ZEFSAII (Michael W. Deem and Ramdas Pophale) SiO2 
 PCOD9409068
Probable space group: P N N A
;
_chemical_formula_sum "Si O2"
_cell_formula_units_Z 32
_cell_length_a 12.071776
_cell_length_b 9.073165
_cell_length_c 12.266650
_cell_angle_alpha 90.000000
_cell_angle_beta 90.000000
_cell_angle_gamma 90.000000
_cell_volume 1343.556551
_symmetry_space_group_name_H-M "P N N A"
_symmetry_group_IT_number 52
_symmetry_cell_setting 'orthorhombic'
loop_
_space_group_symop_operation_xyz
x,y,z
1/2-x,-y,z
x,1/2-y,1/2-z
1/2-x,1/2+y,1/2-z
-x,-y,-z
1/2+x,y,-z
-x,1/2+y,1/2+z
1/2+x,1/2-y,1/2+z
loop_
_atom_site_type_symbol
_atom_site_label
_atom_site_fract_x
_atom_site_fract_y
_atom_site_fract_z
Si Si1 0.496548 0.449254 0.151310
Si Si2 0.012822 0.941940 0.879146
Si Si3 0.371469 0.312176 0.969314
Si Si4 0.316872 0.793868 0.360460
O O1 0.520369 0.443551 0.279854
O O2 0.463536 0.319950 0.068183
O O3 0.386549 0.555043 0.145263
O O4 0.597043 0.542196 0.098277
O O5 0.906820 0.836133 0.861779
O O6 0.112764 0.825163 0.888697
O O7 0.000000 0.000000 0.000000
O O8 0.257901 0.298824 0.033502
O O9 0.249786 0.750000 0.250000
#
# Coordination Sequence:
#
# PCOD9409068 Si02
#       4
#     8   8   8   8
#     4   9  20  38  59  85 112 153 197 246 292 352
#     4  10  22  37  57  85 124 151 192 244 300 356
#     4  10  19  35  63  79 113 154 194 240 300 340
#     4   9  19  35  59  87 107 145 201 244 282 354
#
# _framework density 23.817381000000001
#
# number of rings (size 3 to 8) (size 9 to 14) (size 15 to 20)
#    0.000    2.500    0.000    3.000    3.500    1.000 
#    0.000    0.000   55.000    0.000    0.000    0.000 
#    0.000    0.000    0.000    0.000    0.000    0.000 
#
# Total GULP energy -178542.988788 kJ/mol
# GULP energy per Si atom -5579.468400 kJ/mol
# Density = 2.376317 g / cm^3
# Si number density = 23.817381 Si / 1000 Ang^3
#
#
#
# Elastic Constant Matrix: (Units=GPa)
#
#
# Indices 1 2 3 4 5 6 
#
# 1 49.1079 -19.0166 7.8483 0.0000 0.0000 0.0000
# 2 -19.0166 32.5903 14.7298 0.0000 0.0000 0.0000
# 3 7.8483 14.7298 163.5108 0.0000 0.0000 0.0000
# 4 0.0000 0.0000 0.0000 39.3082 0.0000 0.0000
# 5 0.0000 0.0000 0.0000 0.0000 41.7100 0.0000
# 6 0.0000 0.0000 0.0000 0.0000 0.0000 -6.2968
#
#
#
# Elastic Compliance Matrix: (Units=1/GPa)
#
#
# Indices 1 2 3 4 5 6 
#
# 1 0.027557 0.017386 -0.002889 0.000000 0.000000 0.000000
# 2 0.017386 0.042955 -0.004704 0.000000 0.000000 0.000000
# 3 -0.002889 -0.004704 0.006678 0.000000 0.000000 0.000000
# 4 0.000000 0.000000 0.000000 0.025440 0.000000 0.000000
# 5 0.000000 0.000000 0.000000 0.000000 0.023975 0.000000
# 6 0.000000 0.000000 0.000000 0.000000 0.000000 -0.158810
#
#
# Mechanical properties :
#
#
# Convention : Reuss Voigt Hill
#
# Bulk Modulus (GPa) = 10.33319 28.03690 19.18504
# Shear Modulus (GPa) = -256.00031 31.05411 -112.47310
#
# Velocity S-wave (km/s) = -10.37873 3.61479 -6.87936
# Velocity P-wave (km/s) = 11.80153 5.40550 7.41811
#
# Compressibility (1/GPa) = 0.09677558
#
# Stress axis : x y z
#
# Youngs Moduli (GPa) = 36.28783 23.28040 149.74033
#
# Poissons Ratio (x) = -0.40474 0.43258
# Poissons Ratio (y) = -0.63089 0.70438
# Poissons Ratio (z) = 0.10483 0.10951
#
# Static dielectric constant tensor:
#      x y z
#    x 7.506890 0.000000 0.000000 
#    y 0.000000 1.983520 0.000000 
#    z 0.000000 0.000000 1.984070 
# 
# From -- ./inp_files/9549.got.cif
#   From: 2010.05.17/outbox.cif.g08.bks.cpg/sg52_5_cif.got.tgz:9549.got - 2010.06.03 12:15:38.
