data_PCOD9409734
_publ_section_title
;
Structure prediction by ZEFSAII (Michael W. Deem and Ramdas Pophale) SiO2 
 PCOD9409734
Probable space group: P N N A
;
_chemical_formula_sum "Si O2"
_cell_formula_units_Z 48
_cell_length_a 10.959933
_cell_length_b 8.417323
_cell_length_c 26.989247
_cell_angle_alpha 90.000000
_cell_angle_beta 90.000000
_cell_angle_gamma 90.000000
_cell_volume 2489.846996
_symmetry_space_group_name_H-M "P N N A"
_symmetry_group_IT_number 52
_symmetry_cell_setting 'orthorhombic'
loop_
_space_group_symop_operation_xyz
x,y,z
1/2-x,-y,z
x,1/2-y,1/2-z
1/2-x,1/2+y,1/2-z
-x,-y,-z
1/2+x,y,-z
-x,1/2+y,1/2+z
1/2+x,1/2-y,1/2+z
loop_
_atom_site_type_symbol
_atom_site_label
_atom_site_fract_x
_atom_site_fract_y
_atom_site_fract_z
Si Si1 0.098614 0.266302 0.494080
Si Si2 0.088695 0.739940 0.906727
Si Si3 0.750000 0.000000 0.558020
Si Si4 0.101515 0.314938 0.803142
Si Si5 0.386349 0.195218 0.698077
Si Si6 0.491799 0.608124 0.906223
Si Si7 0.250000 0.000000 0.951789
O O1 0.206221 0.146098 0.476691
O O2 0.031406 0.193487 0.541732
O O3 0.147285 0.433654 0.512150
O O4 0.011407 0.279024 0.447304
O O5 0.051439 0.769223 0.850041
O O6 0.097433 0.547502 0.907596
O O7 0.203698 0.849363 0.920249
O O8 0.631799 0.952358 0.590592
O O9 0.053174 0.250000 0.750000
O O10 0.242723 0.259618 0.806172
O O11 0.104727 0.505701 0.800494
O O12 0.035805 0.290417 0.856528
O O13 0.437003 0.250000 0.750000
#
# Coordination Sequence:
#
# PCOD9409734 Si02
#       7
#     8   8   4   8   8   8   4
#     4  11  21  35  53  79 108 141 181 224 273 323
#     4  10  21  34  51  77 106 140 179 217 263 322
#     4  10  20  36  58  76 104 146 188 226 266 322
#     4   9  18  32  52  78 103 128 167 216 263 314
#     4   9  18  32  50  74 104 135 166 207 261 319
#     4  10  20  36  57  79 105 141 184 224 266 323
#     4  12  22  32  50  78 116 146 174 222 274 324
#
# _framework density 19.278292
#
# number of rings (size 3 to 8) (size 9 to 14) (size 15 to 20)
#    0.000    2.000    0.000    5.500    0.000    6.667 
#    0.000    0.000    0.000    9.000    0.000    2.333 
#    0.000    0.000    0.000    0.000    0.000    0.000 
#
# Total GULP energy -267542.111241 kJ/mol
# GULP energy per Si atom -5573.793984 kJ/mol
# Density = 1.923441 g / cm^3
# Si number density = 19.278292 Si / 1000 Ang^3
#
#
#
# Elastic Constant Matrix: (Units=GPa)
#
#
# Indices 1 2 3 4 5 6 
#
# 1 56.1351 22.8937 45.1747 0.0000 0.0000 0.0000
# 2 22.8937 33.4500 39.5047 0.0000 0.0000 0.0000
# 3 45.1747 39.5047 204.3742 0.0000 0.0000 0.0000
# 4 0.0000 0.0000 0.0000 31.8290 0.0000 0.0000
# 5 0.0000 0.0000 0.0000 0.0000 22.7718 0.0000
# 6 0.0000 0.0000 0.0000 0.0000 0.0000 16.8834
#
#
#
# Elastic Compliance Matrix: (Units=1/GPa)
#
#
# Indices 1 2 3 4 5 6 
#
# 1 0.026055 -0.014294 -0.002996 0.000000 0.000000 0.000000
# 2 -0.014294 0.046580 -0.005844 0.000000 0.000000 0.000000
# 3 -0.002996 -0.005844 0.006685 0.000000 0.000000 0.000000
# 4 0.000000 0.000000 0.000000 0.031418 0.000000 0.000000
# 5 0.000000 0.000000 0.000000 0.000000 0.043914 0.000000
# 6 0.000000 0.000000 0.000000 0.000000 0.000000 0.059230
#
#
# Mechanical properties :
#
#
# Convention : Reuss Voigt Hill
#
# Bulk Modulus (GPa) = 30.25571 56.56727 43.41149
# Shear Modulus (GPa) = 18.43878 26.72259 22.58069
#
# Velocity S-wave (km/s) = 3.09601 3.72714 3.42614
# Velocity P-wave (km/s) = 5.33935 6.92303 6.18211
#
# Compressibility (1/GPa) = 0.03305161
#
# Stress axis : x y z
#
# Youngs Moduli (GPa) = 38.38069 21.46824 149.58979
#
# Poissons Ratio (x) = 0.30686 0.44820
# Poissons Ratio (y) = 0.54860 0.87425
# Poissons Ratio (z) = 0.11500 0.12547
#
# Static dielectric constant tensor:
#      x y z
#    x 1.711610 0.000000 0.000000 
#    y 0.000000 1.780510 0.000000 
#    z 0.000000 0.000000 1.709280 
# 
# From -- ./inp_files/40194.got.cif
#   From: 2010.05.17/outbox.cif.g08.bks.cpg/sg52_21_cif.got.tgz:40194.got - 2010.06.03 12:15:38.
