data_PCOD9409884
_publ_section_title
;
Structure prediction by ZEFSAII (Michael W. Deem and Ramdas Pophale) SiO2 
 PCOD9409884
Probable space group: P N N A
;
_chemical_formula_sum "Si O2"
_cell_formula_units_Z 60
_cell_length_a 14.015001
_cell_length_b 14.833507
_cell_length_c 15.634923
_cell_angle_alpha 90.000000
_cell_angle_beta 90.000000
_cell_angle_gamma 90.000000
_cell_volume 3250.369400
_symmetry_space_group_name_H-M "P N N A"
_symmetry_group_IT_number 52
_symmetry_cell_setting 'orthorhombic'
loop_
_space_group_symop_operation_xyz
x,y,z
1/2-x,-y,z
x,1/2-y,1/2-z
1/2-x,1/2+y,1/2-z
-x,-y,-z
1/2+x,y,-z
-x,1/2+y,1/2+z
1/2+x,1/2-y,1/2+z
loop_
_atom_site_type_symbol
_atom_site_label
_atom_site_fract_x
_atom_site_fract_y
_atom_site_fract_z
Si Si1 0.903973 0.796916 0.046575
Si Si2 0.815133 0.412785 0.717682
Si Si3 0.362026 0.368477 0.093144
Si Si4 0.250000 0.500000 0.974826
Si Si5 0.795096 0.320023 0.545562
Si Si6 0.044901 0.915599 0.949200
Si Si7 0.073433 0.405295 0.881636
Si Si8 0.962400 0.945823 0.185344
O O1 0.916139 0.699044 0.089573
O O2 0.919992 0.870930 0.121110
O O3 0.799628 0.798254 0.005773
O O4 0.975441 0.831461 0.970760
O O5 0.750000 0.500000 0.730991
O O6 0.828139 0.364632 0.808548
O O7 0.771715 0.356378 0.639885
O O8 0.922795 0.436028 0.688280
O O9 0.286850 0.420946 0.035834
O O10 0.362587 0.266796 0.059086
O O11 0.462962 0.421199 0.090324
O O12 0.158785 0.463430 0.922226
O O13 0.854598 0.392554 0.491890
O O14 0.056860 0.954804 0.853783
O O15 0.000000 0.000000 0.000000
O O16 0.074488 0.424235 0.780138
#
# Coordination Sequence:
#
# PCOD9409884 Si02
#       8
#     8   8   8   4   8   8   8   8
#     4  11  21  37  62  94 130 168 214 262 321 396
#     4  11  21  37  64  94 127 160 210 271 334 388
#     4  11  23  43  63  91 122 167 220 272 324 391
#     4  12  24  44  62  92 114 164 234 262 330 382
#     4  12  22  35  65  93 128 170 211 264 330 394
#     4  10  20  37  58  94 130 160 209 260 328 388
#     4  11  23  41  68  86 127 176 220 270 317 393
#     4  10  22  39  60  95 131 169 213 262 329 391
#
# _framework density 18.459441000000002
#
# number of rings (size 3 to 8) (size 9 to 14) (size 15 to 20)
#    0.000    1.067    6.000    2.000    1.867    3.200 
#    0.000    0.000    0.000    0.000    0.000    0.000 
#    0.000    0.000    0.000    0.000    0.000    0.000 
#
# Total GULP energy -334566.141498 kJ/mol
# GULP energy per Si atom -5576.102358 kJ/mol
# Density = 1.841743 g / cm^3
# Si number density = 18.459441 Si / 1000 Ang^3
#
#
#
# Elastic Constant Matrix: (Units=GPa)
#
#
# Indices 1 2 3 4 5 6 
#
# 1 77.6280 12.6107 48.6773 0.0000 0.0000 0.0000
# 2 12.6107 69.2674 36.5604 0.0000 0.0000 0.0000
# 3 48.6773 36.5604 115.5818 0.0000 0.0000 0.0000
# 4 0.0000 0.0000 0.0000 37.3947 0.0000 0.0000
# 5 0.0000 0.0000 0.0000 0.0000 14.5238 0.0000
# 6 0.0000 0.0000 0.0000 0.0000 0.0000 35.5516
#
#
#
# Elastic Compliance Matrix: (Units=1/GPa)
#
#
# Indices 1 2 3 4 5 6 
#
# 1 0.017546 0.000847 -0.007658 0.000000 0.000000 0.000000
# 2 0.000847 0.017371 -0.005852 0.000000 0.000000 0.000000
# 3 -0.007658 -0.005852 0.013728 0.000000 0.000000 0.000000
# 4 0.000000 0.000000 0.000000 0.026742 0.000000 0.000000
# 5 0.000000 0.000000 0.000000 0.000000 0.068853 0.000000
# 6 0.000000 0.000000 0.000000 0.000000 0.000000 0.028128
#
#
# Mechanical properties :
#
#
# Convention : Reuss Voigt Hill
#
# Bulk Modulus (GPa) = 42.87917 50.90823 46.89370
# Shear Modulus (GPa) = 24.33505 28.46926 26.40216
#
# Velocity S-wave (km/s) = 3.63478 3.93142 3.78601
# Velocity P-wave (km/s) = 6.39490 6.94596 6.67612
#
# Compressibility (1/GPa) = 0.02332135
#
# Stress axis : x y z
#
# Youngs Moduli (GPa) = 56.99299 57.56680 72.84469
#
# Poissons Ratio (x) = -0.04878 0.55781
# Poissons Ratio (y) = -0.04830 0.42626
# Poissons Ratio (z) = 0.43643 0.33686
#
# Static dielectric constant tensor:
#      x y z
#    x 1.639260 0.000000 0.000000 
#    y 0.000000 1.642610 0.000000 
#    z 0.000000 0.000000 1.639790 
# 
# From -- ./inp_files/27440.got.cif
#   From: 2010.05.17/outbox.cif.g08.bks.cpg/sg52_14_cif.got.tgz:27440.got - 2010.06.03 12:15:38.
