data_PCOD9409069
_publ_section_title
;
Structure prediction by ZEFSAII (Michael W. Deem and Ramdas Pophale) SiO2 
 PCOD9409069
Probable space group: P N N A
;
_chemical_formula_sum "Si O2"
_cell_formula_units_Z 64
_cell_length_a 16.535234
_cell_length_b 10.625030
_cell_length_c 16.982261
_cell_angle_alpha 90.000000
_cell_angle_beta 90.000000
_cell_angle_gamma 90.000000
_cell_volume 2983.568556
_symmetry_space_group_name_H-M "P N N A"
_symmetry_group_IT_number 52
_symmetry_cell_setting 'orthorhombic'
loop_
_space_group_symop_operation_xyz
x,y,z
1/2-x,-y,z
x,1/2-y,1/2-z
1/2-x,1/2+y,1/2-z
-x,-y,-z
1/2+x,y,-z
-x,1/2+y,1/2+z
1/2+x,1/2-y,1/2+z
loop_
_atom_site_type_symbol
_atom_site_label
_atom_site_fract_x
_atom_site_fract_y
_atom_site_fract_z
Si Si1 0.393785 0.071927 0.562726
Si Si2 0.225041 0.812270 0.459513
Si Si3 0.076432 0.384066 0.287463
Si Si4 0.497310 0.851849 0.576475
Si Si5 0.100006 0.696861 0.674348
Si Si6 0.896399 0.672449 0.530934
Si Si7 0.365815 0.135075 0.305582
Si Si8 0.334020 0.430466 0.528658
O O1 0.303865 0.105319 0.534311
O O2 0.438454 0.072786 0.477781
O O3 0.424715 0.183349 0.619865
O O4 0.421743 0.940723 0.598852
O O5 0.315798 0.760998 0.469948
O O6 0.200982 0.873113 0.375978
O O7 0.167811 0.687926 0.470338
O O8 0.101845 0.250000 0.250000
O O9 0.098304 0.370775 0.378853
O O10 0.113925 0.504340 0.241301
O O11 0.977992 0.377410 0.292201
O O12 0.464406 0.748507 0.516092
O O13 0.550042 0.821228 0.652706
O O14 0.145312 0.750000 0.750000
O O15 0.154307 0.616583 0.616649
O O16 0.896500 0.539195 0.487058
O O17 0.339391 0.250000 0.250000
O O18 0.250000 0.500000 0.516959
#
# Coordination Sequence:
#
# PCOD9409069 Si02
#       8
#     8   8   8   8   8   8   8   8
#     4   9  18  37  58  84 115 159 208 255 306 369
#     4   9  21  40  62  86 122 166 204 249 316 381
#     4  11  24  39  60  97 126 163 212 260 319 383
#     4  10  20  35  62  88 119 159 214 262 299 367
#     4  10  19  35  63  84 118 161 202 255 319 372
#     4  11  22  38  64  95 121 163 214 262 307 377
#     4  11  24  41  62  93 134 169 204 262 331 381
#     4   9  20  39  63  88 119 158 210 257 305 381
#
# _framework density 21.450823
#
# number of rings (size 3 to 8) (size 9 to 14) (size 15 to 20)
#    0.000    2.000    1.250    2.250    5.250    1.500 
#    0.000    1.250   16.500    0.000    0.000    0.000 
#    0.000    0.000    0.000    0.000    0.000    0.000 
#
# Total GULP energy -356445.272649 kJ/mol
# GULP energy per Si atom -5569.457385 kJ/mol
# Density = 2.140200 g / cm^3
# Si number density = 21.450823 Si / 1000 Ang^3
#
#
#
# Elastic Constant Matrix: (Units=GPa)
#
#
# Indices 1 2 3 4 5 6 
#
# 1 39.1077 16.7292 6.4658 0.0000 0.0000 0.0000
# 2 16.7292 95.3751 25.2070 0.0000 0.0000 0.0000
# 3 6.4658 25.2070 70.4705 0.0000 0.0000 0.0000
# 4 0.0000 0.0000 0.0000 33.5243 0.0000 0.0000
# 5 0.0000 0.0000 0.0000 0.0000 1.7586 0.0000
# 6 0.0000 0.0000 0.0000 0.0000 0.0000 18.8175
#
#
#
# Elastic Compliance Matrix: (Units=1/GPa)
#
#
# Indices 1 2 3 4 5 6 
#
# 1 0.027695 -0.004623 -0.000887 0.000000 0.000000 0.000000
# 2 -0.004623 0.012351 -0.003994 0.000000 0.000000 0.000000
# 3 -0.000887 -0.003994 0.015700 0.000000 0.000000 0.000000
# 4 0.000000 0.000000 0.000000 0.029829 0.000000 0.000000
# 5 0.000000 0.000000 0.000000 0.000000 0.568637 0.000000
# 6 0.000000 0.000000 0.000000 0.000000 0.000000 0.053142
#
#
# Mechanical properties :
#
#
# Convention : Reuss Voigt Hill
#
# Bulk Modulus (GPa) = 27.22002 33.52859 30.37431
# Shear Modulus (GPa) = 6.76947 21.25682 14.01315
#
# Velocity S-wave (km/s) = 1.77839 3.15136 2.55868
# Velocity P-wave (km/s) = 4.11509 5.37641 4.78747
#
# Compressibility (1/GPa) = 0.03673766
#
# Stress axis : x y z
#
# Youngs Moduli (GPa) = 36.10783 80.96242 63.69284
#
# Poissons Ratio (x) = 0.37431 0.05652
# Poissons Ratio (y) = 0.16694 0.25438
# Poissons Ratio (z) = 0.03204 0.32335
#
# Static dielectric constant tensor:
#      x y z
#    x 1.864730 0.000000 0.000000 
#    y 0.000000 1.973660 0.000000 
#    z 0.000000 0.000000 1.793280 
# 
# From -- ./inp_files/28294.got.cif
#   From: 2010.05.17/outbox.cif.g08.bks.cpg/sg52_15_cif.got.tgz:28294.got - 2010.06.03 12:15:38.
