data_PCOD9409107
_publ_section_title
;
Structure prediction by ZEFSAII (Michael W. Deem and Ramdas Pophale) SiO2 
 PCOD9409107
Probable space group: P N N A
;
_chemical_formula_sum "Si O2"
_cell_formula_units_Z 44
_cell_length_a 14.601726
_cell_length_b 8.870260
_cell_length_c 18.460281
_cell_angle_alpha 90.000000
_cell_angle_beta 90.000000
_cell_angle_gamma 90.000000
_cell_volume 2390.996013
_symmetry_space_group_name_H-M "P N N A"
_symmetry_group_IT_number 52
_symmetry_cell_setting 'orthorhombic'
loop_
_space_group_symop_operation_xyz
x,y,z
1/2-x,-y,z
x,1/2-y,1/2-z
1/2-x,1/2+y,1/2-z
-x,-y,-z
1/2+x,y,-z
-x,1/2+y,1/2+z
1/2+x,1/2-y,1/2+z
loop_
_atom_site_type_symbol
_atom_site_label
_atom_site_fract_x
_atom_site_fract_y
_atom_site_fract_z
Si Si1 0.611307 0.405320 0.065977
Si Si2 0.650439 0.420288 0.226417
Si Si3 0.444813 0.162233 0.818635
Si Si4 0.317663 0.213853 0.570704
Si Si5 0.059774 0.133732 0.036728
Si Si6 0.750000 0.000000 0.987207
O O1 0.590682 0.418648 0.151773
O O2 0.620438 0.578221 0.037829
O O3 0.715234 0.345668 0.070446
O O4 0.561580 0.281105 0.016197
O O5 0.750000 0.500000 0.218285
O O6 0.665896 0.250000 0.250000
O O7 0.593530 0.504898 0.289152
O O8 0.483706 0.250000 0.750000
O O9 0.357569 0.252186 0.850329
O O10 0.512481 0.159477 0.886177
O O11 0.306754 0.374921 0.532444
O O12 0.165955 0.087037 0.050229
O O13 0.000000 0.000000 0.000000
#
# Coordination Sequence:
#
# PCOD9409107 Si02
#       6
#     8   8   8   8   8   4
#     4  10  20  36  55  87 120 154 200 247 299 373
#     4  12  22  33  56  87 128 160 191 245 320 383
#     4  12  23  38  56  87 123 158 196 249 310 366
#     4  10  19  36  58  87 119 155 192 246 315 362
#     4  11  23  40  63  87 118 162 208 250 307 363
#     4  10  22  40  64  86 120 156 206 254 294 378
#
# _framework density 18.402373000000001
#
# number of rings (size 3 to 8) (size 9 to 14) (size 15 to 20)
#    0.000    1.091    5.455    2.727    3.818    0.727 
#    0.000    0.000    0.000    7.636    0.000    0.000 
#    0.000    0.000    0.000    0.000    0.000    0.000 
#
# Total GULP energy -245107.906467 kJ/mol
# GULP energy per Si atom -5570.634238 kJ/mol
# Density = 1.836049 g / cm^3
# Si number density = 18.402373 Si / 1000 Ang^3
#
#
#
# Elastic Constant Matrix: (Units=GPa)
#
#
# Indices 1 2 3 4 5 6 
#
# 1 82.4475 36.4243 55.6493 0.0000 0.0000 0.0000
# 2 36.4243 155.8372 69.8828 0.0000 0.0000 0.0000
# 3 55.6493 69.8828 131.8361 0.0000 0.0000 0.0000
# 4 0.0000 0.0000 0.0000 34.0190 0.0000 0.0000
# 5 0.0000 0.0000 0.0000 0.0000 39.5611 0.0000
# 6 0.0000 0.0000 0.0000 0.0000 0.0000 32.4160
#
#
#
# Elastic Compliance Matrix: (Units=1/GPa)
#
#
# Indices 1 2 3 4 5 6 
#
# 1 0.017078 -0.000996 -0.006681 0.000000 0.000000 0.000000
# 2 -0.000996 0.008476 -0.004073 0.000000 0.000000 0.000000
# 3 -0.006681 -0.004073 0.012564 0.000000 0.000000 0.000000
# 4 0.000000 0.000000 0.000000 0.029395 0.000000 0.000000
# 5 0.000000 0.000000 0.000000 0.000000 0.025277 0.000000
# 6 0.000000 0.000000 0.000000 0.000000 0.000000 0.030849
#
#
# Mechanical properties :
#
#
# Convention : Reuss Voigt Hill
#
# Bulk Modulus (GPa) = 68.40146 77.11483 72.75815
# Shear Modulus (GPa) = 32.89209 35.07684 33.98447
#
# Velocity S-wave (km/s) = 4.23233 4.37063 4.30204
# Velocity P-wave (km/s) = 7.81883 8.21375 8.01872
#
# Compressibility (1/GPa) = 0.01461957
#
# Stress axis : x y z
#
# Youngs Moduli (GPa) = 58.55362 117.98056 79.59176
#
# Poissons Ratio (x) = 0.11748 0.53176
# Poissons Ratio (y) = 0.05830 0.32414
# Poissons Ratio (z) = 0.39120 0.48049
#
# Static dielectric constant tensor:
#      x y z
#    x 1.643540 0.000000 0.000000 
#    y 0.000000 1.748830 0.000000 
#    z 0.000000 0.000000 1.653320 
# 
# From -- ./inp_files/32967.got.cif
#   From: 2010.05.17/outbox.cif.g08.bks.cpg/sg52_17_cif.got.tgz:32967.got - 2010.06.03 12:15:38.
