data_PCOD9409537
_publ_section_title
;
Structure prediction by ZEFSAII (Michael W. Deem and Ramdas Pophale) SiO2 
 PCOD9409537
Probable space group: P N N A
;
_chemical_formula_sum "Si O2"
_cell_formula_units_Z 64
_cell_length_a 9.371424
_cell_length_b 15.126635
_cell_length_c 25.275029
_cell_angle_alpha 90.000000
_cell_angle_beta 90.000000
_cell_angle_gamma 90.000000
_cell_volume 3582.940348
_symmetry_space_group_name_H-M "P N N A"
_symmetry_group_IT_number 52
_symmetry_cell_setting 'orthorhombic'
loop_
_space_group_symop_operation_xyz
x,y,z
1/2-x,-y,z
x,1/2-y,1/2-z
1/2-x,1/2+y,1/2-z
-x,-y,-z
1/2+x,y,-z
-x,1/2+y,1/2+z
1/2+x,1/2-y,1/2+z
loop_
_atom_site_type_symbol
_atom_site_label
_atom_site_fract_x
_atom_site_fract_y
_atom_site_fract_z
Si Si1 0.869571 0.071946 0.667395
Si Si2 0.402827 0.460356 0.781387
Si Si3 0.017679 0.387357 0.323294
Si Si4 0.067923 0.586090 0.557610
Si Si5 0.309798 0.339373 0.278943
Si Si6 0.703680 0.728846 0.192624
Si Si7 0.394896 0.876270 0.959847
Si Si8 0.994431 0.745250 0.364466
O O1 0.831879 0.098961 0.728083
O O2 0.907662 0.164411 0.636845
O O3 0.750000 0.000000 0.648695
O O4 0.014730 0.018130 0.675904
O O5 0.250000 0.500000 0.770006
O O6 0.479981 0.452712 0.724805
O O7 0.377642 0.363279 0.804220
O O8 0.979666 0.413380 0.382014
O O9 0.916401 0.302689 0.314631
O O10 0.184136 0.370115 0.316792
O O11 0.223920 0.629745 0.548058
O O12 0.077088 0.480926 0.547711
O O13 0.956081 0.635520 0.519098
O O14 0.259657 0.250000 0.250000
O O15 0.442771 0.314972 0.316429
O O16 0.771337 0.750000 0.250000
O O17 0.832890 0.729147 0.151646
O O18 0.477548 0.813536 0.917710
#
# Coordination Sequence:
#
# PCOD9409537 Si02
#       8
#     8   8   8   8   8   8   8   8
#     4  11  22  37  52  85 124 162 197 243 285 360
#     4  11  22  33  55  82 120 154 197 235 285 349
#     4  11  22  35  56  81 115 160 193 235 291 350
#     4  10  23  40  62  83 116 144 197 243 297 348
#     4  10  22  35  51  80 123 158 193 231 284 354
#     4  10  20  34  53  82 117 152 195 240 283 357
#     4  10  23  42  58  87 113 148 192 253 293 353
#     4  11  22  37  58  81 118 162 201 241 303 351
#
# _framework density 17.862425000000002
#
# number of rings (size 3 to 8) (size 9 to 14) (size 15 to 20)
#    0.000    1.500    3.750    2.250    8.750    0.000 
#    0.000    0.000    0.000    0.000    0.000    4.375 
#    0.000    0.000    0.000    0.000    0.000    0.000 
#
# Total GULP energy -356509.653029 kJ/mol
# GULP energy per Si atom -5570.463329 kJ/mol
# Density = 1.782177 g / cm^3
# Si number density = 17.862425 Si / 1000 Ang^3
#
#
#
# Elastic Constant Matrix: (Units=GPa)
#
#
# Indices 1 2 3 4 5 6 
#
# 1 71.7673 18.4950 18.8899 0.0000 0.0000 0.0000
# 2 18.4950 56.0685 10.9770 0.0000 0.0000 0.0000
# 3 18.8899 10.9770 48.2009 0.0000 0.0000 0.0000
# 4 0.0000 0.0000 0.0000 25.0725 0.0000 0.0000
# 5 0.0000 0.0000 0.0000 0.0000 24.9072 0.0000
# 6 0.0000 0.0000 0.0000 0.0000 0.0000 44.9991
#
#
#
# Elastic Compliance Matrix: (Units=1/GPa)
#
#
# Indices 1 2 3 4 5 6 
#
# 1 0.016501 -0.004372 -0.005471 0.000000 0.000000 0.000000
# 2 -0.004372 0.019826 -0.002802 0.000000 0.000000 0.000000
# 3 -0.005471 -0.002802 0.023529 0.000000 0.000000 0.000000
# 4 0.000000 0.000000 0.000000 0.039884 0.000000 0.000000
# 5 0.000000 0.000000 0.000000 0.000000 0.040149 0.000000
# 6 0.000000 0.000000 0.000000 0.000000 0.000000 0.022223
#
#
# Mechanical properties :
#
#
# Convention : Reuss Voigt Hill
#
# Bulk Modulus (GPa) = 28.93007 30.30671 29.61839
# Shear Modulus (GPa) = 25.13544 27.50741 26.32142
#
# Velocity S-wave (km/s) = 3.75529 3.92849 3.84287
# Velocity P-wave (km/s) = 5.91897 6.13033 6.02558
#
# Compressibility (1/GPa) = 0.03456611
#
# Stress axis : x y z
#
# Youngs Moduli (GPa) = 60.60383 50.43890 42.50149
#
# Poissons Ratio (x) = 0.22051 0.23252
# Poissons Ratio (y) = 0.26495 0.11908
# Poissons Ratio (z) = 0.33156 0.14131
#
# Static dielectric constant tensor:
#      x y z
#    x 1.639070 0.000000 0.000000 
#    y 0.000000 1.724850 0.000000 
#    z 0.000000 0.000000 1.603900 
# 
# From -- ./inp_files/39703.got.cif
#   From: 2010.05.17/outbox.cif.g08.bks.cpg/sg52_20_cif.got.tgz:39703.got - 2010.06.03 12:15:38.
