data_PCOD9409957
_publ_section_title
;
Structure prediction by ZEFSAII (Michael W. Deem and Ramdas Pophale) SiO2 
 PCOD9409957
Probable space group: P N N A
;
_chemical_formula_sum "Si O2"
_cell_formula_units_Z 36
_cell_length_a 13.590603
_cell_length_b 8.088709
_cell_length_c 13.819649
_cell_angle_alpha 90.000000
_cell_angle_beta 90.000000
_cell_angle_gamma 90.000000
_cell_volume 1519.199996
_symmetry_space_group_name_H-M "P N N A"
_symmetry_group_IT_number 52
_symmetry_cell_setting 'orthorhombic'
loop_
_space_group_symop_operation_xyz
x,y,z
1/2-x,-y,z
x,1/2-y,1/2-z
1/2-x,1/2+y,1/2-z
-x,-y,-z
1/2+x,y,-z
-x,1/2+y,1/2+z
1/2+x,1/2-y,1/2+z
loop_
_atom_site_type_symbol
_atom_site_label
_atom_site_fract_x
_atom_site_fract_y
_atom_site_fract_z
Si Si1 0.567039 0.263589 0.981416
Si Si2 0.431265 0.250000 0.250000
Si Si3 0.113820 0.575705 0.431953
Si Si4 0.073500 0.506754 0.856845
Si Si5 0.775458 0.250000 0.250000
Si Si6 0.250000 0.500000 0.601575
O O1 0.500736 0.369430 0.910316
O O2 0.622398 0.122643 0.920899
O O3 0.494574 0.149135 0.046380
O O4 0.616151 0.391923 0.055873
O O5 0.363453 0.323923 0.335507
O O6 0.504035 0.394828 0.211614
O O7 0.174954 0.594086 0.530934
O O8 0.153896 0.617067 0.802510
O O9 0.713516 0.355687 0.326950
#
# Coordination Sequence:
#
# PCOD9409957 Si02
#       6
#     8   4   8   8   4   4
#     4   9  19  38  66  89 130 160 219 276 318 370
#     4  10  22  37  74  91 126 168 234 280 326 367
#     4  10  21  42  60  95 125 175 210 272 325 389
#     4  10  20  37  64  98 122 165 223 278 316 386
#     4  12  26  39  62  97 138 182 214 260 350 403
#     4  12  28  42  62  94 146 174 208 264 338 418
#
# _framework density 23.696681999999999
#
# number of rings (size 3 to 8) (size 9 to 14) (size 15 to 20)
#    0.000    1.778    2.222    1.333    9.333    0.000 
#    0.000    2.222    0.000    0.000    0.000    0.000 
#    0.000    0.000    0.000    0.000    0.000    0.000 
#
# Total GULP energy -200818.344442 kJ/mol
# GULP energy per Si atom -5578.287346 kJ/mol
# Density = 2.364275 g / cm^3
# Si number density = 23.696682 Si / 1000 Ang^3
#
#
#
# Elastic Constant Matrix: (Units=GPa)
#
#
# Indices 1 2 3 4 5 6 
#
# 1 42.0185 24.9529 34.5689 0.0000 0.0000 0.0000
# 2 24.9529 145.6062 79.9532 0.0000 0.0000 0.0000
# 3 34.5689 79.9532 138.2778 0.0000 0.0000 0.0000
# 4 0.0000 0.0000 0.0000 72.9241 0.0000 0.0000
# 5 0.0000 0.0000 0.0000 0.0000-1206.8976 0.0000
# 6 0.0000 0.0000 0.0000 0.0000 0.0000 26.3690
#
#
#
# Elastic Compliance Matrix: (Units=1/GPa)
#
#
# Indices 1 2 3 4 5 6 
#
# 1 0.030186 -0.001508 -0.006674 0.000000 0.000000 0.000000
# 2 -0.001508 0.010138 -0.005485 0.000000 0.000000 0.000000
# 3 -0.006674 -0.005485 0.012072 0.000000 0.000000 0.000000
# 4 0.000000 0.000000 0.000000 0.013713 0.000000 0.000000
# 5 0.000000 0.000000 0.000000 0.000000 -0.000829 0.000000
# 6 0.000000 0.000000 0.000000 0.000000 0.000000 0.037923
#
#
# Mechanical properties :
#
#
# Convention : Reuss Voigt Hill
#
# Bulk Modulus (GPa) = 39.90276 67.20584 53.55430
# Shear Modulus (GPa) = 35.99937 -209.09241 -86.54652
#
# Velocity S-wave (km/s) = 3.90189 -9.40365 -6.04995
# Velocity P-wave (km/s) = 6.09714 9.45951 5.11406
#
# Compressibility (1/GPa) = 0.02506092
#
# Stress axis : x y z
#
# Youngs Moduli (GPa) = 33.12831 98.63813 82.83794
#
# Poissons Ratio (x) = 0.14876 0.55289
# Poissons Ratio (y) = 0.04996 0.45436
# Poissons Ratio (z) = 0.22111 0.54102
#
# Static dielectric constant tensor:
#      x y z
#    x 1.930600 0.000000 0.000000 
#    y 0.000000 1.942830 0.000000 
#    z 0.000000 0.000000 1.978070 
# 
# From -- ./inp_files/26829.got.cif
#   From: 2010.05.17/outbox.cif.g08.bks.cpg/sg52_14_cif.got.tgz:26829.got - 2010.06.03 12:15:38.
