data_PCOD9409311
_publ_section_title
;
Structure prediction by ZEFSAII (Michael W. Deem and Ramdas Pophale) SiO2 
 PCOD9409311
Probable space group: P N N A
;
_chemical_formula_sum "Si O2"
_cell_formula_units_Z 48
_cell_length_a 10.040018
_cell_length_b 15.484204
_cell_length_c 15.231643
_cell_angle_alpha 90.000000
_cell_angle_beta 90.000000
_cell_angle_gamma 90.000000
_cell_volume 2367.936915
_symmetry_space_group_name_H-M "P N N A"
_symmetry_group_IT_number 52
_symmetry_cell_setting 'orthorhombic'
loop_
_space_group_symop_operation_xyz
x,y,z
1/2-x,-y,z
x,1/2-y,1/2-z
1/2-x,1/2+y,1/2-z
-x,-y,-z
1/2+x,y,-z
-x,1/2+y,1/2+z
1/2+x,1/2-y,1/2+z
loop_
_atom_site_type_symbol
_atom_site_label
_atom_site_fract_x
_atom_site_fract_y
_atom_site_fract_z
Si Si1 0.552195 0.726193 0.028011
Si Si2 0.171919 0.663399 0.793938
Si Si3 0.128351 0.131144 0.224867
Si Si4 0.750000 0.500000 0.296484
Si Si5 0.250000 0.000000 0.104236
Si Si6 0.276971 0.704935 0.108895
Si Si7 0.405696 0.427163 0.540328
O O1 0.640530 0.682360 0.104818
O O2 0.400041 0.694648 0.040044
O O3 0.546120 0.829469 0.045882
O O4 0.635284 0.710699 0.939157
O O5 0.228015 0.750000 0.750000
O O6 0.263224 0.582524 0.767182
O O7 0.023166 0.649577 0.753397
O O8 0.185917 0.208733 0.164678
O O9 0.211166 0.131950 0.315821
O O10 0.145085 0.044252 0.169129
O O11 0.644735 0.535336 0.367957
O O12 0.207179 0.926208 0.035386
O O13 0.500000 0.500000 0.500000
#
# Coordination Sequence:
#
# PCOD9409311 Si02
#       7
#     8   8   8   4   4   8   8
#     4  11  21  38  62  90 125 164 208 262 318 383
#     4  11  20  38  61  86 121 175 209 252 322 389
#     4  10  19  39  61  84 121 168 205 249 323 401
#     4  11  22  36  57  86 124 160 217 254 312 393
#     4  11  20  32  57  90 116 144 203 266 308 377
#     4  10  20  38  62  85 120 164 210 246 314 386
#     4  11  22  32  55  92 126 151 198 271 337 369
#
# _framework density 20.270810000000001
#
# number of rings (size 3 to 8) (size 9 to 14) (size 15 to 20)
#    0.000    1.333    6.667    2.000    2.333    0.000 
#    0.000    4.167    3.667    4.000    0.000    0.000 
#    0.000    0.000    0.000    0.000    0.000    0.000 
#
# Total GULP energy -267329.470069 kJ/mol
# GULP energy per Si atom -5569.363960 kJ/mol
# Density = 2.022467 g / cm^3
# Si number density = 20.270810 Si / 1000 Ang^3
#
#
#
# Elastic Constant Matrix: (Units=GPa)
#
#
# Indices 1 2 3 4 5 6 
#
# 1 47.4982 2.2299 33.9835 0.0000 0.0000 0.0000
# 2 2.2299 80.4879 31.2489 0.0000 0.0000 0.0000
# 3 33.9835 31.2489 94.8091 0.0000 0.0000 0.0000
# 4 0.0000 0.0000 0.0000 36.5107 0.0000 0.0000
# 5 0.0000 0.0000 0.0000 0.0000 28.2510 0.0000
# 6 0.0000 0.0000 0.0000 0.0000 0.0000 6.7186
#
#
#
# Elastic Compliance Matrix: (Units=1/GPa)
#
#
# Indices 1 2 3 4 5 6 
#
# 1 0.029265 0.003740 -0.011723 0.000000 0.000000 0.000000
# 2 0.003740 0.014725 -0.006194 0.000000 0.000000 0.000000
# 3 -0.011723 -0.006194 0.016791 0.000000 0.000000 0.000000
# 4 0.000000 0.000000 0.000000 0.027389 0.000000 0.000000
# 5 0.000000 0.000000 0.000000 0.000000 0.035397 0.000000
# 6 0.000000 0.000000 0.000000 0.000000 0.000000 0.148841
#
#
# Mechanical properties :
#
#
# Convention : Reuss Voigt Hill
#
# Bulk Modulus (GPa) = 30.83690 39.74664 35.29177
# Shear Modulus (GPa) = 16.04770 24.65157 20.34964
#
# Velocity S-wave (km/s) = 2.81671 3.49106 3.17186
# Velocity P-wave (km/s) = 5.08173 5.99169 5.55537
#
# Compressibility (1/GPa) = 0.03242868
#
# Stress axis : x y z
#
# Youngs Moduli (GPa) = 34.17050 67.90952 59.55576
#
# Poissons Ratio (x) = -0.25401 0.69815
# Poissons Ratio (y) = -0.12781 0.36890
# Poissons Ratio (z) = 0.40057 0.42065
#
# Static dielectric constant tensor:
#      x y z
#    x 1.861080 0.000000 0.000000 
#    y 0.000000 1.769830 0.000000 
#    z 0.000000 0.000000 1.783710 
# 
# From -- ./inp_files/26102.got.cif
#   From: 2010.05.17/outbox.cif.g08.bks.cpg/sg52_14_cif.got.tgz:26102.got - 2010.06.03 12:15:38.
