data_PCOD9409232
_publ_section_title
;
Structure prediction by ZEFSAII (Michael W. Deem and Ramdas Pophale) SiO2 
 PCOD9409232
Probable space group: P N N A
;
_chemical_formula_sum "Si O2"
_cell_formula_units_Z 40
_cell_length_a 9.353477
_cell_length_b 13.364409
_cell_length_c 14.417181
_cell_angle_alpha 90.000000
_cell_angle_beta 90.000000
_cell_angle_gamma 90.000000
_cell_volume 1802.200856
_symmetry_space_group_name_H-M "P N N A"
_symmetry_group_IT_number 52
_symmetry_cell_setting 'orthorhombic'
loop_
_space_group_symop_operation_xyz
x,y,z
1/2-x,-y,z
x,1/2-y,1/2-z
1/2-x,1/2+y,1/2-z
-x,-y,-z
1/2+x,y,-z
-x,1/2+y,1/2+z
1/2+x,1/2-y,1/2+z
loop_
_atom_site_type_symbol
_atom_site_label
_atom_site_fract_x
_atom_site_fract_y
_atom_site_fract_z
Si Si1 0.095855 0.998584 0.127429
Si Si2 0.869354 0.720536 0.064425
Si Si3 0.100508 0.446631 0.077313
Si Si4 0.595826 0.453888 0.216124
Si Si5 0.906142 0.349166 0.465917
O O1 0.985626 0.934638 0.188634
O O2 0.250000 0.000000 0.175660
O O3 0.019656 0.105208 0.107590
O O4 0.127514 0.944132 0.030044
O O5 0.887518 0.642446 0.149131
O O6 0.732872 0.793714 0.074533
O O7 0.852295 0.656413 0.969509
O O8 0.014052 0.776870 0.038053
O O9 0.250000 0.500000 0.093699
O O10 0.000249 0.460026 0.166130
O O11 0.000000 0.500000 0.000000
O O12 0.750000 0.500000 0.233314
#
# Coordination Sequence:
#
# PCOD9409232 Si02
#       5
#     8   8   8   8   8
#     4  11  25  46  64  95 136 191 223 280 364 417
#     4  11  21  41  69 101 127 176 237 282 332 416
#     4  10  19  37  64  96 136 178 218 276 358 419
#     4  11  24  41  68  99 141 176 224 292 359 406
#     4  11  24  42  71  94 132 181 235 279 336 431
#
# _framework density 22.195083
#
# number of rings (size 3 to 8) (size 9 to 14) (size 15 to 20)
#    0.000    1.200    2.000    6.600    2.800    0.800 
#    0.000    3.000    0.000    0.000    0.000    0.000 
#    0.000    0.000    0.000    0.000    0.000    0.000 
#
# Total GULP energy -223196.938659 kJ/mol
# GULP energy per Si atom -5579.923466 kJ/mol
# Density = 2.214457 g / cm^3
# Si number density = 22.195083 Si / 1000 Ang^3
#
#
#
# Elastic Constant Matrix: (Units=GPa)
#
#
# Indices 1 2 3 4 5 6 
#
# 1 180.1785 36.7223 35.3736 0.0000 0.0000 0.0000
# 2 36.7223 68.0088 18.1211 0.0000 0.0000 0.0000
# 3 35.3736 18.1211 73.9091 0.0000 0.0000 0.0000
# 4 0.0000 0.0000 0.0000 -57.0890 0.0000 0.0000
# 5 0.0000 0.0000 0.0000 0.0000 29.9075 0.0000
# 6 0.0000 0.0000 0.0000 0.0000 0.0000 34.7436
#
#
#
# Elastic Compliance Matrix: (Units=1/GPa)
#
#
# Indices 1 2 3 4 5 6 
#
# 1 0.006628 -0.002925 -0.002455 0.000000 0.000000 0.000000
# 2 -0.002925 0.017022 -0.002774 0.000000 0.000000 0.000000
# 3 -0.002455 -0.002774 0.015385 0.000000 0.000000 0.000000
# 4 0.000000 0.000000 0.000000 -0.017517 0.000000 0.000000
# 5 0.000000 0.000000 0.000000 0.000000 0.033436 0.000000
# 6 0.000000 0.000000 0.000000 0.000000 0.000000 0.028782
#
#
# Mechanical properties :
#
#
# Convention : Reuss Voigt Hill
#
# Bulk Modulus (GPa) = 43.99790 55.83673 49.91732
# Shear Modulus (GPa) = 46.45910 16.97105 31.71507
#
# Velocity S-wave (km/s) = 4.58013 2.76820 3.78421
# Velocity P-wave (km/s) = 6.91639 5.95223 6.45234
#
# Compressibility (1/GPa) = 0.02272836
#
# Stress axis : x y z
#
# Youngs Moduli (GPa) = 150.87116 58.74640 64.99717
#
# Poissons Ratio (x) = 0.17182 0.15958
# Poissons Ratio (y) = 0.44127 0.18028
# Poissons Ratio (z) = 0.37042 0.16295
#
# Static dielectric constant tensor:
#      x y z
#    x 1.902120 0.000000 0.000000 
#    y 0.000000 1.875210 0.000000 
#    z 0.000000 0.000000 1.916020 
# 
# From -- ./inp_files/24413.got.cif
#   From: 2010.05.17/outbox.cif.g08.bks.cpg/sg52_13_cif.got.tgz:24413.got - 2010.06.03 12:15:38.
