data_PCOD9409204
_publ_section_title
;
Structure prediction by ZEFSAII (Michael W. Deem and Ramdas Pophale) SiO2 
 PCOD9409204
Probable space group: P N N A
;
_chemical_formula_sum "Si O2"
_cell_formula_units_Z 52
_cell_length_a 29.285619
_cell_length_b 10.166123
_cell_length_c 8.672594
_cell_angle_alpha 90.000000
_cell_angle_beta 90.000000
_cell_angle_gamma 90.000000
_cell_volume 2582.015135
_symmetry_space_group_name_H-M "P N N A"
_symmetry_group_IT_number 52
_symmetry_cell_setting 'orthorhombic'
loop_
_space_group_symop_operation_xyz
x,y,z
1/2-x,-y,z
x,1/2-y,1/2-z
1/2-x,1/2+y,1/2-z
-x,-y,-z
1/2+x,y,-z
-x,1/2+y,1/2+z
1/2+x,1/2-y,1/2+z
loop_
_atom_site_type_symbol
_atom_site_label
_atom_site_fract_x
_atom_site_fract_y
_atom_site_fract_z
Si Si1 0.121854 0.315738 0.602794
Si Si2 0.649959 0.475630 0.690262
Si Si3 0.339909 0.250000 0.750000
Si Si4 0.780449 0.132190 0.975825
Si Si5 0.077441 0.950085 0.729037
Si Si6 0.928291 0.584697 0.918698
Si Si7 0.494695 0.250000 0.750000
Si Si8 0.786722 0.750000 0.750000
O O1 0.147180 0.250000 0.750000
O O2 0.145591 0.409282 0.479083
O O3 0.084980 0.412990 0.682275
O O4 0.101251 0.198389 0.502035
O O5 0.680747 0.600489 0.653162
O O6 0.602093 0.478858 0.780726
O O7 0.681693 0.374632 0.781666
O O8 0.307235 0.197822 0.884593
O O9 0.374732 0.128926 0.715284
O O10 0.750000 0.000000 0.010449
O O11 0.744246 0.227187 0.897555
O O12 0.040987 0.857683 0.816251
O O13 0.061606 0.981830 0.554776
O O14 0.971680 0.662791 0.853985
#
# Coordination Sequence:
#
# PCOD9409204 Si02
#       8
#     8   8   4   8   8   8   4   4
#     4  10  19  37  61  89 117 162 204 246 301 371
#     4  11  19  41  62  88 118 161 202 251 305 363
#     4  11  22  46  59  88 132 164 201 250 318 367
#     4  10  24  41  59  91 124 159 206 257 302 366
#     4  10  24  38  64  90 124 165 201 255 309 370
#     4  11  21  39  66  91 121 162 208 249 311 372
#     4  11  21  40  62  90 128 156 210 258 299 371
#     4  10  21  40  59  88 118 154 203 260 295 352
#
# _framework density 20.139309000000001
#
# number of rings (size 3 to 8) (size 9 to 14) (size 15 to 20)
#    0.000    1.538    4.615    0.462    2.154    0.615 
#    8.308    0.000    0.000    0.000    0.000    0.000 
#    0.000    0.000    0.000    0.000    0.000    0.000 
#
# Total GULP energy -289649.368894 kJ/mol
# GULP energy per Si atom -5570.180171 kJ/mol
# Density = 2.009347 g / cm^3
# Si number density = 20.139309 Si / 1000 Ang^3
#
#
#
# Elastic Constant Matrix: (Units=GPa)
#
#
# Indices 1 2 3 4 5 6 
#
# 1 98.8158 16.7845 55.6419 0.0000 0.0000 0.0000
# 2 16.7845 35.7105 26.4372 0.0000 0.0000 0.0000
# 3 55.6419 26.4372 79.3180 0.0000 0.0000 0.0000
# 4 0.0000 0.0000 0.0000 33.4553 0.0000 0.0000
# 5 0.0000 0.0000 0.0000 0.0000 13.1959 0.0000
# 6 0.0000 0.0000 0.0000 0.0000 0.0000 24.7936
#
#
#
# Elastic Compliance Matrix: (Units=1/GPa)
#
#
# Indices 1 2 3 4 5 6 
#
# 1 0.016760 0.001097 -0.012123 0.000000 0.000000 0.000000
# 2 0.001097 0.037248 -0.013185 0.000000 0.000000 0.000000
# 3 -0.012123 -0.013185 0.025506 0.000000 0.000000 0.000000
# 4 0.000000 0.000000 0.000000 0.029891 0.000000 0.000000
# 5 0.000000 0.000000 0.000000 0.000000 0.075781 0.000000
# 6 0.000000 0.000000 0.000000 0.000000 0.000000 0.040333
#
#
# Mechanical properties :
#
#
# Convention : Reuss Voigt Hill
#
# Bulk Modulus (GPa) = 32.16093 45.73016 38.94555
# Shear Modulus (GPa) = 17.58684 21.95436 19.77060
#
# Velocity S-wave (km/s) = 2.95830 3.30529 3.13660
# Velocity P-wave (km/s) = 5.26048 6.10924 5.70068
#
# Compressibility (1/GPa) = 0.03109363
#
# Stress axis : x y z
#
# Youngs Moduli (GPa) = 59.66753 26.84691 39.20616
#
# Poissons Ratio (x) = -0.02946 0.47528
# Poissons Ratio (y) = -0.06548 0.51693
# Poissons Ratio (z) = 0.72333 0.35397
#
# Static dielectric constant tensor:
#      x y z
#    x 1.727960 0.000000 0.000000 
#    y 0.000000 1.729140 0.000000 
#    z 0.000000 0.000000 1.733190 
# 
# From -- ./inp_files/15046.got.cif
#   From: 2010.05.17/outbox.cif.g08.bks.cpg/sg52_8_cif.got.tgz:15046.got - 2010.06.03 12:15:38.
