data_PCOD9409470
_publ_section_title
;
Structure prediction by ZEFSAII (Michael W. Deem and Ramdas Pophale) SiO2 
 PCOD9409470
Probable space group: P N N A
;
_chemical_formula_sum "Si O2"
_cell_formula_units_Z 48
_cell_length_a 30.433353
_cell_length_b 15.585325
_cell_length_c 4.946239
_cell_angle_alpha 90.000000
_cell_angle_beta 90.000000
_cell_angle_gamma 90.000000
_cell_volume 2346.068908
_symmetry_space_group_name_H-M "P N N A"
_symmetry_group_IT_number 52
_symmetry_cell_setting 'orthorhombic'
loop_
_space_group_symop_operation_xyz
x,y,z
1/2-x,-y,z
x,1/2-y,1/2-z
1/2-x,1/2+y,1/2-z
-x,-y,-z
1/2+x,y,-z
-x,1/2+y,1/2+z
1/2+x,1/2-y,1/2+z
loop_
_atom_site_type_symbol
_atom_site_label
_atom_site_fract_x
_atom_site_fract_y
_atom_site_fract_z
Si Si1 0.628817 0.025373 0.085700
Si Si2 0.039070 0.540537 0.678297
Si Si3 0.441760 0.154549 0.316709
Si Si4 0.297296 0.852822 0.741658
Si Si5 0.148217 0.917966 0.423752
Si Si6 0.757662 0.353412 0.739861
O O1 0.657489 0.107731 0.154501
O O2 0.578569 0.028500 0.191075
O O3 0.650264 0.951335 0.271574
O O4 0.632277 0.994986 0.775922
O O5 0.057826 0.611429 0.475416
O O6 0.000000 0.500000 0.500000
O O7 0.033315 0.591743 0.963858
O O8 0.458436 0.250000 0.250000
O O9 0.390880 0.152113 0.411399
O O10 0.300366 0.750000 0.750000
O O11 0.280695 0.880638 0.447821
O O12 0.258650 0.879929 0.946074
O O13 0.195240 0.887678 0.324317
O O14 0.759929 0.250000 0.750000
#
# Coordination Sequence:
#
# PCOD9409470 Si02
#       6
#     8   8   8   8   8   8
#     4  10  21  35  53  77 103 139 180 221 276 325
#     4  10  21  38  59  83 112 144 180 228 283 339
#     4  10  20  36  59  85 114 144 178 224 279 336
#     4  10  21  35  50  71 104 144 183 222 262 310
#     4  10  20  33  53  80 108 139 177 221 269 326
#     4  10  20  33  50  74 107 144 179 218 263 310
#
# _framework density 20.459757
#
# number of rings (size 3 to 8) (size 9 to 14) (size 15 to 20)
#    0.000    2.000    0.000    3.500    0.000    4.000 
#    0.000    5.833    0.000    8.000    0.000    0.000 
#    0.000    0.000    0.000    0.000    0.000    0.000 
#
# Total GULP energy -267617.788955 kJ/mol
# GULP energy per Si atom -5575.370603 kJ/mol
# Density = 2.041319 g / cm^3
# Si number density = 20.459757 Si / 1000 Ang^3
#
#
#
# Elastic Constant Matrix: (Units=GPa)
#
#
# Indices 1 2 3 4 5 6 
#
# 1 93.3086 26.7284 5.1215 0.0000 0.0000 0.0000
# 2 26.7284 29.2475 9.9589 0.0000 0.0000 0.0000
# 3 5.1215 9.9589 91.4957 0.0000 0.0000 0.0000
# 4 0.0000 0.0000 0.0000 22.0361 0.0000 0.0000
# 5 0.0000 0.0000 0.0000 0.0000 26.2734 0.0000
# 6 0.0000 0.0000 0.0000 0.0000 0.0000 11.1354
#
#
#
# Elastic Compliance Matrix: (Units=1/GPa)
#
#
# Indices 1 2 3 4 5 6 
#
# 1 0.014555 -0.013526 0.000657 0.000000 0.000000 0.000000
# 2 -0.013526 0.048076 -0.004476 0.000000 0.000000 0.000000
# 3 0.000657 -0.004476 0.011380 0.000000 0.000000 0.000000
# 4 0.000000 0.000000 0.000000 0.045380 0.000000 0.000000
# 5 0.000000 0.000000 0.000000 0.000000 0.038061 0.000000
# 6 0.000000 0.000000 0.000000 0.000000 0.000000 0.089804
#
#
# Mechanical properties :
#
#
# Convention : Reuss Voigt Hill
#
# Bulk Modulus (GPa) = 25.43035 33.07439 29.25237
# Shear Modulus (GPa) = 16.94617 23.37183 20.15900
#
# Velocity S-wave (km/s) = 2.88109 3.38351 3.14235
# Velocity P-wave (km/s) = 4.85015 5.60935 5.24351
#
# Compressibility (1/GPa) = 0.03932309
#
# Stress axis : x y z
#
# Youngs Moduli (GPa) = 68.70260 20.80055 87.87472
#
# Poissons Ratio (x) = 0.28134 -0.05777
# Poissons Ratio (y) = 0.92925 0.39330
# Poissons Ratio (z) = -0.04517 0.09310
#
# Static dielectric constant tensor:
#      x y z
#    x 1.768880 0.000000 0.000000 
#    y 0.000000 1.753440 0.000000 
#    z 0.000000 0.000000 1.720730 
# 
# From -- ./inp_files/5799.got.cif
#   From: 2010.05.17/outbox.cif.g08.bks.cpg/sg52_3_cif.got.tgz:5799.got - 2010.06.03 12:15:38.
