data_PCOD9409461
_publ_section_title
;
Structure prediction by ZEFSAII (Michael W. Deem and Ramdas Pophale) SiO2 
 PCOD9409461
Probable space group: P N N A
;
_chemical_formula_sum "Si O2"
_cell_formula_units_Z 40
_cell_length_a 5.612411
_cell_length_b 18.516065
_cell_length_c 18.400593
_cell_angle_alpha 90.000000
_cell_angle_beta 90.000000
_cell_angle_gamma 90.000000
_cell_volume 1912.185335
_symmetry_space_group_name_H-M "P N N A"
_symmetry_group_IT_number 52
_symmetry_cell_setting 'orthorhombic'
loop_
_space_group_symop_operation_xyz
x,y,z
1/2-x,-y,z
x,1/2-y,1/2-z
1/2-x,1/2+y,1/2-z
-x,-y,-z
1/2+x,y,-z
-x,1/2+y,1/2+z
1/2+x,1/2-y,1/2+z
loop_
_atom_site_type_symbol
_atom_site_label
_atom_site_fract_x
_atom_site_fract_y
_atom_site_fract_z
Si Si1 0.431352 0.630795 0.813991
Si Si2 0.765040 0.087106 0.459403
Si Si3 0.050647 0.878811 0.804088
Si Si4 0.002552 0.971842 0.917596
Si Si5 0.773016 0.250000 0.750000
Si Si6 0.750000 0.000000 0.720960
O O1 0.248165 0.624409 0.880179
O O2 0.304475 0.626826 0.735042
O O3 0.571486 0.706031 0.809000
O O4 0.600192 0.560377 0.822387
O O5 0.516736 0.105806 0.501684
O O6 0.750000 0.000000 0.451061
O O7 0.027926 0.890061 0.890876
O O8 0.894413 0.810397 0.784244
O O9 0.931354 0.949334 0.766039
O O10 0.750000 0.000000 0.890873
O O11 0.250000 0.000000 0.884895
O O12 0.000000 0.000000 0.000000
#
# Coordination Sequence:
#
# PCOD9409461 Si02
#       6
#     8   8   8   8   4   4
#     4  11  23  40  64  98 129 178 226 285 340 409
#     4  10  23  39  65  98 136 170 212 276 349 415
#     4  11  21  39  63  95 132 173 223 293 336 405
#     4  10  21  38  65 100 135 171 220 285 352 411
#     4  10  26  40  64  90 134 178 236 282 340 402
#     4  10  20  32  64  96 124 156 222 282 336 392
#
# _framework density 20.918472999999999
#
# number of rings (size 3 to 8) (size 9 to 14) (size 15 to 20)
#    0.000    1.600    1.000    3.600   12.600    0.000 
#    0.000    0.000    8.800    0.000    0.000    0.000 
#    0.000    0.000    0.000    0.000    0.000    0.000 
#
# Total GULP energy -222734.021125 kJ/mol
# GULP energy per Si atom -5568.350528 kJ/mol
# Density = 2.087086 g / cm^3
# Si number density = 20.918473 Si / 1000 Ang^3
#
#
#
# Elastic Constant Matrix: (Units=GPa)
#
#
# Indices 1 2 3 4 5 6 
#
# 1 121.9788 23.9560 23.7660 0.0000 0.0000 0.0000
# 2 23.9560 93.8368 25.9729 0.0000 0.0000 0.0000
# 3 23.7660 25.9729 89.8748 0.0000 0.0000 0.0000
# 4 0.0000 0.0000 0.0000 10.0070 0.0000 0.0000
# 5 0.0000 0.0000 0.0000 0.0000 -17.0537 0.0000
# 6 0.0000 0.0000 0.0000 0.0000 0.0000 21.9389
#
#
#
# Elastic Compliance Matrix: (Units=1/GPa)
#
#
# Indices 1 2 3 4 5 6 
#
# 1 0.008904 -0.001762 -0.001845 0.000000 0.000000 0.000000
# 2 -0.001762 0.011932 -0.002982 0.000000 0.000000 0.000000
# 3 -0.001845 -0.002982 0.012476 0.000000 0.000000 0.000000
# 4 0.000000 0.000000 0.000000 0.099930 0.000000 0.000000
# 5 0.000000 0.000000 0.000000 0.000000 -0.058638 0.000000
# 6 0.000000 0.000000 0.000000 0.000000 0.000000 0.045581
#
#
# Mechanical properties :
#
#
# Convention : Reuss Voigt Hill
#
# Bulk Modulus (GPa) = 49.67030 50.34224 50.00627
# Shear Modulus (GPa) = 35.69498 18.44481 27.06990
#
# Velocity S-wave (km/s) = 4.13532 2.97264 3.60122
# Velocity P-wave (km/s) = 6.82623 5.99169 6.42253
#
# Compressibility (1/GPa) = 0.02013276
#
# Stress axis : x y z
#
# Youngs Moduli (GPa) = 112.31202 83.80706 80.15159
#
# Poissons Ratio (x) = 0.14770 0.14789
# Poissons Ratio (y) = 0.19793 0.23903
# Poissons Ratio (z) = 0.20723 0.24993
#
# Static dielectric constant tensor:
#      x y z
#    x 1.803780 0.000000 0.000000 
#    y 0.000000 1.649510 0.000000 
#    z 0.000000 0.000000 1.492810 
# 
# From -- ./inp_files/35073.got.cif
#   From: 2010.05.17/outbox.cif.g08.bks.cpg/sg52_18_cif.got.tgz:35073.got - 2010.06.03 12:15:38.
