data_PCOD9409687
_publ_section_title
;
Structure prediction by ZEFSAII (Michael W. Deem and Ramdas Pophale) SiO2 
 PCOD9409687
Probable space group: P N N A
;
_chemical_formula_sum "Si O2"
_cell_formula_units_Z 56
_cell_length_a 13.969038
_cell_length_b 25.635093
_cell_length_c 6.781711
_cell_angle_alpha 90.000000
_cell_angle_beta 90.000000
_cell_angle_gamma 90.000000
_cell_volume 2428.514353
_symmetry_space_group_name_H-M "P N N A"
_symmetry_group_IT_number 52
_symmetry_cell_setting 'orthorhombic'
loop_
_space_group_symop_operation_xyz
x,y,z
1/2-x,-y,z
x,1/2-y,1/2-z
1/2-x,1/2+y,1/2-z
-x,-y,-z
1/2+x,y,-z
-x,1/2+y,1/2+z
1/2+x,1/2-y,1/2+z
loop_
_atom_site_type_symbol
_atom_site_label
_atom_site_fract_x
_atom_site_fract_y
_atom_site_fract_z
Si Si1 0.147438 0.877943 0.510674
Si Si2 0.134325 0.394200 0.125270
Si Si3 0.017823 0.811716 0.760325
Si Si4 0.858354 0.008874 0.552520
Si Si5 0.340197 0.926616 0.917591
Si Si6 0.369030 0.459034 0.514779
Si Si7 0.010886 0.630371 0.356847
O O1 0.115981 0.836960 0.676173
O O2 0.110377 0.937454 0.550916
O O3 0.226480 0.932773 0.898241
O O4 0.087954 0.862565 0.313491
O O5 0.097845 0.451029 0.044405
O O6 0.150964 0.407888 0.356870
O O7 0.062188 0.345246 0.139068
O O8 0.239651 0.381180 0.037464
O O9 0.012162 0.750000 0.750000
O O10 0.006817 0.823108 0.991633
O O11 0.750000 0.000000 0.486437
O O12 0.852589 0.025093 0.784227
O O13 0.404109 0.886389 0.793143
O O14 0.382550 0.984871 0.885654
O O15 0.453293 0.417951 0.495255
#
# Coordination Sequence:
#
# PCOD9409687 Si02
#       7
#     8   8   8   8   8   8   8
#     4  10  20  41  67  93 122 162 198 251 321 372
#     4   9  17  38  64  87 129 165 194 251 323 366
#     4  11  26  44  58  90 122 156 218 267 287 360
#     4   8  12  28  62  91 119 160 194 233 309 390
#     4   9  14  27  55  88 123 158 193 235 296 377
#     4   9  13  27  50  88 123 159 191 230 303 365
#     4  10  20  35  61  86 113 159 207 249 301 356
#
# _framework density 23.059365
#
# number of rings (size 3 to 8) (size 9 to 14) (size 15 to 20)
#    0.000    2.571    5.714    0.429    0.000    2.286 
#    5.143    0.000    6.286    0.000    0.000    0.000 
#    0.000    0.000    0.000    0.000    0.000    0.000 
#
# Total GULP energy -312782.137808 kJ/mol
# GULP energy per Si atom -5585.395318 kJ/mol
# Density = 2.300688 g / cm^3
# Si number density = 23.059365 Si / 1000 Ang^3
#
#
#
# Elastic Constant Matrix: (Units=GPa)
#
#
# Indices 1 2 3 4 5 6 
#
# 1 98.6137 45.6132 15.6462 0.0000 0.0000 0.0000
# 2 45.6132 173.8450 35.9002 0.0000 0.0000 0.0000
# 3 15.6462 35.9002 78.1162 0.0000 0.0000 0.0000
# 4 0.0000 0.0000 0.0000 29.6571 0.0000 0.0000
# 5 0.0000 0.0000 0.0000 0.0000 38.0193 0.0000
# 6 0.0000 0.0000 0.0000 0.0000 0.0000 18.4160
#
#
#
# Elastic Compliance Matrix: (Units=1/GPa)
#
#
# Indices 1 2 3 4 5 6 
#
# 1 0.011615 -0.002836 -0.001023 0.000000 0.000000 0.000000
# 2 -0.002836 0.007048 -0.002671 0.000000 0.000000 0.000000
# 3 -0.001023 -0.002671 0.014234 0.000000 0.000000 0.000000
# 4 0.000000 0.000000 0.000000 0.033719 0.000000 0.000000
# 5 0.000000 0.000000 0.000000 0.000000 0.026302 0.000000
# 6 0.000000 0.000000 0.000000 0.000000 0.000000 0.054301
#
#
# Mechanical properties :
#
#
# Convention : Reuss Voigt Hill
#
# Bulk Modulus (GPa) = 50.41253 60.54380 55.47816
# Shear Modulus (GPa) = 29.95972 34.11284 32.03628
#
# Velocity S-wave (km/s) = 3.60841 3.85040 3.73137
# Velocity P-wave (km/s) = 6.26661 6.78823 6.53263
#
# Compressibility (1/GPa) = 0.01983634
#
# Stress axis : x y z
#
# Youngs Moduli (GPa) = 86.09739 141.88427 70.25503
#
# Poissons Ratio (x) = 0.40242 0.07186
# Poissons Ratio (y) = 0.24419 0.18765
# Poissons Ratio (z) = 0.08807 0.37897
#
# Static dielectric constant tensor:
#      x y z
#    x 1.882180 0.000000 0.000000 
#    y 0.000000 1.817830 0.000000 
#    z 0.000000 0.000000 2.002520 
# 
# From -- ./inp_files/5303.got.cif
#   From: 2010.05.17/outbox.cif.g08.bks.cpg/sg52_3_cif.got.tgz:5303.got - 2010.06.03 12:15:38.
