data_PCOD9409328
_publ_section_title
;
Structure prediction by ZEFSAII (Michael W. Deem and Ramdas Pophale) SiO2 
 PCOD9409328
Probable space group: P N N A
;
_chemical_formula_sum "Si O2"
_cell_formula_units_Z 52
_cell_length_a 15.189210
_cell_length_b 9.078856
_cell_length_c 17.687017
_cell_angle_alpha 90.000000
_cell_angle_beta 90.000000
_cell_angle_gamma 90.000000
_cell_volume 2439.051147
_symmetry_space_group_name_H-M "P N N A"
_symmetry_group_IT_number 52
_symmetry_cell_setting 'orthorhombic'
loop_
_space_group_symop_operation_xyz
x,y,z
1/2-x,-y,z
x,1/2-y,1/2-z
1/2-x,1/2+y,1/2-z
-x,-y,-z
1/2+x,y,-z
-x,1/2+y,1/2+z
1/2+x,1/2-y,1/2+z
loop_
_atom_site_type_symbol
_atom_site_label
_atom_site_fract_x
_atom_site_fract_y
_atom_site_fract_z
Si Si1 0.465552 0.951885 0.886394
Si Si2 0.250000 0.500000 0.755251
Si Si3 0.404189 0.825181 0.169288
Si Si4 0.250000 0.500000 0.416029
Si Si5 0.632511 0.750000 0.250000
Si Si6 0.593181 0.181291 0.327118
Si Si7 0.966968 0.390006 0.107835
Si Si8 0.394265 0.182808 0.007784
O O1 0.390068 0.835531 0.867930
O O2 0.516755 0.052699 0.825227
O O3 0.429166 0.066165 0.946282
O O4 0.541243 0.848360 0.921998
O O5 0.309083 0.380194 0.713997
O O6 0.317511 0.597582 0.804786
O O7 0.386952 0.750000 0.250000
O O8 0.440018 0.696850 0.112376
O O9 0.322188 0.912946 0.134235
O O10 0.299613 0.375129 0.465619
O O11 0.580442 0.677079 0.182074
O O12 0.550531 0.250000 0.250000
O O13 0.536964 0.063147 0.374524
O O14 0.913014 0.338193 0.033630
#
# Coordination Sequence:
#
# PCOD9409328 Si02
#       8
#     8   4   8   4   4   8   8   8
#     4   9  20  38  63  86 120 158 212 245 305 382
#     4  10  22  33  50  84 127 146 184 238 314 364
#     4  10  19  39  66  91 122 164 214 269 311 368
#     4  10  22  39  64  94 129 164 212 262 320 376
#     4  10  20  34  52  86 118 156 194 248 304 362
#     4  11  22  36  56  92 124 157 198 262 312 373
#     4  10  21  35  62  88 119 162 210 248 310 374
#     4   9  20  38  59  88 117 166 205 247 301 383
#
# _framework density 21.319766000000001
#
# number of rings (size 3 to 8) (size 9 to 14) (size 15 to 20)
#    0.000    2.154    1.538    1.846    6.462    3.692 
#    0.000    6.154    0.000    3.692    0.000    0.000 
#    0.000    0.000    0.000    0.000    0.000    0.000 
#
# Total GULP energy -289684.010248 kJ/mol
# GULP energy per Si atom -5570.846351 kJ/mol
# Density = 2.127124 g / cm^3
# Si number density = 21.319766 Si / 1000 Ang^3
#
#
#
# Elastic Constant Matrix: (Units=GPa)
#
#
# Indices 1 2 3 4 5 6 
#
# 1 86.2541 39.7580 21.0238 0.0000 0.0000 0.0000
# 2 39.7580 153.2488 34.1765 0.0000 0.0000 0.0000
# 3 21.0238 34.1765 63.2589 0.0000 0.0000 0.0000
# 4 0.0000 0.0000 0.0000 32.3046 0.0000 0.0000
# 5 0.0000 0.0000 0.0000 0.0000 9.5750 0.0000
# 6 0.0000 0.0000 0.0000 0.0000 0.0000 37.4132
#
#
#
# Elastic Compliance Matrix: (Units=1/GPa)
#
#
# Indices 1 2 3 4 5 6 
#
# 1 0.013646 -0.002875 -0.002982 0.000000 0.000000 0.000000
# 2 -0.002875 0.008025 -0.003380 0.000000 0.000000 0.000000
# 3 -0.002982 -0.003380 0.018625 0.000000 0.000000 0.000000
# 4 0.000000 0.000000 0.000000 0.030955 0.000000 0.000000
# 5 0.000000 0.000000 0.000000 0.000000 0.104438 0.000000
# 6 0.000000 0.000000 0.000000 0.000000 0.000000 0.026729
#
#
# Mechanical properties :
#
#
# Convention : Reuss Voigt Hill
#
# Bulk Modulus (GPa) = 45.82551 54.74204 50.28378
# Shear Modulus (GPa) = 21.91385 29.71213 25.81299
#
# Velocity S-wave (km/s) = 3.20951 3.73720 3.48336
# Velocity P-wave (km/s) = 5.93933 6.65993 6.30993
#
# Compressibility (1/GPa) = 0.02182191
#
# Stress axis : x y z
#
# Youngs Moduli (GPa) = 73.28301 124.60956 53.69078
#
# Poissons Ratio (x) = 0.35828 0.16009
# Poissons Ratio (y) = 0.21070 0.18148
# Poissons Ratio (z) = 0.21851 0.42119
#
# Static dielectric constant tensor:
#      x y z
#    x 1.851430 0.000000 0.000000 
#    y 0.000000 1.849720 0.000000 
#    z 0.000000 0.000000 1.879880 
# 
# From -- ./inp_files/33740.got.cif
#   From: 2010.05.17/outbox.cif.g08.bks.cpg/sg52_17_cif.got.tgz:33740.got - 2010.06.03 12:15:38.
