data_PCOD9409592
_publ_section_title
;
Structure prediction by ZEFSAII (Michael W. Deem and Ramdas Pophale) SiO2 
 PCOD9409592
Probable space group: P N N A
;
_chemical_formula_sum "Si O2"
_cell_formula_units_Z 48
_cell_length_a 11.790631
_cell_length_b 7.562514
_cell_length_c 23.480234
_cell_angle_alpha 90.000000
_cell_angle_beta 90.000000
_cell_angle_gamma 90.000000
_cell_volume 2093.657611
_symmetry_space_group_name_H-M "P N N A"
_symmetry_group_IT_number 52
_symmetry_cell_setting 'orthorhombic'
loop_
_space_group_symop_operation_xyz
x,y,z
1/2-x,-y,z
x,1/2-y,1/2-z
1/2-x,1/2+y,1/2-z
-x,-y,-z
1/2+x,y,-z
-x,1/2+y,1/2+z
1/2+x,1/2-y,1/2+z
loop_
_atom_site_type_symbol
_atom_site_label
_atom_site_fract_x
_atom_site_fract_y
_atom_site_fract_z
Si Si1 0.223834 0.250000 0.750000
Si Si2 0.360107 0.592461 0.283946
Si Si3 0.750000 0.500000 0.347776
Si Si4 0.525512 0.798291 0.982464
Si Si5 0.026341 0.430037 0.809194
Si Si6 0.117291 0.982934 0.568504
Si Si7 0.497153 0.428324 0.367794
O O1 0.278964 0.333805 0.693765
O O2 0.142643 0.405489 0.774522
O O3 0.250000 0.500000 0.308517
O O4 0.302757 0.750000 0.250000
O O5 0.436509 0.521398 0.231364
O O6 0.444811 0.598943 0.337572
O O7 0.632253 0.454950 0.379764
O O8 0.426048 0.655848 0.967050
O O9 0.572786 0.845448 0.919872
O O10 0.594156 0.691491 0.030395
O O11 0.500000 0.000000 0.000000
O O12 0.051494 0.512796 0.871180
O O13 0.991065 0.227832 0.821529
O O14 0.250000 0.000000 0.579955
#
# Coordination Sequence:
#
# PCOD9409592 Si02
#       7
#     4   8   4   8   8   8   8
#     4  10  20  34  58  98 142 170 206 278 346 436
#     4  12  25  42  66  96 138 184 231 278 349 435
#     4  10  20  34  64  94 138 166 210 276 356 412
#     4  10  24  46  67  98 143 180 243 300 349 424
#     4  10  20  42  64  96 138 171 218 282 346 423
#     4  10  24  45  73 102 135 190 239 295 364 427
#     4  10  22  42  63  97 134 178 226 285 349 414
#
# _framework density 22.926386999999998
#
# number of rings (size 3 to 8) (size 9 to 14) (size 15 to 20)
#    0.000    1.667    3.333    1.000    4.667    4.667 
#    3.000    7.500    0.000    0.000    0.000    0.000 
#    0.000    0.000    0.000    0.000    0.000    0.000 
#
# Total GULP energy -267258.210365 kJ/mol
# GULP energy per Si atom -5567.879383 kJ/mol
# Density = 2.287421 g / cm^3
# Si number density = 22.926387 Si / 1000 Ang^3
#
#
#
# Elastic Constant Matrix: (Units=GPa)
#
#
# Indices 1 2 3 4 5 6 
#
# 1 68.9108 0.0533 21.3427 0.0000 0.0000 0.0000
# 2 0.0533 66.7218 19.8077 0.0000 0.0000 0.0000
# 3 21.3427 19.8077 107.4004 0.0000 0.0000 0.0000
# 4 0.0000 0.0000 0.0000 40.3973 0.0000 0.0000
# 5 0.0000 0.0000 0.0000 0.0000 10.6993 0.0000
# 6 0.0000 0.0000 0.0000 0.0000 0.0000 3.3339
#
#
#
# Elastic Compliance Matrix: (Units=1/GPa)
#
#
# Indices 1 2 3 4 5 6 
#
# 1 0.015521 0.000956 -0.003261 0.000000 0.000000 0.000000
# 2 0.000956 0.015915 -0.003125 0.000000 0.000000 0.000000
# 3 -0.003261 -0.003125 0.010535 0.000000 0.000000 0.000000
# 4 0.000000 0.000000 0.000000 0.024754 0.000000 0.000000
# 5 0.000000 0.000000 0.000000 0.000000 0.093464 0.000000
# 6 0.000000 0.000000 0.000000 0.000000 0.000000 0.299953
#
#
# Mechanical properties :
#
#
# Convention : Reuss Voigt Hill
#
# Bulk Modulus (GPa) = 32.14349 36.16005 34.15177
# Shear Modulus (GPa) = 10.38698 24.34137 17.36418
#
# Velocity S-wave (km/s) = 2.13083 3.26194 2.75505
# Velocity P-wave (km/s) = 4.48382 5.47663 5.00490
#
# Compressibility (1/GPa) = 0.03111049
#
# Stress axis : x y z
#
# Youngs Moduli (GPa) = 64.43049 62.83558 94.91971
#
# Poissons Ratio (x) = -0.06004 0.30949
# Poissons Ratio (y) = -0.06157 0.29662
# Poissons Ratio (z) = 0.21008 0.19636
#
# Static dielectric constant tensor:
#      x y z
#    x 1.821340 0.000000 0.000000 
#    y 0.000000 2.124490 0.000000 
#    z 0.000000 0.000000 2.011500 
# 
# From -- ./inp_files/40208.got.cif
#   From: 2010.05.17/outbox.cif.g08.bks.cpg/sg52_21_cif.got.tgz:40208.got - 2010.06.03 12:15:38.
