data_PCOD9409453
_publ_section_title
;
Structure prediction by ZEFSAII (Michael W. Deem and Ramdas Pophale) SiO2 
 PCOD9409453
Probable space group: P N N A
;
_chemical_formula_sum "Si O2"
_cell_formula_units_Z 40
_cell_length_a 8.778669
_cell_length_b 20.964010
_cell_length_c 10.412816
_cell_angle_alpha 90.000000
_cell_angle_beta 90.000000
_cell_angle_gamma 90.000000
_cell_volume 1916.334096
_symmetry_space_group_name_H-M "P N N A"
_symmetry_group_IT_number 52
_symmetry_cell_setting 'orthorhombic'
loop_
_space_group_symop_operation_xyz
x,y,z
1/2-x,-y,z
x,1/2-y,1/2-z
1/2-x,1/2+y,1/2-z
-x,-y,-z
1/2+x,y,-z
-x,1/2+y,1/2+z
1/2+x,1/2-y,1/2+z
loop_
_atom_site_type_symbol
_atom_site_label
_atom_site_fract_x
_atom_site_fract_y
_atom_site_fract_z
Si Si1 0.250000 0.500000 0.998885
Si Si2 0.202889 0.250000 0.750000
Si Si3 0.506057 0.413513 0.115633
Si Si4 0.875043 0.828235 0.871592
Si Si5 0.518551 0.651804 0.618300
Si Si6 0.518759 0.687237 0.111836
O O1 0.376269 0.464347 0.081761
O O2 0.334027 0.553416 0.915268
O O3 0.094426 0.291508 0.660731
O O4 0.313196 0.295718 0.834016
O O5 0.493817 0.395666 0.263217
O O6 0.484150 0.353160 0.018564
O O7 0.694334 0.827542 0.888580
O O8 0.939302 0.756633 0.894860
O O9 0.926784 0.847180 0.727825
O O10 0.957656 0.870053 0.980143
#
# Coordination Sequence:
#
# PCOD9409453 Si02
#       6
#     4   4   8   8   8   8
#     4  10  24  42  64  92 110 150 226 276 308 352
#     4  10  20  32  56  92 126 158 194 226 298 390
#     4  11  23  42  67  86 116 160 210 265 310 348
#     4  10  22  36  56  93 132 159 195 231 303 401
#     4  12  22  36  58  86 126 166 197 244 300 363
#     4  10  21  38  61  94 130 160 192 246 308 383
#
# _framework density 20.873186
#
# number of rings (size 3 to 8) (size 9 to 14) (size 15 to 20)
#    0.000    1.600    0.000    7.200    0.000    4.800 
#    0.000    0.000    0.000   20.400    0.000    0.000 
#    0.000    0.000    0.000    0.000    0.000    0.000 
#
# Total GULP energy -223660.963347 kJ/mol
# GULP energy per Si atom -5591.524084 kJ/mol
# Density = 2.082568 g / cm^3
# Si number density = 20.873186 Si / 1000 Ang^3
#
#
#
# Elastic Constant Matrix: (Units=GPa)
#
#
# Indices 1 2 3 4 5 6 
#
# 1 129.8684 2.4190 22.7696 0.0000 0.0000 0.0000
# 2 2.4190 40.2916 20.8999 0.0000 0.0000 0.0000
# 3 22.7696 20.8999 118.4918 0.0000 0.0000 0.0000
# 4 0.0000 0.0000 0.0000 13.0376 0.0000 0.0000
# 5 0.0000 0.0000 0.0000 0.0000 19.7156 0.0000
# 6 0.0000 0.0000 0.0000 0.0000 0.0000 14.7421
#
#
#
# Elastic Compliance Matrix: (Units=1/GPa)
#
#
# Indices 1 2 3 4 5 6 
#
# 1 0.007973 0.000348 -0.001593 0.000000 0.000000 0.000000
# 2 0.000348 0.027334 -0.004888 0.000000 0.000000 0.000000
# 3 -0.001593 -0.004888 0.009608 0.000000 0.000000 0.000000
# 4 0.000000 0.000000 0.000000 0.076701 0.000000 0.000000
# 5 0.000000 0.000000 0.000000 0.000000 0.050721 0.000000
# 6 0.000000 0.000000 0.000000 0.000000 0.000000 0.067833
#
#
# Mechanical properties :
#
#
# Convention : Reuss Voigt Hill
#
# Bulk Modulus (GPa) = 30.63048 42.31429 36.47238
# Shear Modulus (GPa) = 18.98830 25.66993 22.32912
#
# Velocity S-wave (km/s) = 3.01939 3.51066 3.27425
# Velocity P-wave (km/s) = 5.18286 6.06210 5.63964
#
# Compressibility (1/GPa) = 0.03264722
#
# Stress axis : x y z
#
# Youngs Moduli (GPa) = 125.42325 36.58491 104.08240
#
# Poissons Ratio (x) = -0.01273 0.16585
# Poissons Ratio (y) = -0.04363 0.50876
# Poissons Ratio (z) = 0.19986 0.17883
#
# Static dielectric constant tensor:
#      x y z
#    x 1.762570 0.000000 0.000000 
#    y 0.000000 1.751790 0.000000 
#    z 0.000000 0.000000 1.828570 
# 
# From -- ./inp_files/7458.got.cif
#   From: 2010.05.17/outbox.cif.g08.bks.cpg/sg52_4_cif.got.tgz:7458.got - 2010.06.03 12:15:38.
