data_PCOD9409628
_publ_section_title
;
Structure prediction by ZEFSAII (Michael W. Deem and Ramdas Pophale) SiO2 
 PCOD9409628
Probable space group: P N N A
;
_chemical_formula_sum "Si O2"
_cell_formula_units_Z 48
_cell_length_a 25.231225
_cell_length_b 6.470058
_cell_length_c 16.699104
_cell_angle_alpha 90.000000
_cell_angle_beta 90.000000
_cell_angle_gamma 90.000000
_cell_volume 2726.086799
_symmetry_space_group_name_H-M "P N N A"
_symmetry_group_IT_number 52
_symmetry_cell_setting 'orthorhombic'
loop_
_space_group_symop_operation_xyz
x,y,z
1/2-x,-y,z
x,1/2-y,1/2-z
1/2-x,1/2+y,1/2-z
-x,-y,-z
1/2+x,y,-z
-x,1/2+y,1/2+z
1/2+x,1/2-y,1/2+z
loop_
_atom_site_type_symbol
_atom_site_label
_atom_site_fract_x
_atom_site_fract_y
_atom_site_fract_z
Si Si1 0.493168 0.583368 0.873301
Si Si2 0.073051 0.477425 0.606931
Si Si3 0.338949 0.781747 0.665643
Si Si4 0.578979 0.650783 0.995524
Si Si5 0.955083 0.250000 0.250000
Si Si6 0.804290 0.117558 0.449790
Si Si7 0.750000 0.500000 0.380183
O O1 0.452567 0.487007 0.939061
O O2 0.487179 0.430954 0.797306
O O3 0.473497 0.820234 0.867936
O O4 0.551185 0.594576 0.912233
O O5 0.124225 0.332208 0.601421
O O6 0.067005 0.615744 0.527562
O O7 0.078601 0.639131 0.680339
O O8 0.367875 0.750000 0.750000
O O9 0.286537 0.645962 0.672051
O O10 0.322927 0.003840 0.632671
O O11 0.642105 0.614815 0.998311
O O12 0.786222 0.349305 0.432565
O O13 0.750000 0.000000 0.476369
#
# Coordination Sequence:
#
# PCOD9409628 Si02
#       7
#     8   8   8   8   4   8   4
#     4  10  20  35  54  77 105 137 173 218 264 322
#     4  11  20  34  51  74 106 139 176 214 266 313
#     4  11  22  30  48  65  98 139 183 221 257 293
#     4  10  20  35  54  76 103 140 177 210 267 323
#     4  10  22  34  52  80 106 136 176 218 272 322
#     4  10  21  37  49  72 102 137 176 225 257 304
#     4  10  22  34  44  64  96 136 184 222 252 290
#
# _framework density 17.607657
#
# number of rings (size 3 to 8) (size 9 to 14) (size 15 to 20)
#    0.000    1.667    3.333    2.000    5.833    0.000 
#    0.000    0.000    0.000    0.000    0.000    0.000 
#    5.000    0.000    0.000    0.000    0.000    0.000 
#
# Total GULP energy -267279.681588 kJ/mol
# GULP energy per Si atom -5568.326700 kJ/mol
# Density = 1.756758 g / cm^3
# Si number density = 17.607657 Si / 1000 Ang^3
#
#
#
# Elastic Constant Matrix: (Units=GPa)
#
#
# Indices 1 2 3 4 5 6 
#
# 1 108.5539 38.7596 24.9518 0.0000 0.0000 0.0000
# 2 38.7596 82.9071 15.9167 0.0000 0.0000 0.0000
# 3 24.9518 15.9167 32.7522 0.0000 0.0000 0.0000
# 4 0.0000 0.0000 0.0000 19.1562 0.0000 0.0000
# 5 0.0000 0.0000 0.0000 0.0000 20.8917 0.0000
# 6 0.0000 0.0000 0.0000 0.0000 0.0000 28.4590
#
#
#
# Elastic Compliance Matrix: (Units=1/GPa)
#
#
# Indices 1 2 3 4 5 6 
#
# 1 0.012483 -0.004423 -0.007361 0.000000 0.000000 0.000000
# 2 -0.004423 0.014870 -0.003857 0.000000 0.000000 0.000000
# 3 -0.007361 -0.003857 0.038014 0.000000 0.000000 0.000000
# 4 0.000000 0.000000 0.000000 0.052202 0.000000 0.000000
# 5 0.000000 0.000000 0.000000 0.000000 0.047866 0.000000
# 6 0.000000 0.000000 0.000000 0.000000 0.000000 0.035138
#
#
# Mechanical properties :
#
#
# Convention : Reuss Voigt Hill
#
# Bulk Modulus (GPa) = 29.33719 42.60770 35.97245
# Shear Modulus (GPa) = 20.55779 23.34038 21.94908
#
# Velocity S-wave (km/s) = 3.42065 3.64480 3.53450
# Velocity P-wave (km/s) = 5.68321 6.47794 6.09355
#
# Compressibility (1/GPa) = 0.03408643
#
# Stress axis : x y z
#
# Youngs Moduli (GPa) = 80.10827 67.25019 26.30590
#
# Poissons Ratio (x) = 0.29743 0.19363
# Poissons Ratio (y) = 0.35430 0.10146
# Poissons Ratio (z) = 0.58965 0.25938
#
# Static dielectric constant tensor:
#      x y z
#    x 1.643880 0.000000 0.000000 
#    y 0.000000 1.669460 0.000000 
#    z 0.000000 0.000000 1.628030 
# 
# From -- ./inp_files/34282.got.cif
#   From: 2010.05.17/outbox.cif.g08.bks.cpg/sg52_18_cif.got.tgz:34282.got - 2010.06.03 12:15:38.
