data_PCOD9409875
_publ_section_title
;
Structure prediction by ZEFSAII (Michael W. Deem and Ramdas Pophale) SiO2 
 PCOD9409875
Probable space group: P N N A
;
_chemical_formula_sum "Si O2"
_cell_formula_units_Z 52
_cell_length_a 26.759566
_cell_length_b 5.037656
_cell_length_c 20.279357
_cell_angle_alpha 90.000000
_cell_angle_beta 90.000000
_cell_angle_gamma 90.000000
_cell_volume 2733.768621
_symmetry_space_group_name_H-M "P N N A"
_symmetry_group_IT_number 52
_symmetry_cell_setting 'orthorhombic'
loop_
_space_group_symop_operation_xyz
x,y,z
1/2-x,-y,z
x,1/2-y,1/2-z
1/2-x,1/2+y,1/2-z
-x,-y,-z
1/2+x,y,-z
-x,1/2+y,1/2+z
1/2+x,1/2-y,1/2+z
loop_
_atom_site_type_symbol
_atom_site_label
_atom_site_fract_x
_atom_site_fract_y
_atom_site_fract_z
Si Si1 0.717223 0.750000 0.250000
Si Si2 0.136649 0.155412 0.446808
Si Si3 0.699416 0.657882 0.519139
Si Si4 0.659308 0.606927 0.380100
Si Si5 0.493264 0.743006 0.675280
Si Si6 0.098273 0.400622 0.912589
Si Si7 0.066003 0.239339 0.324211
O O1 0.750000 0.500000 0.227006
O O2 0.684567 0.645619 0.310357
O O3 0.156865 0.447501 0.462367
O O4 0.100096 0.082720 0.507981
O O5 0.107692 0.181869 0.378586
O O6 0.181892 0.938717 0.449830
O O7 0.750000 0.500000 0.537012
O O8 0.696183 0.689947 0.439910
O O9 0.641806 0.306307 0.391966
O O10 0.612531 0.808756 0.385948
O O11 0.470808 0.750000 0.750000
O O12 0.451158 0.782731 0.620306
O O13 0.530392 0.494773 0.665043
O O14 0.528519 0.995721 0.673497
O O15 0.087536 0.250000 0.250000
#
# Coordination Sequence:
#
# PCOD9409875 Si02
#       7
#     4   8   8   8   8   8   8
#     4  12  24  36  52  76 106 150 196 232 284 326
#     4  10  21  36  58  83 111 144 185 226 279 334
#     4  10  20  37  58  82 109 142 183 228 276 335
#     4  10  22  35  53  77 110 147 183 236 275 321
#     4  10  21  34  55  80 112 150 188 226 271 333
#     4  10  21  36  53  82 109 146 191 227 278 315
#     4  10  21  38  56  83 111 145 183 225 282 339
#
# _framework density 19.021360999999999
#
# number of rings (size 3 to 8) (size 9 to 14) (size 15 to 20)
#    0.000    1.846    0.000    3.692    2.154    3.692 
#    0.000    0.000    0.000    1.846    0.000    0.000 
#    0.000    0.000    0.000    0.000    0.000    0.000 
#
# Total GULP energy -290102.450386 kJ/mol
# GULP energy per Si atom -5578.893277 kJ/mol
# Density = 1.897807 g / cm^3
# Si number density = 19.021361 Si / 1000 Ang^3
#
#
#
# Elastic Constant Matrix: (Units=GPa)
#
#
# Indices 1 2 3 4 5 6 
#
# 1 44.5083 0.9777 54.3544 0.0000 0.0000 0.0000
# 2 0.9777 104.9077 13.6190 0.0000 0.0000 0.0000
# 3 54.3544 13.6190 124.5229 0.0000 0.0000 0.0000
# 4 0.0000 0.0000 0.0000 20.3529 0.0000 0.0000
# 5 0.0000 0.0000 0.0000 0.0000 7.1024 0.0000
# 6 0.0000 0.0000 0.0000 0.0000 0.0000 19.7021
#
#
#
# Elastic Compliance Matrix: (Units=1/GPa)
#
#
# Indices 1 2 3 4 5 6 
#
# 1 0.048676 0.002338 -0.021503 0.000000 0.000000 0.000000
# 2 0.002338 0.009782 -0.002090 0.000000 0.000000 0.000000
# 3 -0.021503 -0.002090 0.017645 0.000000 0.000000 0.000000
# 4 0.000000 0.000000 0.000000 0.049133 0.000000 0.000000
# 5 0.000000 0.000000 0.000000 0.000000 0.140797 0.000000
# 6 0.000000 0.000000 0.000000 0.000000 0.000000 0.050756
#
#
# Mechanical properties :
#
#
# Convention : Reuss Voigt Hill
#
# Bulk Modulus (GPa) = 29.76856 45.76012 37.76434
# Shear Modulus (GPa) = 13.49537 23.09734 18.29636
#
# Velocity S-wave (km/s) = 2.66651 3.48844 3.10479
# Velocity P-wave (km/s) = 5.01641 6.35099 5.72274
#
# Compressibility (1/GPa) = 0.03359249
#
# Stress axis : x y z
#
# Youngs Moduli (GPa) = 20.54398 102.23111 56.67235
#
# Poissons Ratio (x) = -0.23900 1.21862
# Poissons Ratio (y) = -0.04803 0.11846
# Poissons Ratio (z) = 0.44175 0.21369
#
# Static dielectric constant tensor:
#      x y z
#    x 1.645950 0.000000 0.000000 
#    y 0.000000 1.650370 0.000000 
#    z 0.000000 0.000000 1.692790 
# 
# From -- ./inp_files/34444.got.cif
#   From: 2010.05.17/outbox.cif.g08.bks.cpg/sg52_18_cif.got.tgz:34444.got - 2010.06.03 12:15:38.
