data_PCOD9409622
_publ_section_title
;
Structure prediction by ZEFSAII (Michael W. Deem and Ramdas Pophale) SiO2 
 PCOD9409622
Probable space group: P N N A
;
_chemical_formula_sum "Si O2"
_cell_formula_units_Z 48
_cell_length_a 26.225084
_cell_length_b 15.656403
_cell_length_c 5.243362
_cell_angle_alpha 90.000000
_cell_angle_beta 90.000000
_cell_angle_gamma 90.000000
_cell_volume 2152.874540
_symmetry_space_group_name_H-M "P N N A"
_symmetry_group_IT_number 52
_symmetry_cell_setting 'orthorhombic'
loop_
_space_group_symop_operation_xyz
x,y,z
1/2-x,-y,z
x,1/2-y,1/2-z
1/2-x,1/2+y,1/2-z
-x,-y,-z
1/2+x,y,-z
-x,1/2+y,1/2+z
1/2+x,1/2-y,1/2+z
loop_
_atom_site_type_symbol
_atom_site_label
_atom_site_fract_x
_atom_site_fract_y
_atom_site_fract_z
Si Si1 0.873553 0.728148 0.500292
Si Si2 0.848659 0.533996 0.571549
Si Si3 0.080981 0.659564 0.910814
Si Si4 0.547387 0.940976 0.914551
Si Si5 0.737297 0.300303 0.002040
Si Si6 0.815507 0.440188 0.057061
O O1 0.904163 0.750000 0.250000
O O2 0.851128 0.633718 0.509457
O O3 0.824301 0.791461 0.499357
O O4 0.904592 0.750000 0.750000
O O5 0.906114 0.505525 0.635989
O O6 0.825971 0.484711 0.327858
O O7 0.819822 0.505579 0.824130
O O8 0.080414 0.750000 0.750000
O O9 0.060963 0.601553 0.682884
O O10 0.139370 0.631407 0.972466
O O11 0.050355 0.628583 0.174901
O O12 0.500000 0.000000 0.000000
O O13 0.754979 0.250000 0.250000
O O14 0.762436 0.391420 0.033111
O O15 0.754593 0.250000 0.750000
#
# Coordination Sequence:
#
# PCOD9409622 Si02
#       6
#     8   8   8   8   8   8
#     4  10  21  39  56  77 111 148 187 233 280 334
#     4  10  21  38  59  81 109 151 191 229 286 348
#     4  10  20  35  59  87 117 148 187 237 290 346
#     4  10  21  38  59  85 118 151 188 239 291 345
#     4  10  20  35  53  78 110 144 181 229 279 325
#     4  10  20  35  58  84 110 146 188 233 286 338
#
# _framework density 22.295770999999998
#
# number of rings (size 3 to 8) (size 9 to 14) (size 15 to 20)
#    0.000    2.000    0.000    3.500    0.000    2.667 
#    0.000   22.500    0.000    0.000    0.000    0.000 
#    0.000    0.000    0.000    0.000    0.000    0.000 
#
# Total GULP energy -267415.580444 kJ/mol
# GULP energy per Si atom -5571.157926 kJ/mol
# Density = 2.224502 g / cm^3
# Si number density = 22.295771 Si / 1000 Ang^3
#
#
#
# Elastic Constant Matrix: (Units=GPa)
#
#
# Indices 1 2 3 4 5 6 
#
# 1 55.6840 19.3292 20.5954 0.0000 0.0000 0.0000
# 2 19.3292 68.9140 33.4495 0.0000 0.0000 0.0000
# 3 20.5954 33.4495 192.4944 0.0000 0.0000 0.0000
# 4 0.0000 0.0000 0.0000 39.7439 0.0000 0.0000
# 5 0.0000 0.0000 0.0000 0.0000 11.8190 0.0000
# 6 0.0000 0.0000 0.0000 0.0000 0.0000 4.6478
#
#
#
# Elastic Compliance Matrix: (Units=1/GPa)
#
#
# Indices 1 2 3 4 5 6 
#
# 1 0.020182 -0.005037 -0.001284 0.000000 0.000000 0.000000
# 2 -0.005037 0.017105 -0.002433 0.000000 0.000000 0.000000
# 3 -0.001284 -0.002433 0.005755 0.000000 0.000000 0.000000
# 4 0.000000 0.000000 0.000000 0.025161 0.000000 0.000000
# 5 0.000000 0.000000 0.000000 0.000000 0.084609 0.000000
# 6 0.000000 0.000000 0.000000 0.000000 0.000000 0.215157
#
#
# Mechanical properties :
#
#
# Convention : Reuss Voigt Hill
#
# Bulk Modulus (GPa) = 39.16579 51.53784 45.35181
# Shear Modulus (GPa) = 12.69069 27.49003 20.09036
#
# Velocity S-wave (km/s) = 2.38837 3.51518 3.00506
# Velocity P-wave (km/s) = 5.02099 6.29611 5.69436
#
# Compressibility (1/GPa) = 0.02553249
#
# Stress axis : x y z
#
# Youngs Moduli (GPa) = 49.54910 58.46295 173.75698
#
# Poissons Ratio (x) = 0.29451 0.22310
# Poissons Ratio (y) = 0.24960 0.42281
# Poissons Ratio (z) = 0.06362 0.14226
#
# Static dielectric constant tensor:
#      x y z
#    x 1.915670 0.000000 0.000000 
#    y 0.000000 1.953570 0.000000 
#    z 0.000000 0.000000 1.973740 
# 
# From -- ./inp_files/5809.got.cif
#   From: 2010.05.17/outbox.cif.g08.bks.cpg/sg52_3_cif.got.tgz:5809.got - 2010.06.03 12:15:38.
