data_PCOD9409514
_publ_section_title
;
Structure prediction by ZEFSAII (Michael W. Deem and Ramdas Pophale) SiO2 
 PCOD9409514
Probable space group: P N N A
;
_chemical_formula_sum "Si O2"
_cell_formula_units_Z 52
_cell_length_a 17.154171
_cell_length_b 9.451092
_cell_length_c 14.166063
_cell_angle_alpha 90.000000
_cell_angle_beta 90.000000
_cell_angle_gamma 90.000000
_cell_volume 2296.682148
_symmetry_space_group_name_H-M "P N N A"
_symmetry_group_IT_number 52
_symmetry_cell_setting 'orthorhombic'
loop_
_space_group_symop_operation_xyz
x,y,z
1/2-x,-y,z
x,1/2-y,1/2-z
1/2-x,1/2+y,1/2-z
-x,-y,-z
1/2+x,y,-z
-x,1/2+y,1/2+z
1/2+x,1/2-y,1/2+z
loop_
_atom_site_type_symbol
_atom_site_label
_atom_site_fract_x
_atom_site_fract_y
_atom_site_fract_z
Si Si1 0.718239 0.750000 0.250000
Si Si2 0.316476 0.675979 0.413266
Si Si3 0.147404 0.139315 0.863721
Si Si4 0.041121 0.355011 0.105784
Si Si5 0.861928 0.138368 0.897215
Si Si6 0.902279 0.170535 0.118071
Si Si7 0.995585 0.835361 0.380207
O O1 0.778586 0.856474 0.203642
O O2 0.659022 0.720862 0.164926
O O3 0.322338 0.655530 0.527740
O O4 0.369791 0.808045 0.385168
O O5 0.226645 0.692523 0.383604
O O6 0.354275 0.528920 0.375461
O O7 0.085341 0.264864 0.848700
O O8 0.107075 0.989196 0.847374
O O9 0.018693 0.506078 0.148362
O O10 0.986312 0.229773 0.141423
O O11 0.018658 0.350629 0.993798
O O12 0.933403 0.228663 0.855871
O O13 0.881792 0.155936 0.008343
#
# Coordination Sequence:
#
# PCOD9409514 Si02
#       7
#     4   8   8   8   8   8   8
#     4  12  22  32  52  78 104 136 180 220 246 292
#     4   9  16  30  52  75  99 131 172 214 257 308
#     4  10  20  34  49  69 100 139 178 211 252 307
#     4   9  18  31  47  70  99 131 168 214 264 305
#     4   9  16  30  52  75  99 131 172 214 257 308
#     4  10  20  34  49  69 100 139 178 211 252 307
#     4   9  18  31  47  70  99 131 168 214 264 305
#
# _framework density 22.641355999999998
#
# number of rings (size 3 to 8) (size 9 to 14) (size 15 to 20)
#    0.000    2.462    1.538    1.385    0.000    6.769 
#    0.000    0.000    0.000    0.000    0.000    1.077 
#    0.000    0.000    0.000    0.000    0.000    0.000 
#
# Total GULP energy -290036.350512 kJ/mol
# GULP energy per Si atom -5577.622125 kJ/mol
# Density = 2.258982 g / cm^3
# Si number density = 22.641356 Si / 1000 Ang^3
#
#
#
# Elastic Constant Matrix: (Units=GPa)
#
#
# Indices 1 2 3 4 5 6 
#
# 1 109.4974 27.8169 -12.3209 0.0000 0.0000 0.0000
# 2 27.8169 57.8949 -2.3497 0.0000 0.0000 0.0000
# 3 -12.3209 -2.3497 38.0582 0.0000 0.0000 0.0000
# 4 0.0000 0.0000 0.0000 -5.9768 0.0000 0.0000
# 5 0.0000 0.0000 0.0000 0.0000 7.4967 0.0000
# 6 0.0000 0.0000 0.0000 0.0000 0.0000 13.0585
#
#
#
# Elastic Compliance Matrix: (Units=1/GPa)
#
#
# Indices 1 2 3 4 5 6 
#
# 1 0.010772 -0.005047 0.003176 0.000000 0.000000 0.000000
# 2 -0.005047 0.019681 -0.000419 0.000000 0.000000 0.000000
# 3 0.003176 -0.000419 0.027278 0.000000 0.000000 0.000000
# 4 0.000000 0.000000 0.000000 -0.167313 0.000000 0.000000
# 5 0.000000 0.000000 0.000000 0.000000 0.133392 0.000000
# 6 0.000000 0.000000 0.000000 0.000000 0.000000 0.076578
#
#
# Mechanical properties :
#
#
# Convention : Reuss Voigt Hill
#
# Bulk Modulus (GPa) = 18.81442 25.74924 22.28183
# Shear Modulus (GPa) = 40.75503 15.73595 28.24549
#
# Velocity S-wave (km/s) = 4.24727 2.63916 3.53585
# Velocity P-wave (km/s) = 5.69036 4.54799 5.15095
#
# Compressibility (1/GPa) = 0.05315073
#
# Stress axis : x y z
#
# Youngs Moduli (GPa) = 92.83253 50.81161 36.65984
#
# Poissons Ratio (x) = 0.25644 -0.11642
# Poissons Ratio (y) = 0.46851 0.01535
# Poissons Ratio (z) = -0.29481 0.02128
#
# Static dielectric constant tensor:
#      x y z
#    x 1.709430 0.000000 0.000000 
#    y 0.000000 1.834100 0.000000 
#    z 0.000000 0.000000 1.930130 
# 
# From -- ./inp_files/33705.got.cif
#   From: 2010.05.17/outbox.cif.g08.bks.cpg/sg52_17_cif.got.tgz:33705.got - 2010.06.03 12:15:38.
