data_PCOD9409505
_publ_section_title
;
Structure prediction by ZEFSAII (Michael W. Deem and Ramdas Pophale) SiO2 
 PCOD9409505
Probable space group: P N N A
;
_chemical_formula_sum "Si O2"
_cell_formula_units_Z 60
_cell_length_a 10.745444
_cell_length_b 24.035337
_cell_length_c 10.426234
_cell_angle_alpha 90.000000
_cell_angle_beta 90.000000
_cell_angle_gamma 90.000000
_cell_volume 2692.787289
_symmetry_space_group_name_H-M "P N N A"
_symmetry_group_IT_number 52
_symmetry_cell_setting 'orthorhombic'
loop_
_space_group_symop_operation_xyz
x,y,z
1/2-x,-y,z
x,1/2-y,1/2-z
1/2-x,1/2+y,1/2-z
-x,-y,-z
1/2+x,y,-z
-x,1/2+y,1/2+z
1/2+x,1/2-y,1/2+z
loop_
_atom_site_type_symbol
_atom_site_label
_atom_site_fract_x
_atom_site_fract_y
_atom_site_fract_z
Si Si1 0.208718 0.371569 0.242915
Si Si2 0.363471 0.750000 0.750000
Si Si3 0.735033 0.706335 0.983589
Si Si4 0.569323 0.468922 0.850010
Si Si5 0.587623 0.696257 0.631464
Si Si6 0.358959 0.539445 0.856835
Si Si7 0.519614 0.694613 0.337785
Si Si8 0.650469 0.622748 0.155214
O O1 0.335893 0.355315 0.312618
O O2 0.176975 0.436460 0.225868
O O3 0.100934 0.342985 0.323764
O O4 0.195194 0.338686 0.106435
O O5 0.294179 0.733287 0.885219
O O6 0.463983 0.702489 0.715781
O O7 0.627746 0.666836 0.041794
O O8 0.685684 0.752136 0.884173
O O9 0.495806 0.524118 0.802997
O O10 0.454789 0.424239 0.853758
O O11 0.621726 0.475588 0.993127
O O12 0.540244 0.700656 0.486483
O O13 0.250000 0.500000 0.800140
O O14 0.289377 0.598240 0.851518
O O15 0.509429 0.750000 0.250000
O O16 0.633035 0.658184 0.282958
#
# Coordination Sequence:
#
# PCOD9409505 Si02
#       8
#     8   4   8   8   8   8   8   8
#     4  11  22  37  58  79 117 157 193 251 297 355
#     4  12  26  36  58  84 120 166 204 246 288 360
#     4  12  22  38  54  85 118 160 203 240 297 355
#     4   9  19  33  55  85 115 150 186 250 308 355
#     4  12  23  39  53  81 120 157 203 246 292 355
#     4   9  17  34  56  87 117 144 191 248 306 364
#     4  11  21  36  55  78 113 159 200 236 289 350
#     4  10  20  33  58  83 115 157 191 245 295 364
#
# _framework density 22.281745000000001
#
# number of rings (size 3 to 8) (size 9 to 14) (size 15 to 20)
#    0.000    1.333    4.000    3.200    1.867    0.000 
#    0.000    0.000    0.000    0.800    0.000    6.533 
#    0.000    0.000    0.000    0.000    0.000    0.000 
#
# Total GULP energy -334116.690456 kJ/mol
# GULP energy per Si atom -5568.611508 kJ/mol
# Density = 2.223103 g / cm^3
# Si number density = 22.281745 Si / 1000 Ang^3
#
#
#
# Elastic Constant Matrix: (Units=GPa)
#
#
# Indices 1 2 3 4 5 6 
#
# 1 44.9387 -2.9249 20.0447 0.0000 0.0000 0.0000
# 2 -2.9249 37.7118 7.1057 0.0000 0.0000 0.0000
# 3 20.0447 7.1057 87.5962 0.0000 0.0000 0.0000
# 4 0.0000 0.0000 0.0000 28.3183 0.0000 0.0000
# 5 0.0000 0.0000 0.0000 0.0000 25.6484 0.0000
# 6 0.0000 0.0000 0.0000 0.0000 0.0000 34.9575
#
#
#
# Elastic Compliance Matrix: (Units=1/GPa)
#
#
# Indices 1 2 3 4 5 6 
#
# 1 0.025129 0.003080 -0.006000 0.000000 0.000000 0.000000
# 2 0.003080 0.027306 -0.002920 0.000000 0.000000 0.000000
# 3 -0.006000 -0.002920 0.013026 0.000000 0.000000 0.000000
# 4 0.000000 0.000000 0.000000 0.035313 0.000000 0.000000
# 5 0.000000 0.000000 0.000000 0.000000 0.038989 0.000000
# 6 0.000000 0.000000 0.000000 0.000000 0.000000 0.028606
#
#
# Mechanical properties :
#
#
# Convention : Reuss Voigt Hill
#
# Bulk Modulus (GPa) = 18.59413 24.29975 21.44694
# Shear Modulus (GPa) = 25.25553 27.51956 26.38754
#
# Velocity S-wave (km/s) = 3.37035 3.51817 3.44505
# Velocity P-wave (km/s) = 4.84858 5.23763 5.04686
#
# Compressibility (1/GPa) = 0.05378041
#
# Stress axis : x y z
#
# Youngs Moduli (GPa) = 39.79412 36.62218 76.77022
#
# Poissons Ratio (x) = -0.11278 0.46063
# Poissons Ratio (y) = -0.12255 0.22415
# Poissons Ratio (z) = 0.23877 0.10693
#
# Static dielectric constant tensor:
#      x y z
#    x 1.931710 0.000000 0.000000 
#    y 0.000000 1.982650 0.000000 
#    z 0.000000 0.000000 1.840120 
# 
# From -- ./inp_files/9044.got.cif
#   From: 2010.05.17/outbox.cif.g08.bks.cpg/sg52_5_cif.got.tgz:9044.got - 2010.06.03 12:15:38.
