data_PCOD9409021
_publ_section_title
;
Structure prediction by ZEFSAII (Michael W. Deem and Ramdas Pophale) SiO2 
 PCOD9409021
Probable space group: P N N A
;
_chemical_formula_sum "Si O2"
_cell_formula_units_Z 32
_cell_length_a 17.760350
_cell_length_b 18.301618
_cell_length_c 4.858286
_cell_angle_alpha 90.000000
_cell_angle_beta 90.000000
_cell_angle_gamma 90.000000
_cell_volume 1579.152543
_symmetry_space_group_name_H-M "P N N A"
_symmetry_group_IT_number 52
_symmetry_cell_setting 'orthorhombic'
loop_
_space_group_symop_operation_xyz
x,y,z
1/2-x,-y,z
x,1/2-y,1/2-z
1/2-x,1/2+y,1/2-z
-x,-y,-z
1/2+x,y,-z
-x,1/2+y,1/2+z
1/2+x,1/2-y,1/2+z
loop_
_atom_site_type_symbol
_atom_site_label
_atom_site_fract_x
_atom_site_fract_y
_atom_site_fract_z
Si Si1 0.404856 0.663899 0.238679
Si Si2 0.419188 0.461797 0.553856
Si Si3 0.666726 0.023016 0.561968
Si Si4 0.005259 0.835907 0.238229
O O1 0.386384 0.750000 0.250000
O O2 0.344514 0.610170 0.102611
O O3 0.431062 0.649641 0.550173
O O4 0.478973 0.647284 0.048850
O O5 0.500000 0.500000 0.500000
O O6 0.354507 0.495627 0.364617
O O7 0.431666 0.381606 0.420958
O O8 0.392796 0.482610 0.860006
O O9 0.750000 0.000000 0.480794
O O10 0.022548 0.750000 0.250000
#
# Coordination Sequence:
#
# PCOD9409021 Si02
#       4
#     8   8   8   8
#     4  10  19  35  57  84 116 154 199 247 303 376
#     4  12  21  38  64  87 120 157 210 258 307 366
#     4  12  24  38  58  92 125 162 204 256 318 377
#     4  10  20  34  59  90 115 148 201 256 304 353
#
# _framework density 20.264033999999999
#
# number of rings (size 3 to 8) (size 9 to 14) (size 15 to 20)
#    0.000    1.000    5.000    3.000    0.000    0.000 
#    0.000    1.250    0.000    3.000    0.000    0.000 
#    0.000    0.000    0.000    0.000    0.000    0.000 
#
# Total GULP energy -178195.905051 kJ/mol
# GULP energy per Si atom -5568.622033 kJ/mol
# Density = 2.021791 g / cm^3
# Si number density = 20.264034 Si / 1000 Ang^3
#
#
#
# Elastic Constant Matrix: (Units=GPa)
#
#
# Indices 1 2 3 4 5 6 
#
# 1 72.6015 42.5006 -2.9307 0.0000 0.0000 0.0000
# 2 42.5006 150.1839 24.8100 0.0000 0.0000 0.0000
# 3 -2.9307 24.8100 97.9957 0.0000 0.0000 0.0000
# 4 0.0000 0.0000 0.0000 33.1591 0.0000 0.0000
# 5 0.0000 0.0000 0.0000 0.0000 24.1998 0.0000
# 6 0.0000 0.0000 0.0000 0.0000 0.0000 15.3629
#
#
#
# Elastic Compliance Matrix: (Units=1/GPa)
#
#
# Indices 1 2 3 4 5 6 
#
# 1 0.016801 -0.005049 0.001781 0.000000 0.000000 0.000000
# 2 -0.005049 0.008466 -0.002294 0.000000 0.000000 0.000000
# 3 0.001781 -0.002294 0.010839 0.000000 0.000000 0.000000
# 4 0.000000 0.000000 0.000000 0.030158 0.000000 0.000000
# 5 0.000000 0.000000 0.000000 0.000000 0.041323 0.000000
# 6 0.000000 0.000000 0.000000 0.000000 0.000000 0.065092
#
#
# Mechanical properties :
#
#
# Convention : Reuss Voigt Hill
#
# Bulk Modulus (GPa) = 40.03014 49.94897 44.98955
# Shear Modulus (GPa) = 26.02399 31.63777 28.83088
#
# Velocity S-wave (km/s) = 3.58752 3.95559 3.77604
# Velocity P-wave (km/s) = 6.07928 6.75017 6.42349
#
# Compressibility (1/GPa) = 0.02498118
#
# Stress axis : x y z
#
# Youngs Moduli (GPa) = 59.51951 118.11555 92.26218
#
# Poissons Ratio (x) = 0.59634 -0.16429
# Poissons Ratio (y) = 0.30050 0.21169
# Poissons Ratio (z) = -0.10599 0.27101
#
# Static dielectric constant tensor:
#      x y z
#    x 1.693060 0.000000 0.000000 
#    y 0.000000 1.931400 0.000000 
#    z 0.000000 0.000000 1.715350 
# 
# From -- ./inp_files/2079.got.cif
#   From: 2010.05.17/outbox.cif.g08.bks.cpg/sg52_2_cif.got.tgz:2079.got - 2010.06.03 12:15:38.
