data_PCOD9409254
_publ_section_title
;
Structure prediction by ZEFSAII (Michael W. Deem and Ramdas Pophale) SiO2 
 PCOD9409254
Probable space group: P N N A
;
_chemical_formula_sum "Si O2"
_cell_formula_units_Z 64
_cell_length_a 17.873233
_cell_length_b 8.726616
_cell_length_c 20.282990
_cell_angle_alpha 90.000000
_cell_angle_beta 90.000000
_cell_angle_gamma 90.000000
_cell_volume 3163.595576
_symmetry_space_group_name_H-M "P N N A"
_symmetry_group_IT_number 52
_symmetry_cell_setting 'orthorhombic'
loop_
_space_group_symop_operation_xyz
x,y,z
1/2-x,-y,z
x,1/2-y,1/2-z
1/2-x,1/2+y,1/2-z
-x,-y,-z
1/2+x,y,-z
-x,1/2+y,1/2+z
1/2+x,1/2-y,1/2+z
loop_
_atom_site_type_symbol
_atom_site_label
_atom_site_fract_x
_atom_site_fract_y
_atom_site_fract_z
Si Si1 0.991329 0.699040 0.082900
Si Si2 0.687816 0.390794 0.204682
Si Si3 0.765854 0.324262 0.068174
Si Si4 0.046970 0.338254 0.374382
Si Si5 0.860361 0.677625 0.505854
Si Si6 0.410649 0.340480 0.528550
Si Si7 0.548606 0.618268 0.706752
Si Si8 0.034876 0.552826 0.823988
O O1 0.001231 0.794798 0.150375
O O2 0.914470 0.739035 0.046911
O O3 0.991803 0.525498 0.107594
O O4 0.056010 0.744720 0.032287
O O5 0.750000 0.500000 0.238307
O O6 0.662175 0.250000 0.250000
O O7 0.728131 0.317625 0.140517
O O8 0.621782 0.505516 0.182430
O O9 0.750000 0.500000 0.048352
O O10 0.722131 0.221336 0.015456
O O11 0.850683 0.263730 0.066985
O O12 0.111088 0.272587 0.422141
O O13 0.083369 0.478027 0.334004
O O14 0.980997 0.388563 0.425486
O O15 0.000997 0.220527 0.328685
O O16 0.874498 0.496882 0.497359
O O17 0.590092 0.750000 0.750000
O O18 0.499317 0.531987 0.760860
#
# Coordination Sequence:
#
# PCOD9409254 Si02
#       8
#     8   8   8   8   8   8   8   8
#     4  10  19  38  59  88 116 156 204 251 315 345
#     4  11  24  42  56  85 127 178 214 248 292 364
#     4  11  25  40  57  89 125 163 209 252 309 369
#     4  11  21  37  60  92 120 155 204 255 310 366
#     4  11  21  38  61  84 122 158 201 258 307 371
#     4  11  22  37  62  84 121 161 205 258 300 367
#     4  10  20  37  58  85 123 150 193 252 293 365
#     4  11  23  35  61  88 124 159 201 258 305 362
#
# _framework density 20.230146000000001
#
# number of rings (size 3 to 8) (size 9 to 14) (size 15 to 20)
#    0.000    1.250    3.750    4.125    1.750    4.000 
#    0.000    0.000    0.000    0.000    0.000    8.750 
#    0.000    0.000    0.000    0.000    0.000    0.000 
#
# Total GULP energy -356910.368311 kJ/mol
# GULP energy per Si atom -5576.724505 kJ/mol
# Density = 2.018410 g / cm^3
# Si number density = 20.230146 Si / 1000 Ang^3
#
#
#
# Elastic Constant Matrix: (Units=GPa)
#
#
# Indices 1 2 3 4 5 6 
#
# 1 36.1854 12.3708 11.0866 0.0000 0.0000 0.0000
# 2 12.3708 78.7489 18.6027 0.0000 0.0000 0.0000
# 3 11.0866 18.6027 79.4695 0.0000 0.0000 0.0000
# 4 0.0000 0.0000 0.0000 41.5964 0.0000 0.0000
# 5 0.0000 0.0000 0.0000 0.0000 17.5242 0.0000
# 6 0.0000 0.0000 0.0000 0.0000 0.0000 25.1678
#
#
#
# Elastic Compliance Matrix: (Units=1/GPa)
#
#
# Indices 1 2 3 4 5 6 
#
# 1 0.029981 -0.003940 -0.003260 0.000000 0.000000 0.000000
# 2 -0.003940 0.013960 -0.002718 0.000000 0.000000 0.000000
# 3 -0.003260 -0.002718 0.013675 0.000000 0.000000 0.000000
# 4 0.000000 0.000000 0.000000 0.024041 0.000000 0.000000
# 5 0.000000 0.000000 0.000000 0.000000 0.057064 0.000000
# 6 0.000000 0.000000 0.000000 0.000000 0.000000 0.039733
#
#
# Mechanical properties :
#
#
# Convention : Reuss Voigt Hill
#
# Bulk Modulus (GPa) = 26.46967 30.94712 28.70839
# Shear Modulus (GPa) = 23.70987 27.01391 25.36189
#
# Velocity S-wave (km/s) = 3.42717 3.65818 3.54456
# Velocity P-wave (km/s) = 5.36408 5.75967 5.56539
#
# Compressibility (1/GPa) = 0.03777909
#
# Stress axis : x y z
#
# Youngs Moduli (GPa) = 33.35414 71.63542 73.12844
#
# Poissons Ratio (x) = 0.28222 0.23843
# Poissons Ratio (y) = 0.13140 0.19877
# Poissons Ratio (z) = 0.10875 0.19471
#
# Static dielectric constant tensor:
#      x y z
#    x 1.698480 0.000000 0.000000 
#    y 0.000000 1.788060 0.000000 
#    z 0.000000 0.000000 1.730430 
# 
# From -- ./inp_files/37688.got.cif
#   From: 2010.05.17/outbox.cif.g08.bks.cpg/sg52_19_cif.got.tgz:37688.got - 2010.06.03 12:15:38.
