data_PCOD9409457
_publ_section_title
;
Structure prediction by ZEFSAII (Michael W. Deem and Ramdas Pophale) SiO2 
 PCOD9409457
Probable space group: P N N A
;
_chemical_formula_sum "Si O2"
_cell_formula_units_Z 60
_cell_length_a 8.459093
_cell_length_b 12.424405
_cell_length_c 27.821986
_cell_angle_alpha 90.000000
_cell_angle_beta 90.000000
_cell_angle_gamma 90.000000
_cell_volume 2924.068398
_symmetry_space_group_name_H-M "P N N A"
_symmetry_group_IT_number 52
_symmetry_cell_setting 'orthorhombic'
loop_
_space_group_symop_operation_xyz
x,y,z
1/2-x,-y,z
x,1/2-y,1/2-z
1/2-x,1/2+y,1/2-z
-x,-y,-z
1/2+x,y,-z
-x,1/2+y,1/2+z
1/2+x,1/2-y,1/2+z
loop_
_atom_site_type_symbol
_atom_site_label
_atom_site_fract_x
_atom_site_fract_y
_atom_site_fract_z
Si Si1 0.939075 0.978809 0.283675
Si Si2 0.724976 0.623310 0.541236
Si Si3 0.792820 0.874168 0.850954
Si Si4 0.522168 0.705681 0.198975
Si Si5 0.469168 0.882507 0.816302
Si Si6 0.821310 0.817726 0.356010
Si Si7 0.750000 0.500000 0.381986
Si Si8 0.860845 0.809842 0.053852
O O1 0.996345 0.910706 0.238297
O O2 0.928376 0.908441 0.331746
O O3 0.750000 0.000000 0.272118
O O4 0.041703 0.087350 0.286077
O O5 0.750000 0.500000 0.524798
O O6 0.817043 0.631452 0.591824
O O7 0.791405 0.698562 0.499289
O O8 0.539731 0.645630 0.550008
O O9 0.619883 0.827247 0.840109
O O10 0.914144 0.800552 0.822053
O O11 0.750000 0.000000 0.838135
O O12 0.588320 0.750000 0.250000
O O13 0.639138 0.663505 0.156904
O O14 0.339617 0.791939 0.824851
O O15 0.401931 0.984057 0.847158
O O16 0.855743 0.792700 0.411190
O O17 0.756162 0.602713 0.416611
#
# Coordination Sequence:
#
# PCOD9409457 Si02
#       8
#     8   8   8   8   8   8   4   8
#     4  10  20  38  64  90 120 168 221 266 307 382
#     4  11  23  38  59  89 125 164 204 259 328 389
#     4  11  25  38  56  89 131 162 199 258 323 390
#     4  11  24  40  62  93 125 168 217 258 326 383
#     4  11  20  37  61  87 127 164 212 255 319 373
#     4  10  22  38  62  93 121 165 216 265 309 381
#     4  10  20  32  58  90 124 162 208 256 310 388
#     4  11  23  36  60  92 125 162 211 258 327 385
#
# _framework density 20.519355999999998
#
# number of rings (size 3 to 8) (size 9 to 14) (size 15 to 20)
#    0.000    1.333    4.000    3.200    7.467    1.067 
#    0.000    2.000    0.000    0.800    0.000    0.000 
#    0.000    0.000    0.000    0.000    0.000    0.000 
#
# Total GULP energy -334344.707498 kJ/mol
# GULP energy per Si atom -5572.411792 kJ/mol
# Density = 2.047265 g / cm^3
# Si number density = 20.519356 Si / 1000 Ang^3
#
#
#
# Elastic Constant Matrix: (Units=GPa)
#
#
# Indices 1 2 3 4 5 6 
#
# 1 39.7503 5.6147 24.1251 0.0000 0.0000 0.0000
# 2 5.6147 77.4141 42.9459 0.0000 0.0000 0.0000
# 3 24.1251 42.9459 125.8539 0.0000 0.0000 0.0000
# 4 0.0000 0.0000 0.0000 30.4591 0.0000 0.0000
# 5 0.0000 0.0000 0.0000 0.0000 21.0329 0.0000
# 6 0.0000 0.0000 0.0000 0.0000 0.0000 26.9704
#
#
#
# Elastic Compliance Matrix: (Units=1/GPa)
#
#
# Indices 1 2 3 4 5 6 
#
# 1 0.028558 0.001191 -0.005881 0.000000 0.000000 0.000000
# 2 0.001191 0.015984 -0.005682 0.000000 0.000000 0.000000
# 3 -0.005881 -0.005682 0.011012 0.000000 0.000000 0.000000
# 4 0.000000 0.000000 0.000000 0.032831 0.000000 0.000000
# 5 0.000000 0.000000 0.000000 0.000000 0.047545 0.000000
# 6 0.000000 0.000000 0.000000 0.000000 0.000000 0.037078
#
#
# Mechanical properties :
#
#
# Convention : Reuss Voigt Hill
#
# Bulk Modulus (GPa) = 28.72796 43.15442 35.94119
# Shear Modulus (GPa) = 24.34818 27.04798 25.69808
#
# Velocity S-wave (km/s) = 3.44844 3.63460 3.54274
# Velocity P-wave (km/s) = 5.46685 6.22017 5.85563
#
# Compressibility (1/GPa) = 0.03480930
#
# Stress axis : x y z
#
# Youngs Moduli (GPa) = 35.01655 62.56436 90.80935
#
# Poissons Ratio (x) = -0.07452 0.53403
# Poissons Ratio (y) = -0.04171 0.51602
# Poissons Ratio (z) = 0.20592 0.35552
#
# Static dielectric constant tensor:
#      x y z
#    x 1.865300 0.000000 0.000000 
#    y 0.000000 1.801240 0.000000 
#    z 0.000000 0.000000 1.755200 
# 
# From -- ./inp_files/42345.got.cif
#   From: 2010.05.17/outbox.cif.g08.bks.cpg/sg52_22_cif.got.tgz:42345.got - 2010.06.03 12:15:38.
