data_PCOD9409682
_publ_section_title
;
Structure prediction by ZEFSAII (Michael W. Deem and Ramdas Pophale) SiO2 
 PCOD9409682
Probable space group: P N N A
;
_chemical_formula_sum "Si O2"
_cell_formula_units_Z 56
_cell_length_a 13.955130
_cell_length_b 12.612276
_cell_length_c 14.371987
_cell_angle_alpha 90.000000
_cell_angle_beta 90.000000
_cell_angle_gamma 90.000000
_cell_volume 2529.555242
_symmetry_space_group_name_H-M "P N N A"
_symmetry_group_IT_number 52
_symmetry_cell_setting 'orthorhombic'
loop_
_space_group_symop_operation_xyz
x,y,z
1/2-x,-y,z
x,1/2-y,1/2-z
1/2-x,1/2+y,1/2-z
-x,-y,-z
1/2+x,y,-z
-x,1/2+y,1/2+z
1/2+x,1/2-y,1/2+z
loop_
_atom_site_type_symbol
_atom_site_label
_atom_site_fract_x
_atom_site_fract_y
_atom_site_fract_z
Si Si1 0.853806 0.671914 0.382170
Si Si2 0.337875 0.579296 0.818053
Si Si3 0.203219 0.888387 0.220168
Si Si4 0.450519 0.062261 0.373306
Si Si5 0.201613 0.706527 0.482423
Si Si6 0.835986 0.648107 0.892193
Si Si7 0.995853 0.253911 0.489687
O O1 0.843281 0.601188 0.292170
O O2 0.835468 0.797978 0.356724
O O3 0.779208 0.640696 0.461510
O O4 0.956396 0.671860 0.432161
O O5 0.250000 0.500000 0.840607
O O6 0.440661 0.530814 0.847942
O O7 0.106501 0.894075 0.282428
O O8 0.184804 0.831086 0.123029
O O9 0.284975 0.848257 0.292577
O O10 0.250000 0.000000 0.193713
O O11 0.465347 0.148438 0.453544
O O12 0.383421 0.965987 0.405374
O O13 0.252708 0.820606 0.464370
O O14 0.105647 0.704120 0.542306
O O15 0.923269 0.728483 0.913691
#
# Coordination Sequence:
#
# PCOD9409682 Si02
#       7
#     8   8   8   8   8   8   8
#     4   9  22  40  57  92 119 154 214 247 302 375
#     4  10  21  40  64  85 121 164 200 254 307 368
#     4  10  21  38  60  86 119 162 210 252 299 362
#     4  10  20  37  60  91 119 156 207 241 305 373
#     4  11  21  37  62  86 122 162 199 256 307 358
#     4  10  21  35  55  92 124 149 191 255 304 354
#     4  10  20  35  60  89 120 158 196 252 301 364
#
# _framework density 22.138279000000001
#
# number of rings (size 3 to 8) (size 9 to 14) (size 15 to 20)
#    0.000    2.000    1.429    1.714    2.000    1.714 
#    0.000    7.143    0.000    8.571    0.000    0.000 
#    0.000    0.000    0.000    0.000    0.000    0.000 
#
# Total GULP energy -312276.561714 kJ/mol
# GULP energy per Si atom -5576.367173 kJ/mol
# Density = 2.208789 g / cm^3
# Si number density = 22.138279 Si / 1000 Ang^3
#
#
#
# Elastic Constant Matrix: (Units=GPa)
#
#
# Indices 1 2 3 4 5 6 
#
# 1 166.3129 16.7307 22.6366 0.0000 0.0000 0.0000
# 2 16.7307 23.2525 -11.9778 0.0000 0.0000 0.0000
# 3 22.6366 -11.9778 57.3341 0.0000 0.0000 0.0000
# 4 0.0000 0.0000 0.0000 9.6063 0.0000 0.0000
# 5 0.0000 0.0000 0.0000 0.0000 24.9002 0.0000
# 6 0.0000 0.0000 0.0000 0.0000 0.0000 -1.9062
#
#
#
# Elastic Compliance Matrix: (Units=1/GPa)
#
#
# Indices 1 2 3 4 5 6 
#
# 1 0.007397 -0.007650 -0.004519 0.000000 0.000000 0.000000
# 2 -0.007650 0.056104 0.014741 0.000000 0.000000 0.000000
# 3 -0.004519 0.014741 0.022305 0.000000 0.000000 0.000000
# 4 0.000000 0.000000 0.000000 0.104099 0.000000 0.000000
# 5 0.000000 0.000000 0.000000 0.000000 0.040160 0.000000
# 6 0.000000 0.000000 0.000000 0.000000 0.000000 -0.524607
#
#
# Mechanical properties :
#
#
# Convention : Reuss Voigt Hill
#
# Bulk Modulus (GPa) = 10.99486 33.51983 22.25734
# Shear Modulus (GPa) = -18.56198 21.15406 1.29604
#
# Velocity S-wave (km/s) = -2.89875 3.09454 0.76596
# Velocity P-wave (km/s) = 2.49529 5.28604 3.29513
#
# Compressibility (1/GPa) = 0.09095158
#
# Stress axis : x y z
#
# Youngs Moduli (GPa) = 135.18188 17.82390 44.83208
#
# Poissons Ratio (x) = 0.13636 0.20259
# Poissons Ratio (y) = 1.03420 -0.66089
# Poissons Ratio (z) = 0.61088 -0.26275
#
# Static dielectric constant tensor:
#      x y z
#    x 1.826980 0.000000 0.000000 
#    y 0.000000 1.917800 0.000000 
#    z 0.000000 0.000000 1.816400 
# 
# From -- ./inp_files/26138.got.cif
#   From: 2010.05.17/outbox.cif.g08.bks.cpg/sg52_14_cif.got.tgz:26138.got - 2010.06.03 12:15:38.
