data_PCOD9409062
_publ_section_title
;
Structure prediction by ZEFSAII (Michael W. Deem and Ramdas Pophale) SiO2 
 PCOD9409062
Probable space group: P N N A
;
_chemical_formula_sum "Si O2"
_cell_formula_units_Z 40
_cell_length_a 23.149543
_cell_length_b 6.389991
_cell_length_c 13.784338
_cell_angle_alpha 90.000000
_cell_angle_beta 90.000000
_cell_angle_gamma 90.000000
_cell_volume 2039.053318
_symmetry_space_group_name_H-M "P N N A"
_symmetry_group_IT_number 52
_symmetry_cell_setting 'orthorhombic'
loop_
_space_group_symop_operation_xyz
x,y,z
1/2-x,-y,z
x,1/2-y,1/2-z
1/2-x,1/2+y,1/2-z
-x,-y,-z
1/2+x,y,-z
-x,1/2+y,1/2+z
1/2+x,1/2-y,1/2+z
loop_
_atom_site_type_symbol
_atom_site_label
_atom_site_fract_x
_atom_site_fract_y
_atom_site_fract_z
Si Si1 0.857117 0.195842 0.856206
Si Si2 0.685970 0.046766 0.031537
Si Si3 0.887608 0.573144 0.994745
Si Si4 0.413546 0.285282 0.636816
Si Si5 0.457603 0.870877 0.146712
O O1 0.834707 0.250000 0.750000
O O2 0.864974 0.407382 0.916252
O O3 0.919168 0.079254 0.847326
O O4 0.819162 0.039452 0.921183
O O5 0.638071 0.916860 0.090372
O O6 0.750000 0.000000 0.067500
O O7 0.665188 0.285768 0.033026
O O8 0.930834 0.727907 0.938459
O O9 0.915972 0.435423 0.079705
O O10 0.403477 0.250000 0.750000
O O11 0.474874 0.401645 0.626044
O O12 0.452808 0.750000 0.250000
#
# Coordination Sequence:
#
# PCOD9409062 Si02
#       5
#     8   8   8   8   8
#     4  10  20  37  61  94 125 161 195 241 312 382
#     4  10  24  44  59  87 120 162 215 260 301 357
#     4  10  21  38  64  86 126 158 199 252 311 363
#     4  10  23  40  59  92 120 161 213 252 312 370
#     4  10  19  35  61  93 129 159 197 246 312 387
#
# _framework density 19.616947
#
# number of rings (size 3 to 8) (size 9 to 14) (size 15 to 20)
#    0.000    2.000    2.000    0.600    0.000   12.800 
#    7.200    0.000    0.000    0.000    0.000    0.000 
#    0.000    0.000    0.000    0.000    0.000    0.000 
#
# Total GULP energy -223406.819140 kJ/mol
# GULP energy per Si atom -5585.170478 kJ/mol
# Density = 1.957230 g / cm^3
# Si number density = 19.616947 Si / 1000 Ang^3
#
#
#
# Elastic Constant Matrix: (Units=GPa)
#
#
# Indices 1 2 3 4 5 6 
#
# 1 109.7284 25.3299 -5.1136 0.0000 0.0000 0.0000
# 2 25.3299 73.3663 7.7618 0.0000 0.0000 0.0000
# 3 -5.1136 7.7618 80.6048 0.0000 0.0000 0.0000
# 4 0.0000 0.0000 0.0000 16.9913 0.0000 0.0000
# 5 0.0000 0.0000 0.0000 0.0000 11.7306 0.0000
# 6 0.0000 0.0000 0.0000 0.0000 0.0000 9.0330
#
#
#
# Elastic Compliance Matrix: (Units=1/GPa)
#
#
# Indices 1 2 3 4 5 6 
#
# 1 0.009978 -0.003548 0.000975 0.000000 0.000000 0.000000
# 2 -0.003548 0.015032 -0.001673 0.000000 0.000000 0.000000
# 3 0.000975 -0.001673 0.012629 0.000000 0.000000 0.000000
# 4 0.000000 0.000000 0.000000 0.058854 0.000000 0.000000
# 5 0.000000 0.000000 0.000000 0.000000 0.085247 0.000000
# 6 0.000000 0.000000 0.000000 0.000000 0.000000 0.110705
#
#
# Mechanical properties :
#
#
# Convention : Reuss Voigt Hill
#
# Bulk Modulus (GPa) = 34.30861 35.51733 34.91297
# Shear Modulus (GPa) = 16.09516 23.26573 19.68045
#
# Velocity S-wave (km/s) = 2.86750 3.44757 3.17083
# Velocity P-wave (km/s) = 5.33766 5.83030 5.58941
#
# Compressibility (1/GPa) = 0.02914720
#
# Stress axis : x y z
#
# Youngs Moduli (GPa) = 100.22191 66.52410 79.18217
#
# Poissons Ratio (x) = 0.23603 -0.07717
# Poissons Ratio (y) = 0.35559 0.13244
# Poissons Ratio (z) = -0.09768 0.11127
#
# Static dielectric constant tensor:
#      x y z
#    x 1.680150 0.000000 0.000000 
#    y 0.000000 1.678950 0.000000 
#    z 0.000000 0.000000 1.694430 
# 
# From -- ./inp_files/29014.got.cif
#   From: 2010.05.17/outbox.cif.g08.bks.cpg/sg52_15_cif.got.tgz:29014.got - 2010.06.03 12:15:38.
