data_PCOD9409357
_publ_section_title
;
Structure prediction by ZEFSAII (Michael W. Deem and Ramdas Pophale) SiO2 
 PCOD9409357
Probable space group: P N N A
;
_chemical_formula_sum "Si O2"
_cell_formula_units_Z 52
_cell_length_a 5.855925
_cell_length_b 20.259401
_cell_length_c 18.886719
_cell_angle_alpha 90.000000
_cell_angle_beta 90.000000
_cell_angle_gamma 90.000000
_cell_volume 2240.673745
_symmetry_space_group_name_H-M "P N N A"
_symmetry_group_IT_number 52
_symmetry_cell_setting 'orthorhombic'
loop_
_space_group_symop_operation_xyz
x,y,z
1/2-x,-y,z
x,1/2-y,1/2-z
1/2-x,1/2+y,1/2-z
-x,-y,-z
1/2+x,y,-z
-x,1/2+y,1/2+z
1/2+x,1/2-y,1/2+z
loop_
_atom_site_type_symbol
_atom_site_label
_atom_site_fract_x
_atom_site_fract_y
_atom_site_fract_z
Si Si1 0.750000 0.500000 0.034944
Si Si2 0.268418 0.138220 0.010806
Si Si3 0.406227 0.394960 0.869976
Si Si4 0.704621 0.747372 0.108750
Si Si5 0.591003 0.250000 0.750000
Si Si6 0.352293 0.567042 0.732515
Si Si7 0.899208 0.320541 0.661143
Si Si8 0.750000 0.500000 0.824953
O O1 0.769846 0.562343 0.085987
O O2 0.500000 0.500000 0.000000
O O3 0.254217 0.160526 0.092639
O O4 0.521631 0.105322 0.004959
O O5 0.293530 0.201181 0.956700
O O6 0.395168 0.324636 0.908028
O O7 0.314837 0.396627 0.788932
O O8 0.632520 0.440107 0.868031
O O9 0.559409 0.757418 0.180549
O O10 0.963476 0.754783 0.138174
O O11 0.764087 0.310225 0.734231
O O12 0.250000 0.500000 0.699981
O O13 0.424395 0.620825 0.675766
O O14 0.563395 0.536472 0.776338
#
# Coordination Sequence:
#
# PCOD9409357 Si02
#       8
#     4   8   8   8   4   8   8   4
#     4  12  27  44  64  94 136 193 236 284 338 419
#     4  10  22  45  64  95 141 188 221 277 363 423
#     4  11  22  42  62  92 133 176 236 282 345 405
#     4  11  24  39  68  98 138 183 224 292 352 425
#     4  12  20  38  62 106 126 170 234 292 340 412
#     4  10  21  39  67  96 125 174 226 296 350 412
#     4  11  23  40  65  99 137 172 231 294 351 425
#     4  10  19  40  66  92 134 173 226 300 348 401
#
# _framework density 23.207307
#
# number of rings (size 3 to 8) (size 9 to 14) (size 15 to 20)
#    0.000    1.231    3.846    3.692    0.000    3.692 
#    0.000    0.000    0.000    3.692    0.000    0.000 
#    0.000    0.000    0.000    0.000    0.000    0.000 
#
# Total GULP energy -289527.678611 kJ/mol
# GULP energy per Si atom -5567.839973 kJ/mol
# Density = 2.315449 g / cm^3
# Si number density = 23.207307 Si / 1000 Ang^3
#
#
#
# Elastic Constant Matrix: (Units=GPa)
#
#
# Indices 1 2 3 4 5 6 
#
# 1 97.5513 -9.6457 2.9956 0.0000 0.0000 0.0000
# 2 -9.6457 32.9520 -8.8908 0.0000 0.0000 0.0000
# 3 2.9956 -8.8908 89.3721 0.0000 0.0000 0.0000
# 4 0.0000 0.0000 0.0000 12.6601 0.0000 0.0000
# 5 0.0000 0.0000 0.0000 0.0000 37.6536 0.0000
# 6 0.0000 0.0000 0.0000 0.0000 0.0000 10.5995
#
#
#
# Elastic Compliance Matrix: (Units=1/GPa)
#
#
# Indices 1 2 3 4 5 6 
#
# 1 0.010557 0.003077 -0.000048 0.000000 0.000000 0.000000
# 2 0.003077 0.032081 0.003088 0.000000 0.000000 0.000000
# 3 -0.000048 0.003088 0.011498 0.000000 0.000000 0.000000
# 4 0.000000 0.000000 0.000000 0.078989 0.000000 0.000000
# 5 0.000000 0.000000 0.000000 0.000000 0.026558 0.000000
# 6 0.000000 0.000000 0.000000 0.000000 0.000000 0.094344
#
#
# Mechanical properties :
#
#
# Convention : Reuss Voigt Hill
#
# Bulk Modulus (GPa) = 15.06667 20.97707 18.02187
# Shear Modulus (GPa) = 18.94555 27.87705 23.41130
#
# Velocity S-wave (km/s) = 2.86030 3.46962 3.17959
# Velocity P-wave (km/s) = 4.17310 5.01095 4.61109
#
# Compressibility (1/GPa) = 0.06637169
#
# Stress axis : x y z
#
# Youngs Moduli (GPa) = 94.72603 31.17093 86.97161
#
# Poissons Ratio (x) = -0.09592 0.00415
# Poissons Ratio (y) = -0.29150 -0.26859
# Poissons Ratio (z) = 0.00452 -0.09627
#
# Static dielectric constant tensor:
#      x y z
#    x 1.964800 0.000000 0.000000 
#    y 0.000000 1.843780 0.000000 
#    z 0.000000 0.000000 1.881230 
# 
# From -- ./inp_files/35208.got.cif
#   From: 2010.05.17/outbox.cif.g08.bks.cpg/sg52_18_cif.got.tgz:35208.got - 2010.06.03 12:15:38.
