data_PCOD9409770
_publ_section_title
;
Structure prediction by ZEFSAII (Michael W. Deem and Ramdas Pophale) SiO2 
 PCOD9409770
Probable space group: P N N A
;
_chemical_formula_sum "Si O2"
_cell_formula_units_Z 60
_cell_length_a 8.219160
_cell_length_b 11.170801
_cell_length_c 31.840588
_cell_angle_alpha 90.000000
_cell_angle_beta 90.000000
_cell_angle_gamma 90.000000
_cell_volume 2923.430875
_symmetry_space_group_name_H-M "P N N A"
_symmetry_group_IT_number 52
_symmetry_cell_setting 'orthorhombic'
loop_
_space_group_symop_operation_xyz
x,y,z
1/2-x,-y,z
x,1/2-y,1/2-z
1/2-x,1/2+y,1/2-z
-x,-y,-z
1/2+x,y,-z
-x,1/2+y,1/2+z
1/2+x,1/2-y,1/2+z
loop_
_atom_site_type_symbol
_atom_site_label
_atom_site_fract_x
_atom_site_fract_y
_atom_site_fract_z
Si Si1 0.146018 0.144259 0.525257
Si Si2 0.250000 0.000000 0.994411
Si Si3 0.962687 0.376098 0.551688
Si Si4 0.129772 0.392462 0.633767
Si Si5 0.430729 0.226922 0.644375
Si Si6 0.141121 0.879344 0.733069
Si Si7 0.432511 0.546344 0.309361
Si Si8 0.015692 0.604906 0.942315
O O1 0.033909 0.252247 0.537303
O O2 0.328370 0.174068 0.538621
O O3 0.129361 0.118113 0.475681
O O4 0.077843 0.031188 0.551712
O O5 0.295118 0.103087 0.027756
O O6 0.094821 0.027994 0.966025
O O7 0.980480 0.381958 0.601491
O O8 0.250000 0.500000 0.620279
O O9 0.247551 0.277777 0.635268
O O10 0.053502 0.438326 0.677163
O O11 0.414970 0.144831 0.685510
O O12 0.533494 0.344925 0.657772
O O13 0.501959 0.156123 0.604359
O O14 0.212248 0.750000 0.750000
O O15 0.991782 0.904610 0.764622
O O16 0.250000 0.000000 0.734522
O O17 0.250000 0.500000 0.309672
#
# Coordination Sequence:
#
# PCOD9409770 Si02
#       8
#     8   4   8   8   8   8   8   8
#     4  10  21  36  61  79 121 167 206 254 312 354
#     4  10  24  32  52  82 122 158 218 252 318 358
#     4  11  20  36  52  85 118 165 206 267 300 370
#     4  10  20  36  59  88 123 162 206 253 306 379
#     4  10  21  39  67  93 127 161 218 265 304 380
#     4  10  21  41  70 102 128 164 208 263 319 392
#     4  10  22  41  63  91 131 170 200 255 335 391
#     4  10  21  39  58  89 116 169 209 256 303 367
#
# _framework density 20.523831999999999
#
# number of rings (size 3 to 8) (size 9 to 14) (size 15 to 20)
#    0.000    1.867    2.000    2.800    2.800    1.067 
#    2.400    6.000    5.867    0.000    0.000    0.000 
#    0.000    0.000    0.000    0.000    0.000    0.000 
#
# Total GULP energy -334544.522587 kJ/mol
# GULP energy per Si atom -5575.742043 kJ/mol
# Density = 2.047712 g / cm^3
# Si number density = 20.523832 Si / 1000 Ang^3
#
#
#
# Elastic Constant Matrix: (Units=GPa)
#
#
# Indices 1 2 3 4 5 6 
#
# 1 49.9453 12.8370 21.2226 0.0000 0.0000 0.0000
# 2 12.8370 71.9214 31.8966 0.0000 0.0000 0.0000
# 3 21.2226 31.8966 142.5627 0.0000 0.0000 0.0000
# 4 0.0000 0.0000 0.0000 24.8042 0.0000 0.0000
# 5 0.0000 0.0000 0.0000 0.0000 11.0511 0.0000
# 6 0.0000 0.0000 0.0000 0.0000 0.0000 26.1063
#
#
#
# Elastic Compliance Matrix: (Units=1/GPa)
#
#
# Indices 1 2 3 4 5 6 
#
# 1 0.021845 -0.002728 -0.002642 0.000000 0.000000 0.000000
# 2 -0.002728 0.015776 -0.003124 0.000000 0.000000 0.000000
# 3 -0.002642 -0.003124 0.008107 0.000000 0.000000 0.000000
# 4 0.000000 0.000000 0.000000 0.040316 0.000000 0.000000
# 5 0.000000 0.000000 0.000000 0.000000 0.090489 0.000000
# 6 0.000000 0.000000 0.000000 0.000000 0.000000 0.038305
#
#
# Mechanical properties :
#
#
# Convention : Reuss Voigt Hill
#
# Bulk Modulus (GPa) = 34.79192 44.03799 39.41495
# Shear Modulus (GPa) = 20.71214 25.62387 23.16801
#
# Velocity S-wave (km/s) = 3.18020 3.53724 3.36346
# Velocity P-wave (km/s) = 5.52029 6.17951 5.85918
#
# Compressibility (1/GPa) = 0.02874231
#
# Stress axis : x y z
#
# Youngs Moduli (GPa) = 45.77611 63.38644 123.35602
#
# Poissons Ratio (x) = 0.17289 0.32588
# Poissons Ratio (y) = 0.12486 0.38533
# Poissons Ratio (z) = 0.12093 0.19800
#
# Static dielectric constant tensor:
#      x y z
#    x 1.764970 0.000000 0.000000 
#    y 0.000000 1.787580 0.000000 
#    z 0.000000 0.000000 1.756510 
# 
# From -- ./inp_files/44578.got.cif
#   From: 2010.05.17/outbox.cif.g08.bks.cpg/sg52_23_cif.got.tgz:44578.got - 2010.06.03 12:15:38.
