data_PCOD9409393
_publ_section_title
;
Structure prediction by ZEFSAII (Michael W. Deem and Ramdas Pophale) SiO2 
 PCOD9409393
Probable space group: P N N A
;
_chemical_formula_sum "Si O2"
_cell_formula_units_Z 36
_cell_length_a 5.742518
_cell_length_b 18.969971
_cell_length_c 13.597225
_cell_angle_alpha 90.000000
_cell_angle_beta 90.000000
_cell_angle_gamma 90.000000
_cell_volume 1481.219143
_symmetry_space_group_name_H-M "P N N A"
_symmetry_group_IT_number 52
_symmetry_cell_setting 'orthorhombic'
loop_
_space_group_symop_operation_xyz
x,y,z
1/2-x,-y,z
x,1/2-y,1/2-z
1/2-x,1/2+y,1/2-z
-x,-y,-z
1/2+x,y,-z
-x,1/2+y,1/2+z
1/2+x,1/2-y,1/2+z
loop_
_atom_site_type_symbol
_atom_site_label
_atom_site_fract_x
_atom_site_fract_y
_atom_site_fract_z
Si Si1 0.862901 0.072101 0.412998
Si Si2 0.906217 0.250000 0.750000
Si Si3 0.678855 0.712603 0.962871
Si Si4 0.750000 0.500000 0.785108
Si Si5 0.609430 0.394534 0.288387
Si Si6 0.250000 0.000000 0.943577
O O1 0.860677 0.133781 0.492451
O O2 0.711442 0.098379 0.320869
O O3 0.090629 0.047101 0.355510
O O4 0.750000 0.000000 0.451610
O O5 0.050970 0.313375 0.702321
O O6 0.779983 0.283548 0.845163
O O7 0.420199 0.742882 0.990846
O O8 0.613775 0.554762 0.717236
O O9 0.760446 0.430984 0.372518
O O10 0.500000 0.000000 0.000000
#
# Coordination Sequence:
#
# PCOD9409393 Si02
#       6
#     8   4   8   4   8   4
#     4  10  22  43  80 114 154 202 264 335 401 494
#     4  12  28  52  80 122 172 214 270 352 420 498
#     4  12  28  52  76 120 161 212 268 325 417 494
#     4  10  19  44  83 112 150 210 268 342 398 494
#     4  11  23  49  77 113 161 214 273 337 414 489
#     4  12  27  48  79 116 156 218 286 338 404 492
#
# _framework density 24.304303000000001
#
# number of rings (size 3 to 8) (size 9 to 14) (size 15 to 20)
#    0.000    0.889    5.556    2.000    3.111    3.556 
#    6.000    1.111    0.000    0.000    0.000    0.000 
#    0.000    0.000    0.000    0.000    0.000    0.000 
#
# Total GULP energy -201107.700965 kJ/mol
# GULP energy per Si atom -5586.325027 kJ/mol
# Density = 2.424899 g / cm^3
# Si number density = 24.304303 Si / 1000 Ang^3
#
#
#
# Elastic Constant Matrix: (Units=GPa)
#
#
# Indices 1 2 3 4 5 6 
#
# 1 128.4674 23.2444 37.0439 0.0000 0.0000 0.0000
# 2 23.2444 122.6888 60.5302 0.0000 0.0000 0.0000
# 3 37.0439 60.5302 166.7240 0.0000 0.0000 0.0000
# 4 0.0000 0.0000 0.0000 50.8449 0.0000 0.0000
# 5 0.0000 0.0000 0.0000 0.0000 -9.3082 0.0000
# 6 0.0000 0.0000 0.0000 0.0000 0.0000 7.4352
#
#
#
# Elastic Compliance Matrix: (Units=1/GPa)
#
#
# Indices 1 2 3 4 5 6 
#
# 1 0.008383 -0.000815 -0.001567 0.000000 0.000000 0.000000
# 2 -0.000815 0.010009 -0.003452 0.000000 0.000000 0.000000
# 3 -0.001567 -0.003452 0.007599 0.000000 0.000000 0.000000
# 4 0.000000 0.000000 0.000000 0.019668 0.000000 0.000000
# 5 0.000000 0.000000 0.000000 0.000000 -0.107432 0.000000
# 6 0.000000 0.000000 0.000000 0.000000 0.000000 0.134496
#
#
# Mechanical properties :
#
#
# Convention : Reuss Voigt Hill
#
# Bulk Modulus (GPa) = 69.82105 73.27969 71.55037
# Shear Modulus (GPa) = 56.07555 29.59850 42.83702
#
# Velocity S-wave (km/s) = 4.80857 3.49353 4.20280
# Velocity P-wave (km/s) = 7.72140 6.81831 7.28386
#
# Compressibility (1/GPa) = 0.01432233
#
# Stress axis : x y z
#
# Youngs Moduli (GPa) = 119.28401 99.91488 131.58804
#
# Poissons Ratio (x) = 0.08147 0.20615
# Poissons Ratio (y) = 0.09726 0.45431
# Poissons Ratio (z) = 0.18688 0.34496
#
# Static dielectric constant tensor:
#      x y z
#    x 2.058730 0.000000 0.000000 
#    y 0.000000 0.926340 0.000000 
#    z 0.000000 0.000000 1.953430 
# 
# From -- ./inp_files/23585.got.cif
#   From: 2010.05.17/outbox.cif.g08.bks.cpg/sg52_12_cif.got.tgz:23585.got - 2010.06.03 12:15:38.
