data_PCOD9409889
_publ_section_title
;
Structure prediction by ZEFSAII (Michael W. Deem and Ramdas Pophale) SiO2 
 PCOD9409889
Probable space group: P N N A
;
_chemical_formula_sum "Si O2"
_cell_formula_units_Z 48
_cell_length_a 15.228789
_cell_length_b 7.307123
_cell_length_c 19.747600
_cell_angle_alpha 90.000000
_cell_angle_beta 90.000000
_cell_angle_gamma 90.000000
_cell_volume 2197.485960
_symmetry_space_group_name_H-M "P N N A"
_symmetry_group_IT_number 52
_symmetry_cell_setting 'orthorhombic'
loop_
_space_group_symop_operation_xyz
x,y,z
1/2-x,-y,z
x,1/2-y,1/2-z
1/2-x,1/2+y,1/2-z
-x,-y,-z
1/2+x,y,-z
-x,1/2+y,1/2+z
1/2+x,1/2-y,1/2+z
loop_
_atom_site_type_symbol
_atom_site_label
_atom_site_fract_x
_atom_site_fract_y
_atom_site_fract_z
Si Si1 0.985760 0.835388 0.675462
Si Si2 0.421554 0.769327 0.465659
Si Si3 0.411633 0.214498 0.452527
Si Si4 0.665530 0.868312 0.682796
Si Si5 0.685303 0.666723 0.176852
Si Si6 0.247187 0.725205 0.958250
O O1 0.990273 0.750000 0.750000
O O2 0.947117 0.717744 0.611799
O O3 0.085875 0.885161 0.653734
O O4 0.919431 0.002133 0.688891
O O5 0.493937 0.719414 0.522225
O O6 0.328566 0.713700 0.496535
O O7 0.417934 0.992025 0.457957
O O8 0.365520 0.254235 0.380789
O O9 0.342292 0.280103 0.506806
O O10 0.682758 0.750000 0.750000
O O11 0.750000 0.000000 0.667894
O O12 0.750000 0.500000 0.186606
O O13 0.675703 0.750000 0.250000
O O14 0.735196 0.782445 0.119284
O O15 0.250000 0.500000 0.957279
#
# Coordination Sequence:
#
# PCOD9409889 Si02
#       6
#     8   8   8   8   8   8
#     4  10  20  37  59  84 115 150 183 232 291 340
#     4   9  16  28  51  80 108 135 183 234 276 320
#     4   9  16  29  49  79 106 133 181 233 274 310
#     4  11  23  37  56  84 114 149 187 230 284 341
#     4  10  21  35  54  80 111 148 185 226 283 337
#     4   9  16  28  49  76 103 136 176 231 275 313
#
# _framework density 21.843143000000001
#
# number of rings (size 3 to 8) (size 9 to 14) (size 15 to 20)
#    0.000    2.333    1.667    3.000    7.000    0.667 
#    0.000    0.000    0.000    4.000    0.000    0.000 
#    0.000    0.000    0.000    0.000    0.000    0.000 
#
# Total GULP energy -267369.618527 kJ/mol
# GULP energy per Si atom -5570.200386 kJ/mol
# Density = 2.179343 g / cm^3
# Si number density = 21.843143 Si / 1000 Ang^3
#
#
#
# Elastic Constant Matrix: (Units=GPa)
#
#
# Indices 1 2 3 4 5 6 
#
# 1 142.8642 11.3508 41.7686 0.0000 0.0000 0.0000
# 2 11.3508 41.6633 6.8291 0.0000 0.0000 0.0000
# 3 41.7686 6.8291 159.9244 0.0000 0.0000 0.0000
# 4 0.0000 0.0000 0.0000 11.5928 0.0000 0.0000
# 5 0.0000 0.0000 0.0000 0.0000 32.9982 0.0000
# 6 0.0000 0.0000 0.0000 0.0000 0.0000 -5.0637
#
#
#
# Elastic Compliance Matrix: (Units=1/GPa)
#
#
# Indices 1 2 3 4 5 6 
#
# 1 0.007708 -0.001782 -0.001937 0.000000 0.000000 0.000000
# 2 -0.001782 0.024583 -0.000584 0.000000 0.000000 0.000000
# 3 -0.001937 -0.000584 0.006784 0.000000 0.000000 0.000000
# 4 0.000000 0.000000 0.000000 0.086261 0.000000 0.000000
# 5 0.000000 0.000000 0.000000 0.000000 0.030305 0.000000
# 6 0.000000 0.000000 0.000000 0.000000 0.000000 -0.197483
#
#
# Mechanical properties :
#
#
# Convention : Reuss Voigt Hill
#
# Bulk Modulus (GPa) = 32.82178 51.59431 42.20804
# Shear Modulus (GPa) = -216.64108 26.87234 -94.88437
#
# Velocity S-wave (km/s) = -9.96974 3.51128 -6.59798
# Velocity P-wave (km/s) = 10.83830 6.33328 6.21926
#
# Compressibility (1/GPa) = 0.03046757
#
# Stress axis : x y z
#
# Youngs Moduli (GPa) = 129.74279 40.67800 147.41032
#
# Poissons Ratio (x) = 0.07250 0.28552
# Poissons Ratio (y) = 0.23125 0.08612
# Poissons Ratio (z) = 0.25130 0.02377
#
# Static dielectric constant tensor:
#      x y z
#    x 1.844910 0.000000 0.000000 
#    y 0.000000 1.881240 0.000000 
#    z 0.000000 0.000000 1.973770 
# 
# From -- ./inp_files/33145.got.cif
#   From: 2010.05.17/outbox.cif.g08.bks.cpg/sg52_17_cif.got.tgz:33145.got - 2010.06.03 12:15:38.
