data_PCOD9409268
_publ_section_title
;
Structure prediction by ZEFSAII (Michael W. Deem and Ramdas Pophale) SiO2 
 PCOD9409268
Probable space group: P N N A
;
_chemical_formula_sum "Si O2"
_cell_formula_units_Z 64
_cell_length_a 14.535974
_cell_length_b 8.104553
_cell_length_c 25.102570
_cell_angle_alpha 90.000000
_cell_angle_beta 90.000000
_cell_angle_gamma 90.000000
_cell_volume 2957.272815
_symmetry_space_group_name_H-M "P N N A"
_symmetry_group_IT_number 52
_symmetry_cell_setting 'orthorhombic'
loop_
_space_group_symop_operation_xyz
x,y,z
1/2-x,-y,z
x,1/2-y,1/2-z
1/2-x,1/2+y,1/2-z
-x,-y,-z
1/2+x,y,-z
-x,1/2+y,1/2+z
1/2+x,1/2-y,1/2+z
loop_
_atom_site_type_symbol
_atom_site_label
_atom_site_fract_x
_atom_site_fract_y
_atom_site_fract_z
Si Si1 0.477864 0.780660 0.111037
Si Si2 0.877587 0.127621 0.893095
Si Si3 0.428777 0.277820 0.997013
Si Si4 0.122046 0.835799 0.806724
Si Si5 0.970684 0.799215 0.192068
Si Si6 0.207480 0.320654 0.858226
Si Si7 0.863435 0.864543 0.475329
Si Si8 0.795472 0.822443 0.586988
O O1 0.542975 0.801389 0.059441
O O2 0.543516 0.743649 0.159639
O O3 0.400016 0.644033 0.105915
O O4 0.411038 0.939645 0.114760
O O5 0.774010 0.195052 0.884207
O O6 0.950518 0.212491 0.852865
O O7 0.889421 0.167548 0.955845
O O8 0.364795 0.436349 0.983953
O O9 0.527940 0.328994 0.021177
O O10 0.134530 0.750000 0.750000
O O11 0.217523 0.811880 0.838427
O O12 0.078425 0.019428 0.805284
O O13 0.006765 0.750000 0.250000
O O14 0.884925 0.687124 0.175880
O O15 0.250000 0.500000 0.850738
O O16 0.178613 0.306752 0.919915
O O17 0.814225 0.777628 0.525094
O O18 0.750000 0.000000 0.589456
#
# Coordination Sequence:
#
# PCOD9409268 Si02
#       8
#     8   8   8   8   8   8   8   8
#     4  10  24  40  62  93 128 165 211 267 322 385
#     4  11  22  41  64  91 127 167 212 266 327 378
#     4  10  19  38  62  92 130 168 210 255 318 382
#     4  11  25  45  66  92 125 170 218 271 326 386
#     4  11  25  45  65  91 126 166 219 272 325 384
#     4  12  23  38  64  95 128 173 210 260 319 379
#     4  10  21  36  59  96 132 167 212 256 301 386
#     4  11  22  38  62  93 129 167 208 255 314 383
#
# _framework density 21.641560999999999
#
# number of rings (size 3 to 8) (size 9 to 14) (size 15 to 20)
#    0.000    1.250    2.500    3.375    1.750    2.000 
#    0.000    1.875    0.000    0.000    0.000    0.000 
#    0.000    0.000    0.000    0.000    0.000    0.000 
#
# Total GULP energy -357231.603758 kJ/mol
# GULP energy per Si atom -5581.743809 kJ/mol
# Density = 2.159230 g / cm^3
# Si number density = 21.641561 Si / 1000 Ang^3
#
#
#
# Elastic Constant Matrix: (Units=GPa)
#
#
# Indices 1 2 3 4 5 6 
#
# 1 109.3226 2.3376 58.7192 0.0000 0.0000 0.0000
# 2 2.3376 22.8886 16.8808 0.0000 0.0000 0.0000
# 3 58.7192 16.8808 108.5606 0.0000 0.0000 0.0000
# 4 0.0000 0.0000 0.0000 19.0655 0.0000 0.0000
# 5 0.0000 0.0000 0.0000 0.0000 28.4974 0.0000
# 6 0.0000 0.0000 0.0000 0.0000 0.0000 36.8375
#
#
#
# Elastic Compliance Matrix: (Units=1/GPa)
#
#
# Indices 1 2 3 4 5 6 
#
# 1 0.013283 0.004453 -0.007877 0.000000 0.000000 0.000000
# 2 0.004453 0.050842 -0.010314 0.000000 0.000000 0.000000
# 3 -0.007877 -0.010314 0.015076 0.000000 0.000000 0.000000
# 4 0.000000 0.000000 0.000000 0.052451 0.000000 0.000000
# 5 0.000000 0.000000 0.000000 0.000000 0.035091 0.000000
# 6 0.000000 0.000000 0.000000 0.000000 0.000000 0.027146
#
#
# Mechanical properties :
#
#
# Convention : Reuss Voigt Hill
#
# Bulk Modulus (GPa) = 19.33336 44.07191 31.70264
# Shear Modulus (GPa) = 20.95496 27.73570 24.34533
#
# Velocity S-wave (km/s) = 3.11509 3.58382 3.35764
# Velocity P-wave (km/s) = 4.67880 6.12648 5.45091
#
# Compressibility (1/GPa) = 0.05172406
#
# Stress axis : x y z
#
# Youngs Moduli (GPa) = 75.28481 19.66873 66.33124
#
# Poissons Ratio (x) = -0.08758 0.52249
# Poissons Ratio (y) = -0.33523 0.68416
# Poissons Ratio (z) = 0.59302 0.20287
#
# Static dielectric constant tensor:
#      x y z
#    x 1.834280 0.000000 0.000000 
#    y 0.000000 1.895580 0.000000 
#    z 0.000000 0.000000 1.792250 
# 
# From -- ./inp_files/40665.got.cif
#   From: 2010.05.17/outbox.cif.g08.bks.cpg/sg52_21_cif.got.tgz:40665.got - 2010.06.03 12:15:38.
