data_PCOD9409387
_publ_section_title
;
Structure prediction by ZEFSAII (Michael W. Deem and Ramdas Pophale) SiO2 
 PCOD9409387
Probable space group: P N N A
;
_chemical_formula_sum "Si O2"
_cell_formula_units_Z 40
_cell_length_a 9.124713
_cell_length_b 9.032438
_cell_length_c 19.853480
_cell_angle_alpha 90.000000
_cell_angle_beta 90.000000
_cell_angle_gamma 90.000000
_cell_volume 1636.292144
_symmetry_space_group_name_H-M "P N N A"
_symmetry_group_IT_number 52
_symmetry_cell_setting 'orthorhombic'
loop_
_space_group_symop_operation_xyz
x,y,z
1/2-x,-y,z
x,1/2-y,1/2-z
1/2-x,1/2+y,1/2-z
-x,-y,-z
1/2+x,y,-z
-x,1/2+y,1/2+z
1/2+x,1/2-y,1/2+z
loop_
_atom_site_type_symbol
_atom_site_label
_atom_site_fract_x
_atom_site_fract_y
_atom_site_fract_z
Si Si1 0.401939 0.191098 0.471007
Si Si2 0.250000 0.000000 0.586403
Si Si3 0.530499 0.934831 0.141946
Si Si4 0.380935 0.750000 0.250000
Si Si5 0.334902 0.717183 0.610222
Si Si6 0.250000 0.500000 0.443836
Si Si7 0.250000 0.000000 0.352336
O O1 0.570434 0.241524 0.457576
O O2 0.321768 0.351219 0.474779
O O3 0.360146 0.091025 0.536322
O O4 0.353097 0.090668 0.406480
O O5 0.316586 0.880539 0.636304
O O6 0.485645 0.855020 0.208228
O O7 0.675906 0.860261 0.111513
O O8 0.386795 0.931605 0.096183
O O9 0.564445 0.106944 0.150919
O O10 0.300341 0.864474 0.302281
#
# Coordination Sequence:
#
# PCOD9409387 Si02
#       7
#     8   4   8   4   8   4   4
#     4  10  23  44  70 104 134 181 236 298 350 437
#     4  11  24  42  73 100 138 191 234 283 376 428
#     4  10  23  45  66  99 141 182 233 288 350 423
#     4  12  24  44  72 102 138 194 234 292 362 422
#     4  10  24  44  67 100 147 175 231 299 351 427
#     4  10  19  42  71  94 140 173 226 293 338 422
#     4  11  25  40  72 102 138 174 250 288 344 438
#
# _framework density 24.445513999999999
#
# number of rings (size 3 to 8) (size 9 to 14) (size 15 to 20)
#    0.000    1.600    2.000    1.200    5.600    3.200 
#    7.200    7.000    0.000    0.000    0.000    0.000 
#    0.000    0.000    0.000    0.000    0.000    0.000 
#
# Total GULP energy -222754.477331 kJ/mol
# GULP energy per Si atom -5568.861933 kJ/mol
# Density = 2.438987 g / cm^3
# Si number density = 24.445514 Si / 1000 Ang^3
#
#
#
# Elastic Constant Matrix: (Units=GPa)
#
#
# Indices 1 2 3 4 5 6 
#
# 1 84.5724 4.7559 6.1153 0.0000 0.0000 0.0000
# 2 4.7559 183.7722 42.2662 0.0000 0.0000 0.0000
# 3 6.1153 42.2662 80.7523 0.0000 0.0000 0.0000
# 4 0.0000 0.0000 0.0000 12.9362 0.0000 0.0000
# 5 0.0000 0.0000 0.0000 0.0000 -78.4753 0.0000
# 6 0.0000 0.0000 0.0000 0.0000 0.0000 43.0866
#
#
#
# Elastic Compliance Matrix: (Units=1/GPa)
#
#
# Indices 1 2 3 4 5 6 
#
# 1 0.011891 -0.000114 -0.000841 0.000000 0.000000 0.000000
# 2 -0.000114 0.006187 -0.003230 0.000000 0.000000 0.000000
# 3 -0.000841 -0.003230 0.014138 0.000000 0.000000 0.000000
# 4 0.000000 0.000000 0.000000 0.077303 0.000000 0.000000
# 5 0.000000 0.000000 0.000000 0.000000 -0.012743 0.000000
# 6 0.000000 0.000000 0.000000 0.000000 0.000000 0.023209
#
#
# Mechanical properties :
#
#
# Convention : Reuss Voigt Hill
#
# Bulk Modulus (GPa) = 41.93450 50.59686 46.26568
# Shear Modulus (GPa) = 36.68272 15.24013 25.96143
#
# Velocity S-wave (km/s) = 3.87795 2.49957 3.26239
# Velocity P-wave (km/s) = 6.10269 5.39196 5.75830
#
# Compressibility (1/GPa) = 0.02384671
#
# Stress axis : x y z
#
# Youngs Moduli (GPa) = 84.09428 161.62109 70.73280
#
# Poissons Ratio (x) = 0.01849 0.05946
# Poissons Ratio (y) = 0.00962 0.22845
# Poissons Ratio (z) = 0.07069 0.52201
#
# Static dielectric constant tensor:
#      x y z
#    x 2.036220 0.000000 0.000000 
#    y 0.000000 1.967800 0.000000 
#    z 0.000000 0.000000 1.969180 
# 
# From -- ./inp_files/39308.got.cif
#   From: 2010.05.17/outbox.cif.g08.bks.cpg/sg52_20_cif.got.tgz:39308.got - 2010.06.03 12:15:38.
