data_PCOD9409558
_publ_section_title
;
Structure prediction by ZEFSAII (Michael W. Deem and Ramdas Pophale) SiO2 
 PCOD9409558
Probable space group: P N N A
;
_chemical_formula_sum "Si O2"
_cell_formula_units_Z 64
_cell_length_a 20.018460
_cell_length_b 13.346185
_cell_length_c 13.790420
_cell_angle_alpha 90.000000
_cell_angle_beta 90.000000
_cell_angle_gamma 90.000000
_cell_volume 3684.387485
_symmetry_space_group_name_H-M "P N N A"
_symmetry_group_IT_number 52
_symmetry_cell_setting 'orthorhombic'
loop_
_space_group_symop_operation_xyz
x,y,z
1/2-x,-y,z
x,1/2-y,1/2-z
1/2-x,1/2+y,1/2-z
-x,-y,-z
1/2+x,y,-z
-x,1/2+y,1/2+z
1/2+x,1/2-y,1/2+z
loop_
_atom_site_type_symbol
_atom_site_label
_atom_site_fract_x
_atom_site_fract_y
_atom_site_fract_z
Si Si1 0.739730 0.725239 0.906126
Si Si2 0.177571 0.240264 0.900966
Si Si3 0.578010 0.061190 0.661866
Si Si4 0.100530 0.641079 0.033864
Si Si5 0.190518 0.076689 0.750274
Si Si6 0.549165 0.321391 0.027073
Si Si7 0.428154 0.021233 0.654655
Si Si8 0.212160 0.400902 0.262370
O O1 0.662003 0.709243 0.932234
O O2 0.761343 0.628209 0.844727
O O3 0.763598 0.815468 0.836400
O O4 0.779738 0.737461 0.004712
O O5 0.195787 0.136341 0.850496
O O6 0.189281 0.333973 0.828857
O O7 0.099173 0.241675 0.927726
O O8 0.574495 0.148383 0.580128
O O9 0.632970 0.084054 0.743836
O O10 0.596216 0.956792 0.605313
O O11 0.500540 0.053685 0.693619
O O12 0.029465 0.698386 0.034085
O O13 0.104161 0.598669 0.923121
O O14 0.123052 0.013302 0.736039
O O15 0.250000 0.000000 0.734169
O O16 0.557727 0.423878 0.088142
O O17 0.250000 0.500000 0.294120
#
# Coordination Sequence:
#
# PCOD9409558 Si02
#       8
#     8   8   8   8   8   8   8   8
#     4  11  22  34  54  79 106 150 186 221 279 324
#     4  10  20  35  54  78 111 142 177 224 276 326
#     4   9  15  31  54  75 108 138 173 226 266 327
#     4   9  16  30  54  83 107 130 178 232 269 320
#     4  10  20  34  55  83 108 139 181 224 275 329
#     4   8  15  29  51  80 106 136 170 218 283 321
#     4   8  16  29  54  83 102 136 176 220 283 317
#     4  11  22  35  51  78 109 145 188 222 272 329
#
# _framework density 17.370593
#
# number of rings (size 3 to 8) (size 9 to 14) (size 15 to 20)
#    0.000    2.500    2.500    2.250    0.000    1.000 
#    2.250    1.250    2.750    2.250    0.000    0.000 
#    0.000    0.000    0.000    0.000    0.000    0.000 
#
# Total GULP energy -356316.576198 kJ/mol
# GULP energy per Si atom -5567.446503 kJ/mol
# Density = 1.733106 g / cm^3
# Si number density = 17.370593 Si / 1000 Ang^3
#
#
#
# Elastic Constant Matrix: (Units=GPa)
#
#
# Indices 1 2 3 4 5 6 
#
# 1 123.2418 33.3381 27.2371 0.0000 0.0000 0.0000
# 2 33.3381 47.5854 11.0511 0.0000 0.0000 0.0000
# 3 27.2371 11.0511 40.2866 0.0000 0.0000 0.0000
# 4 0.0000 0.0000 0.0000 12.3429 0.0000 0.0000
# 5 0.0000 0.0000 0.0000 0.0000 10.7605 0.0000
# 6 0.0000 0.0000 0.0000 0.0000 0.0000 8.5444
#
#
#
# Elastic Compliance Matrix: (Units=1/GPa)
#
#
# Indices 1 2 3 4 5 6 
#
# 1 0.011135 -0.006464 -0.005755 0.000000 0.000000 0.000000
# 2 -0.006464 0.026198 -0.002816 0.000000 0.000000 0.000000
# 3 -0.005755 -0.002816 0.029485 0.000000 0.000000 0.000000
# 4 0.000000 0.000000 0.000000 0.081018 0.000000 0.000000
# 5 0.000000 0.000000 0.000000 0.000000 0.092933 0.000000
# 6 0.000000 0.000000 0.000000 0.000000 0.000000 0.117036
#
#
# Mechanical properties :
#
#
# Convention : Reuss Voigt Hill
#
# Bulk Modulus (GPa) = 27.21260 39.37403 33.29331
# Shear Modulus (GPa) = 12.49614 15.62872 14.06243
#
# Velocity S-wave (km/s) = 2.68504 3.00279 2.84835
# Velocity P-wave (km/s) = 5.03116 5.89395 5.47956
#
# Compressibility (1/GPa) = 0.03674769
#
# Stress axis : x y z
#
# Youngs Moduli (GPa) = 89.80989 38.17129 33.91531
#
# Poissons Ratio (x) = 0.24676 0.19517
# Poissons Ratio (y) = 0.58057 0.09550
# Poissons Ratio (z) = 0.51683 0.10748
#
# Static dielectric constant tensor:
#      x y z
#    x 1.616560 0.000000 0.000000 
#    y 0.000000 1.595310 0.000000 
#    z 0.000000 0.000000 1.590650 
# 
# From -- ./inp_files/28365.got.cif
#   From: 2010.05.17/outbox.cif.g08.bks.cpg/sg52_15_cif.got.tgz:28365.got - 2010.06.03 12:15:38.
