data_PCOD9409607
_publ_section_title
;
Structure prediction by ZEFSAII (Michael W. Deem and Ramdas Pophale) SiO2 
 PCOD9409607
Probable space group: P N N A
;
_chemical_formula_sum "Si O2"
_cell_formula_units_Z 52
_cell_length_a 8.975643
_cell_length_b 10.497963
_cell_length_c 25.878726
_cell_angle_alpha 90.000000
_cell_angle_beta 90.000000
_cell_angle_gamma 90.000000
_cell_volume 2438.448011
_symmetry_space_group_name_H-M "P N N A"
_symmetry_group_IT_number 52
_symmetry_cell_setting 'orthorhombic'
loop_
_space_group_symop_operation_xyz
x,y,z
1/2-x,-y,z
x,1/2-y,1/2-z
1/2-x,1/2+y,1/2-z
-x,-y,-z
1/2+x,y,-z
-x,1/2+y,1/2+z
1/2+x,1/2-y,1/2+z
loop_
_atom_site_type_symbol
_atom_site_label
_atom_site_fract_x
_atom_site_fract_y
_atom_site_fract_z
Si Si1 0.950168 0.080366 0.694371
Si Si2 0.424609 0.466006 0.375205
Si Si3 0.684530 0.250000 0.250000
Si Si4 0.340984 0.255517 0.452901
Si Si5 0.750000 0.000000 0.601581
Si Si6 0.043758 0.588793 0.716885
Si Si7 0.796934 0.750000 0.750000
Si Si8 0.468775 0.626899 0.467857
O O1 0.890786 0.027437 0.639825
O O2 0.808864 0.147490 0.722332
O O3 0.082906 0.180281 0.706787
O O4 0.007851 0.960492 0.726197
O O5 0.250000 0.500000 0.367173
O O6 0.423249 0.331800 0.405931
O O7 0.512445 0.473309 0.321910
O O8 0.498064 0.579324 0.409675
O O9 0.797316 0.345793 0.279639
O O10 0.204898 0.344906 0.469122
O O11 0.446569 0.258719 0.503208
O O12 0.265165 0.125405 0.433987
O O13 0.907332 0.686988 0.708025
O O14 0.500000 0.500000 0.500000
#
# Coordination Sequence:
#
# PCOD9409607 Si02
#       8
#     8   8   4   8   4   8   4   8
#     4  11  23  41  59  91 134 178 228 276 327 413
#     4   9  19  34  67 101 124 168 231 277 332 414
#     4  10  26  40  60  86 142 176 216 284 352 392
#     4  10  23  41  68  98 134 173 226 282 358 409
#     4  12  26  42  70  96 136 192 234 276 332 442
#     4  11  21  38  62  96 130 180 220 278 348 403
#     4  10  20  34  64  88 128 178 224 272 324 392
#     4   9  19  42  67  97 131 163 216 298 344 396
#
# _framework density 21.325039
#
# number of rings (size 3 to 8) (size 9 to 14) (size 15 to 20)
#    0.000    1.846    1.538    2.769    8.615    0.615 
#    2.769    1.538    0.000    0.000    0.000    0.000 
#    0.000    0.000    0.000    0.000    0.000    0.000 
#
# Total GULP energy -289756.706876 kJ/mol
# GULP energy per Si atom -5572.244363 kJ/mol
# Density = 2.127650 g / cm^3
# Si number density = 21.325039 Si / 1000 Ang^3
#
#
#
# Elastic Constant Matrix: (Units=GPa)
#
#
# Indices 1 2 3 4 5 6 
#
# 1 109.6559 55.3342 31.6295 0.0000 0.0000 0.0000
# 2 55.3342 114.1064 37.3384 0.0000 0.0000 0.0000
# 3 31.6295 37.3384 65.2769 0.0000 0.0000 0.0000
# 4 0.0000 0.0000 0.0000 32.4049 0.0000 0.0000
# 5 0.0000 0.0000 0.0000 0.0000 24.1804 0.0000
# 6 0.0000 0.0000 0.0000 0.0000 0.0000 39.2974
#
#
#
# Elastic Compliance Matrix: (Units=1/GPa)
#
#
# Indices 1 2 3 4 5 6 
#
# 1 0.012598 -0.005059 -0.003211 0.000000 0.000000 0.000000
# 2 -0.005059 0.012813 -0.004878 0.000000 0.000000 0.000000
# 3 -0.003211 -0.004878 0.019665 0.000000 0.000000 0.000000
# 4 0.000000 0.000000 0.000000 0.030859 0.000000 0.000000
# 5 0.000000 0.000000 0.000000 0.000000 0.041356 0.000000
# 6 0.000000 0.000000 0.000000 0.000000 0.000000 0.025447
#
#
# Mechanical properties :
#
#
# Convention : Reuss Voigt Hill
#
# Bulk Modulus (GPa) = 53.24315 59.73815 56.49065
# Shear Modulus (GPa) = 28.52344 30.15902 29.34123
#
# Velocity S-wave (km/s) = 3.66123 3.76474 3.71334
# Velocity P-wave (km/s) = 6.54938 6.85358 6.70321
#
# Compressibility (1/GPa) = 0.01878176
#
# Stress axis : x y z
#
# Youngs Moduli (GPa) = 79.37594 78.04549 50.85095
#
# Poissons Ratio (x) = 0.39481 0.16328
# Poissons Ratio (y) = 0.40154 0.24805
# Poissons Ratio (z) = 0.25487 0.38070
#
# Static dielectric constant tensor:
#      x y z
#    x 1.788300 0.000000 0.000000 
#    y 0.000000 1.898810 0.000000 
#    z 0.000000 0.000000 1.830390 
# 
# From -- ./inp_files/42311.got.cif
#   From: 2010.05.17/outbox.cif.g08.bks.cpg/sg52_22_cif.got.tgz:42311.got - 2010.06.03 12:15:38.
