data_PCOD9409700
_publ_section_title
;
Structure prediction by ZEFSAII (Michael W. Deem and Ramdas Pophale) SiO2 
 PCOD9409700
Probable space group: P N N A
;
_chemical_formula_sum "Si O2"
_cell_formula_units_Z 56
_cell_length_a 16.574703
_cell_length_b 5.359629
_cell_length_c 29.568401
_cell_angle_alpha 90.000000
_cell_angle_beta 90.000000
_cell_angle_gamma 90.000000
_cell_volume 2626.686989
_symmetry_space_group_name_H-M "P N N A"
_symmetry_group_IT_number 52
_symmetry_cell_setting 'orthorhombic'
loop_
_space_group_symop_operation_xyz
x,y,z
1/2-x,-y,z
x,1/2-y,1/2-z
1/2-x,1/2+y,1/2-z
-x,-y,-z
1/2+x,y,-z
-x,1/2+y,1/2+z
1/2+x,1/2-y,1/2+z
loop_
_atom_site_type_symbol
_atom_site_label
_atom_site_fract_x
_atom_site_fract_y
_atom_site_fract_z
Si Si1 0.728580 0.754140 0.527840
Si Si2 0.440772 0.288102 0.018717
Si Si3 0.303011 0.749236 0.871910
Si Si4 0.983144 0.719562 0.653957
Si Si5 0.203775 0.247975 0.126651
Si Si6 0.552476 0.283275 0.196712
Si Si7 0.073030 0.970117 0.930488
O O1 0.750000 0.500000 0.503446
O O2 0.639834 0.810308 0.547790
O O3 0.786680 0.737463 0.571997
O O4 0.750000 0.000000 0.500336
O O5 0.496251 0.106404 0.047455
O O6 0.500000 0.500000 0.000000
O O7 0.398039 0.186426 0.973209
O O8 0.250000 0.500000 0.879211
O O9 0.361301 0.713032 0.828692
O O10 0.250000 0.000000 0.865509
O O11 0.364803 0.827784 0.911804
O O12 0.889738 0.741300 0.640231
O O13 0.002942 0.455832 0.677904
O O14 0.040345 0.706240 0.609358
O O15 0.008847 0.958387 0.683294
O O16 0.250000 0.500000 0.141494
O O17 0.250000 0.000000 0.143673
O O18 0.561750 0.250000 0.250000
#
# Coordination Sequence:
#
# PCOD9409700 Si02
#       7
#     8   8   8   8   8   8   8
#     4  10  23  40  59  88 124 166 227 283 329 381
#     4  11  26  41  65  94 137 191 239 297 336 395
#     4  11  25  45  70 101 138 181 226 280 350 421
#     4  11  23  42  73  99 136 177 228 280 341 421
#     4  10  20  35  64  94 128 168 223 275 326 394
#     4  11  25  46  75 106 133 172 221 279 352 430
#     4  10  25  43  64  95 135 188 237 287 342 403
#
# _framework density 21.319634000000001
#
# number of rings (size 3 to 8) (size 9 to 14) (size 15 to 20)
#    0.000    1.429    0.000    4.714   14.000    1.143 
#    0.000    0.000    0.000    8.571    0.000    0.000 
#    0.000    0.000    0.000    0.000    0.000    0.000 
#
# Total GULP energy -312570.987978 kJ/mol
# GULP energy per Si atom -5581.624785 kJ/mol
# Density = 2.127111 g / cm^3
# Si number density = 21.319634 Si / 1000 Ang^3
#
#
#
# Elastic Constant Matrix: (Units=GPa)
#
#
# Indices 1 2 3 4 5 6 
#
# 1 134.2743 65.6146 35.8849 0.0000 0.0000 0.0000
# 2 65.6146 178.3180 28.6706 0.0000 0.0000 0.0000
# 3 35.8849 28.6706 101.5212 0.0000 0.0000 0.0000
# 4 0.0000 0.0000 0.0000 20.0786 0.0000 0.0000
# 5 0.0000 0.0000 0.0000 0.0000 9.0927 0.0000
# 6 0.0000 0.0000 0.0000 0.0000 0.0000 39.0697
#
#
#
# Elastic Compliance Matrix: (Units=1/GPa)
#
#
# Indices 1 2 3 4 5 6 
#
# 1 0.009661 -0.003149 -0.002526 0.000000 0.000000 0.000000
# 2 -0.003149 0.006901 -0.000836 0.000000 0.000000 0.000000
# 3 -0.002526 -0.000836 0.010979 0.000000 0.000000 0.000000
# 4 0.000000 0.000000 0.000000 0.049804 0.000000 0.000000
# 5 0.000000 0.000000 0.000000 0.000000 0.109978 0.000000
# 6 0.000000 0.000000 0.000000 0.000000 0.000000 0.025595
#
#
# Mechanical properties :
#
#
# Convention : Reuss Voigt Hill
#
# Bulk Modulus (GPa) = 68.86908 74.93929 71.90419
# Shear Modulus (GPa) = 21.66568 32.57775 27.12171
#
# Velocity S-wave (km/s) = 3.19130 3.91329 3.57059
# Velocity P-wave (km/s) = 6.77882 7.45956 7.12732
#
# Compressibility (1/GPa) = 0.01452030
#
# Stress axis : x y z
#
# Youngs Moduli (GPa) = 103.50725 144.90600 91.08320
#
# Poissons Ratio (x) = 0.45629 0.23005
# Poissons Ratio (y) = 0.32593 0.07614
# Poissons Ratio (z) = 0.26143 0.12112
#
# Static dielectric constant tensor:
#      x y z
#    x 1.995100 0.000000 0.000000 
#    y 0.000000 1.798280 0.000000 
#    z 0.000000 0.000000 1.788200 
# 
# From -- ./inp_files/44999.got.cif
#   From: 2010.05.17/outbox.cif.g08.bks.cpg/sg52_23_cif.got.tgz:44999.got - 2010.06.03 12:15:38.
