data_PCOD9409367
_publ_section_title
;
Structure prediction by ZEFSAII (Michael W. Deem and Ramdas Pophale) SiO2 
 PCOD9409367
Probable space group: P N N A
;
_chemical_formula_sum "Si O2"
_cell_formula_units_Z 32
_cell_length_a 13.068352
_cell_length_b 10.681700
_cell_length_c 8.508152
_cell_angle_alpha 90.000000
_cell_angle_beta 90.000000
_cell_angle_gamma 90.000000
_cell_volume 1187.671788
_symmetry_space_group_name_H-M "P N N A"
_symmetry_group_IT_number 52
_symmetry_cell_setting 'orthorhombic'
loop_
_space_group_symop_operation_xyz
x,y,z
1/2-x,-y,z
x,1/2-y,1/2-z
1/2-x,1/2+y,1/2-z
-x,-y,-z
1/2+x,y,-z
-x,1/2+y,1/2+z
1/2+x,1/2-y,1/2+z
loop_
_atom_site_type_symbol
_atom_site_label
_atom_site_fract_x
_atom_site_fract_y
_atom_site_fract_z
Si Si1 0.151650 0.551517 0.165490
Si Si2 0.852934 0.354320 0.148295
Si Si3 0.950643 0.574210 0.353560
Si Si4 0.416842 0.788742 0.422390
O O1 0.250000 0.500000 0.261481
O O2 0.105263 0.434903 0.068519
O O3 0.053970 0.605231 0.254627
O O4 0.196879 0.632189 0.023006
O O5 0.797461 0.250000 0.250000
O O6 0.879355 0.478501 0.252419
O O7 0.960535 0.290490 0.099610
O O8 0.898050 0.693693 0.435615
O O9 0.000000 0.500000 0.500000
O O10 0.374376 0.750000 0.250000
#
# Coordination Sequence:
#
# PCOD9409367 Si02
#       4
#     8   8   8   8
#     4  11  25  43  63 103 144 169 228 306 352 388
#     4  10  21  40  63  93 132 175 232 271 325 426
#     4  11  19  41  72  95 129 184 232 270 335 425
#     4  10  19  40  69  96 128 176 232 269 327 430
#
# _framework density 26.943470999999999
#
# number of rings (size 3 to 8) (size 9 to 14) (size 15 to 20)
#    0.000    1.500    7.500    3.000    0.000    4.000 
#    9.000    1.250    0.000    0.000    0.000    0.000 
#    0.000    0.000    0.000    0.000    0.000    0.000 
#
# Total GULP energy -178665.990132 kJ/mol
# GULP energy per Si atom -5583.312192 kJ/mol
# Density = 2.688215 g / cm^3
# Si number density = 26.943471 Si / 1000 Ang^3
#
#
#
# Elastic Constant Matrix: (Units=GPa)
#
#
# Indices 1 2 3 4 5 6 
#
# 1 82.4242 14.1843 26.0194 0.0000 0.0000 0.0000
# 2 14.1843 111.2223 49.0327 0.0000 0.0000 0.0000
# 3 26.0194 49.0327 161.8177 0.0000 0.0000 0.0000
# 4 0.0000 0.0000 0.0000 62.0889 0.0000 0.0000
# 5 0.0000 0.0000 0.0000 0.0000 22.4399 0.0000
# 6 0.0000 0.0000 0.0000 0.0000 0.0000 18.3709
#
#
#
# Elastic Compliance Matrix: (Units=1/GPa)
#
#
# Indices 1 2 3 4 5 6 
#
# 1 0.012849 -0.000840 -0.001811 0.000000 0.000000 0.000000
# 2 -0.000840 0.010432 -0.003026 0.000000 0.000000 0.000000
# 3 -0.001811 -0.003026 0.007388 0.000000 0.000000 0.000000
# 4 0.000000 0.000000 0.000000 0.016106 0.000000 0.000000
# 5 0.000000 0.000000 0.000000 0.000000 0.044564 0.000000
# 6 0.000000 0.000000 0.000000 0.000000 0.000000 0.054434
#
#
# Mechanical properties :
#
#
# Convention : Reuss Voigt Hill
#
# Bulk Modulus (GPa) = 51.77616 59.32634 55.55125
# Shear Modulus (GPa) = 30.56883 38.32844 34.44863
#
# Velocity S-wave (km/s) = 3.37197 3.77576 3.57956
# Velocity P-wave (km/s) = 5.86673 6.40899 6.14385
#
# Compressibility (1/GPa) = 0.01931391
#
# Stress axis : x y z
#
# Youngs Moduli (GPa) = 77.82849 95.85748 135.35501
#
# Poissons Ratio (x) = 0.08052 0.24519
# Poissons Ratio (y) = 0.06538 0.40958
# Poissons Ratio (z) = 0.14098 0.29006
#
# Static dielectric constant tensor:
#      x y z
#    x 2.116690 0.000000 0.000000 
#    y 0.000000 2.351360 0.000000 
#    z 0.000000 0.000000 2.273870 
# 
# From -- ./inp_files/9677.got.cif
#   From: 2010.05.17/outbox.cif.g08.bks.cpg/sg52_5_cif.got.tgz:9677.got - 2010.06.03 12:15:38.
