data_PCOD9409486
_publ_section_title
;
Structure prediction by ZEFSAII (Michael W. Deem and Ramdas Pophale) SiO2 
 PCOD9409486
Probable space group: P N N A
;
_chemical_formula_sum "Si O2"
_cell_formula_units_Z 56
_cell_length_a 14.248510
_cell_length_b 7.330484
_cell_length_c 24.010342
_cell_angle_alpha 90.000000
_cell_angle_beta 90.000000
_cell_angle_gamma 90.000000
_cell_volume 2507.843596
_symmetry_space_group_name_H-M "P N N A"
_symmetry_group_IT_number 52
_symmetry_cell_setting 'orthorhombic'
loop_
_space_group_symop_operation_xyz
x,y,z
1/2-x,-y,z
x,1/2-y,1/2-z
1/2-x,1/2+y,1/2-z
-x,-y,-z
1/2+x,y,-z
-x,1/2+y,1/2+z
1/2+x,1/2-y,1/2+z
loop_
_atom_site_type_symbol
_atom_site_label
_atom_site_fract_x
_atom_site_fract_y
_atom_site_fract_z
Si Si1 0.890536 0.994162 0.482236
Si Si2 0.474408 0.497814 0.649171
Si Si3 0.949057 0.923026 0.364123
Si Si4 0.359148 0.968096 0.746921
Si Si5 0.141677 0.547440 0.419410
Si Si6 0.851617 0.481074 0.900574
Si Si7 0.648389 0.588770 0.458647
O O1 0.844143 0.920130 0.538894
O O2 0.849694 0.194025 0.468883
O O3 0.893050 0.900660 0.422255
O O4 0.000000 0.000000 0.500000
O O5 0.473482 0.717881 0.653151
O O6 0.426994 0.440610 0.707118
O O7 0.579369 0.453941 0.628262
O O8 0.411279 0.443985 0.596395
O O9 0.888112 0.016206 0.316119
O O10 0.048295 0.027996 0.372878
O O11 0.369852 0.750000 0.750000
O O12 0.250000 0.000000 0.758970
O O13 0.250000 0.500000 0.414472
O O14 0.135177 0.766085 0.413019
O O15 0.109228 0.507156 0.482862
O O16 0.750000 0.500000 0.871837
O O17 0.750000 0.500000 0.451070
#
# Coordination Sequence:
#
# PCOD9409486 Si02
#       7
#     8   8   8   8   8   8   8
#     4   9  19  34  52  79 111 143 181 222 272 332
#     4  10  20  36  55  76 108 144 180 224 273 323
#     4   9  20  36  54  77 104 142 183 222 271 324
#     4  10  22  39  57  76 103 139 179 223 270 323
#     4   9  19  33  51  77 106 139 174 212 266 323
#     4   9  18  33  52  76 106 136 172 215 263 318
#     4  10  20  33  53  83 113 143 181 226 276 331
#
# _framework density 22.329941999999999
#
# number of rings (size 3 to 8) (size 9 to 14) (size 15 to 20)
#    0.000    2.571    0.000    1.714    0.000    9.714 
#    0.000    0.714    0.000    0.000    0.000    0.000 
#    0.000    0.000    0.000    0.000    0.000    0.000 
#
# Total GULP energy -312370.030506 kJ/mol
# GULP energy per Si atom -5578.036259 kJ/mol
# Density = 2.227912 g / cm^3
# Si number density = 22.329942 Si / 1000 Ang^3
#
#
#
# Elastic Constant Matrix: (Units=GPa)
#
#
# Indices 1 2 3 4 5 6 
#
# 1 92.8479 -17.6759 36.1368 0.0000 0.0000 0.0000
# 2 -17.6759 48.9218 -13.7896 0.0000 0.0000 0.0000
# 3 36.1368 -13.7896 118.6407 0.0000 0.0000 0.0000
# 4 0.0000 0.0000 0.0000 12.4689 0.0000 0.0000
# 5 0.0000 0.0000 0.0000 0.0000 19.9954 0.0000
# 6 0.0000 0.0000 0.0000 0.0000 0.0000 25.8989
#
#
#
# Elastic Compliance Matrix: (Units=1/GPa)
#
#
# Indices 1 2 3 4 5 6 
#
# 1 0.012820 0.003651 -0.003480 0.000000 0.000000 0.000000
# 2 0.003651 0.022173 0.001465 0.000000 0.000000 0.000000
# 3 -0.003480 0.001465 0.009659 0.000000 0.000000 0.000000
# 4 0.000000 0.000000 0.000000 0.080199 0.000000 0.000000
# 5 0.000000 0.000000 0.000000 0.000000 0.050011 0.000000
# 6 0.000000 0.000000 0.000000 0.000000 0.000000 0.038612
#
#
# Mechanical properties :
#
#
# Convention : Reuss Voigt Hill
#
# Bulk Modulus (GPa) = 20.86672 29.97255 25.41964
# Shear Modulus (GPa) = 22.10649 28.72191 25.41420
#
# Velocity S-wave (km/s) = 3.14983 3.59033 3.37727
# Velocity P-wave (km/s) = 4.75327 5.53525 5.15910
#
# Compressibility (1/GPa) = 0.04792319
#
# Stress axis : x y z
#
# Youngs Moduli (GPa) = 78.00326 45.10013 103.52802
#
# Poissons Ratio (x) = -0.16466 0.36033
# Poissons Ratio (y) = -0.28478 -0.15168
# Poissons Ratio (z) = 0.27149 -0.06608
#
# Static dielectric constant tensor:
#      x y z
#    x 1.863330 0.000000 0.000000 
#    y 0.000000 1.925120 0.000000 
#    z 0.000000 0.000000 1.850760 
# 
# From -- ./inp_files/37335.got.cif
#   From: 2010.05.17/outbox.cif.g08.bks.cpg/sg52_19_cif.got.tgz:37335.got - 2010.06.03 12:15:38.
