data_PCOD9409780
_publ_section_title
;
Structure prediction by ZEFSAII (Michael W. Deem and Ramdas Pophale) SiO2 
 PCOD9409780
Probable space group: P N N A
;
_chemical_formula_sum "Si O2"
_cell_formula_units_Z 60
_cell_length_a 17.254756
_cell_length_b 15.178860
_cell_length_c 12.612516
_cell_angle_alpha 90.000000
_cell_angle_beta 90.000000
_cell_angle_gamma 90.000000
_cell_volume 3303.312858
_symmetry_space_group_name_H-M "P N N A"
_symmetry_group_IT_number 52
_symmetry_cell_setting 'orthorhombic'
loop_
_space_group_symop_operation_xyz
x,y,z
1/2-x,-y,z
x,1/2-y,1/2-z
1/2-x,1/2+y,1/2-z
-x,-y,-z
1/2+x,y,-z
-x,1/2+y,1/2+z
1/2+x,1/2-y,1/2+z
loop_
_atom_site_type_symbol
_atom_site_label
_atom_site_fract_x
_atom_site_fract_y
_atom_site_fract_z
Si Si1 0.088219 0.649403 0.559555
Si Si2 0.678736 0.777847 0.859797
Si Si3 0.303014 0.916941 0.227181
Si Si4 0.326535 0.250000 0.750000
Si Si5 0.813000 0.835292 0.558372
Si Si6 0.905200 0.842633 0.937595
Si Si7 0.711979 0.094928 0.331763
Si Si8 0.838615 0.964786 0.115320
O O1 0.128461 0.672623 0.447410
O O2 0.122979 0.712268 0.652125
O O3 0.108979 0.549343 0.591585
O O4 0.996541 0.659516 0.548782
O O5 0.636398 0.750000 0.750000
O O6 0.747803 0.837864 0.812618
O O7 0.725389 0.701371 0.922403
O O8 0.322107 0.907749 0.350534
O O9 0.380605 0.905109 0.160161
O O10 0.250000 0.000000 0.204245
O O11 0.272851 0.168522 0.710482
O O12 0.871886 0.755157 0.579162
O O13 0.823186 0.868820 0.439881
O O14 0.859730 0.886719 0.035601
O O15 0.655605 0.073174 0.233812
O O16 0.750000 0.000000 0.355738
O O17 0.750000 0.000000 0.101940
#
# Coordination Sequence:
#
# PCOD9409780 Si02
#       8
#     8   8   8   4   8   8   8   8
#     4  12  23  38  62  89 125 163 195 250 318 372
#     4   9  19  37  59  83 113 151 204 246 298 357
#     4  10  20  36  60  84 111 153 205 255 290 356
#     4  12  22  38  64  88 124 162 198 256 312 370
#     4  10  20  38  58  87 116 159 202 251 301 362
#     4  11  23  37  61  88 125 158 203 250 315 372
#     4  11  21  38  64  92 119 156 213 259 303 362
#     4  11  21  39  61  93 118 156 209 258 300 355
#
# _framework density 18.163582999999999
#
# number of rings (size 3 to 8) (size 9 to 14) (size 15 to 20)
#    0.000    1.333    4.000    5.600    1.867    0.000 
#    2.400    0.000    0.000    1.600    0.000    0.000 
#    0.000    0.000    0.000    0.000    0.000    0.000 
#
# Total GULP energy -334660.037934 kJ/mol
# GULP energy per Si atom -5577.667299 kJ/mol
# Density = 1.812224 g / cm^3
# Si number density = 18.163583 Si / 1000 Ang^3
#
#
#
# Elastic Constant Matrix: (Units=GPa)
#
#
# Indices 1 2 3 4 5 6 
#
# 1 62.0724 -3.7677 26.7008 0.0000 0.0000 0.0000
# 2 -3.7677 46.8470 -0.2861 0.0000 0.0000 0.0000
# 3 26.7008 -0.2861 120.7788 0.0000 0.0000 0.0000
# 4 0.0000 0.0000 0.0000 32.2702 0.0000 0.0000
# 5 0.0000 0.0000 0.0000 0.0000 131.4224 0.0000
# 6 0.0000 0.0000 0.0000 0.0000 0.0000 16.1472
#
#
#
# Elastic Compliance Matrix: (Units=1/GPa)
#
#
# Indices 1 2 3 4 5 6 
#
# 1 0.017897 0.001415 -0.003953 0.000000 0.000000 0.000000
# 2 0.001415 0.021458 -0.000262 0.000000 0.000000 0.000000
# 3 -0.003953 -0.000262 0.009153 0.000000 0.000000 0.000000
# 4 0.000000 0.000000 0.000000 0.030988 0.000000 0.000000
# 5 0.000000 0.000000 0.000000 0.000000 0.007609 0.000000
# 6 0.000000 0.000000 0.000000 0.000000 0.000000 0.061930
#
#
# Mechanical properties :
#
#
# Convention : Reuss Voigt Hill
#
# Bulk Modulus (GPa) = 23.30573 30.55470 26.93022
# Shear Modulus (GPa) = 29.59672 49.77140 39.68406
#
# Velocity S-wave (km/s) = 4.04103 5.24035 4.67927
# Velocity P-wave (km/s) = 5.88490 7.31255 6.63723
#
# Compressibility (1/GPa) = 0.04290789
#
# Stress axis : x y z
#
# Youngs Moduli (GPa) = 55.87670 46.60206 109.25508
#
# Poissons Ratio (x) = -0.06595 0.43189
# Poissons Ratio (y) = -0.07908 0.02863
# Poissons Ratio (z) = 0.22088 0.01221
#
# Static dielectric constant tensor:
#      x y z
#    x 1.601050 0.000000 0.000000 
#    y 0.000000 1.649750 0.000000 
#    z 0.000000 0.000000 1.661590 
# 
# From -- ./inp_files/20852.got.cif
#   From: 2010.05.17/outbox.cif.g08.bks.cpg/sg52_11_cif.got.tgz:20852.got - 2010.06.03 12:15:38.
