data_PCOD9409788
_publ_section_title
;
Structure prediction by ZEFSAII (Michael W. Deem and Ramdas Pophale) SiO2 
 PCOD9409788
Probable space group: P N N A
;
_chemical_formula_sum "Si O2"
_cell_formula_units_Z 44
_cell_length_a 20.038409
_cell_length_b 7.508350
_cell_length_c 15.154883
_cell_angle_alpha 90.000000
_cell_angle_beta 90.000000
_cell_angle_gamma 90.000000
_cell_volume 2280.133805
_symmetry_space_group_name_H-M "P N N A"
_symmetry_group_IT_number 52
_symmetry_cell_setting 'orthorhombic'
loop_
_space_group_symop_operation_xyz
x,y,z
1/2-x,-y,z
x,1/2-y,1/2-z
1/2-x,1/2+y,1/2-z
-x,-y,-z
1/2+x,y,-z
-x,1/2+y,1/2+z
1/2+x,1/2-y,1/2+z
loop_
_atom_site_type_symbol
_atom_site_label
_atom_site_fract_x
_atom_site_fract_y
_atom_site_fract_z
Si Si1 0.376983 0.061470 0.090628
Si Si2 0.750000 0.500000 0.468923
Si Si3 0.674447 0.456430 0.776060
Si Si4 0.216070 0.809615 0.649315
Si Si5 0.430793 0.836921 0.416632
Si Si6 0.580930 0.641377 0.043388
O O1 0.349964 0.073059 0.191735
O O2 0.414081 0.871702 0.085812
O O3 0.311523 0.038077 0.031719
O O4 0.416600 0.221148 0.041038
O O5 0.740636 0.331139 0.406156
O O6 0.750000 0.500000 0.807554
O O7 0.680958 0.250000 0.750000
O O8 0.615098 0.443981 0.846937
O O9 0.211535 0.750000 0.750000
O O10 0.143038 0.814486 0.605285
O O11 0.250000 0.000000 0.643025
O O12 0.510413 0.848522 0.406828
O O13 0.414023 0.940345 0.506844
#
# Coordination Sequence:
#
# PCOD9409788 Si02
#       6
#     8   4   8   8   8   8
#     4  10  20  37  61  88 119 157 201 245 304 358
#     4  10  20  36  60  88 116 154 198 250 302 358
#     4  10  22  35  60  92 125 154 201 252 304 362
#     4  11  22  38  61  86 116 152 201 254 298 353
#     4  10  22  40  57  88 123 158 199 250 291 369
#     4  10  23  39  62  83 120 163 202 238 310 358
#
# _framework density 19.297113
#
# number of rings (size 3 to 8) (size 9 to 14) (size 15 to 20)
#    0.000    1.818    1.818    1.636    2.545    4.364 
#    0.000    0.000    4.000    0.000    0.000    0.000 
#    0.000    0.000    0.000    0.000    0.000    0.000 
#
# Total GULP energy -245336.729353 kJ/mol
# GULP energy per Si atom -5575.834758 kJ/mol
# Density = 1.925319 g / cm^3
# Si number density = 19.297113 Si / 1000 Ang^3
#
#
#
# Elastic Constant Matrix: (Units=GPa)
#
#
# Indices 1 2 3 4 5 6 
#
# 1 102.7143 23.5679 43.2204 0.0000 0.0000 0.0000
# 2 23.5679 88.7388 39.4294 0.0000 0.0000 0.0000
# 3 43.2204 39.4294 68.5117 0.0000 0.0000 0.0000
# 4 0.0000 0.0000 0.0000 37.7722 0.0000 0.0000
# 5 0.0000 0.0000 0.0000 0.0000 18.3833 0.0000
# 6 0.0000 0.0000 0.0000 0.0000 0.0000 27.2351
#
#
#
# Elastic Compliance Matrix: (Units=1/GPa)
#
#
# Indices 1 2 3 4 5 6 
#
# 1 0.013259 0.000262 -0.008515 0.000000 0.000000 0.000000
# 2 0.000262 0.015146 -0.008882 0.000000 0.000000 0.000000
# 3 -0.008515 -0.008882 0.025079 0.000000 0.000000 0.000000
# 4 0.000000 0.000000 0.000000 0.026474 0.000000 0.000000
# 5 0.000000 0.000000 0.000000 0.000000 0.054397 0.000000
# 6 0.000000 0.000000 0.000000 0.000000 0.000000 0.036717
#
#
# Mechanical properties :
#
#
# Convention : Reuss Voigt Hill
#
# Bulk Modulus (GPa) = 52.04499 52.48892 52.26695
# Shear Modulus (GPa) = 23.61302 26.92793 25.27047
#
# Velocity S-wave (km/s) = 3.50187 3.73961 3.62269
# Velocity P-wave (km/s) = 6.58633 6.77537 6.68152
#
# Compressibility (1/GPa) = 0.01921415
#
# Stress axis : x y z
#
# Youngs Moduli (GPa) = 75.42306 66.02414 39.87329
#
# Poissons Ratio (x) = -0.01731 0.33952
# Poissons Ratio (y) = -0.01977 0.35416
# Poissons Ratio (z) = 0.64223 0.58643
#
# Static dielectric constant tensor:
#      x y z
#    x 2.229390 0.000000 0.000000 
#    y 0.000000 1.684590 0.000000 
#    z 0.000000 0.000000 1.695380 
# 
# From -- ./inp_files/27940.got.cif
#   From: 2010.05.17/outbox.cif.g08.bks.cpg/sg52_14_cif.got.tgz:27940.got - 2010.06.03 12:15:38.
