data_PCOD9409092
_publ_section_title
;
Structure prediction by ZEFSAII (Michael W. Deem and Ramdas Pophale) SiO2 
 PCOD9409092
Probable space group: P N N A
;
_chemical_formula_sum "Si O2"
_cell_formula_units_Z 32
_cell_length_a 15.082958
_cell_length_b 13.120172
_cell_length_c 8.459238
_cell_angle_alpha 90.000000
_cell_angle_beta 90.000000
_cell_angle_gamma 90.000000
_cell_volume 1674.007094
_symmetry_space_group_name_H-M "P N N A"
_symmetry_group_IT_number 52
_symmetry_cell_setting 'orthorhombic'
loop_
_space_group_symop_operation_xyz
x,y,z
1/2-x,-y,z
x,1/2-y,1/2-z
1/2-x,1/2+y,1/2-z
-x,-y,-z
1/2+x,y,-z
-x,1/2+y,1/2+z
1/2+x,1/2-y,1/2+z
loop_
_atom_site_type_symbol
_atom_site_label
_atom_site_fract_x
_atom_site_fract_y
_atom_site_fract_z
Si Si1 0.969570 0.750000 0.750000
Si Si2 0.520638 0.618062 0.963029
Si Si3 0.215612 0.608344 0.167007
Si Si4 0.308207 0.811797 0.052536
Si Si5 0.613719 0.250000 0.250000
O O1 0.902241 0.819212 0.855045
O O2 0.023106 0.819286 0.627817
O O3 0.613550 0.623221 0.872107
O O4 0.446966 0.675500 0.856694
O O5 0.500000 0.500000 0.000000
O O6 0.250000 0.500000 0.110070
O O7 0.271676 0.697771 0.084812
O O8 0.238697 0.619084 0.353386
O O9 0.327322 0.817975 0.868432
#
# Coordination Sequence:
#
# PCOD9409092 Si02
#       5
#     4   8   8   8   4
#     4   8  18  36  56  82 112 144 188 236 278 336
#     4  11  21  38  62  86 115 154 193 236 289 343
#     4  10  19  36  57  81 115 152 186 233 287 339
#     4   9  19  36  55  80 113 147 184 235 285 332
#     4  10  20  38  60  84 112 150 194 238 286 344
#
# _framework density 19.115808999999999
#
# number of rings (size 3 to 8) (size 9 to 14) (size 15 to 20)
#    0.000    2.500    0.000    6.000    0.000    1.000 
#    0.000   20.000    0.000    0.000    0.000    0.000 
#    0.000    0.000    0.000    0.000    0.000    0.000 
#
# Total GULP energy -178363.881963 kJ/mol
# GULP energy per Si atom -5573.871311 kJ/mol
# Density = 1.907230 g / cm^3
# Si number density = 19.115809 Si / 1000 Ang^3
#
#
#
# Elastic Constant Matrix: (Units=GPa)
#
#
# Indices 1 2 3 4 5 6 
#
# 1 99.1225 24.5697 51.7813 0.0000 0.0000 0.0000
# 2 24.5697 101.9158 27.0464 0.0000 0.0000 0.0000
# 3 51.7813 27.0464 129.8071 0.0000 0.0000 0.0000
# 4 0.0000 0.0000 0.0000 11.6061 0.0000 0.0000
# 5 0.0000 0.0000 0.0000 0.0000 8.6844 0.0000
# 6 0.0000 0.0000 0.0000 0.0000 0.0000 24.0373
#
#
#
# Elastic Compliance Matrix: (Units=1/GPa)
#
#
# Indices 1 2 3 4 5 6 
#
# 1 0.013073 -0.001871 -0.004825 0.000000 0.000000 0.000000
# 2 -0.001871 0.010654 -0.001473 0.000000 0.000000 0.000000
# 3 -0.004825 -0.001473 0.009936 0.000000 0.000000 0.000000
# 4 0.000000 0.000000 0.000000 0.086161 0.000000 0.000000
# 5 0.000000 0.000000 0.000000 0.000000 0.115149 0.000000
# 6 0.000000 0.000000 0.000000 0.000000 0.000000 0.041602
#
#
# Mechanical properties :
#
#
# Convention : Reuss Voigt Hill
#
# Bulk Modulus (GPa) = 57.72581 59.73780 58.73180
# Shear Modulus (GPa) = 16.73986 24.02878 20.38432
#
# Velocity S-wave (km/s) = 2.96245 3.54928 3.26906
# Velocity P-wave (km/s) = 6.47804 6.93649 6.71118
#
# Compressibility (1/GPa) = 0.01732327
#
# Stress axis : x y z
#
# Youngs Moduli (GPa) = 76.49404 93.86028 100.64916
#
# Poissons Ratio (x) = 0.17562 0.48564
# Poissons Ratio (y) = 0.14313 0.14830
# Poissons Ratio (z) = 0.36909 0.13830
#
# Static dielectric constant tensor:
#      x y z
#    x 1.683640 0.000000 0.000000 
#    y 0.000000 1.711000 0.000000 
#    z 0.000000 0.000000 1.709750 
# 
# From -- ./inp_files/9600.got.cif
#   From: 2010.05.17/outbox.cif.g08.bks.cpg/sg52_5_cif.got.tgz:9600.got - 2010.06.03 12:15:38.
