data_PCOD9409365
_publ_section_title
;
Structure prediction by ZEFSAII (Michael W. Deem and Ramdas Pophale) SiO2 
 PCOD9409365
Probable space group: P N N A
;
_chemical_formula_sum "Si O2"
_cell_formula_units_Z 32
_cell_length_a 13.340752
_cell_length_b 10.252631
_cell_length_c 8.949880
_cell_angle_alpha 90.000000
_cell_angle_beta 90.000000
_cell_angle_gamma 90.000000
_cell_volume 1224.144964
_symmetry_space_group_name_H-M "P N N A"
_symmetry_group_IT_number 52
_symmetry_cell_setting 'orthorhombic'
loop_
_space_group_symop_operation_xyz
x,y,z
1/2-x,-y,z
x,1/2-y,1/2-z
1/2-x,1/2+y,1/2-z
-x,-y,-z
1/2+x,y,-z
-x,1/2+y,1/2+z
1/2+x,1/2-y,1/2+z
loop_
_atom_site_type_symbol
_atom_site_label
_atom_site_fract_x
_atom_site_fract_y
_atom_site_fract_z
Si Si1 0.345946 0.750000 0.250000
Si Si2 0.708857 0.356643 0.450718
Si Si3 0.867028 0.250000 0.250000
Si Si4 0.132420 0.011761 0.416161
Si Si5 0.448519 0.971967 0.748385
O O1 0.292055 0.659676 0.371861
O O2 0.399646 0.843691 0.365275
O O3 0.750000 0.500000 0.412930
O O4 0.783978 0.247131 0.384913
O O5 0.602423 0.371303 0.363884
O O6 0.932057 0.123639 0.199136
O O7 0.060055 0.931336 0.305388
O O8 0.250000 0.000000 0.394658
O O9 0.108081 0.011257 0.590069
#
# Coordination Sequence:
#
# PCOD9409365 Si02
#       5
#     4   8   4   8   8
#     4  12  23  38  61  90 128 170 213 264 323 384
#     4  10  21  37  63  95 128 167 213 269 329 391
#     4  10  19  40  69  92 126 170 215 264 335 398
#     4  11  23  41  63  92 132 171 216 271 325 393
#     4  10  22  41  66  95 129 171 217 267 331 396
#
# _framework density 26.140695000000001
#
# number of rings (size 3 to 8) (size 9 to 14) (size 15 to 20)
#    0.000    1.500    0.000    6.750    0.000    1.000 
#    0.000    8.750    0.000    0.000    0.000    0.000 
#    0.000    0.000    0.000    0.000    0.000    0.000 
#
# Total GULP energy -178211.712177 kJ/mol
# GULP energy per Si atom -5569.116006 kJ/mol
# Density = 2.608120 g / cm^3
# Si number density = 26.140695 Si / 1000 Ang^3
#
#
#
# Elastic Constant Matrix: (Units=GPa)
#
#
# Indices 1 2 3 4 5 6 
#
# 1 176.6457 3.5049 41.9526 0.0000 0.0000 0.0000
# 2 3.5049 44.2747 9.1193 0.0000 0.0000 0.0000
# 3 41.9526 9.1193 116.9791 0.0000 0.0000 0.0000
# 4 0.0000 0.0000 0.0000 33.2038 0.0000 0.0000
# 5 0.0000 0.0000 0.0000 0.0000 11.5245 0.0000
# 6 0.0000 0.0000 0.0000 0.0000 0.0000 7.2407
#
#
#
# Elastic Compliance Matrix: (Units=1/GPa)
#
#
# Indices 1 2 3 4 5 6 
#
# 1 0.006188 -0.000033 -0.002217 0.000000 0.000000 0.000000
# 2 -0.000033 0.022955 -0.001778 0.000000 0.000000 0.000000
# 3 -0.002217 -0.001778 0.009482 0.000000 0.000000 0.000000
# 4 0.000000 0.000000 0.000000 0.030117 0.000000 0.000000
# 5 0.000000 0.000000 0.000000 0.000000 0.086771 0.000000
# 6 0.000000 0.000000 0.000000 0.000000 0.000000 0.138107
#
#
# Mechanical properties :
#
#
# Convention : Reuss Voigt Hill
#
# Bulk Modulus (GPa) = 32.71163 49.67257 41.19210
# Shear Modulus (GPa) = 16.03252 29.28200 22.65726
#
# Velocity S-wave (km/s) = 2.47921 3.35052 2.94724
# Velocity P-wave (km/s) = 4.55370 5.83192 5.23199
#
# Compressibility (1/GPa) = 0.03057017
#
# Stress axis : x y z
#
# Youngs Moduli (GPa) = 161.59888 43.56350 105.46206
#
# Poissons Ratio (x) = 0.00145 0.23378
# Poissons Ratio (y) = 0.00538 0.18746
# Poissons Ratio (z) = 0.35821 0.07744
#
# Static dielectric constant tensor:
#      x y z
#    x 2.345750 0.000000 0.000000 
#    y 0.000000 2.217200 0.000000 
#    z 0.000000 0.000000 2.100230 
# 
# From -- ./inp_files/9614.got.cif
#   From: 2010.05.17/outbox.cif.g08.bks.cpg/sg52_5_cif.got.tgz:9614.got - 2010.06.03 12:15:38.
