data_PCOD9409857
_publ_section_title
;
Structure prediction by ZEFSAII (Michael W. Deem and Ramdas Pophale) SiO2 
 PCOD9409857
Probable space group: P N N A
;
_chemical_formula_sum "Si O2"
_cell_formula_units_Z 40
_cell_length_a 15.630662
_cell_length_b 9.035261
_cell_length_c 12.260276
_cell_angle_alpha 90.000000
_cell_angle_beta 90.000000
_cell_angle_gamma 90.000000
_cell_volume 1731.483357
_symmetry_space_group_name_H-M "P N N A"
_symmetry_group_IT_number 52
_symmetry_cell_setting 'orthorhombic'
loop_
_space_group_symop_operation_xyz
x,y,z
1/2-x,-y,z
x,1/2-y,1/2-z
1/2-x,1/2+y,1/2-z
-x,-y,-z
1/2+x,y,-z
-x,1/2+y,1/2+z
1/2+x,1/2-y,1/2+z
loop_
_atom_site_type_symbol
_atom_site_label
_atom_site_fract_x
_atom_site_fract_y
_atom_site_fract_z
Si Si1 0.424563 0.049925 0.834391
Si Si2 0.781765 0.831914 0.483070
Si Si3 0.497628 0.250000 0.250000
Si Si4 0.274279 0.250000 0.750000
Si Si5 0.371446 0.361482 0.425941
Si Si6 0.887794 0.828240 0.853794
O O1 0.340795 0.118526 0.778751
O O2 0.511334 0.146419 0.833683
O O3 0.447953 0.897929 0.773216
O O4 0.405660 0.056472 0.964026
O O5 0.779750 0.788723 0.356194
O O6 0.709186 0.731841 0.538983
O O7 0.867433 0.776256 0.542833
O O8 0.750000 0.000000 0.494769
O O9 0.436486 0.257767 0.357809
O O10 0.351749 0.505852 0.356007
O O11 0.848195 0.750000 0.750000
#
# Coordination Sequence:
#
# PCOD9409857 Si02
#       6
#     8   8   4   4   8   8
#     4  10  22  44  69 100 133 181 231 288 342 411
#     4  11  27  42  67 101 136 187 229 283 347 413
#     4  10  20  36  70  98 128 178 222 286 350 402
#     4  10  24  48  66  98 140 180 234 282 338 416
#     4  10  24  43  66 100 142 177 232 286 347 419
#     4  11  23  41  69  98 136 180 223 284 350 402
#
# _framework density 23.101576999999999
#
# number of rings (size 3 to 8) (size 9 to 14) (size 15 to 20)
#    0.000    1.600    1.000    3.000    7.000    6.400 
#    0.000    5.000    0.000    0.000    0.000    0.000 
#    0.000    0.000    0.000    0.000    0.000    0.000 
#
# Total GULP energy -223439.871242 kJ/mol
# GULP energy per Si atom -5585.996781 kJ/mol
# Density = 2.304900 g / cm^3
# Si number density = 23.101577 Si / 1000 Ang^3
#
#
#
# Elastic Constant Matrix: (Units=GPa)
#
#
# Indices 1 2 3 4 5 6 
#
# 1 73.4283 44.5920 48.2339 0.0000 0.0000 0.0000
# 2 44.5920 147.4662 76.7297 0.0000 0.0000 0.0000
# 3 48.2339 76.7297 143.0118 0.0000 0.0000 0.0000
# 4 0.0000 0.0000 0.0000 40.4621 0.0000 0.0000
# 5 0.0000 0.0000 0.0000 0.0000 302.8837 0.0000
# 6 0.0000 0.0000 0.0000 0.0000 0.0000 29.1713
#
#
#
# Elastic Compliance Matrix: (Units=1/GPa)
#
#
# Indices 1 2 3 4 5 6 
#
# 1 0.018565 -0.003268 -0.004508 0.000000 0.000000 0.000000
# 2 -0.003268 0.009983 -0.004254 0.000000 0.000000 0.000000
# 3 -0.004508 -0.004254 0.010795 0.000000 0.000000 0.000000
# 4 0.000000 0.000000 0.000000 0.024714 0.000000 0.000000
# 5 0.000000 0.000000 0.000000 0.000000 0.003302 0.000000
# 6 0.000000 0.000000 0.000000 0.000000 0.000000 0.034280
#
#
# Mechanical properties :
#
#
# Convention : Reuss Voigt Hill
#
# Bulk Modulus (GPa) = 65.43286 78.11305 71.77296
# Shear Modulus (GPa) = 38.22844 87.46014 62.84429
#
# Velocity S-wave (km/s) = 4.07233 6.15964 5.22135
# Velocity P-wave (km/s) = 7.10615 9.19100 8.21498
#
# Compressibility (1/GPa) = 0.01528284
#
# Stress axis : x y z
#
# Youngs Moduli (GPa) = 53.86599 100.17236 92.63486
#
# Poissons Ratio (x) = 0.32738 0.41758
# Poissons Ratio (y) = 0.17604 0.39405
# Poissons Ratio (z) = 0.24282 0.42611
#
# Static dielectric constant tensor:
#      x y z
#    x 1.902780 0.000000 0.000000 
#    y 0.000000 1.797590 0.000000 
#    z 0.000000 0.000000 1.929480 
# 
# From -- ./inp_files/20391.got.cif
#   From: 2010.05.17/outbox.cif.g08.bks.cpg/sg52_11_cif.got.tgz:20391.got - 2010.06.03 12:15:38.
