data_PCOD9409759
_publ_section_title
;
Structure prediction by ZEFSAII (Michael W. Deem and Ramdas Pophale) SiO2 
 PCOD9409759
Probable space group: P N N A
;
_chemical_formula_sum "Si O2"
_cell_formula_units_Z 64
_cell_length_a 18.430649
_cell_length_b 8.612732
_cell_length_c 20.442478
_cell_angle_alpha 90.000000
_cell_angle_beta 90.000000
_cell_angle_gamma 90.000000
_cell_volume 3245.002988
_symmetry_space_group_name_H-M "P N N A"
_symmetry_group_IT_number 52
_symmetry_cell_setting 'orthorhombic'
loop_
_space_group_symop_operation_xyz
x,y,z
1/2-x,-y,z
x,1/2-y,1/2-z
1/2-x,1/2+y,1/2-z
-x,-y,-z
1/2+x,y,-z
-x,1/2+y,1/2+z
1/2+x,1/2-y,1/2+z
loop_
_atom_site_type_symbol
_atom_site_label
_atom_site_fract_x
_atom_site_fract_y
_atom_site_fract_z
Si Si1 0.954657 0.698345 0.084507
Si Si2 0.775773 0.323449 0.181780
Si Si3 0.770330 0.317106 0.037383
Si Si4 0.037743 0.335870 0.370962
Si Si5 0.855532 0.661577 0.523077
Si Si6 0.421782 0.322103 0.509365
Si Si7 0.489242 0.612711 0.705992
Si Si8 0.061315 0.585564 0.822304
O O1 0.944682 0.809176 0.147318
O O2 0.894868 0.728977 0.030223
O O3 0.949049 0.528090 0.115517
O O4 0.029826 0.747439 0.048801
O O5 0.750000 0.500000 0.183150
O O6 0.751677 0.250000 0.250000
O O7 0.750345 0.261206 0.111404
O O8 0.863080 0.324513 0.177518
O O9 0.750000 0.500000 0.030898
O O10 0.727532 0.205406 0.987573
O O11 0.855778 0.290616 0.027397
O O12 0.112340 0.297332 0.406417
O O13 0.041850 0.493290 0.329966
O O14 0.977303 0.350131 0.429852
O O15 0.005471 0.202477 0.325661
O O16 0.884910 0.487522 0.508635
O O17 0.523102 0.750000 0.750000
O O18 0.440984 0.516162 0.756700
#
# Coordination Sequence:
#
# PCOD9409759 Si02
#       8
#     8   8   8   8   8   8   8   8
#     4  10  20  37  59  91 117 156 201 252 311 353
#     4  11  24  41  54  82 124 173 208 242 284 357
#     4  11  25  40  57  88 122 159 208 249 301 368
#     4  11  20  38  59  91 118 154 204 254 307 363
#     4  11  22  37  62  84 120 159 202 256 304 360
#     4  11  21  38  62  82 122 158 200 255 306 364
#     4  10  20  36  58  87 122 150 194 251 294 367
#     4  11  23  35  61  88 123 161 200 255 303 355
#
# _framework density 19.722632000000001
#
# number of rings (size 3 to 8) (size 9 to 14) (size 15 to 20)
#    0.000    1.250    3.750    3.750    1.750    4.500 
#    0.000    0.000    0.000    0.000    0.000    8.750 
#    0.000    0.000    0.000    0.000    0.000    0.000 
#
# Total GULP energy -357300.028675 kJ/mol
# GULP energy per Si atom -5582.812948 kJ/mol
# Density = 1.967774 g / cm^3
# Si number density = 19.722632 Si / 1000 Ang^3
#
#
#
# Elastic Constant Matrix: (Units=GPa)
#
#
# Indices 1 2 3 4 5 6 
#
# 1 61.5920 5.6527 13.4170 0.0000 0.0000 0.0000
# 2 5.6527 57.8653 11.5854 0.0000 0.0000 0.0000
# 3 13.4170 11.5854 57.3493 0.0000 0.0000 0.0000
# 4 0.0000 0.0000 0.0000 30.4463 0.0000 0.0000
# 5 0.0000 0.0000 0.0000 0.0000 32.8183 0.0000
# 6 0.0000 0.0000 0.0000 0.0000 0.0000 26.7420
#
#
#
# Elastic Compliance Matrix: (Units=1/GPa)
#
#
# Indices 1 2 3 4 5 6 
#
# 1 0.017154 -0.000909 -0.003829 0.000000 0.000000 0.000000
# 2 -0.000909 0.018058 -0.003435 0.000000 0.000000 0.000000
# 3 -0.003829 -0.003435 0.019027 0.000000 0.000000 0.000000
# 4 0.000000 0.000000 0.000000 0.032845 0.000000 0.000000
# 5 0.000000 0.000000 0.000000 0.000000 0.030471 0.000000
# 6 0.000000 0.000000 0.000000 0.000000 0.000000 0.037394
#
#
# Mechanical properties :
#
#
# Convention : Reuss Voigt Hill
#
# Bulk Modulus (GPa) = 26.39153 26.45742 26.42447
# Shear Modulus (GPa) = 27.18482 27.74477 27.46479
#
# Velocity S-wave (km/s) = 3.71665 3.75473 3.73574
# Velocity P-wave (km/s) = 5.64166 5.67814 5.65993
#
# Compressibility (1/GPa) = 0.03789094
#
# Stress axis : x y z
#
# Youngs Moduli (GPa) = 58.29714 55.37679 52.55713
#
# Poissons Ratio (x) = 0.05034 0.20127
# Poissons Ratio (y) = 0.05299 0.18055
# Poissons Ratio (z) = 0.22325 0.19024
#
# Static dielectric constant tensor:
#      x y z
#    x 1.703830 0.000000 0.000000 
#    y 0.000000 1.740070 0.000000 
#    z 0.000000 0.000000 1.721710 
# 
# From -- ./inp_files/37689.got.cif
#   From: 2010.05.17/outbox.cif.g08.bks.cpg/sg52_19_cif.got.tgz:37689.got - 2010.06.03 12:15:38.
