data_PCOD9409534
_publ_section_title
;
Structure prediction by ZEFSAII (Michael W. Deem and Ramdas Pophale) SiO2 
 PCOD9409534
Probable space group: P N N A
;
_chemical_formula_sum "Si O2"
_cell_formula_units_Z 64
_cell_length_a 31.828295
_cell_length_b 9.601048
_cell_length_c 13.427610
_cell_angle_alpha 90.000000
_cell_angle_beta 90.000000
_cell_angle_gamma 90.000000
_cell_volume 4103.276041
_symmetry_space_group_name_H-M "P N N A"
_symmetry_group_IT_number 52
_symmetry_cell_setting 'orthorhombic'
loop_
_space_group_symop_operation_xyz
x,y,z
1/2-x,-y,z
x,1/2-y,1/2-z
1/2-x,1/2+y,1/2-z
-x,-y,-z
1/2+x,y,-z
-x,1/2+y,1/2+z
1/2+x,1/2-y,1/2+z
loop_
_atom_site_type_symbol
_atom_site_label
_atom_site_fract_x
_atom_site_fract_y
_atom_site_fract_z
Si Si1 0.934565 0.026290 0.936359
Si Si2 0.528001 0.913898 0.365120
Si Si3 0.795905 0.332898 0.854333
Si Si4 0.884503 0.722895 0.630617
Si Si5 0.386520 0.214422 0.366409
Si Si6 0.296167 0.833979 0.353893
Si Si7 0.436489 0.965672 0.441081
Si Si8 0.524106 0.578167 0.361907
O O1 0.919769 0.183277 0.917218
O O2 0.896070 0.934329 0.895774
O O3 0.946818 0.012675 0.052328
O O4 0.976926 0.980808 0.878248
O O5 0.482111 0.974413 0.391152
O O6 0.524506 0.746155 0.375804
O O7 0.538181 0.947965 0.250998
O O8 0.558951 0.979218 0.446655
O O9 0.794407 0.250000 0.750000
O O10 0.838603 0.280281 0.905914
O O11 0.749840 0.312381 0.902585
O O12 0.800742 0.499658 0.836949
O O13 0.888574 0.750000 0.750000
O O14 0.838362 0.773551 0.597430
O O15 0.919483 0.810863 0.571969
O O16 0.385486 0.250000 0.250000
O O17 0.403763 0.060296 0.381990
O O18 0.294623 0.750000 0.250000
#
# Coordination Sequence:
#
# PCOD9409534 Si02
#       8
#     8   8   8   8   8   8   8   8
#     4  11  22  33  49  70  96 127 167 200 239 286
#     4  10  20  34  53  68  96 127 163 205 249 284
#     4   9  18  30  44  67  99 126 163 200 231 285
#     4  11  20  32  50  70  99 135 163 194 237 289
#     4  11  20  30  46  72  99 127 162 203 232 277
#     4   9  18  30  45  66  95 135 160 189 244 288
#     4  11  20  33  49  74  92 128 168 200 234 289
#     4  10  20  36  50  69  96 130 159 206 251 284
#
# _framework density 15.597291999999999
#
# number of rings (size 3 to 8) (size 9 to 14) (size 15 to 20)
#    0.000    1.750    3.750    2.250    5.250    0.000 
#    0.000    1.875    0.000    0.000    0.000    0.000 
#    0.000    6.000    0.000    0.000    0.000    0.000 
#
# Total GULP energy -356451.241319 kJ/mol
# GULP energy per Si atom -5569.550646 kJ/mol
# Density = 1.556179 g / cm^3
# Si number density = 15.597292 Si / 1000 Ang^3
#
#
#
# Elastic Constant Matrix: (Units=GPa)
#
#
# Indices 1 2 3 4 5 6 
#
# 1 71.8303 -4.1149 19.8426 0.0000 0.0000 0.0000
# 2 -4.1149 27.2174 7.4090 0.0000 0.0000 0.0000
# 3 19.8426 7.4090 73.0223 0.0000 0.0000 0.0000
# 4 0.0000 0.0000 0.0000 22.9136 0.0000 0.0000
# 5 0.0000 0.0000 0.0000 0.0000 9.0940 0.0000
# 6 0.0000 0.0000 0.0000 0.0000 0.0000 23.6996
#
#
#
# Elastic Compliance Matrix: (Units=1/GPa)
#
#
# Indices 1 2 3 4 5 6 
#
# 1 0.015380 0.003561 -0.004541 0.000000 0.000000 0.000000
# 2 0.003561 0.038609 -0.004885 0.000000 0.000000 0.000000
# 3 -0.004541 -0.004885 0.015424 0.000000 0.000000 0.000000
# 4 0.000000 0.000000 0.000000 0.043642 0.000000 0.000000
# 5 0.000000 0.000000 0.000000 0.000000 0.109962 0.000000
# 6 0.000000 0.000000 0.000000 0.000000 0.000000 0.042195
#
#
# Mechanical properties :
#
#
# Convention : Reuss Voigt Hill
#
# Bulk Modulus (GPa) = 17.33565 24.26037 20.79801
# Shear Modulus (GPa) = 16.88223 21.07035 18.97629
#
# Velocity S-wave (km/s) = 3.29353 3.67944 3.49182
# Velocity P-wave (km/s) = 5.05982 5.79992 5.44246
#
# Compressibility (1/GPa) = 0.05768461
#
# Stress axis : x y z
#
# Youngs Moduli (GPa) = 65.01942 25.90037 64.83432
#
# Poissons Ratio (x) = -0.09224 0.29439
# Poissons Ratio (y) = -0.23155 0.31672
# Poissons Ratio (z) = 0.29523 0.12653
#
# Static dielectric constant tensor:
#      x y z
#    x 1.556180 0.000000 0.000000 
#    y 0.000000 1.521620 0.000000 
#    z 0.000000 0.000000 1.500780 
# 
# From -- ./inp_files/29765.got.cif
#   From: 2010.05.17/outbox.cif.g08.bks.cpg/sg52_15_cif.got.tgz:29765.got - 2010.06.03 12:15:38.
