data_PCOD9409665
_publ_section_title
;
Structure prediction by ZEFSAII (Michael W. Deem and Ramdas Pophale) SiO2 
 PCOD9409665
Probable space group: P N N A
;
_chemical_formula_sum "Si O2"
_cell_formula_units_Z 48
_cell_length_a 24.348839
_cell_length_b 10.979357
_cell_length_c 8.257361
_cell_angle_alpha 90.000000
_cell_angle_beta 90.000000
_cell_angle_gamma 90.000000
_cell_volume 2207.478266
_symmetry_space_group_name_H-M "P N N A"
_symmetry_group_IT_number 52
_symmetry_cell_setting 'orthorhombic'
loop_
_space_group_symop_operation_xyz
x,y,z
1/2-x,-y,z
x,1/2-y,1/2-z
1/2-x,1/2+y,1/2-z
-x,-y,-z
1/2+x,y,-z
-x,1/2+y,1/2+z
1/2+x,1/2-y,1/2+z
loop_
_atom_site_type_symbol
_atom_site_label
_atom_site_fract_x
_atom_site_fract_y
_atom_site_fract_z
Si Si1 0.416113 0.909076 0.963188
Si Si2 0.991392 0.750000 0.250000
Si Si3 0.913109 0.325798 0.561514
Si Si4 0.814437 0.250000 0.750000
Si Si5 0.849766 0.250000 0.250000
Si Si6 0.777196 0.874848 0.559983
Si Si7 0.874293 0.750000 0.750000
Si Si8 0.806390 0.982602 0.214521
O O1 0.452513 0.854862 0.818199
O O2 0.355169 0.929162 0.890316
O O3 0.410267 0.818666 0.115065
O O4 0.435780 0.040919 0.022510
O O5 0.037374 0.764074 0.389230
O O6 0.860816 0.344410 0.683938
O O7 0.886375 0.267642 0.406285
O O8 0.772146 0.218800 0.604377
O O9 0.820013 0.120404 0.268838
O O10 0.832086 0.838988 0.655288
O O11 0.794021 0.900066 0.373189
O O12 0.750000 0.000000 0.620378
O O13 0.750000 0.000000 0.117191
#
# Coordination Sequence:
#
# PCOD9409665 Si02
#       8
#     8   4   8   4   4   8   4   8
#     4  11  24  42  61  89 121 157 204 254 309 367
#     4  11  24  44  66  86 120 160 204 265 314 356
#     4  10  22  42  64  87 118 159 205 257 308 360
#     4  10  20  36  60  88 124 160 198 242 296 362
#     4  10  22  40  64  94 122 162 212 256 306 368
#     4  10  20  35  57  89 124 162 199 238 295 366
#     4  11  24  38  60  90 126 160 198 249 306 370
#     4  10  22  39  63  93 128 163 199 245 303 370
#
# _framework density 21.744268000000002
#
# number of rings (size 3 to 8) (size 9 to 14) (size 15 to 20)
#    0.000    1.667    0.000    4.500    0.000   11.333 
#    0.000    4.167    0.000    0.000    0.000    0.000 
#    0.000    0.000    0.000    0.000    0.000    0.000 
#
# Total GULP energy -267542.706739 kJ/mol
# GULP energy per Si atom -5573.806390 kJ/mol
# Density = 2.169478 g / cm^3
# Si number density = 21.744268 Si / 1000 Ang^3
#
#
#
# Elastic Constant Matrix: (Units=GPa)
#
#
# Indices 1 2 3 4 5 6 
#
# 1 108.0831 23.8021 41.3936 0.0000 0.0000 0.0000
# 2 23.8021 73.3136 35.6120 0.0000 0.0000 0.0000
# 3 41.3936 35.6120 82.4562 0.0000 0.0000 0.0000
# 4 0.0000 0.0000 0.0000 31.2763 0.0000 0.0000
# 5 0.0000 0.0000 0.0000 0.0000 -78.3857 0.0000
# 6 0.0000 0.0000 0.0000 0.0000 0.0000 0.6873
#
#
#
# Elastic Compliance Matrix: (Units=1/GPa)
#
#
# Indices 1 2 3 4 5 6 
#
# 1 0.011534 -0.001180 -0.005281 0.000000 0.000000 0.000000
# 2 -0.001180 0.017382 -0.006915 0.000000 0.000000 0.000000
# 3 -0.005281 -0.006915 0.017765 0.000000 0.000000 0.000000
# 4 0.000000 0.000000 0.000000 0.031973 0.000000 0.000000
# 5 0.000000 0.000000 0.000000 0.000000 -0.012757 0.000000
# 6 0.000000 0.000000 0.000000 0.000000 0.000000 1.455053
#
#
# Mechanical properties :
#
#
# Convention : Reuss Voigt Hill
#
# Bulk Modulus (GPa) = 50.17386 51.71869 50.94628
# Shear Modulus (GPa) = 3.21679 1.58525 2.40102
#
# Velocity S-wave (km/s) = 1.21761 0.85477 1.05195
# Velocity P-wave (km/s) = 5.01013 4.98104 4.99561
#
# Compressibility (1/GPa) = 0.01993070
#
# Stress axis : x y z
#
# Youngs Moduli (GPa) = 86.69739 57.53109 56.28992
#
# Poissons Ratio (x) = 0.06786 0.29726
# Poissons Ratio (y) = 0.10227 0.38924
# Poissons Ratio (z) = 0.45784 0.39782
#
# Static dielectric constant tensor:
#      x y z
#    x 1.804510 0.000000 0.000000 
#    y 0.000000 1.790620 0.000000 
#    z 0.000000 0.000000 1.878970 
# 
# From -- ./inp_files/14348.got.cif
#   From: 2010.05.17/outbox.cif.g08.bks.cpg/sg52_8_cif.got.tgz:14348.got - 2010.06.03 12:15:38.
