data_PCOD9409046
_publ_section_title
;
Structure prediction by ZEFSAII (Michael W. Deem and Ramdas Pophale) SiO2 
 PCOD9409046
Probable space group: P N N A
;
_chemical_formula_sum "Si O2"
_cell_formula_units_Z 40
_cell_length_a 9.353809
_cell_length_b 8.500049
_cell_length_c 28.568670
_cell_angle_alpha 90.000000
_cell_angle_beta 90.000000
_cell_angle_gamma 90.000000
_cell_volume 2271.433096
_symmetry_space_group_name_H-M "P N N A"
_symmetry_group_IT_number 52
_symmetry_cell_setting 'orthorhombic'
loop_
_space_group_symop_operation_xyz
x,y,z
1/2-x,-y,z
x,1/2-y,1/2-z
1/2-x,1/2+y,1/2-z
-x,-y,-z
1/2+x,y,-z
-x,1/2+y,1/2+z
1/2+x,1/2-y,1/2+z
loop_
_atom_site_type_symbol
_atom_site_label
_atom_site_fract_x
_atom_site_fract_y
_atom_site_fract_z
Si Si1 0.059687 0.358879 0.467349
Si Si2 0.218845 0.821345 0.521758
Si Si3 0.178130 0.176491 0.883093
Si Si4 0.917352 0.988760 0.862880
Si Si5 0.650568 0.847017 0.203245
O O1 0.211806 0.299247 0.485054
O O2 0.067203 0.404726 0.413236
O O3 0.000000 0.500000 0.500000
O O4 0.947243 0.217687 0.473525
O O5 0.293472 0.776844 0.571099
O O6 0.250000 0.000000 0.509304
O O7 0.260709 0.240942 0.837803
O O8 0.250000 0.000000 0.891111
O O9 0.012325 0.146445 0.871288
O O10 0.004183 0.901103 0.821749
O O11 0.750000 0.000000 0.852412
O O12 0.629353 0.750000 0.250000
O O13 0.750000 0.000000 0.213261
#
# Coordination Sequence:
#
# PCOD9409046 Si02
#       5
#     8   8   8   8   8
#     4  12  21  37  59  81 114 165 204 225 283 356
#     4  12  23  35  52  87 123 151 190 250 296 335
#     4   9  17  37  57  79 108 150 201 230 270 358
#     4  10  19  35  60  86 109 147 204 238 271 351
#     4   9  19  37  62  85 111 141 197 241 291 344
#
# _framework density 17.610028
#
# number of rings (size 3 to 8) (size 9 to 14) (size 15 to 20)
#    0.000    2.000    6.000    2.400    0.000    0.800 
#    0.000    4.000    0.000    1.200    0.000    0.000 
#    0.000    0.000    0.000    0.000    0.000    0.000 
#
# Total GULP energy -223027.815209 kJ/mol
# GULP energy per Si atom -5575.695380 kJ/mol
# Density = 1.756995 g / cm^3
# Si number density = 17.610028 Si / 1000 Ang^3
#
#
#
# Elastic Constant Matrix: (Units=GPa)
#
#
# Indices 1 2 3 4 5 6 
#
# 1 133.9323 8.5079 27.8924 0.0000 0.0000 0.0000
# 2 8.5079 46.2838 26.1526 0.0000 0.0000 0.0000
# 3 27.8924 26.1526 116.0388 0.0000 0.0000 0.0000
# 4 0.0000 0.0000 0.0000 21.9196 0.0000 0.0000
# 5 0.0000 0.0000 0.0000 0.0000 18.2319 0.0000
# 6 0.0000 0.0000 0.0000 0.0000 0.0000 18.9273
#
#
#
# Elastic Compliance Matrix: (Units=1/GPa)
#
#
# Indices 1 2 3 4 5 6 
#
# 1 0.007867 -0.000433 -0.001794 0.000000 0.000000 0.000000
# 2 -0.000433 0.024783 -0.005481 0.000000 0.000000 0.000000
# 3 -0.001794 -0.005481 0.010284 0.000000 0.000000 0.000000
# 4 0.000000 0.000000 0.000000 0.045621 0.000000 0.000000
# 5 0.000000 0.000000 0.000000 0.000000 0.054849 0.000000
# 6 0.000000 0.000000 0.000000 0.000000 0.000000 0.052834
#
#
# Mechanical properties :
#
#
# Convention : Reuss Voigt Hill
#
# Bulk Modulus (GPa) = 36.33865 46.81787 41.57826
# Shear Modulus (GPa) = 22.64219 27.39591 25.01905
#
# Velocity S-wave (km/s) = 3.58963 3.94851 3.77334
# Velocity P-wave (km/s) = 6.15310 6.88704 6.53039
#
# Compressibility (1/GPa) = 0.02751891
#
# Stress axis : x y z
#
# Youngs Moduli (GPa) = 127.10560 40.35083 97.23532
#
# Poissons Ratio (x) = 0.01746 0.17440
# Poissons Ratio (y) = 0.05500 0.53299
# Poissons Ratio (z) = 0.22797 0.22118
#
# Static dielectric constant tensor:
#      x y z
#    x 1.625520 0.000000 0.000000 
#    y 0.000000 1.614720 0.000000 
#    z 0.000000 0.000000 1.595340 
# 
# From -- ./inp_files/44211.got.cif
#   From: 2010.05.17/outbox.cif.g08.bks.cpg/sg52_23_cif.got.tgz:44211.got - 2010.06.03 12:15:38.
