data_PCOD9409943
_publ_section_title
;
Structure prediction by ZEFSAII (Michael W. Deem and Ramdas Pophale) SiO2 
 PCOD9409943
Probable space group: P N N A
;
_chemical_formula_sum "Si O2"
_cell_formula_units_Z 64
_cell_length_a 12.796837
_cell_length_b 21.337491
_cell_length_c 8.936213
_cell_angle_alpha 90.000000
_cell_angle_beta 90.000000
_cell_angle_gamma 90.000000
_cell_volume 2440.054356
_symmetry_space_group_name_H-M "P N N A"
_symmetry_group_IT_number 52
_symmetry_cell_setting 'orthorhombic'
loop_
_space_group_symop_operation_xyz
x,y,z
1/2-x,-y,z
x,1/2-y,1/2-z
1/2-x,1/2+y,1/2-z
-x,-y,-z
1/2+x,y,-z
-x,1/2+y,1/2+z
1/2+x,1/2-y,1/2+z
loop_
_atom_site_type_symbol
_atom_site_label
_atom_site_fract_x
_atom_site_fract_y
_atom_site_fract_z
Si Si1 0.239551 0.851394 0.188112
Si Si2 0.623531 0.989680 0.092966
Si Si3 0.630890 0.521387 0.741461
Si Si4 0.488723 0.741225 0.577981
Si Si5 0.256148 0.770732 0.489753
Si Si6 0.102719 0.837718 0.624317
Si Si7 0.979464 0.870776 0.888667
Si Si8 0.874897 0.013565 0.424391
O O1 0.152041 0.904560 0.216060
O O2 0.249945 0.815328 0.344293
O O3 0.217566 0.799159 0.060490
O O4 0.355581 0.879323 0.147962
O O5 0.575193 0.920604 0.110257
O O6 0.595332 0.017307 0.260071
O O7 0.750000 0.000000 0.086442
O O8 0.588525 0.003932 0.919656
O O9 0.750000 0.500000 0.750492
O O10 0.586372 0.498218 0.904140
O O11 0.501416 0.750000 0.750000
O O12 0.377637 0.762123 0.518273
O O13 0.569016 0.789480 0.503964
O O14 0.488542 0.668154 0.538552
O O15 0.217569 0.809014 0.637721
O O16 0.022013 0.827021 0.755879
O O17 0.107423 0.911036 0.584064
O O18 0.750000 0.000000 0.429551
#
# Coordination Sequence:
#
# PCOD9409943 Si02
#       8
#     8   8   8   8   8   8   8   8
#     4  10  20  40  61  91 129 166 208 260 329 383
#     4   9  20  38  61  90 120 162 219 262 307 381
#     4  10  20  37  63  89 120 162 219 263 316 381
#     4  11  25  39  57  94 133 158 213 266 311 393
#     4  10  22  39  60  91 128 163 212 263 312 388
#     4  11  21  37  67  90 118 173 209 254 326 380
#     4  10  22  41  63  86 128 173 205 257 333 386
#     4   9  19  36  59  89 119 157 211 261 306 375
#
# _framework density 26.228925
#
# number of rings (size 3 to 8) (size 9 to 14) (size 15 to 20)
#    0.000    2.000    2.500    0.375    5.250    1.000 
#    6.750    2.500    0.000   31.500    0.000    0.000 
#    0.000    0.000    0.000    0.000    0.000    0.000 
#
# Total GULP energy -356681.889173 kJ/mol
# GULP energy per Si atom -5573.154518 kJ/mol
# Density = 2.616923 g / cm^3
# Si number density = 26.228925 Si / 1000 Ang^3
#
#
#
# Elastic Constant Matrix: (Units=GPa)
#
#
# Indices 1 2 3 4 5 6 
#
# 1 50.5574 27.6513 26.7575 0.0000 0.0000 0.0000
# 2 27.6513 75.3692 0.3495 0.0000 0.0000 0.0000
# 3 26.7575 0.3495 188.6490 0.0000 0.0000 0.0000
# 4 0.0000 0.0000 0.0000 14.9045 0.0000 0.0000
# 5 0.0000 0.0000 0.0000 0.0000 51.8355 0.0000
# 6 0.0000 0.0000 0.0000 0.0000 0.0000 38.4279
#
#
#
# Elastic Compliance Matrix: (Units=1/GPa)
#
#
# Indices 1 2 3 4 5 6 
#
# 1 0.027282 -0.009991 -0.003851 0.000000 0.000000 0.000000
# 2 -0.009991 0.016927 0.001386 0.000000 0.000000 0.000000
# 3 -0.003851 0.001386 0.005845 0.000000 0.000000 0.000000
# 4 0.000000 0.000000 0.000000 0.067094 0.000000 0.000000
# 5 0.000000 0.000000 0.000000 0.000000 0.019292 0.000000
# 6 0.000000 0.000000 0.000000 0.000000 0.000000 0.026023
#
#
# Mechanical properties :
#
#
# Convention : Reuss Voigt Hill
#
# Bulk Modulus (GPa) = 39.77643 47.12136 43.44890
# Shear Modulus (GPa) = 25.54195 38.35473 31.94834
#
# Velocity S-wave (km/s) = 3.12398 3.82816 3.49385
# Velocity P-wave (km/s) = 5.31134 6.12733 5.73387
#
# Compressibility (1/GPa) = 0.02514052
#
# Stress axis : x y z
#
# Youngs Moduli (GPa) = 36.65375 59.07641 171.10040
#
# Poissons Ratio (x) = 0.59026 0.65893
# Poissons Ratio (y) = 0.36622 -0.23711
# Poissons Ratio (z) = 0.14116 -0.08187
#
# Static dielectric constant tensor:
#      x y z
#    x 2.237870 0.000000 0.000000 
#    y 0.000000 2.188670 0.000000 
#    z 0.000000 0.000000 2.044640 
# 
# From -- ./inp_files/11025.got.cif
#   From: 2010.05.17/outbox.cif.g08.bks.cpg/sg52_6_cif.got.tgz:11025.got - 2010.06.03 12:15:38.
