data_PCOD9409670
_publ_section_title
;
Structure prediction by ZEFSAII (Michael W. Deem and Ramdas Pophale) SiO2 
 PCOD9409670
Probable space group: P N N A
;
_chemical_formula_sum "Si O2"
_cell_formula_units_Z 36
_cell_length_a 18.512497
_cell_length_b 15.684747
_cell_length_c 5.148108
_cell_angle_alpha 90.000000
_cell_angle_beta 90.000000
_cell_angle_gamma 90.000000
_cell_volume 1494.824365
_symmetry_space_group_name_H-M "P N N A"
_symmetry_group_IT_number 52
_symmetry_cell_setting 'orthorhombic'
loop_
_space_group_symop_operation_xyz
x,y,z
1/2-x,-y,z
x,1/2-y,1/2-z
1/2-x,1/2+y,1/2-z
-x,-y,-z
1/2+x,y,-z
-x,1/2+y,1/2+z
1/2+x,1/2-y,1/2+z
loop_
_atom_site_type_symbol
_atom_site_label
_atom_site_fract_x
_atom_site_fract_y
_atom_site_fract_z
Si Si1 0.053031 0.927726 0.396196
Si Si2 0.443249 0.177018 0.910853
Si Si3 0.830377 0.961766 0.906474
Si Si4 0.209184 0.091948 0.588836
Si Si5 0.192636 0.750000 0.750000
O O1 0.074837 0.886414 0.671078
O O2 0.116817 0.971155 0.227591
O O3 0.024879 0.861992 0.173458
O O4 0.000000 0.000000 0.500000
O O5 0.486484 0.250000 0.750000
O O6 0.364658 0.218638 0.968363
O O7 0.823445 0.888685 0.691555
O O8 0.750000 0.000000 0.949428
O O9 0.849482 0.926437 0.188163
O O10 0.259916 0.168852 0.674212
O O11 0.250000 0.000000 0.551355
#
# Coordination Sequence:
#
# PCOD9409670 Si02
#       5
#     8   8   8   8   4
#     4  12  23  42  67 101 132 185 231 303 363 436
#     4  10  23  38  66  99 132 171 242 290 349 420
#     4  10  20  35  61  90 134 163 226 269 352 421
#     4  10  20  35  57  95 128 171 216 284 343 412
#     4  10  22  38  70  96 144 178 244 288 354 430
#
# _framework density 24.083095
#
# number of rings (size 3 to 8) (size 9 to 14) (size 15 to 20)
#    0.667    0.889    0.000    8.000    0.000    2.667 
#    0.000    0.000    9.778    0.000    0.000    0.000 
#    0.000    0.000    0.000    0.000    0.000    0.000 
#
# Total GULP energy -200531.090486 kJ/mol
# GULP energy per Si atom -5570.308069 kJ/mol
# Density = 2.402828 g / cm^3
# Si number density = 24.083095 Si / 1000 Ang^3
#
#
#
# Elastic Constant Matrix: (Units=GPa)
#
#
# Indices 1 2 3 4 5 6 
#
# 1 42.2305 31.4923 10.9934 0.0000 0.0000 0.0000
# 2 31.4923 114.3768 20.1721 0.0000 0.0000 0.0000
# 3 10.9934 20.1721 170.0403 0.0000 0.0000 0.0000
# 4 0.0000 0.0000 0.0000 37.6862 0.0000 0.0000
# 5 0.0000 0.0000 0.0000 0.0000 3.7624 0.0000
# 6 0.0000 0.0000 0.0000 0.0000 0.0000 10.6800
#
#
#
# Elastic Compliance Matrix: (Units=1/GPa)
#
#
# Indices 1 2 3 4 5 6 
#
# 1 0.029957 -0.008076 -0.000979 0.000000 0.000000 0.000000
# 2 -0.008076 0.011107 -0.000796 0.000000 0.000000 0.000000
# 3 -0.000979 -0.000796 0.006039 0.000000 0.000000 0.000000
# 4 0.000000 0.000000 0.000000 0.026535 0.000000 0.000000
# 5 0.000000 0.000000 0.000000 0.000000 0.265790 0.000000
# 6 0.000000 0.000000 0.000000 0.000000 0.000000 0.093633
#
#
# Mechanical properties :
#
#
# Convention : Reuss Voigt Hill
#
# Bulk Modulus (GPa) = 36.49322 50.21814 43.35568
# Shear Modulus (GPa) = 10.82500 28.02503 19.42501
#
# Velocity S-wave (km/s) = 2.12241 3.41498 2.84312
# Velocity P-wave (km/s) = 4.60349 6.03711 5.36837
#
# Compressibility (1/GPa) = 0.02740235
#
# Stress axis : x y z
#
# Youngs Moduli (GPa) = 33.38171 90.03459 165.60101
#
# Poissons Ratio (x) = 0.72708 0.16208
# Poissons Ratio (y) = 0.26958 0.13174
# Poissons Ratio (z) = 0.03267 0.07162
#
# Static dielectric constant tensor:
#      x y z
#    x -0.259640 0.000000 0.000000 
#    y 0.000000 2.066070 0.000000 
#    z 0.000000 0.000000 2.068740 
# 
# From -- ./inp_files/4091.got.cif
#   From: 2010.05.17/outbox.cif.g08.bks.cpg/sg52_3_cif.got.tgz:4091.got - 2010.06.03 12:15:38.
