data_PCOD9409178
_publ_section_title
;
Structure prediction by ZEFSAII (Michael W. Deem and Ramdas Pophale) SiO2 
 PCOD9409178
Probable space group: P N N A
;
_chemical_formula_sum "Si O2"
_cell_formula_units_Z 60
_cell_length_a 14.510402
_cell_length_b 17.693941
_cell_length_c 12.922528
_cell_angle_alpha 90.000000
_cell_angle_beta 90.000000
_cell_angle_gamma 90.000000
_cell_volume 3317.809918
_symmetry_space_group_name_H-M "P N N A"
_symmetry_group_IT_number 52
_symmetry_cell_setting 'orthorhombic'
loop_
_space_group_symop_operation_xyz
x,y,z
1/2-x,-y,z
x,1/2-y,1/2-z
1/2-x,1/2+y,1/2-z
-x,-y,-z
1/2+x,y,-z
-x,1/2+y,1/2+z
1/2+x,1/2-y,1/2+z
loop_
_atom_site_type_symbol
_atom_site_label
_atom_site_fract_x
_atom_site_fract_y
_atom_site_fract_z
Si Si1 0.010539 0.214545 0.911871
Si Si2 0.112242 0.632896 0.805437
Si Si3 0.479902 0.986875 0.620634
Si Si4 0.787813 0.578609 0.066161
Si Si5 0.928835 0.149109 0.709529
Si Si6 0.118367 0.790385 0.911093
Si Si7 0.804313 0.760764 0.523249
Si Si8 0.744446 0.750000 0.750000
O O1 0.994986 0.166477 0.807810
O O2 0.963995 0.295117 0.881584
O O3 0.111265 0.230000 0.955390
O O4 0.952497 0.179512 0.004834
O O5 0.039518 0.566483 0.824819
O O6 0.208847 0.604988 0.854147
O O7 0.085000 0.709223 0.866340
O O8 0.127053 0.655437 0.686938
O O9 0.383914 0.939942 0.622243
O O10 0.558250 0.935713 0.672010
O O11 0.500000 0.000000 0.500000
O O12 0.750000 0.500000 0.018943
O O13 0.801604 0.648325 0.989308
O O14 0.827107 0.179418 0.737316
O O15 0.213005 0.773232 0.970439
O O16 0.802312 0.742270 0.644947
#
# Coordination Sequence:
#
# PCOD9409178 Si02
#       8
#     8   8   8   8   8   8   8   4
#     4  10  20  34  58  82 114 148 192 234 275 349
#     4   9  21  33  56  80 114 145 186 241 285 332
#     4  11  21  35  57  84 113 145 184 240 296 338
#     4   9  20  34  53  85 110 139 186 239 291 336
#     4  10  20  37  56  83 114 149 192 233 286 346
#     4  10  19  37  55  84 116 147 189 239 287 334
#     4  11  20  35  60  83 114 153 189 239 290 339
#     4  10  22  36  56  84 118 154 190 232 294 348
#
# _framework density 18.084219000000001
#
# number of rings (size 3 to 8) (size 9 to 14) (size 15 to 20)
#    0.000    2.133    4.000    0.800    5.600    2.133 
#    0.000    0.667    0.000    0.000    0.000    0.000 
#    0.000    0.000    0.000    0.000    0.000    0.000 
#
# Total GULP energy -334659.434146 kJ/mol
# GULP energy per Si atom -5577.657236 kJ/mol
# Density = 1.804306 g / cm^3
# Si number density = 18.084219 Si / 1000 Ang^3
#
#
#
# Elastic Constant Matrix: (Units=GPa)
#
#
# Indices 1 2 3 4 5 6 
#
# 1 23.9774 3.5141 3.3019 0.0000 0.0000 0.0000
# 2 3.5141 64.3221 27.8582 0.0000 0.0000 0.0000
# 3 3.3019 27.8582 110.5722 0.0000 0.0000 0.0000
# 4 0.0000 0.0000 0.0000 10.0532 0.0000 0.0000
# 5 0.0000 0.0000 0.0000 0.0000 27.8366 0.0000
# 6 0.0000 0.0000 0.0000 0.0000 0.0000 13.7243
#
#
#
# Elastic Compliance Matrix: (Units=1/GPa)
#
#
# Indices 1 2 3 4 5 6 
#
# 1 0.042100 -0.001971 -0.000761 0.000000 0.000000 0.000000
# 2 -0.001971 0.017543 -0.004361 0.000000 0.000000 0.000000
# 3 -0.000761 -0.004361 0.010165 0.000000 0.000000 0.000000
# 4 0.000000 0.000000 0.000000 0.099471 0.000000 0.000000
# 5 0.000000 0.000000 0.000000 0.000000 0.035924 0.000000
# 6 0.000000 0.000000 0.000000 0.000000 0.000000 0.072863
#
#
# Mechanical properties :
#
#
# Convention : Reuss Voigt Hill
#
# Bulk Modulus (GPa) = 17.97802 29.80220 23.89011
# Shear Modulus (GPa) = 16.08792 21.26932 18.67862
#
# Velocity S-wave (km/s) = 2.98587 3.43319 3.21731
# Velocity P-wave (km/s) = 4.67441 5.67725 5.20006
#
# Compressibility (1/GPa) = 0.05562349
#
# Stress axis : x y z
#
# Youngs Moduli (GPa) = 23.75321 57.00211 98.37351
#
# Poissons Ratio (x) = 0.11232 0.07483
# Poissons Ratio (y) = 0.04681 0.42902
# Poissons Ratio (z) = 0.01807 0.24859
#
# Static dielectric constant tensor:
#      x y z
#    x 1.653260 0.000000 0.000000 
#    y 0.000000 1.631050 0.000000 
#    z 0.000000 0.000000 1.609850 
# 
# From -- ./inp_files/19939.got.cif
#   From: 2010.05.17/outbox.cif.g08.bks.cpg/sg52_10_cif.got.tgz:19939.got - 2010.06.03 12:15:38.
