data_PCOD9409728
_publ_section_title
;
Structure prediction by ZEFSAII (Michael W. Deem and Ramdas Pophale) SiO2 
 PCOD9409728
Probable space group: P N N A
;
_chemical_formula_sum "Si O2"
_cell_formula_units_Z 60
_cell_length_a 8.615960
_cell_length_b 24.295316
_cell_length_c 11.414538
_cell_angle_alpha 90.000000
_cell_angle_beta 90.000000
_cell_angle_gamma 90.000000
_cell_volume 2389.376370
_symmetry_space_group_name_H-M "P N N A"
_symmetry_group_IT_number 52
_symmetry_cell_setting 'orthorhombic'
loop_
_space_group_symop_operation_xyz
x,y,z
1/2-x,-y,z
x,1/2-y,1/2-z
1/2-x,1/2+y,1/2-z
-x,-y,-z
1/2+x,y,-z
-x,1/2+y,1/2+z
1/2+x,1/2-y,1/2+z
loop_
_atom_site_type_symbol
_atom_site_label
_atom_site_fract_x
_atom_site_fract_y
_atom_site_fract_z
Si Si1 0.925863 0.976294 0.620057
Si Si2 0.455233 0.303854 0.514395
Si Si3 0.578458 0.750000 0.250000
Si Si4 0.691085 0.381706 0.476967
Si Si5 0.858964 0.301427 0.900010
Si Si6 0.431308 0.937402 0.764604
Si Si7 0.788765 0.840560 0.368793
Si Si8 0.723057 0.383478 0.748998
O O1 0.892793 0.913579 0.659754
O O2 0.750000 0.000000 0.623194
O O3 0.037673 0.001919 0.719016
O O4 0.000000 0.000000 0.500000
O O5 0.500772 0.271057 0.631047
O O6 0.596108 0.326895 0.439015
O O7 0.364433 0.360403 0.540034
O O8 0.353236 0.261272 0.440866
O O9 0.685034 0.801570 0.287733
O O10 0.633974 0.430274 0.394791
O O11 0.669764 0.389524 0.615524
O O12 0.040663 0.313706 0.881154
O O13 0.756305 0.321761 0.792034
O O14 0.797164 0.338942 0.006908
O O15 0.319395 0.901074 0.682004
O O16 0.603568 0.910235 0.752294
#
# Coordination Sequence:
#
# PCOD9409728 Si02
#       8
#     8   8   4   8   8   8   8   8
#     4  10  22  45  71  99 127 161 213 272 333 386
#     4  11  23  37  60  87 128 168 219 257 310 379
#     4  10  20  36  56  88 120 170 208 266 310 368
#     4  12  23  42  60  92 129 173 213 258 314 389
#     4  10  22  37  58  89 119 167 209 261 313 373
#     4  10  21  41  66  89 127 172 203 269 324 381
#     4  10  20  36  58  83 120 158 210 255 320 372
#     4  10  23  41  65  92 128 167 213 267 326 386
#
# _framework density 25.111153999999999
#
# number of rings (size 3 to 8) (size 9 to 14) (size 15 to 20)
#    0.000    1.600    2.667    2.400    0.000    4.267 
#    2.400    0.000    0.000    0.000    0.000    0.000 
#    0.000    0.000    0.000    0.000    0.000    0.000 
#
# Total GULP energy -335526.719566 kJ/mol
# GULP energy per Si atom -5592.111993 kJ/mol
# Density = 2.505400 g / cm^3
# Si number density = 25.111154 Si / 1000 Ang^3
#
#
#
# Elastic Constant Matrix: (Units=GPa)
#
#
# Indices 1 2 3 4 5 6 
#
# 1 54.1286 3.4267 1.7220 0.0000 0.0000 0.0000
# 2 3.4267 35.5940 2.4917 0.0000 0.0000 0.0000
# 3 1.7220 2.4917 112.6692 0.0000 0.0000 0.0000
# 4 0.0000 0.0000 0.0000 42.0736 0.0000 0.0000
# 5 0.0000 0.0000 0.0000 0.0000 32.4084 0.0000
# 6 0.0000 0.0000 0.0000 0.0000 0.0000 21.7820
#
#
#
# Elastic Compliance Matrix: (Units=1/GPa)
#
#
# Indices 1 2 3 4 5 6 
#
# 1 0.018595 -0.001773 -0.000245 0.000000 0.000000 0.000000
# 2 -0.001773 0.028307 -0.000599 0.000000 0.000000 0.000000
# 3 -0.000245 -0.000599 0.008893 0.000000 0.000000 0.000000
# 4 0.000000 0.000000 0.000000 0.023768 0.000000 0.000000
# 5 0.000000 0.000000 0.000000 0.000000 0.030856 0.000000
# 6 0.000000 0.000000 0.000000 0.000000 0.000000 0.045909
#
#
# Mechanical properties :
#
#
# Convention : Reuss Voigt Hill
#
# Bulk Modulus (GPa) = 19.77827 24.18584 21.98205
# Shear Modulus (GPa) = 28.02451 32.23622 30.13036
#
# Velocity S-wave (km/s) = 3.34431 3.58682 3.46769
# Velocity P-wave (km/s) = 4.77556 5.17746 4.98057
#
# Compressibility (1/GPa) = 0.05056055
#
# Stress axis : x y z
#
# Youngs Moduli (GPa) = 53.77921 35.32660 112.45390
#
# Poissons Ratio (x) = 0.06263 0.02755
# Poissons Ratio (y) = 0.09535 0.06735
# Poissons Ratio (z) = 0.01317 0.02116
#
# Static dielectric constant tensor:
#      x y z
#    x 2.017040 0.000000 0.000000 
#    y 0.000000 1.970740 0.000000 
#    z 0.000000 0.000000 2.012250 
# 
# From -- ./inp_files/17126.got.cif
#   From: 2010.05.17/outbox.cif.g08.bks.cpg/sg52_9_cif.got.tgz:17126.got - 2010.06.03 12:15:38.
