data_PCOD9409318
_publ_section_title
;
Structure prediction by ZEFSAII (Michael W. Deem and Ramdas Pophale) SiO2 
 PCOD9409318
Probable space group: P N N A
;
_chemical_formula_sum "Si O2"
_cell_formula_units_Z 48
_cell_length_a 9.340248
_cell_length_b 16.618508
_cell_length_c 15.016889
_cell_angle_alpha 90.000000
_cell_angle_beta 90.000000
_cell_angle_gamma 90.000000
_cell_volume 2330.936319
_symmetry_space_group_name_H-M "P N N A"
_symmetry_group_IT_number 52
_symmetry_cell_setting 'orthorhombic'
loop_
_space_group_symop_operation_xyz
x,y,z
1/2-x,-y,z
x,1/2-y,1/2-z
1/2-x,1/2+y,1/2-z
-x,-y,-z
1/2+x,y,-z
-x,1/2+y,1/2+z
1/2+x,1/2-y,1/2+z
loop_
_atom_site_type_symbol
_atom_site_label
_atom_site_fract_x
_atom_site_fract_y
_atom_site_fract_z
Si Si1 0.005311 0.598992 0.449610
Si Si2 0.969345 0.641932 0.012477
Si Si3 0.764629 0.091169 0.630163
Si Si4 0.303630 0.750000 0.250000
Si Si5 0.750000 0.500000 0.521521
Si Si6 0.044318 0.791463 0.889629
Si Si7 0.139195 0.259891 0.651839
O O1 0.866999 0.543474 0.460217
O O2 0.960266 0.673629 0.392020
O O3 0.151871 0.558308 0.419835
O O4 0.035403 0.630781 0.548890
O O5 0.870966 0.682367 0.088954
O O6 0.093731 0.597157 0.067390
O O7 0.869431 0.599658 0.938943
O O8 0.038034 0.715491 0.956405
O O9 0.764538 0.170729 0.697138
O O10 0.750000 0.000000 0.669700
O O11 0.409869 0.787013 0.175440
O O12 0.197492 0.789272 0.843269
O O13 0.083396 0.250000 0.750000
#
# Coordination Sequence:
#
# PCOD9409318 Si02
#       7
#     8   8   8   4   4   8   8
#     4  10  21  37  63  91 121 174 213 266 325 397
#     4  10  22  40  67  96 126 175 222 279 332 399
#     4  11  23  44  70 102 138 176 229 279 344 409
#     4  10  24  40  68  96 140 180 216 282 352 388
#     4  10  20  38  60  88 128 160 214 262 324 386
#     4  10  19  39  63  90 126 171 222 268 331 400
#     4  11  21  37  65  92 125 166 230 266 326 402
#
# _framework density 20.592583999999999
#
# number of rings (size 3 to 8) (size 9 to 14) (size 15 to 20)
#    0.000    1.667    4.167    0.500    1.167    0.000 
#    1.500    1.667    1.833    0.000    0.000    0.000 
#    0.000    0.000    0.000    0.000    0.000    0.000 
#
# Total GULP energy -267489.148816 kJ/mol
# GULP energy per Si atom -5572.690600 kJ/mol
# Density = 2.054571 g / cm^3
# Si number density = 20.592584 Si / 1000 Ang^3
#
#
#
# Elastic Constant Matrix: (Units=GPa)
#
#
# Indices 1 2 3 4 5 6 
#
# 1 104.2299 43.8643 22.0449 0.0000 0.0000 0.0000
# 2 43.8643 110.0156 39.3517 0.0000 0.0000 0.0000
# 3 22.0449 39.3517 77.2333 0.0000 0.0000 0.0000
# 4 0.0000 0.0000 0.0000 14.2447 0.0000 0.0000
# 5 0.0000 0.0000 0.0000 0.0000 26.0685 0.0000
# 6 0.0000 0.0000 0.0000 0.0000 0.0000 51.1703
#
#
#
# Elastic Compliance Matrix: (Units=1/GPa)
#
#
# Indices 1 2 3 4 5 6 
#
# 1 0.011614 -0.004213 -0.001169 0.000000 0.000000 0.000000
# 2 -0.004213 0.012643 -0.005240 0.000000 0.000000 0.000000
# 3 -0.001169 -0.005240 0.015951 0.000000 0.000000 0.000000
# 4 0.000000 0.000000 0.000000 0.070202 0.000000 0.000000
# 5 0.000000 0.000000 0.000000 0.000000 0.038361 0.000000
# 6 0.000000 0.000000 0.000000 0.000000 0.000000 0.019543
#
#
# Mechanical properties :
#
#
# Convention : Reuss Voigt Hill
#
# Bulk Modulus (GPa) = 52.72371 55.77785 54.25078
# Shear Modulus (GPa) = 25.52617 30.71122 28.11870
#
# Velocity S-wave (km/s) = 3.52459 3.86602 3.69924
# Velocity P-wave (km/s) = 6.49788 6.86100 6.68191
#
# Compressibility (1/GPa) = 0.01896680
#
# Stress axis : x y z
#
# Youngs Moduli (GPa) = 86.10139 79.09251 62.69192
#
# Poissons Ratio (x) = 0.33319 0.07326
# Poissons Ratio (y) = 0.36272 0.32848
# Poissons Ratio (z) = 0.10062 0.41441
#
# Static dielectric constant tensor:
#      x y z
#    x 1.771150 0.000000 0.000000 
#    y 0.000000 1.747280 0.000000 
#    z 0.000000 0.000000 1.791280 
# 
# From -- ./inp_files/24787.got.cif
#   From: 2010.05.17/outbox.cif.g08.bks.cpg/sg52_13_cif.got.tgz:24787.got - 2010.06.03 12:15:38.
