data_PCOD9409755
_publ_section_title
;
Structure prediction by ZEFSAII (Michael W. Deem and Ramdas Pophale) SiO2 
 PCOD9409755
Probable space group: P N N A
;
_chemical_formula_sum "Si O2"
_cell_formula_units_Z 40
_cell_length_a 15.297750
_cell_length_b 8.232420
_cell_length_c 15.007564
_cell_angle_alpha 90.000000
_cell_angle_beta 90.000000
_cell_angle_gamma 90.000000
_cell_volume 1890.015137
_symmetry_space_group_name_H-M "P N N A"
_symmetry_group_IT_number 52
_symmetry_cell_setting 'orthorhombic'
loop_
_space_group_symop_operation_xyz
x,y,z
1/2-x,-y,z
x,1/2-y,1/2-z
1/2-x,1/2+y,1/2-z
-x,-y,-z
1/2+x,y,-z
-x,1/2+y,1/2+z
1/2+x,1/2-y,1/2+z
loop_
_atom_site_type_symbol
_atom_site_label
_atom_site_fract_x
_atom_site_fract_y
_atom_site_fract_z
Si Si1 0.131642 0.848441 0.110945
Si Si2 0.036393 0.999107 0.400619
Si Si3 0.519639 0.435569 0.275322
Si Si4 0.298550 0.828251 0.442262
Si Si5 0.153465 0.447526 0.567531
O O1 0.077571 0.680889 0.107276
O O2 0.081509 0.941725 0.189932
O O3 0.232467 0.789540 0.111753
O O4 0.125686 0.949374 0.019685
O O5 0.971828 0.027839 0.318210
O O6 0.114325 0.126506 0.390839
O O7 0.000000 0.000000 0.500000
O O8 0.540957 0.250000 0.250000
O O9 0.582559 0.475720 0.356698
O O10 0.331288 0.734856 0.530667
O O11 0.250000 0.000000 0.461516
O O12 0.250000 0.500000 0.597587
#
# Coordination Sequence:
#
# PCOD9409755 Si02
#       5
#     8   8   8   8   8
#     4   9  19  36  58  82 113 150 192 241 295 351
#     4  10  20  37  58  81 114 154 192 240 295 355
#     4  10  20  36  58  85 117 155 195 242 296 351
#     4   9  18  35  58  84 113 151 193 239 297 350
#     4  10  20  38  61  86 116 152 194 246 297 355
#
# _framework density 21.163853
#
# number of rings (size 3 to 8) (size 9 to 14) (size 15 to 20)
#    0.000    2.400    0.000    3.000    0.000    0.000 
#    0.000   37.000    0.000    2.400    0.000    0.000 
#    0.000    0.000    0.000    0.000    0.000    0.000 
#
# Total GULP energy -222995.677724 kJ/mol
# GULP energy per Si atom -5574.891943 kJ/mol
# Density = 2.111568 g / cm^3
# Si number density = 21.163853 Si / 1000 Ang^3
#
#
#
# Elastic Constant Matrix: (Units=GPa)
#
#
# Indices 1 2 3 4 5 6 
#
# 1 59.5373 18.9871 50.1526 0.0000 0.0000 0.0000
# 2 18.9871 45.6424 23.7405 0.0000 0.0000 0.0000
# 3 50.1526 23.7405 111.0762 0.0000 0.0000 0.0000
# 4 0.0000 0.0000 0.0000 20.4607 0.0000 0.0000
# 5 0.0000 0.0000 0.0000 0.0000 18.2478 0.0000
# 6 0.0000 0.0000 0.0000 0.0000 0.0000 6.1904
#
#
#
# Elastic Compliance Matrix: (Units=1/GPa)
#
#
# Indices 1 2 3 4 5 6 
#
# 1 0.028403 -0.005789 -0.011587 0.000000 0.000000 0.000000
# 2 -0.005789 0.025830 -0.002907 0.000000 0.000000 0.000000
# 3 -0.011587 -0.002907 0.014856 0.000000 0.000000 0.000000
# 4 0.000000 0.000000 0.000000 0.048874 0.000000 0.000000
# 5 0.000000 0.000000 0.000000 0.000000 0.054801 0.000000
# 6 0.000000 0.000000 0.000000 0.000000 0.000000 0.161542
#
#
# Mechanical properties :
#
#
# Convention : Reuss Voigt Hill
#
# Bulk Modulus (GPa) = 35.05945 44.66848 39.86397
# Shear Modulus (GPa) = 13.00802 17.20482 15.10642
#
# Velocity S-wave (km/s) = 2.48187 2.85429 2.67457
# Velocity P-wave (km/s) = 4.98142 5.65814 5.33053
#
# Compressibility (1/GPa) = 0.02852298
#
# Stress axis : x y z
#
# Youngs Moduli (GPa) = 35.20764 38.71539 67.31325
#
# Poissons Ratio (x) = 0.22411 0.77997
# Poissons Ratio (y) = 0.20380 0.19568
# Poissons Ratio (z) = 0.40796 0.11254
#
# Static dielectric constant tensor:
#      x y z
#    x 1.807920 0.000000 0.000000 
#    y 0.000000 1.832000 0.000000 
#    z 0.000000 0.000000 1.788080 
# 
# From -- ./inp_files/26893.got.cif
#   From: 2010.05.17/outbox.cif.g08.bks.cpg/sg52_14_cif.got.tgz:26893.got - 2010.06.03 12:15:38.
