data_PCOD9409121
_publ_section_title
;
Structure prediction by ZEFSAII (Michael W. Deem and Ramdas Pophale) SiO2 
 PCOD9409121
Probable space group: P N N A
;
_chemical_formula_sum "Si O2"
_cell_formula_units_Z 60
_cell_length_a 15.249704
_cell_length_b 13.697595
_cell_length_c 14.165296
_cell_angle_alpha 90.000000
_cell_angle_beta 90.000000
_cell_angle_gamma 90.000000
_cell_volume 2958.907504
_symmetry_space_group_name_H-M "P N N A"
_symmetry_group_IT_number 52
_symmetry_cell_setting 'orthorhombic'
loop_
_space_group_symop_operation_xyz
x,y,z
1/2-x,-y,z
x,1/2-y,1/2-z
1/2-x,1/2+y,1/2-z
-x,-y,-z
1/2+x,y,-z
-x,1/2+y,1/2+z
1/2+x,1/2-y,1/2+z
loop_
_atom_site_type_symbol
_atom_site_label
_atom_site_fract_x
_atom_site_fract_y
_atom_site_fract_z
Si Si1 0.334233 0.546994 0.486110
Si Si2 0.040390 0.049848 0.665486
Si Si3 0.366028 0.424199 0.678016
Si Si4 0.050837 0.250000 0.750000
Si Si5 0.304705 0.595203 0.966958
Si Si6 0.598394 0.124105 0.646080
Si Si7 0.948128 0.659361 0.646974
Si Si8 0.213538 0.207866 0.878815
O O1 0.250000 0.500000 0.435182
O O2 0.355309 0.483151 0.579311
O O3 0.417229 0.575298 0.424448
O O4 0.298735 0.649072 0.525217
O O5 0.004868 0.151000 0.712777
O O6 0.097853 0.081181 0.575845
O O7 0.109567 0.999419 0.738877
O O8 0.967623 0.968640 0.641189
O O9 0.450981 0.356461 0.671894
O O10 0.280736 0.355011 0.684380
O O11 0.119007 0.214975 0.830275
O O12 0.250000 0.500000 0.948178
O O13 0.260399 0.684455 0.911022
O O14 0.318584 0.608511 0.078835
O O15 0.561383 0.229685 0.612564
O O16 0.608728 0.141181 0.758290
#
# Coordination Sequence:
#
# PCOD9409121 Si02
#       8
#     8   8   8   4   8   8   8   8
#     4  10  19  36  59  86 112 146 191 245 300 352
#     4  10  22  37  59  89 116 160 189 244 308 367
#     4  10  21  35  59  89 119 142 195 243 303 360
#     4  10  20  34  56  82 120 154 184 236 300 364
#     4  11  24  38  59  83 119 160 199 240 299 363
#     4  10  22  41  58  80 117 155 202 240 293 355
#     4  10  21  38  61  83 112 157 195 250 293 347
#     4  10  21  35  56  85 121 150 187 242 297 362
#
# _framework density 20.277754999999999
#
# number of rings (size 3 to 8) (size 9 to 14) (size 15 to 20)
#    0.000    1.867    2.667    0.800    5.600    1.600 
#    0.000    0.000    5.867    0.000    0.000    0.000 
#    0.000    0.000    0.000    0.000    0.000    0.000 
#
# Total GULP energy -334367.573725 kJ/mol
# GULP energy per Si atom -5572.792895 kJ/mol
# Density = 2.023160 g / cm^3
# Si number density = 20.277755 Si / 1000 Ang^3
#
#
#
# Elastic Constant Matrix: (Units=GPa)
#
#
# Indices 1 2 3 4 5 6 
#
# 1 20.1335 9.5147 4.9395 0.0000 0.0000 0.0000
# 2 9.5147 125.3011 18.6322 0.0000 0.0000 0.0000
# 3 4.9395 18.6322 48.9787 0.0000 0.0000 0.0000
# 4 0.0000 0.0000 0.0000 25.8702 0.0000 0.0000
# 5 0.0000 0.0000 0.0000 0.0000 23.6856 0.0000
# 6 0.0000 0.0000 0.0000 0.0000 0.0000 26.7182
#
#
#
# Elastic Compliance Matrix: (Units=1/GPa)
#
#
# Indices 1 2 3 4 5 6 
#
# 1 0.052241 -0.003374 -0.003985 0.000000 0.000000 0.000000
# 2 -0.003374 0.008677 -0.002961 0.000000 0.000000 0.000000
# 3 -0.003985 -0.002961 0.021945 0.000000 0.000000 0.000000
# 4 0.000000 0.000000 0.000000 0.038655 0.000000 0.000000
# 5 0.000000 0.000000 0.000000 0.000000 0.042220 0.000000
# 6 0.000000 0.000000 0.000000 0.000000 0.000000 0.037428
#
#
# Mechanical properties :
#
#
# Convention : Reuss Voigt Hill
#
# Bulk Modulus (GPa) = 16.07111 28.95400 22.51255
# Shear Modulus (GPa) = 20.61466 26.00992 23.31229
#
# Velocity S-wave (km/s) = 3.19190 3.58534 3.39433
# Velocity P-wave (km/s) = 4.63972 5.60796 5.14666
#
# Compressibility (1/GPa) = 0.06222345
#
# Stress axis : x y z
#
# Youngs Moduli (GPa) = 19.14219 115.24390 45.56808
#
# Poissons Ratio (x) = 0.38887 0.18158
# Poissons Ratio (y) = 0.06459 0.13491
# Poissons Ratio (z) = 0.07628 0.34120
#
# Static dielectric constant tensor:
#      x y z
#    x 1.688960 0.000000 0.000000 
#    y 0.000000 1.856560 0.000000 
#    z 0.000000 0.000000 2.068520 
# 
# From -- ./inp_files/27454.got.cif
#   From: 2010.05.17/outbox.cif.g08.bks.cpg/sg52_14_cif.got.tgz:27454.got - 2010.06.03 12:15:38.
