data_PCOD9409182
_publ_section_title
;
Structure prediction by ZEFSAII (Michael W. Deem and Ramdas Pophale) SiO2 
 PCOD9409182
Probable space group: P N N A
;
_chemical_formula_sum "Si O2"
_cell_formula_units_Z 56
_cell_length_a 9.777269
_cell_length_b 19.193935
_cell_length_c 14.483883
_cell_angle_alpha 90.000000
_cell_angle_beta 90.000000
_cell_angle_gamma 90.000000
_cell_volume 2718.107267
_symmetry_space_group_name_H-M "P N N A"
_symmetry_group_IT_number 52
_symmetry_cell_setting 'orthorhombic'
loop_
_space_group_symop_operation_xyz
x,y,z
1/2-x,-y,z
x,1/2-y,1/2-z
1/2-x,1/2+y,1/2-z
-x,-y,-z
1/2+x,y,-z
-x,1/2+y,1/2+z
1/2+x,1/2-y,1/2+z
loop_
_atom_site_type_symbol
_atom_site_label
_atom_site_fract_x
_atom_site_fract_y
_atom_site_fract_z
Si Si1 0.100516 0.361541 0.663344
Si Si2 0.084077 0.283008 0.923577
Si Si3 0.160183 0.432626 0.276844
Si Si4 0.891960 0.263811 0.096330
Si Si5 0.369365 0.330279 0.217901
Si Si6 0.614496 0.634810 0.269232
Si Si7 0.868858 0.951270 0.991220
O O1 0.101764 0.278575 0.651888
O O2 0.226404 0.386770 0.725470
O O3 0.112905 0.388530 0.560452
O O4 0.953195 0.375110 0.705817
O O5 0.245658 0.291422 0.944507
O O6 0.974468 0.331617 0.868690
O O7 0.005777 0.265867 0.017541
O O8 0.250000 0.500000 0.250369
O O9 0.224707 0.368799 0.218891
O O10 0.170451 0.427358 0.388584
O O11 0.995809 0.426900 0.265741
O O12 0.912800 0.315656 0.182111
O O13 0.895563 0.185499 0.140162
O O14 0.347264 0.250000 0.250000
O O15 0.750000 0.000000 0.028859
O O16 0.000000 0.000000 0.000000
#
# Coordination Sequence:
#
# PCOD9409182 Si02
#       7
#     8   8   8   8   8   8   8
#     4  10  19  37  57  82 127 163 199 246 311 373
#     4  10  21  36  59  91 119 158 197 262 310 374
#     4  11  24  39  58  91 129 168 213 259 309 379
#     4  10  21  36  61  92 123 153 205 257 317 367
#     4  10  22  38  59  88 126 163 209 261 316 368
#     4  10  21  37  59  88 125 162 202 251 311 379
#     4  11  22  36  57  88 125 165 206 246 299 379
#
# _framework density 20.602571999999999
#
# number of rings (size 3 to 8) (size 9 to 14) (size 15 to 20)
#    0.000    1.714    1.429    3.429    4.000    6.857 
#    0.000    0.000    0.000    0.857    0.000    0.000 
#    0.000    0.000    0.000    0.000    0.000    0.000 
#
# Total GULP energy -311799.427090 kJ/mol
# GULP energy per Si atom -5567.846912 kJ/mol
# Density = 2.055568 g / cm^3
# Si number density = 20.602572 Si / 1000 Ang^3
#
#
#
# Elastic Constant Matrix: (Units=GPa)
#
#
# Indices 1 2 3 4 5 6 
#
# 1 135.0132 27.0361 32.8146 0.0000 0.0000 0.0000
# 2 27.0361 46.6804 10.1479 0.0000 0.0000 0.0000
# 3 32.8146 10.1479 61.4613 0.0000 0.0000 0.0000
# 4 0.0000 0.0000 0.0000 20.0445 0.0000 0.0000
# 5 0.0000 0.0000 0.0000 0.0000 23.2817 0.0000
# 6 0.0000 0.0000 0.0000 0.0000 0.0000 29.3030
#
#
#
# Elastic Compliance Matrix: (Units=1/GPa)
#
#
# Indices 1 2 3 4 5 6 
#
# 1 0.009336 -0.004485 -0.004244 0.000000 0.000000 0.000000
# 2 -0.004485 0.024374 -0.001630 0.000000 0.000000 0.000000
# 3 -0.004244 -0.001630 0.018806 0.000000 0.000000 0.000000
# 4 0.000000 0.000000 0.000000 0.049889 0.000000 0.000000
# 5 0.000000 0.000000 0.000000 0.000000 0.042952 0.000000
# 6 0.000000 0.000000 0.000000 0.000000 0.000000 0.034126
#
#
# Mechanical properties :
#
#
# Convention : Reuss Voigt Hill
#
# Bulk Modulus (GPa) = 31.44852 42.57246 37.01049
# Shear Modulus (GPa) = 23.71913 26.06961 24.89437
#
# Velocity S-wave (km/s) = 3.39672 3.56104 3.47985
# Velocity P-wave (km/s) = 5.53905 6.13323 5.84370
#
# Compressibility (1/GPa) = 0.03179800
#
# Stress axis : x y z
#
# Youngs Moduli (GPa) = 107.10904 41.02733 53.17580
#
# Poissons Ratio (x) = 0.18399 0.22569
# Poissons Ratio (y) = 0.48035 0.08668
# Poissons Ratio (z) = 0.45460 0.06688
#
# Static dielectric constant tensor:
#      x y z
#    x 1.822990 0.000000 0.000000 
#    y 0.000000 1.790380 0.000000 
#    z 0.000000 0.000000 1.731060 
# 
# From -- ./inp_files/24938.got.cif
#   From: 2010.05.17/outbox.cif.g08.bks.cpg/sg52_13_cif.got.tgz:24938.got - 2010.06.03 12:15:38.
