data_PCOD9409183
_publ_section_title
;
Structure prediction by ZEFSAII (Michael W. Deem and Ramdas Pophale) SiO2 
 PCOD9409183
Probable space group: P N N A
;
_chemical_formula_sum "Si O2"
_cell_formula_units_Z 60
_cell_length_a 23.053970
_cell_length_b 23.342910
_cell_length_c 6.041199
_cell_angle_alpha 90.000000
_cell_angle_beta 90.000000
_cell_angle_gamma 90.000000
_cell_volume 3251.051589
_symmetry_space_group_name_H-M "P N N A"
_symmetry_group_IT_number 52
_symmetry_cell_setting 'orthorhombic'
loop_
_space_group_symop_operation_xyz
x,y,z
1/2-x,-y,z
x,1/2-y,1/2-z
1/2-x,1/2+y,1/2-z
-x,-y,-z
1/2+x,y,-z
-x,1/2+y,1/2+z
1/2+x,1/2-y,1/2+z
loop_
_atom_site_type_symbol
_atom_site_label
_atom_site_fract_x
_atom_site_fract_y
_atom_site_fract_z
Si Si1 0.708106 0.250000 0.750000
Si Si2 0.356673 0.497941 0.967725
Si Si3 0.435849 0.566065 0.641774
Si Si4 0.152075 0.347938 0.530150
Si Si5 0.929443 0.049638 0.849450
Si Si6 0.674307 0.591253 0.397693
Si Si7 0.247155 0.168364 0.610867
Si Si8 0.771153 0.928618 0.752808
O O1 0.666816 0.298511 0.645161
O O2 0.746707 0.224685 0.546350
O O3 0.398726 0.459255 0.115564
O O4 0.306424 0.524326 0.117708
O O5 0.396237 0.546179 0.849684
O O6 0.327925 0.457888 0.785709
O O7 0.411969 0.628125 0.568757
O O8 0.504387 0.567920 0.682499
O O9 0.428393 0.513236 0.467793
O O10 0.182986 0.403686 0.428289
O O11 0.187077 0.331417 0.751601
O O12 0.890247 0.092360 0.998367
O O13 0.715307 0.566880 0.591364
O O14 0.703077 0.648136 0.286442
O O15 0.244973 0.118295 0.430285
#
# Coordination Sequence:
#
# PCOD9409183 Si02
#       8
#     4   8   8   8   8   8   8   8
#     4  10  22  36  60  88 112 142 192 254 314 358
#     4  11  20  35  52  81 119 162 198 233 287 353
#     4  10  20  36  56  80 118 156 202 244 284 347
#     4  10  19  37  57  85 111 146 188 243 305 351
#     4  10  21  35  52  82 120 161 202 235 280 351
#     4  10  23  34  51  82 119 160 194 231 292 358
#     4  10  20  37  55  81 116 145 187 241 307 357
#     4  10  20  34  52  77 117 148 185 236 290 353
#
# _framework density 18.455566000000001
#
# number of rings (size 3 to 8) (size 9 to 14) (size 15 to 20)
#    0.000    1.867    2.667    1.600    0.000    3.200 
#    2.400    0.000    0.000    0.000   13.867    0.000 
#    0.000    0.000    0.000    0.000    0.000    0.000 
#
# Total GULP energy -334445.202081 kJ/mol
# GULP energy per Si atom -5574.086701 kJ/mol
# Density = 1.841356 g / cm^3
# Si number density = 18.455566 Si / 1000 Ang^3
#
#
#
# Elastic Constant Matrix: (Units=GPa)
#
#
# Indices 1 2 3 4 5 6 
#
# 1 116.5581 44.3098 37.4310 0.0000 0.0000 0.0000
# 2 44.3098 65.0223 26.9445 0.0000 0.0000 0.0000
# 3 37.4310 26.9445 91.6259 0.0000 0.0000 0.0000
# 4 0.0000 0.0000 0.0000 38.5891 0.0000 0.0000
# 5 0.0000 0.0000 0.0000 0.0000 16.9952 0.0000
# 6 0.0000 0.0000 0.0000 0.0000 0.0000 18.1325
#
#
#
# Elastic Compliance Matrix: (Units=1/GPa)
#
#
# Indices 1 2 3 4 5 6 
#
# 1 0.012218 -0.007126 -0.002896 0.000000 0.000000 0.000000
# 2 -0.007126 0.021670 -0.003461 0.000000 0.000000 0.000000
# 3 -0.002896 -0.003461 0.013115 0.000000 0.000000 0.000000
# 4 0.000000 0.000000 0.000000 0.025914 0.000000 0.000000
# 5 0.000000 0.000000 0.000000 0.000000 0.058840 0.000000
# 6 0.000000 0.000000 0.000000 0.000000 0.000000 0.055150
#
#
# Mechanical properties :
#
#
# Convention : Reuss Voigt Hill
#
# Bulk Modulus (GPa) = 49.90928 54.50855 52.20892
# Shear Modulus (GPa) = 22.67031 25.71141 24.19086
#
# Velocity S-wave (km/s) = 3.50862 3.73654 3.62437
# Velocity P-wave (km/s) = 6.59663 6.94369 6.77238
#
# Compressibility (1/GPa) = 0.02003635
#
# Stress axis : x y z
#
# Youngs Moduli (GPa) = 81.84328 46.14688 76.24971
#
# Poissons Ratio (x) = 0.32886 0.22081
# Poissons Ratio (y) = 0.58324 0.26392
# Poissons Ratio (z) = 0.23701 0.15973
#
# Static dielectric constant tensor:
#      x y z
#    x 1.647410 0.000000 0.000000 
#    y 0.000000 1.714040 0.000000 
#    z 0.000000 0.000000 1.669880 
# 
# From -- ./inp_files/4566.got.cif
#   From: 2010.05.17/outbox.cif.g08.bks.cpg/sg52_3_cif.got.tgz:4566.got - 2010.06.03 12:15:38.
