data_PCOD9409184
_publ_section_title
;
Structure prediction by ZEFSAII (Michael W. Deem and Ramdas Pophale) SiO2 
 PCOD9409184
Probable space group: P N N A
;
_chemical_formula_sum "Si O2"
_cell_formula_units_Z 48
_cell_length_a 16.535267
_cell_length_b 9.546071
_cell_length_c 15.839031
_cell_angle_alpha 90.000000
_cell_angle_beta 90.000000
_cell_angle_gamma 90.000000
_cell_volume 2500.140878
_symmetry_space_group_name_H-M "P N N A"
_symmetry_group_IT_number 52
_symmetry_cell_setting 'orthorhombic'
loop_
_space_group_symop_operation_xyz
x,y,z
1/2-x,-y,z
x,1/2-y,1/2-z
1/2-x,1/2+y,1/2-z
-x,-y,-z
1/2+x,y,-z
-x,1/2+y,1/2+z
1/2+x,1/2-y,1/2+z
loop_
_atom_site_type_symbol
_atom_site_label
_atom_site_fract_x
_atom_site_fract_y
_atom_site_fract_z
Si Si1 0.156635 0.531883 0.294245
Si Si2 0.070693 0.080515 0.680344
Si Si3 0.991474 0.377659 0.316928
Si Si4 0.602758 0.671838 0.865106
Si Si5 0.107074 0.812929 0.564130
Si Si6 0.243050 0.333688 0.830023
O O1 0.250000 0.500000 0.311389
O O2 0.084455 0.429631 0.325699
O O3 0.144295 0.552645 0.192932
O O4 0.138972 0.680929 0.336857
O O5 0.147048 0.180940 0.665646
O O6 0.990046 0.164433 0.662484
O O7 0.078527 0.952861 0.613445
O O8 0.059205 0.002244 0.770715
O O9 0.991906 0.250000 0.250000
O O10 0.947902 0.314375 0.399875
O O11 0.605479 0.659897 0.965197
O O12 0.200215 0.791860 0.592915
O O13 0.250000 0.500000 0.815526
O O14 0.275629 0.250000 0.750000
#
# Coordination Sequence:
#
# PCOD9409184 Si02
#       6
#     8   8   8   8   8   8
#     4  10  23  40  58  81 111 158 204 242 291 350
#     4   9  19  36  59  86 115 152 190 230 292 354
#     4   9  19  36  61  82 114 151 190 235 300 355
#     4  10  22  39  59  83 114 149 202 244 287 349
#     4  10  19  37  57  90 119 148 187 242 297 348
#     4  10  20  34  58  87 119 150 191 232 292 363
#
# _framework density 19.198917000000002
#
# number of rings (size 3 to 8) (size 9 to 14) (size 15 to 20)
#    0.000    2.333    0.000    3.000    7.000    2.667 
#    3.000    2.500    0.000    0.000    0.000    0.000 
#    0.000    0.000    0.000    0.000    0.000    0.000 
#
# Total GULP energy -267556.489052 kJ/mol
# GULP energy per Si atom -5574.093522 kJ/mol
# Density = 1.915522 g / cm^3
# Si number density = 19.198917 Si / 1000 Ang^3
#
#
#
# Elastic Constant Matrix: (Units=GPa)
#
#
# Indices 1 2 3 4 5 6 
#
# 1 150.1080 37.4722 12.6378 0.0000 0.0000 0.0000
# 2 37.4722 48.5810 21.5544 0.0000 0.0000 0.0000
# 3 12.6378 21.5544 89.3664 0.0000 0.0000 0.0000
# 4 0.0000 0.0000 0.0000 12.3745 0.0000 0.0000
# 5 0.0000 0.0000 0.0000 0.0000 0.1893 0.0000
# 6 0.0000 0.0000 0.0000 0.0000 0.0000 11.2505
#
#
#
# Elastic Compliance Matrix: (Units=1/GPa)
#
#
# Indices 1 2 3 4 5 6 
#
# 1 0.008264 -0.006558 0.000413 0.000000 0.000000 0.000000
# 2 -0.006558 0.028254 -0.005887 0.000000 0.000000 0.000000
# 3 0.000413 -0.005887 0.012551 0.000000 0.000000 0.000000
# 4 0.000000 0.000000 0.000000 0.080812 0.000000 0.000000
# 5 0.000000 0.000000 0.000000 0.000000 5.281887 0.000000
# 6 0.000000 0.000000 0.000000 0.000000 0.000000 0.088885
#
#
# Mechanical properties :
#
#
# Convention : Reuss Voigt Hill
#
# Bulk Modulus (GPa) = 39.99047 47.93156 43.96101
# Shear Modulus (GPa) = 0.90366 19.18892 10.04629
#
# Velocity S-wave (km/s) = 0.68681 3.16488 2.29000
# Velocity P-wave (km/s) = 4.63721 6.19478 5.47170
#
# Compressibility (1/GPa) = 0.02500596
#
# Stress axis : x y z
#
# Youngs Moduli (GPa) = 121.00516 35.39273 79.67197
#
# Poissons Ratio (x) = 0.23209 -0.03290
# Poissons Ratio (y) = 0.79350 0.46906
# Poissons Ratio (z) = -0.04997 0.20837
#
# Static dielectric constant tensor:
#      x y z
#    x 1.730530 0.000000 0.000000 
#    y 0.000000 1.688840 0.000000 
#    z 0.000000 0.000000 1.666180 
# 
# From -- ./inp_files/28094.got.cif
#   From: 2010.05.17/outbox.cif.g08.bks.cpg/sg52_15_cif.got.tgz:28094.got - 2010.06.03 12:15:38.
