data_PCOD9409078
_publ_section_title
;
Structure prediction by ZEFSAII (Michael W. Deem and Ramdas Pophale) SiO2 
 PCOD9409078
Probable space group: P N N A
;
_chemical_formula_sum "Si O2"
_cell_formula_units_Z 40
_cell_length_a 8.763877
_cell_length_b 22.395305
_cell_length_c 8.257640
_cell_angle_alpha 90.000000
_cell_angle_beta 90.000000
_cell_angle_gamma 90.000000
_cell_volume 1620.724512
_symmetry_space_group_name_H-M "P N N A"
_symmetry_group_IT_number 52
_symmetry_cell_setting 'orthorhombic'
loop_
_space_group_symop_operation_xyz
x,y,z
1/2-x,-y,z
x,1/2-y,1/2-z
1/2-x,1/2+y,1/2-z
-x,-y,-z
1/2+x,y,-z
-x,1/2+y,1/2+z
1/2+x,1/2-y,1/2+z
loop_
_atom_site_type_symbol
_atom_site_label
_atom_site_fract_x
_atom_site_fract_y
_atom_site_fract_z
Si Si1 0.435643 0.356276 0.635832
Si Si2 0.740595 0.285396 0.602126
Si Si3 0.425349 0.019663 0.747341
Si Si4 0.700691 0.336269 0.069451
Si Si5 0.912061 0.415317 0.896030
O O1 0.584113 0.316059 0.655364
O O2 0.349339 0.333869 0.476972
O O3 0.471915 0.426358 0.636482
O O4 0.320430 0.344648 0.785115
O O5 0.815054 0.250000 0.750000
O O6 0.698887 0.232680 0.476575
O O7 0.421391 0.048707 0.566641
O O8 0.250000 0.000000 0.780588
O O9 0.543936 0.964939 0.736157
O O10 0.540721 0.364697 0.115560
O O11 0.757257 0.378267 0.919079
#
# Coordination Sequence:
#
# PCOD9409078 Si02
#       5
#     8   8   8   8   8
#     4  11  25  45  69 101 138 181 231 296 353 417
#     4  12  25  44  67  97 138 182 231 287 355 422
#     4  10  19  40  67 100 146 182 227 286 348 417
#     4  11  22  42  73 105 138 177 234 298 350 413
#     4  10  19  35  69 105 133 181 231 276 348 412
#
# _framework density 24.680319000000001
#
# number of rings (size 3 to 8) (size 9 to 14) (size 15 to 20)
#    0.000    1.200    4.000    5.400    0.000    3.200 
#    0.000    1.000    0.000    0.000    0.000    0.000 
#    0.000    0.000    0.000    0.000    0.000    0.000 
#
# Total GULP energy -223995.940588 kJ/mol
# GULP energy per Si atom -5599.898515 kJ/mol
# Density = 2.462415 g / cm^3
# Si number density = 24.680319 Si / 1000 Ang^3
#
#
#
# Elastic Constant Matrix: (Units=GPa)
#
#
# Indices 1 2 3 4 5 6 
#
# 1 57.6868 31.7930 20.4302 0.0000 0.0000 0.0000
# 2 31.7930 127.4634 29.0882 0.0000 0.0000 0.0000
# 3 20.4302 29.0882 64.6539 0.0000 0.0000 0.0000
# 4 0.0000 0.0000 0.0000 20.4237 0.0000 0.0000
# 5 0.0000 0.0000 0.0000 0.0000 21.7751 0.0000
# 6 0.0000 0.0000 0.0000 0.0000 0.0000 42.7783
#
#
#
# Elastic Compliance Matrix: (Units=1/GPa)
#
#
# Indices 1 2 3 4 5 6 
#
# 1 0.021384 -0.004225 -0.004856 0.000000 0.000000 0.000000
# 2 -0.004225 0.009578 -0.002974 0.000000 0.000000 0.000000
# 3 -0.004856 -0.002974 0.018339 0.000000 0.000000 0.000000
# 4 0.000000 0.000000 0.000000 0.048963 0.000000 0.000000
# 5 0.000000 0.000000 0.000000 0.000000 0.045924 0.000000
# 6 0.000000 0.000000 0.000000 0.000000 0.000000 0.023376
#
#
# Mechanical properties :
#
#
# Convention : Reuss Voigt Hill
#
# Bulk Modulus (GPa) = 39.69813 45.82520 42.76166
# Shear Modulus (GPa) = 24.99103 28.22828 26.60965
#
# Velocity S-wave (km/s) = 3.18557 3.38562 3.28712
# Velocity P-wave (km/s) = 5.44521 5.82160 5.63655
#
# Compressibility (1/GPa) = 0.02519011
#
# Stress axis : x y z
#
# Youngs Moduli (GPa) = 46.76487 104.40561 54.52721
#
# Poissons Ratio (x) = 0.44116 0.26478
# Poissons Ratio (y) = 0.19760 0.16216
# Poissons Ratio (z) = 0.22709 0.31050
#
# Static dielectric constant tensor:
#      x y z
#    x 1.898770 0.000000 0.000000 
#    y 0.000000 1.961480 0.000000 
#    z 0.000000 0.000000 2.022450 
# 
# From -- ./inp_files/7416.got.cif
#   From: 2010.05.17/outbox.cif.g08.bks.cpg/sg52_4_cif.got.tgz:7416.got - 2010.06.03 12:15:38.
