data_PCOD9409765
_publ_section_title
;
Structure prediction by ZEFSAII (Michael W. Deem and Ramdas Pophale) SiO2 
 PCOD9409765
Probable space group: P N N A
;
_chemical_formula_sum "Si O2"
_cell_formula_units_Z 52
_cell_length_a 10.970372
_cell_length_b 16.633669
_cell_length_c 15.056903
_cell_angle_alpha 90.000000
_cell_angle_beta 90.000000
_cell_angle_gamma 90.000000
_cell_volume 2747.546569
_symmetry_space_group_name_H-M "P N N A"
_symmetry_group_IT_number 52
_symmetry_cell_setting 'orthorhombic'
loop_
_space_group_symop_operation_xyz
x,y,z
1/2-x,-y,z
x,1/2-y,1/2-z
1/2-x,1/2+y,1/2-z
-x,-y,-z
1/2+x,y,-z
-x,1/2+y,1/2+z
1/2+x,1/2-y,1/2+z
loop_
_atom_site_type_symbol
_atom_site_label
_atom_site_fract_x
_atom_site_fract_y
_atom_site_fract_z
Si Si1 0.128986 0.307229 0.329988
Si Si2 0.869956 0.044108 0.988960
Si Si3 0.534219 0.137079 0.241384
Si Si4 0.120087 0.005949 0.210005
Si Si5 0.742226 0.750000 0.250000
Si Si6 0.601672 0.749605 0.623791
Si Si7 0.096383 0.779918 0.932981
O O1 0.090348 0.250000 0.250000
O O2 0.101045 0.399915 0.307259
O O3 0.268923 0.286839 0.347789
O O4 0.046910 0.283732 0.412877
O O5 0.868969 0.131231 0.032514
O O6 0.750000 0.000000 0.026575
O O7 0.854271 0.040081 0.882862
O O8 0.000000 0.000000 0.000000
O O9 0.668680 0.171768 0.258928
O O10 0.443413 0.178424 0.313332
O O11 0.497552 0.180160 0.147620
O O12 0.497298 0.043645 0.243769
O O13 0.250000 0.000000 0.261393
O O14 0.666093 0.758797 0.158256
O O15 0.612729 0.773079 0.521103
#
# Coordination Sequence:
#
# PCOD9409765 Si02
#       7
#     8   8   8   8   4   8   8
#     4  12  22  38  60  91 122 155 204 253 311 365
#     4  11  23  34  55  93 127 160 196 253 324 381
#     4  10  21  39  58  90 119 162 204 248 308 368
#     4  11  19  36  60  90 122 148 201 257 313 370
#     4  10  26  38  54  86 130 170 208 242 312 386
#     4  10  20  36  59  85 118 155 199 250 296 369
#     4  12  24  36  58  86 127 164 201 250 311 372
#
# _framework density 18.925975999999999
#
# number of rings (size 3 to 8) (size 9 to 14) (size 15 to 20)
#    0.000    1.231    6.923    0.923    6.462    0.000 
#    0.000    0.000    0.000    0.923    4.000    0.000 
#    0.000    0.000    0.000    0.000    0.000    0.000 
#
# Total GULP energy -289534.669302 kJ/mol
# GULP energy per Si atom -5567.974410 kJ/mol
# Density = 1.888290 g / cm^3
# Si number density = 18.925976 Si / 1000 Ang^3
#
#
#
# Elastic Constant Matrix: (Units=GPa)
#
#
# Indices 1 2 3 4 5 6 
#
# 1 80.1125 9.6442 22.8900 0.0000 0.0000 0.0000
# 2 9.6442 57.0498 32.1710 0.0000 0.0000 0.0000
# 3 22.8900 32.1710 104.3235 0.0000 0.0000 0.0000
# 4 0.0000 0.0000 0.0000 18.3084 0.0000 0.0000
# 5 0.0000 0.0000 0.0000 0.0000 19.6026 0.0000
# 6 0.0000 0.0000 0.0000 0.0000 0.0000 17.1781
#
#
#
# Elastic Compliance Matrix: (Units=1/GPa)
#
#
# Indices 1 2 3 4 5 6 
#
# 1 0.013343 -0.000732 -0.002702 0.000000 0.000000 0.000000
# 2 -0.000732 0.021259 -0.006395 0.000000 0.000000 0.000000
# 3 -0.002702 -0.006395 0.012150 0.000000 0.000000 0.000000
# 4 0.000000 0.000000 0.000000 0.054620 0.000000 0.000000
# 5 0.000000 0.000000 0.000000 0.000000 0.051014 0.000000
# 6 0.000000 0.000000 0.000000 0.000000 0.000000 0.058214
#
#
# Mechanical properties :
#
#
# Convention : Reuss Voigt Hill
#
# Bulk Modulus (GPa) = 36.90872 41.21071 39.05971
# Shear Modulus (GPa) = 20.89536 22.80318 21.84927
#
# Velocity S-wave (km/s) = 3.32634 3.47488 3.40142
# Velocity P-wave (km/s) = 5.85634 6.15806 6.00909
#
# Compressibility (1/GPa) = 0.02709387
#
# Stress axis : x y z
#
# Youngs Moduli (GPa) = 74.94832 47.04000 82.30129
#
# Poissons Ratio (x) = 0.03443 0.22236
# Poissons Ratio (y) = 0.05486 0.52632
# Poissons Ratio (z) = 0.20250 0.30082
#
# Static dielectric constant tensor:
#      x y z
#    x 1.773280 0.000000 0.000000 
#    y 0.000000 1.693740 0.000000 
#    z 0.000000 0.000000 1.715840 
# 
# From -- ./inp_files/26303.got.cif
#   From: 2010.05.17/outbox.cif.g08.bks.cpg/sg52_14_cif.got.tgz:26303.got - 2010.06.03 12:15:38.
