data_PCOD9409113
_publ_section_title
;
Structure prediction by ZEFSAII (Michael W. Deem and Ramdas Pophale) SiO2 
 PCOD9409113
Probable space group: P N N A
;
_chemical_formula_sum "Si O2"
_cell_formula_units_Z 48
_cell_length_a 15.274262
_cell_length_b 19.317936
_cell_length_c 9.418488
_cell_angle_alpha 90.000000
_cell_angle_beta 90.000000
_cell_angle_gamma 90.000000
_cell_volume 2779.087031
_symmetry_space_group_name_H-M "P N N A"
_symmetry_group_IT_number 52
_symmetry_cell_setting 'orthorhombic'
loop_
_space_group_symop_operation_xyz
x,y,z
1/2-x,-y,z
x,1/2-y,1/2-z
1/2-x,1/2+y,1/2-z
-x,-y,-z
1/2+x,y,-z
-x,1/2+y,1/2+z
1/2+x,1/2-y,1/2+z
loop_
_atom_site_type_symbol
_atom_site_label
_atom_site_fract_x
_atom_site_fract_y
_atom_site_fract_z
Si Si1 0.835591 0.044211 0.170505
Si Si2 0.988587 0.527347 0.160589
Si Si3 0.661597 0.539238 0.666301
Si Si4 0.136959 0.691807 0.368637
Si Si5 0.749810 0.811839 0.138531
Si Si6 0.553559 0.328460 0.310570
O O1 0.807853 0.123498 0.190663
O O2 0.750000 0.000000 0.205796
O O3 0.914599 0.018363 0.264716
O O4 0.855187 0.032566 0.003022
O O5 0.962564 0.608720 0.196392
O O6 0.079456 0.515684 0.242819
O O7 0.000000 0.500000 0.000000
O O8 0.750000 0.500000 0.701136
O O9 0.674552 0.620588 0.692938
O O10 0.134712 0.750000 0.250000
O O11 0.199957 0.712114 0.496988
O O12 0.035127 0.672940 0.405769
O O13 0.750988 0.750000 0.250000
O O14 0.850647 0.837924 0.118565
O O15 0.556945 0.250000 0.250000
#
# Coordination Sequence:
#
# PCOD9409113 Si02
#       6
#     8   8   8   8   8   8
#     4  10  19  36  59  80 111 151 197 232 280 360
#     4  11  22  36  58  88 117 150 193 248 300 338
#     4   9  20  38  57  80 112 151 187 233 289 351
#     4   9  19  37  59  81 110 148 186 241 288 343
#     4  10  20  36  59  85 111 155 198 236 290 356
#     4   9  19  38  58  80 116 157 190 231 301 358
#
# _framework density 17.271861000000001
#
# number of rings (size 3 to 8) (size 9 to 14) (size 15 to 20)
#    0.000    2.333    1.667    0.500    0.000    4.667 
#    6.000    0.833    0.000    0.000    0.000    0.000 
#    0.000    0.000    0.000    0.000    0.000    0.000 
#
# Total GULP energy -267205.999518 kJ/mol
# GULP energy per Si atom -5566.791657 kJ/mol
# Density = 1.723255 g / cm^3
# Si number density = 17.271861 Si / 1000 Ang^3
#
#
#
# Elastic Constant Matrix: (Units=GPa)
#
#
# Indices 1 2 3 4 5 6 
#
# 1 158.2585 66.6005 91.6955 0.0000 0.0000 0.0000
# 2 66.6005 76.2928 48.5080 0.0000 0.0000 0.0000
# 3 91.6955 48.5080 82.6701 0.0000 0.0000 0.0000
# 4 0.0000 0.0000 0.0000 21.8619 0.0000 0.0000
# 5 0.0000 0.0000 0.0000 0.0000 31.6813 0.0000
# 6 0.0000 0.0000 0.0000 0.0000 0.0000 29.1622
#
#
#
# Elastic Compliance Matrix: (Units=1/GPa)
#
#
# Indices 1 2 3 4 5 6 
#
# 1 0.018822 -0.005036 -0.017922 0.000000 0.000000 0.000000
# 2 -0.005036 0.022255 -0.007473 0.000000 0.000000 0.000000
# 3 -0.017922 -0.007473 0.036360 0.000000 0.000000 0.000000
# 4 0.000000 0.000000 0.000000 0.045742 0.000000 0.000000
# 5 0.000000 0.000000 0.000000 0.000000 0.031564 0.000000
# 6 0.000000 0.000000 0.000000 0.000000 0.000000 0.034291
#
#
# Mechanical properties :
#
#
# Convention : Reuss Voigt Hill
#
# Bulk Modulus (GPa) = 60.33090 81.20326 70.76708
# Shear Modulus (GPa) = 19.57555 23.90222 21.73888
#
# Velocity S-wave (km/s) = 3.37022 3.72409 3.55157
# Velocity P-wave (km/s) = 7.08170 8.09992 7.60786
#
# Compressibility (1/GPa) = 0.01657526
#
# Stress axis : x y z
#
# Youngs Moduli (GPa) = 53.12861 44.93428 27.50283
#
# Poissons Ratio (x) = 0.22628 0.49291
# Poissons Ratio (y) = 0.26755 0.20552
# Poissons Ratio (z) = 0.95219 0.33578
#
# Static dielectric constant tensor:
#      x y z
#    x 1.611130 0.000000 0.000000 
#    y 0.000000 1.603240 0.000000 
#    z 0.000000 0.000000 1.583290 
# 
# From -- ./inp_files/10655.got.cif
#   From: 2010.05.17/outbox.cif.g08.bks.cpg/sg52_6_cif.got.tgz:10655.got - 2010.06.03 12:15:38.
