data_PCOD9409381
_publ_section_title
;
Structure prediction by ZEFSAII (Michael W. Deem and Ramdas Pophale) SiO2 
 PCOD9409381
Probable space group: P N N A
;
_chemical_formula_sum "Si O2"
_cell_formula_units_Z 36
_cell_length_a 26.173963
_cell_length_b 12.970064
_cell_length_c 5.087121
_cell_angle_alpha 90.000000
_cell_angle_beta 90.000000
_cell_angle_gamma 90.000000
_cell_volume 1726.965537
_symmetry_space_group_name_H-M "P N N A"
_symmetry_group_IT_number 52
_symmetry_cell_setting 'orthorhombic'
loop_
_space_group_symop_operation_xyz
x,y,z
1/2-x,-y,z
x,1/2-y,1/2-z
1/2-x,1/2+y,1/2-z
-x,-y,-z
1/2+x,y,-z
-x,1/2+y,1/2+z
1/2+x,1/2-y,1/2+z
loop_
_atom_site_type_symbol
_atom_site_label
_atom_site_fract_x
_atom_site_fract_y
_atom_site_fract_z
Si Si1 0.446514 0.467082 0.126064
Si Si2 0.913329 0.250000 0.750000
Si Si3 0.318449 0.342355 0.549181
Si Si4 0.733286 0.250000 0.750000
Si Si5 0.617209 0.033408 0.133693
Si Si6 0.164409 0.250000 0.750000
O O1 0.446310 0.343433 0.144755
O O2 0.425018 0.511493 0.403959
O O3 0.500000 0.500000 0.000000
O O4 0.405338 0.500021 0.911817
O O5 0.873494 0.300402 0.547750
O O6 0.303361 0.250000 0.750000
O O7 0.273040 0.338792 0.338165
O O8 0.332700 0.460171 0.608170
O O9 0.698699 0.219682 0.502209
O O10 0.632062 0.152559 0.150946
#
# Coordination Sequence:
#
# PCOD9409381 Si02
#       6
#     8   4   8   4   8   4
#     4  11  23  42  70 102 127 172 228 274 336 399
#     4   9  20  37  66  96 132 160 216 287 332 383
#     4  10  19  42  66  94 123 168 230 279 320 366
#     4  11  24  42  66  97 130 175 234 272 316 403
#     4  11  25  44  68  95 139 179 212 279 341 398
#     4  12  26  47  60  99 144 183 210 259 354 414
#
# _framework density 20.845811999999999
#
# number of rings (size 3 to 8) (size 9 to 14) (size 15 to 20)
#    0.000    1.333    3.333    2.000    0.000    1.778 
#    4.000    4.444    0.000    0.000    0.000    0.000 
#    0.000    0.000    0.000    0.000    0.000    0.000 
#
# Total GULP energy -200683.734485 kJ/mol
# GULP energy per Si atom -5574.548180 kJ/mol
# Density = 2.079837 g / cm^3
# Si number density = 20.845812 Si / 1000 Ang^3
#
#
#
# Elastic Constant Matrix: (Units=GPa)
#
#
# Indices 1 2 3 4 5 6 
#
# 1 60.5067 53.7901 5.5530 0.0000 0.0000 0.0000
# 2 53.7901 165.0774 27.1095 0.0000 0.0000 0.0000
# 3 5.5530 27.1095 74.0734 0.0000 0.0000 0.0000
# 4 0.0000 0.0000 0.0000 25.2161 0.0000 0.0000
# 5 0.0000 0.0000 0.0000 0.0000 12.4107 0.0000
# 6 0.0000 0.0000 0.0000 0.0000 0.0000 -25.9172
#
#
#
# Elastic Compliance Matrix: (Units=1/GPa)
#
#
# Indices 1 2 3 4 5 6 
#
# 1 0.023351 -0.007790 0.001100 0.000000 0.000000 0.000000
# 2 -0.007790 0.009044 -0.002726 0.000000 0.000000 0.000000
# 3 0.001100 -0.002726 0.014415 0.000000 0.000000 0.000000
# 4 0.000000 0.000000 0.000000 0.039657 0.000000 0.000000
# 5 0.000000 0.000000 0.000000 0.000000 0.080575 0.000000
# 6 0.000000 0.000000 0.000000 0.000000 0.000000 -0.038584
#
#
# Mechanical properties :
#
#
# Convention : Reuss Voigt Hill
#
# Bulk Modulus (GPa) = 35.74026 52.50695 44.12361
# Shear Modulus (GPa) = 31.92549 16.55560 24.24055
#
# Velocity S-wave (km/s) = 3.91769 2.82120 3.41376
# Velocity P-wave (km/s) = 6.13569 5.98792 6.06225
#
# Compressibility (1/GPa) = 0.02797965
#
# Stress axis : x y z
#
# Youngs Moduli (GPa) = 42.82477 110.57531 69.37105
#
# Poissons Ratio (x) = 0.86133 -0.07633
# Poissons Ratio (y) = 0.33359 0.18909
# Poissons Ratio (z) = -0.04712 0.30141
#
# Static dielectric constant tensor:
#      x y z
#    x 1.749630 0.000000 0.000000 
#    y 0.000000 1.818910 0.000000 
#    z 0.000000 0.000000 1.792480 
# 
# From -- ./inp_files/4921.got.cif
#   From: 2010.05.17/outbox.cif.g08.bks.cpg/sg52_3_cif.got.tgz:4921.got - 2010.06.03 12:15:38.
