data_PCOD9409802
_publ_section_title
;
Structure prediction by ZEFSAII (Michael W. Deem and Ramdas Pophale) SiO2 
 PCOD9409802
Probable space group: P N N A
;
_chemical_formula_sum "Si O2"
_cell_formula_units_Z 40
_cell_length_a 8.468554
_cell_length_b 8.214683
_cell_length_c 26.452616
_cell_angle_alpha 90.000000
_cell_angle_beta 90.000000
_cell_angle_gamma 90.000000
_cell_volume 1840.215556
_symmetry_space_group_name_H-M "P N N A"
_symmetry_group_IT_number 52
_symmetry_cell_setting 'orthorhombic'
loop_
_space_group_symop_operation_xyz
x,y,z
1/2-x,-y,z
x,1/2-y,1/2-z
1/2-x,1/2+y,1/2-z
-x,-y,-z
1/2+x,y,-z
-x,1/2+y,1/2+z
1/2+x,1/2-y,1/2+z
loop_
_atom_site_type_symbol
_atom_site_label
_atom_site_fract_x
_atom_site_fract_y
_atom_site_fract_z
Si Si1 0.735513 0.302055 0.135883
Si Si2 0.920014 0.841888 0.653540
Si Si3 0.081610 0.126683 0.462243
Si Si4 0.414588 0.305250 0.192600
Si Si5 0.205633 0.681871 0.525783
O O1 0.750000 0.500000 0.134676
O O2 0.579851 0.251370 0.166673
O O3 0.716865 0.238747 0.078684
O O4 0.910580 0.249940 0.156232
O O5 0.915646 0.915896 0.596482
O O6 0.751376 0.757452 0.664939
O O7 0.924323 0.997903 0.689926
O O8 0.245559 0.189089 0.483261
O O9 0.977949 0.291340 0.465341
O O10 0.000000 0.000000 0.500000
O O11 0.407523 0.250000 0.250000
O O12 0.250000 0.500000 0.513841
#
# Coordination Sequence:
#
# PCOD9409802 Si02
#       5
#     8   8   8   8   8
#     4   9  19  40  62  87 123 166 216 255 308 403
#     4   9  21  38  60  89 121 153 217 267 303 386
#     4  11  22  38  66  92 122 180 217 254 316 403
#     4  10  20  36  61  88 114 158 211 272 319 363
#     4  11  23  37  57  95 135 161 205 264 332 380
#
# _framework density 21.736583
#
# number of rings (size 3 to 8) (size 9 to 14) (size 15 to 20)
#    0.000    2.000    0.000    4.800    8.400    0.800 
#    0.000   11.000    0.000    0.000    0.000    0.000 
#    0.000    0.000    0.000    0.000    0.000    0.000 
#
# Total GULP energy -222977.597974 kJ/mol
# GULP energy per Si atom -5574.439949 kJ/mol
# Density = 2.168711 g / cm^3
# Si number density = 21.736583 Si / 1000 Ang^3
#
#
#
# Elastic Constant Matrix: (Units=GPa)
#
#
# Indices 1 2 3 4 5 6 
#
# 1 178.9083 11.5056 50.3038 0.0000 0.0000 0.0000
# 2 11.5056 52.0799 20.3943 0.0000 0.0000 0.0000
# 3 50.3038 20.3943 128.4509 0.0000 0.0000 0.0000
# 4 0.0000 0.0000 0.0000 27.0727 0.0000 0.0000
# 5 0.0000 0.0000 0.0000 0.0000 19.7784 0.0000
# 6 0.0000 0.0000 0.0000 0.0000 0.0000 7.1442
#
#
#
# Elastic Compliance Matrix: (Units=1/GPa)
#
#
# Indices 1 2 3 4 5 6 
#
# 1 0.006291 -0.000453 -0.002392 0.000000 0.000000 0.000000
# 2 -0.000453 0.020507 -0.003078 0.000000 0.000000 0.000000
# 3 -0.002392 -0.003078 0.009210 0.000000 0.000000 0.000000
# 4 0.000000 0.000000 0.000000 0.036938 0.000000 0.000000
# 5 0.000000 0.000000 0.000000 0.000000 0.050560 0.000000
# 6 0.000000 0.000000 0.000000 0.000000 0.000000 0.139974
#
#
# Mechanical properties :
#
#
# Convention : Reuss Voigt Hill
#
# Bulk Modulus (GPa) = 41.38786 58.20517 49.79652
# Shear Modulus (GPa) = 17.64411 29.28141 23.46276
#
# Velocity S-wave (km/s) = 2.85217 3.67427 3.28901
# Velocity P-wave (km/s) = 5.47069 6.69597 6.11410
#
# Compressibility (1/GPa) = 0.02416167
#
# Stress axis : x y z
#
# Youngs Moduli (GPa) = 158.95483 48.76412 108.57184
#
# Poissons Ratio (x) = 0.02210 0.25968
# Poissons Ratio (y) = 0.07205 0.33423
# Poissons Ratio (z) = 0.38018 0.15012
#
# Static dielectric constant tensor:
#      x y z
#    x 1.930260 0.000000 0.000000 
#    y 0.000000 1.783680 0.000000 
#    z 0.000000 0.000000 1.772910 
# 
# From -- ./inp_files/42107.got.cif
#   From: 2010.05.17/outbox.cif.g08.bks.cpg/sg52_22_cif.got.tgz:42107.got - 2010.06.03 12:15:38.
