data_PCOD9409042
_publ_section_title
;
Structure prediction by ZEFSAII (Michael W. Deem and Ramdas Pophale) SiO2 
 PCOD9409042
Probable space group: P N N A
;
_chemical_formula_sum "Si O2"
_cell_formula_units_Z 40
_cell_length_a 9.237515
_cell_length_b 13.728303
_cell_length_c 13.068316
_cell_angle_alpha 90.000000
_cell_angle_beta 90.000000
_cell_angle_gamma 90.000000
_cell_volume 1657.263785
_symmetry_space_group_name_H-M "P N N A"
_symmetry_group_IT_number 52
_symmetry_cell_setting 'orthorhombic'
loop_
_space_group_symop_operation_xyz
x,y,z
1/2-x,-y,z
x,1/2-y,1/2-z
1/2-x,1/2+y,1/2-z
-x,-y,-z
1/2+x,y,-z
-x,1/2+y,1/2+z
1/2+x,1/2-y,1/2+z
loop_
_atom_site_type_symbol
_atom_site_label
_atom_site_fract_x
_atom_site_fract_y
_atom_site_fract_z
Si Si1 0.277425 0.298980 0.465785
Si Si2 0.556431 0.084887 0.077967
Si Si3 0.581255 0.009261 0.307617
Si Si4 0.660818 0.901536 0.573883
Si Si5 0.174814 0.104716 0.228481
O O1 0.436830 0.331707 0.433779
O O2 0.211849 0.371317 0.549277
O O3 0.296686 0.187147 0.498522
O O4 0.172941 0.326599 0.369376
O O5 0.565450 0.056411 0.195681
O O6 0.500000 0.000000 0.000000
O O7 0.477347 0.915347 0.285545
O O8 0.750000 0.000000 0.328015
O O9 0.502118 0.067201 0.399645
O O10 0.716584 0.861095 0.683768
O O11 0.750000 0.000000 0.556716
O O12 0.250000 0.000000 0.195900
#
# Coordination Sequence:
#
# PCOD9409042 Si02
#       5
#     8   8   8   8   8
#     4  12  21  37  59  88 126 168 201 251 321 378
#     4  12  22  34  57  94 129 156 192 252 326 387
#     4  10  19  35  59  92 123 155 200 268 317 357
#     4   9  21  40  63  82 113 171 222 247 297 373
#     4   9  16  33  58  85 119 158 197 245 305 372
#
# _framework density 24.136171000000001
#
# number of rings (size 3 to 8) (size 9 to 14) (size 15 to 20)
#    0.000    2.000    6.000    2.400    0.000    0.000 
#    0.000    5.000    8.800    0.000    0.000    0.000 
#    0.000    0.000    0.000    0.000    0.000    0.000 
#
# Total GULP energy -223274.702015 kJ/mol
# GULP energy per Si atom -5581.867550 kJ/mol
# Density = 2.408124 g / cm^3
# Si number density = 24.136171 Si / 1000 Ang^3
#
#
#
# Elastic Constant Matrix: (Units=GPa)
#
#
# Indices 1 2 3 4 5 6 
#
# 1 173.0285 29.8992 6.6930 0.0000 0.0000 0.0000
# 2 29.8992 124.5392 9.5950 0.0000 0.0000 0.0000
# 3 6.6930 9.5950 71.2167 0.0000 0.0000 0.0000
# 4 0.0000 0.0000 0.0000 10.1915 0.0000 0.0000
# 5 0.0000 0.0000 0.0000 0.0000 21.0167 0.0000
# 6 0.0000 0.0000 0.0000 0.0000 0.0000 22.9236
#
#
#
# Elastic Compliance Matrix: (Units=1/GPa)
#
#
# Indices 1 2 3 4 5 6 
#
# 1 0.006039 -0.001421 -0.000376 0.000000 0.000000 0.000000
# 2 -0.001421 0.008448 -0.001005 0.000000 0.000000 0.000000
# 3 -0.000376 -0.001005 0.014212 0.000000 0.000000 0.000000
# 4 0.000000 0.000000 0.000000 0.098121 0.000000 0.000000
# 5 0.000000 0.000000 0.000000 0.000000 0.047581 0.000000
# 6 0.000000 0.000000 0.000000 0.000000 0.000000 0.043623
#
#
# Mechanical properties :
#
#
# Convention : Reuss Voigt Hill
#
# Bulk Modulus (GPa) = 43.29678 51.23988 47.26833
# Shear Modulus (GPa) = 21.61435 32.33284 26.97359
#
# Velocity S-wave (km/s) = 2.99577 3.66403 3.34662
# Velocity P-wave (km/s) = 5.47208 6.25905 5.87875
#
# Compressibility (1/GPa) = 0.02309640
#
# Stress axis : x y z
#
# Youngs Moduli (GPa) = 165.57699 118.36911 70.36132
#
# Poissons Ratio (x) = 0.16820 0.02647
# Poissons Ratio (y) = 0.23528 0.07069
# Poissons Ratio (z) = 0.06228 0.11892
#
# Static dielectric constant tensor:
#      x y z
#    x 1.986370 0.000000 0.000000 
#    y 0.000000 2.050940 0.000000 
#    z 0.000000 0.000000 1.976970 
# 
# From -- ./inp_files/24396.got.cif
#   From: 2010.05.17/outbox.cif.g08.bks.cpg/sg52_13_cif.got.tgz:24396.got - 2010.06.03 12:15:38.
