data_PCOD9409083
_publ_section_title
;
Structure prediction by ZEFSAII (Michael W. Deem and Ramdas Pophale) SiO2 
 PCOD9409083
Probable space group: P N N A
;
_chemical_formula_sum "Si O2"
_cell_formula_units_Z 60
_cell_length_a 21.905446
_cell_length_b 5.673319
_cell_length_c 22.982265
_cell_angle_alpha 90.000000
_cell_angle_beta 90.000000
_cell_angle_gamma 90.000000
_cell_volume 2856.157364
_symmetry_space_group_name_H-M "P N N A"
_symmetry_group_IT_number 52
_symmetry_cell_setting 'orthorhombic'
loop_
_space_group_symop_operation_xyz
x,y,z
1/2-x,-y,z
x,1/2-y,1/2-z
1/2-x,1/2+y,1/2-z
-x,-y,-z
1/2+x,y,-z
-x,1/2+y,1/2+z
1/2+x,1/2-y,1/2+z
loop_
_atom_site_type_symbol
_atom_site_label
_atom_site_fract_x
_atom_site_fract_y
_atom_site_fract_z
Si Si1 0.385630 0.928505 0.163340
Si Si2 0.531246 0.447806 0.904137
Si Si3 0.598685 0.224473 0.491906
Si Si4 0.186356 0.881281 0.556057
Si Si5 0.077203 0.898308 0.904352
Si Si6 0.996887 0.655956 0.310701
Si Si7 0.285869 0.750000 0.250000
Si Si8 0.182999 0.588267 0.439099
O O1 0.424481 0.737157 0.127955
O O2 0.330277 0.805465 0.196045
O O3 0.438405 0.031300 0.204496
O O4 0.356410 0.124332 0.119489
O O5 0.563785 0.461279 0.966966
O O6 0.517584 0.659578 0.860544
O O7 0.466816 0.322193 0.914451
O O8 0.560645 0.414988 0.455474
O O9 0.645964 0.378028 0.529879
O O10 0.639502 0.094626 0.445012
O O11 0.148387 0.677202 0.589833
O O12 0.191097 0.786047 0.488981
O O13 0.250000 0.000000 0.574564
O O14 0.053946 0.999183 0.842985
O O15 0.972259 0.750000 0.250000
O O16 0.250000 0.500000 0.240725
O O17 0.250000 0.500000 0.422428
#
# Coordination Sequence:
#
# PCOD9409083 Si02
#       8
#     8   8   8   8   8   8   4   8
#     4  10  23  40  60  86 124 176 231 289 333 389
#     4  10  21  39  62  92 126 173 210 273 335 398
#     4  10  20  36  59  89 131 164 205 251 328 401
#     4  11  21  36  60  89 132 167 204 255 330 416
#     4  10  23  37  59  93 127 163 212 267 336 410
#     4  11  23  41  65  88 127 168 226 286 341 397
#     4  12  28  46  64  94 132 192 254 310 348 388
#     4  10  19  36  53  86 122 165 216 262 314 392
#
# _framework density 21.007245999999999
#
# number of rings (size 3 to 8) (size 9 to 14) (size 15 to 20)
#    0.000    1.600    1.333    3.200    2.800    5.867 
#    4.800    0.000    0.000    0.000    0.000    0.000 
#   56.000    0.000    0.000    0.000    0.000    0.000 
#
# Total GULP energy -334444.559283 kJ/mol
# GULP energy per Si atom -5574.075988 kJ/mol
# Density = 2.095943 g / cm^3
# Si number density = 21.007246 Si / 1000 Ang^3
#
#
#
# Elastic Constant Matrix: (Units=GPa)
#
#
# Indices 1 2 3 4 5 6 
#
# 1 122.9142 33.6232 58.2604 0.0000 0.0000 0.0000
# 2 33.6232 56.8233 15.9532 0.0000 0.0000 0.0000
# 3 58.2604 15.9532 72.4003 0.0000 0.0000 0.0000
# 4 0.0000 0.0000 0.0000 28.4698 0.0000 0.0000
# 5 0.0000 0.0000 0.0000 0.0000 14.0606 0.0000
# 6 0.0000 0.0000 0.0000 0.0000 0.0000 26.9373
#
#
#
# Elastic Compliance Matrix: (Units=1/GPa)
#
#
# Indices 1 2 3 4 5 6 
#
# 1 0.014722 -0.005740 -0.010582 0.000000 0.000000 0.000000
# 2 -0.005740 0.020997 -0.000008 0.000000 0.000000 0.000000
# 3 -0.010582 -0.000008 0.022329 0.000000 0.000000 0.000000
# 4 0.000000 0.000000 0.000000 0.035125 0.000000 0.000000
# 5 0.000000 0.000000 0.000000 0.000000 0.071121 0.000000
# 6 0.000000 0.000000 0.000000 0.000000 0.000000 0.037123
#
#
# Mechanical properties :
#
#
# Convention : Reuss Voigt Hill
#
# Bulk Modulus (GPa) = 39.38744 51.97906 45.68325
# Shear Modulus (GPa) = 20.61534 23.51361 22.06447
#
# Velocity S-wave (km/s) = 3.13604 3.34924 3.24439
# Velocity P-wave (km/s) = 5.64829 6.30505 5.98568
#
# Compressibility (1/GPa) = 0.02538881
#
# Stress axis : x y z
#
# Youngs Moduli (GPa) = 67.92744 47.62563 44.78530
#
# Poissons Ratio (x) = 0.27338 0.47390
# Poissons Ratio (y) = 0.38992 0.00034
# Poissons Ratio (z) = 0.71878 0.00036
#
# Static dielectric constant tensor:
#      x y z
#    x 1.762430 0.000000 0.000000 
#    y 0.000000 1.842760 0.000000 
#    z 0.000000 0.000000 1.761480 
# 
# From -- ./inp_files/41047.got.cif
#   From: 2010.05.17/outbox.cif.g08.bks.cpg/sg52_21_cif.got.tgz:41047.got - 2010.06.03 12:15:38.
