data_PCOD9409225
_publ_section_title
;
Structure prediction by ZEFSAII (Michael W. Deem and Ramdas Pophale) SiO2 
 PCOD9409225
Probable space group: P N N A
;
_chemical_formula_sum "Si O2"
_cell_formula_units_Z 48
_cell_length_a 16.719543
_cell_length_b 16.474572
_cell_length_c 7.460074
_cell_angle_alpha 90.000000
_cell_angle_beta 90.000000
_cell_angle_gamma 90.000000
_cell_volume 2054.857353
_symmetry_space_group_name_H-M "P N N A"
_symmetry_group_IT_number 52
_symmetry_cell_setting 'orthorhombic'
loop_
_space_group_symop_operation_xyz
x,y,z
1/2-x,-y,z
x,1/2-y,1/2-z
1/2-x,1/2+y,1/2-z
-x,-y,-z
1/2+x,y,-z
-x,1/2+y,1/2+z
1/2+x,1/2-y,1/2+z
loop_
_atom_site_type_symbol
_atom_site_label
_atom_site_fract_x
_atom_site_fract_y
_atom_site_fract_z
Si Si1 0.477047 0.013746 0.206081
Si Si2 0.272063 0.669751 0.147686
Si Si3 0.309782 0.065767 0.065410
Si Si4 0.087402 0.341282 0.677849
Si Si5 0.049491 0.162255 0.246481
Si Si6 0.761161 0.405797 0.213233
O O1 0.384878 0.038466 0.180739
O O2 0.529431 0.090655 0.265868
O O3 0.487226 0.925537 0.296958
O O4 0.500000 0.000000 0.000000
O O5 0.244708 0.750000 0.250000
O O6 0.249197 0.604316 0.293244
O O7 0.368681 0.671664 0.136550
O O8 0.228305 0.648971 0.964001
O O9 0.250000 0.000000 0.982768
O O10 0.326738 0.108062 0.872859
O O11 0.074368 0.250000 0.750000
O O12 0.073633 0.344504 0.463697
O O13 0.177330 0.370715 0.711783
O O14 0.006072 0.250000 0.250000
O O15 0.750000 0.500000 0.146903
#
# Coordination Sequence:
#
# PCOD9409225 Si02
#       6
#     8   8   8   8   8   8
#     4  10  21  39  69  90 132 185 217 271 348 395
#     4  11  22  37  64  95 127 167 220 278 334 389
#     4  11  20  40  65  91 132 173 221 280 335 386
#     4  11  22  42  68  96 138 179 223 274 340 404
#     4  10  19  37  63  95 125 173 224 268 328 395
#     4  11  23  39  68  99 126 169 231 274 328 403
#
# _framework density 23.359287999999999
#
# number of rings (size 3 to 8) (size 9 to 14) (size 15 to 20)
#    0.000    1.333    3.333    5.500    0.000    0.667 
#    0.000    3.333   36.667    0.000    0.000    0.000 
#    0.000    0.000    0.000    0.000    0.000    0.000 
#
# Total GULP energy -267483.446770 kJ/mol
# GULP energy per Si atom -5572.571808 kJ/mol
# Density = 2.330612 g / cm^3
# Si number density = 23.359288 Si / 1000 Ang^3
#
#
#
# Elastic Constant Matrix: (Units=GPa)
#
#
# Indices 1 2 3 4 5 6 
#
# 1 38.4375 39.3746 -6.3408 0.0000 0.0000 0.0000
# 2 39.3746 155.3507 10.5964 0.0000 0.0000 0.0000
# 3 -6.3408 10.5964 83.6283 0.0000 0.0000 0.0000
# 4 0.0000 0.0000 0.0000 24.8070 0.0000 0.0000
# 5 0.0000 0.0000 0.0000 0.0000 29.2961 0.0000
# 6 0.0000 0.0000 0.0000 0.0000 0.0000 40.4244
#
#
#
# Elastic Compliance Matrix: (Units=1/GPa)
#
#
# Indices 1 2 3 4 5 6 
#
# 1 0.036397 -0.009495 0.003963 0.000000 0.000000 0.000000
# 2 -0.009495 0.008970 -0.001857 0.000000 0.000000 0.000000
# 3 0.003963 -0.001857 0.012493 0.000000 0.000000 0.000000
# 4 0.000000 0.000000 0.000000 0.040311 0.000000 0.000000
# 5 0.000000 0.000000 0.000000 0.000000 0.034134 0.000000
# 6 0.000000 0.000000 0.000000 0.000000 0.000000 0.024738
#
#
# Mechanical properties :
#
#
# Convention : Reuss Voigt Hill
#
# Bulk Modulus (GPa) = 23.21137 40.51964 31.86551
# Shear Modulus (GPa) = 26.85542 34.49127 30.67335
#
# Velocity S-wave (km/s) = 3.39435 3.84677 3.62762
# Velocity P-wave (km/s) = 5.03194 6.09213 5.58724
#
# Compressibility (1/GPa) = 0.04308233
#
# Stress axis : x y z
#
# Youngs Moduli (GPa) = 27.47500 111.47885 80.04244
#
# Poissons Ratio (x) = 1.05852 -0.31719
# Poissons Ratio (y) = 0.26088 0.14860
# Poissons Ratio (z) = -0.10888 0.20697
#
# Static dielectric constant tensor:
#      x y z
#    x 1.156000 0.000000 0.000000 
#    y 0.000000 1.887060 0.000000 
#    z 0.000000 0.000000 1.801010 
# 
# From -- ./inp_files/12110.got.cif
#   From: 2010.05.17/outbox.cif.g08.bks.cpg/sg52_7_cif.got.tgz:12110.got - 2010.06.03 12:15:38.
