data_PCOD9409585
_publ_section_title
;
Structure prediction by ZEFSAII (Michael W. Deem and Ramdas Pophale) SiO2 
 PCOD9409585
Probable space group: P N N A
;
_chemical_formula_sum "Si O2"
_cell_formula_units_Z 40
_cell_length_a 12.298495
_cell_length_b 8.406410
_cell_length_c 17.876248
_cell_angle_alpha 90.000000
_cell_angle_beta 90.000000
_cell_angle_gamma 90.000000
_cell_volume 1848.157196
_symmetry_space_group_name_H-M "P N N A"
_symmetry_group_IT_number 52
_symmetry_cell_setting 'orthorhombic'
loop_
_space_group_symop_operation_xyz
x,y,z
1/2-x,-y,z
x,1/2-y,1/2-z
1/2-x,1/2+y,1/2-z
-x,-y,-z
1/2+x,y,-z
-x,1/2+y,1/2+z
1/2+x,1/2-y,1/2+z
loop_
_atom_site_type_symbol
_atom_site_label
_atom_site_fract_x
_atom_site_fract_y
_atom_site_fract_z
Si Si1 0.496594 0.629874 0.895597
Si Si2 0.812274 0.856890 0.078084
Si Si3 0.390541 0.593722 0.411679
Si Si4 0.413361 0.199815 0.562520
Si Si5 0.197795 0.729648 0.335494
O O1 0.407387 0.765345 0.879816
O O2 0.439580 0.460353 0.893069
O O3 0.605348 0.640104 0.848060
O O4 0.539166 0.667911 0.979648
O O5 0.713828 0.736461 0.059176
O O6 0.750000 0.000000 0.118542
O O7 0.860910 0.925705 0.999514
O O8 0.512648 0.656853 0.405248
O O9 0.307451 0.730058 0.383676
O O10 0.360275 0.435726 0.364476
O O11 0.229898 0.750000 0.250000
#
# Coordination Sequence:
#
# PCOD9409585 Si02
#       5
#     8   8   8   8   8
#     4  10  21  34  54  89 115 149 192 237 309 338
#     4  11  18  34  61  84 119 142 189 247 296 351
#     4  10  21  37  56  87 114 154 201 229 298 344
#     4  10  20  34  58  86 120 143 182 262 297 346
#     4  11  22  39  57  81 120 159 200 232 273 359
#
# _framework density 21.643181999999999
#
# number of rings (size 3 to 8) (size 9 to 14) (size 15 to 20)
#    0.000    1.600    4.000    1.800    0.000    7.200 
#    0.000    0.000    0.000    8.400    0.000    0.000 
#    0.000    0.000    0.000    0.000    0.000    0.000 
#
# Total GULP energy -223314.972693 kJ/mol
# GULP energy per Si atom -5582.874317 kJ/mol
# Density = 2.159392 g / cm^3
# Si number density = 21.643182 Si / 1000 Ang^3
#
#
#
# Elastic Constant Matrix: (Units=GPa)
#
#
# Indices 1 2 3 4 5 6 
#
# 1 100.3730 14.9226 9.7398 0.0000 0.0000 0.0000
# 2 14.9226 54.1407 -0.7411 0.0000 0.0000 0.0000
# 3 9.7398 -0.7411 26.2189 0.0000 0.0000 0.0000
# 4 0.0000 0.0000 0.0000 7.6543 0.0000 0.0000
# 5 0.0000 0.0000 0.0000 0.0000 8.1277 0.0000
# 6 0.0000 0.0000 0.0000 0.0000 0.0000 34.6199
#
#
#
# Elastic Compliance Matrix: (Units=1/GPa)
#
#
# Indices 1 2 3 4 5 6 
#
# 1 0.010812 -0.003036 -0.004102 0.000000 0.000000 0.000000
# 2 -0.003036 0.019330 0.001674 0.000000 0.000000 0.000000
# 3 -0.004102 0.001674 0.039712 0.000000 0.000000 0.000000
# 4 0.000000 0.000000 0.000000 0.130646 0.000000 0.000000
# 5 0.000000 0.000000 0.000000 0.000000 0.123037 0.000000
# 6 0.000000 0.000000 0.000000 0.000000 0.000000 0.028885
#
#
# Mechanical properties :
#
#
# Convention : Reuss Voigt Hill
#
# Bulk Modulus (GPa) = 16.97061 25.39725 21.18393
# Shear Modulus (GPa) = 13.05510 20.53445 16.79477
#
# Velocity S-wave (km/s) = 2.45867 3.08356 2.78867
# Velocity P-wave (km/s) = 3.98976 4.94346 4.49199
#
# Compressibility (1/GPa) = 0.05892539
#
# Stress axis : x y z
#
# Youngs Moduli (GPa) = 92.48696 51.73254 25.18152
#
# Poissons Ratio (x) = 0.15708 0.10330
# Poissons Ratio (y) = 0.28082 -0.04216
# Poissons Ratio (z) = 0.37942 -0.08662
#
# Static dielectric constant tensor:
#      x y z
#    x 1.795610 0.000000 0.000000 
#    y 0.000000 1.920360 0.000000 
#    z 0.000000 0.000000 1.773560 
# 
# From -- ./inp_files/31938.got.cif
#   From: 2010.05.17/outbox.cif.g08.bks.cpg/sg52_16_cif.got.tgz:31938.got - 2010.06.03 12:15:38.
