data_PCOD9409711
_publ_section_title
;
Structure prediction by ZEFSAII (Michael W. Deem and Ramdas Pophale) SiO2 
 PCOD9409711
Probable space group: P N N A
;
_chemical_formula_sum "Si O2"
_cell_formula_units_Z 48
_cell_length_a 19.254384
_cell_length_b 5.394741
_cell_length_c 24.018807
_cell_angle_alpha 90.000000
_cell_angle_beta 90.000000
_cell_angle_gamma 90.000000
_cell_volume 2494.891484
_symmetry_space_group_name_H-M "P N N A"
_symmetry_group_IT_number 52
_symmetry_cell_setting 'orthorhombic'
loop_
_space_group_symop_operation_xyz
x,y,z
1/2-x,-y,z
x,1/2-y,1/2-z
1/2-x,1/2+y,1/2-z
-x,-y,-z
1/2+x,y,-z
-x,1/2+y,1/2+z
1/2+x,1/2-y,1/2+z
loop_
_atom_site_type_symbol
_atom_site_label
_atom_site_fract_x
_atom_site_fract_y
_atom_site_fract_z
Si Si1 0.371468 0.308029 0.190175
Si Si2 0.964462 0.249049 0.424805
Si Si3 0.182616 0.829063 0.074749
Si Si4 0.823680 0.004151 0.463700
Si Si5 0.037254 0.194138 0.190252
Si Si6 0.081696 0.360185 0.488449
O O1 0.335945 0.250000 0.250000
O O2 0.325179 0.291644 0.135121
O O3 0.406542 0.580334 0.188055
O O4 0.427549 0.079058 0.188406
O O5 0.892022 0.109033 0.433163
O O6 0.985786 0.278613 0.361533
O O7 0.954699 0.503683 0.459682
O O8 0.033297 0.154931 0.458485
O O9 0.187204 0.653966 0.021031
O O10 0.250000 0.000000 0.076403
O O11 0.110432 0.972662 0.061698
O O12 0.750000 0.000000 0.433187
O O13 0.847960 0.737340 0.483880
O O14 0.002404 0.250000 0.250000
#
# Coordination Sequence:
#
# PCOD9409711 Si02
#       6
#     8   8   8   8   8   8
#     4  10  22  39  59  85 118 156 203 253 291 342
#     4  10  21  33  59  87 112 151 196 249 291 362
#     4  11  21  35  56  79 117 162 199 243 293 358
#     4  11  22  35  55  84 120 155 190 241 308 357
#     4  10  21  39  62  88 117 152 199 253 305 351
#     4  10  20  36  54  85 117 147 200 238 296 353
#
# _framework density 19.239315999999999
#
# number of rings (size 3 to 8) (size 9 to 14) (size 15 to 20)
#    0.000    1.667    3.333    1.500    2.333    0.000 
#    0.000    3.333    0.000    0.000    4.333    0.000 
#    0.000    0.000    0.000    0.000    0.000    0.000 
#
# Total GULP energy -267341.853714 kJ/mol
# GULP energy per Si atom -5569.621952 kJ/mol
# Density = 1.919553 g / cm^3
# Si number density = 19.239316 Si / 1000 Ang^3
#
#
#
# Elastic Constant Matrix: (Units=GPa)
#
#
# Indices 1 2 3 4 5 6 
#
# 1 67.7314 -3.9766 10.6575 0.0000 0.0000 0.0000
# 2 -3.9766 39.6486 -4.5413 0.0000 0.0000 0.0000
# 3 10.6575 -4.5413 97.1486 0.0000 0.0000 0.0000
# 4 0.0000 0.0000 0.0000 14.4290 0.0000 0.0000
# 5 0.0000 0.0000 0.0000 0.0000 -9.3511 0.0000
# 6 0.0000 0.0000 0.0000 0.0000 0.0000 32.1292
#
#
#
# Elastic Compliance Matrix: (Units=1/GPa)
#
#
# Indices 1 2 3 4 5 6 
#
# 1 0.015093 0.001331 -0.001594 0.000000 0.000000 0.000000
# 2 0.001331 0.025475 0.001045 0.000000 0.000000 0.000000
# 3 -0.001594 0.001045 0.010517 0.000000 0.000000 0.000000
# 4 0.000000 0.000000 0.000000 0.069305 0.000000 0.000000
# 5 0.000000 0.000000 0.000000 0.000000 -0.106940 0.000000
# 6 0.000000 0.000000 0.000000 0.000000 0.000000 0.031124
#
#
# Mechanical properties :
#
#
# Convention : Reuss Voigt Hill
#
# Bulk Modulus (GPa) = 18.99332 23.20086 21.09709
# Shear Modulus (GPa) = 82.56327 20.93403 51.74865
#
# Velocity S-wave (km/s) = 6.55797 3.30219 5.19189
# Velocity P-wave (km/s) = 8.19977 5.15990 6.85058
#
# Compressibility (1/GPa) = 0.05265010
#
# Stress axis : x y z
#
# Youngs Moduli (GPa) = 66.25542 39.25454 95.08266
#
# Poissons Ratio (x) = -0.05226 0.15152
# Poissons Ratio (y) = -0.08820 -0.09934
# Poissons Ratio (z) = 0.10558 -0.04101
#
# Static dielectric constant tensor:
#      x y z
#    x 1.816320 0.000000 0.000000 
#    y 0.000000 1.801410 0.000000 
#    z 0.000000 0.000000 1.670310 
# 
# From -- ./inp_files/40804.got.cif
#   From: 2010.05.17/outbox.cif.g08.bks.cpg/sg52_21_cif.got.tgz:40804.got - 2010.06.03 12:15:38.
