data_PCOD9409596
_publ_section_title
;
Structure prediction by ZEFSAII (Michael W. Deem and Ramdas Pophale) SiO2 
 PCOD9409596
Probable space group: P N N A
;
_chemical_formula_sum "Si O2"
_cell_formula_units_Z 40
_cell_length_a 8.811066
_cell_length_b 11.082534
_cell_length_c 20.908630
_cell_angle_alpha 90.000000
_cell_angle_beta 90.000000
_cell_angle_gamma 90.000000
_cell_volume 2041.705525
_symmetry_space_group_name_H-M "P N N A"
_symmetry_group_IT_number 52
_symmetry_cell_setting 'orthorhombic'
loop_
_space_group_symop_operation_xyz
x,y,z
1/2-x,-y,z
x,1/2-y,1/2-z
1/2-x,1/2+y,1/2-z
-x,-y,-z
1/2+x,y,-z
-x,1/2+y,1/2+z
1/2+x,1/2-y,1/2+z
loop_
_atom_site_type_symbol
_atom_site_label
_atom_site_fract_x
_atom_site_fract_y
_atom_site_fract_z
Si Si1 0.990148 0.325942 0.184800
Si Si2 0.250000 0.000000 0.278008
Si Si3 0.077893 0.849714 0.931957
Si Si4 0.058627 0.135319 0.933115
Si Si5 0.750000 0.500000 0.238814
Si Si6 0.989636 0.354350 0.702770
O O1 0.011055 0.250000 0.250000
O O2 0.126155 0.423948 0.182238
O O3 0.980789 0.235224 0.125082
O O4 0.833258 0.400160 0.195327
O O5 0.163003 0.908567 0.231183
O O6 0.260704 0.845500 0.932605
O O7 0.030545 0.990724 0.925966
O O8 0.012678 0.816211 0.001612
O O9 0.984343 0.189321 0.869450
O O10 0.879762 0.547422 0.286286
O O11 0.037901 0.250000 0.750000
#
# Coordination Sequence:
#
# PCOD9409596 Si02
#       6
#     8   4   8   8   4   8
#     4  11  21  38  61  87 122 158 195 247 299 349
#     4  10  24  36  56  90 118 152 200 238 288 360
#     4  10  21  37  59  85 118 152 186 245 303 347
#     4  10  21  36  58  89 114 145 195 239 298 362
#     4  10  20  34  60  90 114 148 200 238 290 366
#     4  11  21  36  58  83 113 148 189 241 289 340
#
# _framework density 19.591463000000001
#
# number of rings (size 3 to 8) (size 9 to 14) (size 15 to 20)
#    0.000    1.600    0.000    7.200    0.000    6.400 
#    0.000    0.000    0.000   20.400    0.000    0.000 
#    0.000    0.000    0.000    0.000    0.000    0.000 
#
# Total GULP energy -223423.247514 kJ/mol
# GULP energy per Si atom -5585.581188 kJ/mol
# Density = 1.954687 g / cm^3
# Si number density = 19.591463 Si / 1000 Ang^3
#
#
#
# Elastic Constant Matrix: (Units=GPa)
#
#
# Indices 1 2 3 4 5 6 
#
# 1 70.0156 22.7914 33.1287 0.0000 0.0000 0.0000
# 2 22.7914 57.9479 54.1983 0.0000 0.0000 0.0000
# 3 33.1287 54.1983 187.8333 0.0000 0.0000 0.0000
# 4 0.0000 0.0000 0.0000 37.5312 0.0000 0.0000
# 5 0.0000 0.0000 0.0000 0.0000 16.9044 0.0000
# 6 0.0000 0.0000 0.0000 0.0000 0.0000 28.3350
#
#
#
# Elastic Compliance Matrix: (Units=1/GPa)
#
#
# Indices 1 2 3 4 5 6 
#
# 1 0.016657 -0.005210 -0.001435 0.000000 0.000000 0.000000
# 2 -0.005210 0.025265 -0.006371 0.000000 0.000000 0.000000
# 3 -0.001435 -0.006371 0.007415 0.000000 0.000000 0.000000
# 4 0.000000 0.000000 0.000000 0.026645 0.000000 0.000000
# 5 0.000000 0.000000 0.000000 0.000000 0.059156 0.000000
# 6 0.000000 0.000000 0.000000 0.000000 0.000000 0.035292
#
#
# Mechanical properties :
#
#
# Convention : Reuss Voigt Hill
#
# Bulk Modulus (GPa) = 42.90673 59.55927 51.23300
# Shear Modulus (GPa) = 24.48226 30.26602 27.37414
#
# Velocity S-wave (km/s) = 3.53886 3.93473 3.74203
# Velocity P-wave (km/s) = 6.21661 7.14909 6.69909
#
# Compressibility (1/GPa) = 0.02330637
#
# Stress axis : x y z
#
# Youngs Moduli (GPa) = 60.03414 39.58078 134.85667
#
# Poissons Ratio (x) = 0.20620 0.19348
# Poissons Ratio (y) = 0.31275 0.85920
# Poissons Ratio (z) = 0.08613 0.25218
#
# Static dielectric constant tensor:
#      x y z
#    x 1.688370 0.000000 0.000000 
#    y 0.000000 1.723270 0.000000 
#    z 0.000000 0.000000 1.695640 
# 
# From -- ./inp_files/30952.got.cif
#   From: 2010.05.17/outbox.cif.g08.bks.cpg/sg52_16_cif.got.tgz:30952.got - 2010.06.03 12:15:38.
