data_PCOD9409079
_publ_section_title
;
Structure prediction by ZEFSAII (Michael W. Deem and Ramdas Pophale) SiO2 
 PCOD9409079
Probable space group: P N N A
;
_chemical_formula_sum "Si O2"
_cell_formula_units_Z 64
_cell_length_a 8.825579
_cell_length_b 18.099510
_cell_length_c 20.689530
_cell_angle_alpha 90.000000
_cell_angle_beta 90.000000
_cell_angle_gamma 90.000000
_cell_volume 3304.917702
_symmetry_space_group_name_H-M "P N N A"
_symmetry_group_IT_number 52
_symmetry_cell_setting 'orthorhombic'
loop_
_space_group_symop_operation_xyz
x,y,z
1/2-x,-y,z
x,1/2-y,1/2-z
1/2-x,1/2+y,1/2-z
-x,-y,-z
1/2+x,y,-z
-x,1/2+y,1/2+z
1/2+x,1/2-y,1/2+z
loop_
_atom_site_type_symbol
_atom_site_label
_atom_site_fract_x
_atom_site_fract_y
_atom_site_fract_z
Si Si1 0.029012 0.732418 0.405610
Si Si2 0.922066 0.024915 0.330845
Si Si3 0.969187 0.196796 0.188050
Si Si4 0.336013 0.927750 0.231097
Si Si5 0.631603 0.170424 0.214421
Si Si6 0.538460 0.828700 0.412381
Si Si7 0.570158 0.884716 0.673613
Si Si8 0.720330 0.225072 0.509850
O O1 0.973541 0.678214 0.348892
O O2 0.895752 0.739087 0.458779
O O3 0.054790 0.811792 0.369743
O O4 0.182994 0.719157 0.445429
O O5 0.012762 0.042468 0.265468
O O6 0.926726 0.100909 0.369879
O O7 0.750000 0.000000 0.323774
O O8 0.020801 0.958979 0.363062
O O9 0.994993 0.250000 0.250000
O O10 0.806142 0.156838 0.196526
O O11 0.106213 0.138386 0.185826
O O12 0.955071 0.253129 0.128892
O O13 0.228826 0.894649 0.288528
O O14 0.250000 0.000000 0.203907
O O15 0.635034 0.250000 0.250000
O O16 0.553494 0.120509 0.268240
O O17 0.660119 0.820812 0.468652
O O18 0.374217 0.828720 0.444174
#
# Coordination Sequence:
#
# PCOD9409079 Si02
#       8
#     8   8   8   8   8   8   8   8
#     4  10  19  36  52  79 116 151 203 250 301 350
#     4  11  21  36  57  78 121 157 197 244 314 363
#     4  11  20  34  62  86 117 150 207 249 328 376
#     4  10  22  36  53  92 124 153 192 245 318 392
#     4   9  19  33  56  85 112 147 196 253 316 373
#     4  11  22  39  57  84 117 165 206 265 299 359
#     4  10  21  35  56  82 117 154 195 251 315 370
#     4  10  22  36  54  78 119 157 213 256 288 357
#
# _framework density 19.365079999999999
#
# number of rings (size 3 to 8) (size 9 to 14) (size 15 to 20)
#    0.000    1.750    2.500    2.250    3.500    0.500 
#    0.000    6.875    0.000    0.000    0.000    0.875 
#    0.000    0.000    0.000    0.000    0.000    0.000 
#
# Total GULP energy -357090.832103 kJ/mol
# GULP energy per Si atom -5579.544252 kJ/mol
# Density = 1.932100 g / cm^3
# Si number density = 19.365080 Si / 1000 Ang^3
#
#
#
# Elastic Constant Matrix: (Units=GPa)
#
#
# Indices 1 2 3 4 5 6 
#
# 1 126.8493 40.4370 44.9343 0.0000 0.0000 0.0000
# 2 40.4370 54.5209 30.7053 0.0000 0.0000 0.0000
# 3 44.9343 30.7053 61.2908 0.0000 0.0000 0.0000
# 4 0.0000 0.0000 0.0000 6.6193 0.0000 0.0000
# 5 0.0000 0.0000 0.0000 0.0000 27.9276 0.0000
# 6 0.0000 0.0000 0.0000 0.0000 0.0000 22.0378
#
#
#
# Elastic Compliance Matrix: (Units=1/GPa)
#
#
# Indices 1 2 3 4 5 6 
#
# 1 0.011669 -0.005345 -0.005877 0.000000 0.000000 0.000000
# 2 -0.005345 0.027998 -0.010108 0.000000 0.000000 0.000000
# 3 -0.005877 -0.010108 0.025689 0.000000 0.000000 0.000000
# 4 0.000000 0.000000 0.000000 0.151073 0.000000 0.000000
# 5 0.000000 0.000000 0.000000 0.000000 0.035807 0.000000
# 6 0.000000 0.000000 0.000000 0.000000 0.000000 0.045377
#
#
# Mechanical properties :
#
#
# Convention : Reuss Voigt Hill
#
# Bulk Modulus (GPa) = 44.06166 52.75713 48.40940
# Shear Modulus (GPa) = 14.37450 19.75590 17.06520
#
# Velocity S-wave (km/s) = 2.72746 3.19749 2.97178
# Velocity P-wave (km/s) = 5.72025 6.39801 6.06860
#
# Compressibility (1/GPa) = 0.02269547
#
# Stress axis : x y z
#
# Youngs Moduli (GPa) = 85.69608 35.71635 38.92770
#
# Poissons Ratio (x) = 0.19089 0.22880
# Poissons Ratio (y) = 0.45802 0.39349
# Poissons Ratio (z) = 0.50368 0.36103
#
# Static dielectric constant tensor:
#      x y z
#    x 1.726720 0.000000 0.000000 
#    y 0.000000 1.721640 0.000000 
#    z 0.000000 0.000000 1.673460 
# 
# From -- ./inp_files/36192.got.cif
#   From: 2010.05.17/outbox.cif.g08.bks.cpg/sg52_19_cif.got.tgz:36192.got - 2010.06.03 12:15:38.
