data_PCOD9409186
_publ_section_title
;
Structure prediction by ZEFSAII (Michael W. Deem and Ramdas Pophale) SiO2 
 PCOD9409186
Probable space group: P N N A
;
_chemical_formula_sum "Si O2"
_cell_formula_units_Z 40
_cell_length_a 12.953614
_cell_length_b 7.293597
_cell_length_c 20.167846
_cell_angle_alpha 90.000000
_cell_angle_beta 90.000000
_cell_angle_gamma 90.000000
_cell_volume 1905.426632
_symmetry_space_group_name_H-M "P N N A"
_symmetry_group_IT_number 52
_symmetry_cell_setting 'orthorhombic'
loop_
_space_group_symop_operation_xyz
x,y,z
1/2-x,-y,z
x,1/2-y,1/2-z
1/2-x,1/2+y,1/2-z
-x,-y,-z
1/2+x,y,-z
-x,1/2+y,1/2+z
1/2+x,1/2-y,1/2+z
loop_
_atom_site_type_symbol
_atom_site_label
_atom_site_fract_x
_atom_site_fract_y
_atom_site_fract_z
Si Si1 0.512324 0.743607 0.925574
Si Si2 0.361606 0.183834 0.615528
Si Si3 0.285789 0.189412 0.021654
Si Si4 0.154840 0.230756 0.672634
Si Si5 0.578483 0.171876 0.570352
O O1 0.611115 0.866838 0.939117
O O2 0.434825 0.819936 0.871176
O O3 0.564968 0.544065 0.913239
O O4 0.449988 0.712025 0.993492
O O5 0.320924 0.180723 0.539051
O O6 0.272041 0.287462 0.655440
O O7 0.479979 0.251267 0.611261
O O8 0.358756 0.980450 0.647199
O O9 0.197733 0.268315 0.069973
O O10 0.250000 0.000000 0.989241
O O11 0.137066 0.250000 0.750000
#
# Coordination Sequence:
#
# PCOD9409186 Si02
#       5
#     8   8   8   8   8
#     4   9  18  31  57  82 109 152 188 228 292 342
#     4   9  20  36  55  85 114 147 193 228 295 340
#     4  11  21  33  55  87 123 146 183 247 293 339
#     4  10  19  37  58  80 114 151 195 233 278 355
#     4   9  17  33  58  83 113 142 185 246 284 344
#
# _framework density 20.992674999999998
#
# number of rings (size 3 to 8) (size 9 to 14) (size 15 to 20)
#    0.000    2.400    2.000    1.800    5.600    3.200 
#    3.600    0.000    0.000    6.000    0.000    0.000 
#    0.000    0.000    0.000    0.000    0.000    0.000 
#
# Total GULP energy -222878.677902 kJ/mol
# GULP energy per Si atom -5571.966948 kJ/mol
# Density = 2.094489 g / cm^3
# Si number density = 20.992675 Si / 1000 Ang^3
#
#
#
# Elastic Constant Matrix: (Units=GPa)
#
#
# Indices 1 2 3 4 5 6 
#
# 1 110.3101 10.2294 42.7583 0.0000 0.0000 0.0000
# 2 10.2294 57.7143 10.9107 0.0000 0.0000 0.0000
# 3 42.7583 10.9107 91.7606 0.0000 0.0000 0.0000
# 4 0.0000 0.0000 0.0000 8.9478 0.0000 0.0000
# 5 0.0000 0.0000 0.0000 0.0000 24.2321 0.0000
# 6 0.0000 0.0000 0.0000 0.0000 0.0000 12.2162
#
#
#
# Elastic Compliance Matrix: (Units=1/GPa)
#
#
# Indices 1 2 3 4 5 6 
#
# 1 0.011121 -0.001014 -0.005062 0.000000 0.000000 0.000000
# 2 -0.001014 0.017818 -0.001646 0.000000 0.000000 0.000000
# 3 -0.005062 -0.001646 0.013452 0.000000 0.000000 0.000000
# 4 0.000000 0.000000 0.000000 0.111760 0.000000 0.000000
# 5 0.000000 0.000000 0.000000 0.000000 0.041268 0.000000
# 6 0.000000 0.000000 0.000000 0.000000 0.000000 0.081858
#
#
# Mechanical properties :
#
#
# Convention : Reuss Voigt Hill
#
# Bulk Modulus (GPa) = 37.10926 43.06465 40.08696
# Shear Modulus (GPa) = 16.57255 22.13832 19.35544
#
# Velocity S-wave (km/s) = 2.81275 3.25094 3.03975
# Velocity P-wave (km/s) = 5.31643 5.88644 5.60868
#
# Compressibility (1/GPa) = 0.02694745
#
# Stress axis : x y z
#
# Youngs Moduli (GPa) = 89.91649 56.12408 74.33682
#
# Poissons Ratio (x) = 0.05693 0.37627
# Poissons Ratio (y) = 0.09120 0.12235
# Poissons Ratio (z) = 0.45513 0.09238
#
# Static dielectric constant tensor:
#      x y z
#    x 1.919810 0.000000 0.000000 
#    y 0.000000 1.910070 0.000000 
#    z 0.000000 0.000000 1.702080 
# 
# From -- ./inp_files/31975.got.cif
#   From: 2010.05.17/outbox.cif.g08.bks.cpg/sg52_16_cif.got.tgz:31975.got - 2010.06.03 12:15:38.
