data_PCOD9409785
_publ_section_title
;
Structure prediction by ZEFSAII (Michael W. Deem and Ramdas Pophale) SiO2 
 PCOD9409785
Probable space group: P N N A
;
_chemical_formula_sum "Si O2"
_cell_formula_units_Z 44
_cell_length_a 12.672058
_cell_length_b 27.165795
_cell_length_c 5.989549
_cell_angle_alpha 90.000000
_cell_angle_beta 90.000000
_cell_angle_gamma 90.000000
_cell_volume 2061.881459
_symmetry_space_group_name_H-M "P N N A"
_symmetry_group_IT_number 52
_symmetry_cell_setting 'orthorhombic'
loop_
_space_group_symop_operation_xyz
x,y,z
1/2-x,-y,z
x,1/2-y,1/2-z
1/2-x,1/2+y,1/2-z
-x,-y,-z
1/2+x,y,-z
-x,1/2+y,1/2+z
1/2+x,1/2-y,1/2+z
loop_
_atom_site_type_symbol
_atom_site_label
_atom_site_fract_x
_atom_site_fract_y
_atom_site_fract_z
Si Si1 0.932252 0.028068 0.687259
Si Si2 0.377317 0.296892 0.139955
Si Si3 0.582234 0.432880 0.573492
Si Si4 0.593407 0.612804 0.109606
Si Si5 0.268851 0.750000 0.750000
Si Si6 0.239637 0.345934 0.534379
O O1 0.867225 0.070442 0.560910
O O2 0.876761 0.985029 0.829251
O O3 0.000000 0.000000 0.500000
O O4 0.014790 0.054424 0.853094
O O5 0.433553 0.250000 0.250000
O O6 0.305731 0.324524 0.325046
O O7 0.445041 0.339595 0.027641
O O8 0.303864 0.272743 0.947828
O O9 0.500014 0.410461 0.749317
O O10 0.667029 0.391123 0.532086
O O11 0.681277 0.632236 0.279570
O O12 0.320589 0.701592 0.639827
#
# Coordination Sequence:
#
# PCOD9409785 Si02
#       6
#     8   8   8   8   4   8
#     4   9  20  39  57  81 119 156 197 254 296 360
#     4   9  18  36  61  81 116 157 198 246 299 358
#     4  10  21  39  61  85 123 159 199 253 310 361
#     4  10  20  36  60  87 119 159 201 246 306 361
#     4   8  18  34  60  84 116 152 196 246 306 352
#     4  10  20  37  64  85 119 162 198 252 307 363
#
# _framework density 21.339732999999999
#
# number of rings (size 3 to 8) (size 9 to 14) (size 15 to 20)
#    0.000    2.545    0.000    1.091    0.000    5.818 
#    0.000   21.818   86.000    0.000    0.000    0.000 
#    0.000    0.000    0.000    0.000    0.000    0.000 
#
# Total GULP energy -245365.504676 kJ/mol
# GULP energy per Si atom -5576.488743 kJ/mol
# Density = 2.129116 g / cm^3
# Si number density = 21.339733 Si / 1000 Ang^3
#
#
#
# Elastic Constant Matrix: (Units=GPa)
#
#
# Indices 1 2 3 4 5 6 
#
# 1 35.0587 44.8741 25.4699 0.0000 0.0000 0.0000
# 2 44.8741 177.3439 81.6679 0.0000 0.0000 0.0000
# 3 25.4699 81.6679 124.1438 0.0000 0.0000 0.0000
# 4 0.0000 0.0000 0.0000 71.5946 0.0000 0.0000
# 5 0.0000 0.0000 0.0000 0.0000 1.5440 0.0000
# 6 0.0000 0.0000 0.0000 0.0000 0.0000 43.8942
#
#
#
# Elastic Compliance Matrix: (Units=1/GPa)
#
#
# Indices 1 2 3 4 5 6 
#
# 1 0.042667 -0.009705 -0.002369 0.000000 0.000000 0.000000
# 2 -0.009705 0.010297 -0.004783 0.000000 0.000000 0.000000
# 3 -0.002369 -0.004783 0.011688 0.000000 0.000000 0.000000
# 4 0.000000 0.000000 0.000000 0.013968 0.000000 0.000000
# 5 0.000000 0.000000 0.000000 0.000000 0.647661 0.000000
# 6 0.000000 0.000000 0.000000 0.000000 0.000000 0.022782
#
#
# Mechanical properties :
#
#
# Convention : Reuss Voigt Hill
#
# Bulk Modulus (GPa) = 32.32329 71.17448 51.74889
# Shear Modulus (GPa) = 6.30447 35.70885 21.00666
#
# Velocity S-wave (km/s) = 1.72068 4.09510 3.14091
# Velocity P-wave (km/s) = 4.37350 7.46895 6.12016
#
# Compressibility (1/GPa) = 0.03093744
#
# Stress axis : x y z
#
# Youngs Moduli (GPa) = 23.43721 97.11585 85.56112
#
# Poissons Ratio (x) = 0.94253 0.20271
# Poissons Ratio (y) = 0.22746 0.40921
# Poissons Ratio (z) = 0.05553 0.46448
#
# Static dielectric constant tensor:
#      x y z
#    x 1.769260 0.000000 0.000000 
#    y 0.000000 1.848630 0.000000 
#    z 0.000000 0.000000 1.805460 
# 
# From -- ./inp_files/2402.got.cif
#   From: 2010.05.17/outbox.cif.g08.bks.cpg/sg52_2_cif.got.tgz:2402.got - 2010.06.03 12:15:38.
