data_PCOD9409288
_publ_section_title
;
Structure prediction by ZEFSAII (Michael W. Deem and Ramdas Pophale) SiO2 
 PCOD9409288
Probable space group: P N N A
;
_chemical_formula_sum "Si O2"
_cell_formula_units_Z 40
_cell_length_a 16.237241
_cell_length_b 21.026472
_cell_length_c 6.135478
_cell_angle_alpha 90.000000
_cell_angle_beta 90.000000
_cell_angle_gamma 90.000000
_cell_volume 2094.725160
_symmetry_space_group_name_H-M "P N N A"
_symmetry_group_IT_number 52
_symmetry_cell_setting 'orthorhombic'
loop_
_space_group_symop_operation_xyz
x,y,z
1/2-x,-y,z
x,1/2-y,1/2-z
1/2-x,1/2+y,1/2-z
-x,-y,-z
1/2+x,y,-z
-x,1/2+y,1/2+z
1/2+x,1/2-y,1/2+z
loop_
_atom_site_type_symbol
_atom_site_label
_atom_site_fract_x
_atom_site_fract_y
_atom_site_fract_z
Si Si1 0.334788 0.200989 0.556400
Si Si2 0.540157 0.040572 0.195369
Si Si3 0.806793 0.750000 0.750000
Si Si4 0.438733 0.654379 0.421851
Si Si5 0.528582 0.750000 0.750000
Si Si6 0.429630 0.086188 0.591746
O O1 0.352131 0.250000 0.750000
O O2 0.252375 0.225710 0.443098
O O3 0.409939 0.206565 0.387296
O O4 0.345984 0.127199 0.613391
O O5 0.473733 0.073661 0.357623
O O6 0.586012 0.985857 0.328409
O O7 0.588967 0.096975 0.078609
O O8 0.500000 0.000000 0.000000
O O9 0.864493 0.690687 0.691911
O O10 0.478729 0.707651 0.579316
O O11 0.504288 0.623993 0.249211
#
# Coordination Sequence:
#
# PCOD9409288 Si02
#       6
#     8   8   4   8   4   8
#     4  11  22  39  58  90 123 160 202 257 315 383
#     4   9  20  34  64  92 115 151 209 265 303 361
#     4  11  28  34  56  93 132 166 192 257 332 380
#     4  11  21  38  59  95 120 154 210 264 313 369
#     4  11  20  34  64  91 112 154 208 263 308 364
#     4  10  19  38  65  90 115 159 213 258 308 366
#
# _framework density 19.095585
#
# number of rings (size 3 to 8) (size 9 to 14) (size 15 to 20)
#    0.000    1.600    4.000    1.200    1.400    0.000 
#    0.000    0.000    0.000   28.800    0.000    0.000 
#    0.000    0.000    0.000    0.000    0.000    0.000 
#
# Total GULP energy -222784.256653 kJ/mol
# GULP energy per Si atom -5569.606416 kJ/mol
# Density = 1.905212 g / cm^3
# Si number density = 19.095585 Si / 1000 Ang^3
#
#
#
# Elastic Constant Matrix: (Units=GPa)
#
#
# Indices 1 2 3 4 5 6 
#
# 1 44.7310 31.3909 15.7528 0.0000 0.0000 0.0000
# 2 31.3909 126.0560 24.4335 0.0000 0.0000 0.0000
# 3 15.7528 24.4335 80.5937 0.0000 0.0000 0.0000
# 4 0.0000 0.0000 0.0000 49.2513 0.0000 0.0000
# 5 0.0000 0.0000 0.0000 0.0000 10.1726 0.0000
# 6 0.0000 0.0000 0.0000 0.0000 0.0000 2.8723
#
#
#
# Elastic Compliance Matrix: (Units=1/GPa)
#
#
# Indices 1 2 3 4 5 6 
#
# 1 0.028026 -0.006287 -0.003572 0.000000 0.000000 0.000000
# 2 -0.006287 0.009838 -0.001754 0.000000 0.000000 0.000000
# 3 -0.003572 -0.001754 0.013638 0.000000 0.000000 0.000000
# 4 0.000000 0.000000 0.000000 0.020304 0.000000 0.000000
# 5 0.000000 0.000000 0.000000 0.000000 0.098304 0.000000
# 6 0.000000 0.000000 0.000000 0.000000 0.000000 0.348149
#
#
# Mechanical properties :
#
#
# Convention : Reuss Voigt Hill
#
# Bulk Modulus (GPa) = 35.36468 43.83723 39.60096
# Shear Modulus (GPa) = 9.07590 24.44614 16.76102
#
# Velocity S-wave (km/s) = 2.18247 3.58187 2.96589
# Velocity P-wave (km/s) = 4.99109 6.33348 5.70192
#
# Compressibility (1/GPa) = 0.02827680
#
# Stress axis : x y z
#
# Youngs Moduli (GPa) = 35.68166 101.64171 73.32545
#
# Poissons Ratio (x) = 0.63899 0.26191
# Poissons Ratio (y) = 0.22432 0.12861
# Poissons Ratio (z) = 0.12745 0.17827
#
# Static dielectric constant tensor:
#      x y z
#    x 1.627250 0.000000 0.000000 
#    y 0.000000 2.722420 0.000000 
#    z 0.000000 0.000000 1.770780 
# 
# From -- ./inp_files/2316.got.cif
#   From: 2010.05.17/outbox.cif.g08.bks.cpg/sg52_2_cif.got.tgz:2316.got - 2010.06.03 12:15:38.
