data_PCOD9409789
_publ_section_title
;
Structure prediction by ZEFSAII (Michael W. Deem and Ramdas Pophale) SiO2 
 PCOD9409789
Probable space group: P N N A
;
_chemical_formula_sum "Si O2"
_cell_formula_units_Z 40
_cell_length_a 5.901340
_cell_length_b 11.589052
_cell_length_c 30.892901
_cell_angle_alpha 90.000000
_cell_angle_beta 90.000000
_cell_angle_gamma 90.000000
_cell_volume 2112.794419
_symmetry_space_group_name_H-M "P N N A"
_symmetry_group_IT_number 52
_symmetry_cell_setting 'orthorhombic'
loop_
_space_group_symop_operation_xyz
x,y,z
1/2-x,-y,z
x,1/2-y,1/2-z
1/2-x,1/2+y,1/2-z
-x,-y,-z
1/2+x,y,-z
-x,1/2+y,1/2+z
1/2+x,1/2-y,1/2+z
loop_
_atom_site_type_symbol
_atom_site_label
_atom_site_fract_x
_atom_site_fract_y
_atom_site_fract_z
Si Si1 0.283579 0.634749 0.825759
Si Si2 0.595347 0.180544 0.817949
Si Si3 0.495052 0.134750 0.015509
Si Si4 0.543815 0.750000 0.750000
Si Si5 0.035762 0.681877 0.382834
Si Si6 0.250000 0.500000 0.671240
O O1 0.250000 0.500000 0.833036
O O2 0.402176 0.663722 0.779902
O O3 0.434500 0.697878 0.863299
O O4 0.045649 0.701998 0.821857
O O5 0.795741 0.185712 0.783794
O O6 0.710981 0.162610 0.864616
O O7 0.425900 0.079810 0.804063
O O8 0.481321 0.158467 0.066680
O O9 0.247901 0.179931 0.998276
O O10 0.500000 0.000000 0.000000
O O11 0.884896 0.587300 0.358827
#
# Coordination Sequence:
#
# PCOD9409789 Si02
#       6
#     8   8   8   4   8   4
#     4  10  23  45  64  87 123 171 222 271 319 394
#     4  10  22  40  59  89 127 162 218 266 328 394
#     4  10  22  35  61  98 138 171 205 269 329 404
#     4  10  22  44  56  96 116 164 214 276 334 370
#     4  10  22  38  63  93 127 175 211 259 329 393
#     4  10  20  36  60  88 126 164 210 260 322 400
#
# _framework density 18.932271
#
# number of rings (size 3 to 8) (size 9 to 14) (size 15 to 20)
#    0.000    2.000    0.000    2.400   11.200    3.200 
#   43.200    0.000    0.000    1.200    0.000    0.000 
#    0.000    0.000    0.000    0.000    0.000    0.000 
#
# Total GULP energy -223054.962884 kJ/mol
# GULP energy per Si atom -5576.374072 kJ/mol
# Density = 1.888918 g / cm^3
# Si number density = 18.932271 Si / 1000 Ang^3
#
#
#
# Elastic Constant Matrix: (Units=GPa)
#
#
# Indices 1 2 3 4 5 6 
#
# 1 123.4582 35.7895 36.8009 0.0000 0.0000 0.0000
# 2 35.7895 125.8342 30.6682 0.0000 0.0000 0.0000
# 3 36.8009 30.6682 115.9122 0.0000 0.0000 0.0000
# 4 0.0000 0.0000 0.0000 16.7232 0.0000 0.0000
# 5 0.0000 0.0000 0.0000 0.0000 -38.4729 0.0000
# 6 0.0000 0.0000 0.0000 0.0000 0.0000 1.9257
#
#
#
# Elastic Compliance Matrix: (Units=1/GPa)
#
#
# Indices 1 2 3 4 5 6 
#
# 1 0.009433 -0.002088 -0.002443 0.000000 0.000000 0.000000
# 2 -0.002088 0.008957 -0.001707 0.000000 0.000000 0.000000
# 3 -0.002443 -0.001707 0.009854 0.000000 0.000000 0.000000
# 4 0.000000 0.000000 0.000000 0.059797 0.000000 0.000000
# 5 0.000000 0.000000 0.000000 0.000000 -0.025992 0.000000
# 6 0.000000 0.000000 0.000000 0.000000 0.000000 0.519294
#
#
# Mechanical properties :
#
#
# Convention : Reuss Voigt Hill
#
# Bulk Modulus (GPa) = 63.41214 63.52464 63.46839
# Shear Modulus (GPa) = 8.34621 13.49826 10.92223
#
# Velocity S-wave (km/s) = 2.10191 2.67306 2.40450
# Velocity P-wave (km/s) = 6.28153 6.56913 6.42694
#
# Compressibility (1/GPa) = 0.01576985
#
# Stress axis : x y z
#
# Youngs Moduli (GPa) = 106.00856 111.64760 101.47805
#
# Poissons Ratio (x) = 0.23308 0.24787
# Poissons Ratio (y) = 0.22131 0.17322
# Poissons Ratio (z) = 0.25894 0.19058
#
# Static dielectric constant tensor:
#      x y z
#    x 1.729220 0.000000 0.000000 
#    y 0.000000 1.660720 0.000000 
#    z 0.000000 0.000000 1.389700 
# 
# From -- ./inp_files/41516.got.cif
#   From: 2010.05.17/outbox.cif.g08.bks.cpg/sg52_21_cif.got.tgz:41516.got - 2010.06.03 12:15:38.
