data_PCOD9409329
_publ_section_title
;
Structure prediction by ZEFSAII (Michael W. Deem and Ramdas Pophale) SiO2 
 PCOD9409329
Probable space group: P N N A
;
_chemical_formula_sum "Si O2"
_cell_formula_units_Z 40
_cell_length_a 17.112835
_cell_length_b 9.939836
_cell_length_c 11.824773
_cell_angle_alpha 90.000000
_cell_angle_beta 90.000000
_cell_angle_gamma 90.000000
_cell_volume 2011.379383
_symmetry_space_group_name_H-M "P N N A"
_symmetry_group_IT_number 52
_symmetry_cell_setting 'orthorhombic'
loop_
_space_group_symop_operation_xyz
x,y,z
1/2-x,-y,z
x,1/2-y,1/2-z
1/2-x,1/2+y,1/2-z
-x,-y,-z
1/2+x,y,-z
-x,1/2+y,1/2+z
1/2+x,1/2-y,1/2+z
loop_
_atom_site_type_symbol
_atom_site_label
_atom_site_fract_x
_atom_site_fract_y
_atom_site_fract_z
Si Si1 0.655963 0.526439 0.484698
Si Si2 0.829855 0.217278 0.624344
Si Si3 0.357035 0.765262 0.119838
Si Si4 0.407875 0.512366 0.991407
Si Si5 0.169629 0.914076 0.738479
O O1 0.750000 0.500000 0.480479
O O2 0.639874 0.670699 0.538279
O O3 0.626841 0.412597 0.569916
O O4 0.630564 0.532770 0.354580
O O5 0.856877 0.250000 0.750000
O O6 0.735972 0.232832 0.623296
O O7 0.860426 0.074746 0.583745
O O8 0.385419 0.750000 0.250000
O O9 0.389114 0.664362 0.025490
O O10 0.379204 0.455772 0.871236
O O11 0.500000 0.500000 0.000000
O O12 0.181603 0.750000 0.750000
O O13 0.250000 0.000000 0.726907
#
# Coordination Sequence:
#
# PCOD9409329 Si02
#       5
#     8   8   8   8   8
#     4   9  19  35  63  98 120 148 208 273 322 357
#     4  10  19  39  66  92 119 159 215 271 311 364
#     4  10  21  40  68  93 121 161 218 272 315 365
#     4  12  26  41  59  91 135 175 204 250 321 396
#     4  11  23  41  69  98 127 162 216 275 320 373
#
# _framework density 19.886849999999999
#
# number of rings (size 3 to 8) (size 9 to 14) (size 15 to 20)
#    0.000    1.600    2.000    3.000    5.600    4.000 
#    3.600    1.000    0.000    0.000    0.000    0.000 
#    0.000    0.000    0.000    0.000    0.000    0.000 
#
# Total GULP energy -223130.885455 kJ/mol
# GULP energy per Si atom -5578.272136 kJ/mol
# Density = 1.984159 g / cm^3
# Si number density = 19.886850 Si / 1000 Ang^3
#
#
#
# Elastic Constant Matrix: (Units=GPa)
#
#
# Indices 1 2 3 4 5 6 
#
# 1 29.5628 5.9676 23.9632 0.0000 0.0000 0.0000
# 2 5.9676 65.5876 3.4939 0.0000 0.0000 0.0000
# 3 23.9632 3.4939 143.4555 0.0000 0.0000 0.0000
# 4 0.0000 0.0000 0.0000 35.1383 0.0000 0.0000
# 5 0.0000 0.0000 0.0000 0.0000 186.5619 0.0000
# 6 0.0000 0.0000 0.0000 0.0000 0.0000 -8.6857
#
#
#
# Elastic Compliance Matrix: (Units=1/GPa)
#
#
# Indices 1 2 3 4 5 6 
#
# 1 0.039813 -0.003272 -0.006571 0.000000 0.000000 0.000000
# 2 -0.003272 0.015536 0.000168 0.000000 0.000000 0.000000
# 3 -0.006571 0.000168 0.008064 0.000000 0.000000 0.000000
# 4 0.000000 0.000000 0.000000 0.028459 0.000000 0.000000
# 5 0.000000 0.000000 0.000000 0.000000 0.005360 0.000000
# 6 0.000000 0.000000 0.000000 0.000000 0.000000 -0.115132
#
#
# Mechanical properties :
#
#
# Convention : Reuss Voigt Hill
#
# Bulk Modulus (GPa) = 22.69479 33.93948 28.31714
# Shear Modulus (GPa) = 309.83662 56.28164 183.05913
#
# Velocity S-wave (km/s) = 12.49552 5.32563 9.60470
# Velocity P-wave (km/s) = 14.81961 7.41079 11.71624
#
# Compressibility (1/GPa) = 0.04406298
#
# Stress axis : x y z
#
# Youngs Moduli (GPa) = 25.11742 64.36842 124.00326
#
# Poissons Ratio (x) = 0.21064 0.81480
# Poissons Ratio (y) = 0.08220 -0.02086
# Poissons Ratio (z) = 0.16504 -0.01083
#
# Static dielectric constant tensor:
#      x y z
#    x 1.730450 0.000000 0.000000 
#    y 0.000000 1.491650 0.000000 
#    z 0.000000 0.000000 1.822360 
# 
# From -- ./inp_files/20287.got.cif
#   From: 2010.05.17/outbox.cif.g08.bks.cpg/sg52_11_cif.got.tgz:20287.got - 2010.06.03 12:15:38.
