data_PCOD9409493
_publ_section_title
;
Structure prediction by ZEFSAII (Michael W. Deem and Ramdas Pophale) SiO2 
 PCOD9409493
Probable space group: P N N A
;
_chemical_formula_sum "Si O2"
_cell_formula_units_Z 64
_cell_length_a 25.771693
_cell_length_b 8.312277
_cell_length_c 14.860611
_cell_angle_alpha 90.000000
_cell_angle_beta 90.000000
_cell_angle_gamma 90.000000
_cell_volume 3183.461651
_symmetry_space_group_name_H-M "P N N A"
_symmetry_group_IT_number 52
_symmetry_cell_setting 'orthorhombic'
loop_
_space_group_symop_operation_xyz
x,y,z
1/2-x,-y,z
x,1/2-y,1/2-z
1/2-x,1/2+y,1/2-z
-x,-y,-z
1/2+x,y,-z
-x,1/2+y,1/2+z
1/2+x,1/2-y,1/2+z
loop_
_atom_site_type_symbol
_atom_site_label
_atom_site_fract_x
_atom_site_fract_y
_atom_site_fract_z
Si Si1 0.792002 0.858682 0.836658
Si Si2 0.808233 0.834626 0.476625
Si Si3 0.347630 0.187471 0.505469
Si Si4 0.225526 0.680358 0.650469
Si Si5 0.886363 0.440924 0.620544
Si Si6 0.584291 0.193779 0.018787
Si Si7 0.509587 0.778607 0.843658
Si Si8 0.554408 0.988399 0.548109
O O1 0.780581 0.750000 0.750000
O O2 0.750000 0.000000 0.846114
O O3 0.848287 0.943355 0.825399
O O4 0.794782 0.759236 0.930564
O O5 0.767345 0.791624 0.400394
O O6 0.863167 0.765407 0.439224
O O7 0.814324 0.023249 0.498559
O O8 0.324782 0.297259 0.585416
O O9 0.352188 0.288037 0.412809
O O10 0.405851 0.115254 0.512802
O O11 0.250000 0.500000 0.652515
O O12 0.215560 0.750000 0.750000
O O13 0.901907 0.527772 0.527255
O O14 0.942202 0.400826 0.661781
O O15 0.533818 0.184151 0.081667
O O16 0.574143 0.330654 0.942395
O O17 0.481725 0.750000 0.750000
O O18 0.540973 0.615435 0.866041
O O19 0.500000 0.000000 0.500000
#
# Coordination Sequence:
#
# PCOD9409493 Si02
#       8
#     8   8   8   8   8   8   8   8
#     4  11  25  41  60  89 121 157 202 249 301 368
#     4  10  21  40  63  85 119 162 198 249 308 361
#     4  10  20  37  61  86 115 157 203 249 305 368
#     4  12  24  39  60  89 123 161 205 251 302 366
#     4  10  21  37  59  83 114 156 196 242 304 368
#     4   9  18  36  58  80 111 155 197 237 298 369
#     4  10  20  33  55  86 115 146 195 252 300 358
#     4   8  17  35  57  78 110 152 192 239 304 364
#
# _framework density 20.103901
#
# number of rings (size 3 to 8) (size 9 to 14) (size 15 to 20)
#    0.000    2.000    0.000    4.125    0.000    7.000 
#    0.000    5.000    0.000    0.000    0.000    0.875 
#    0.000    0.000    0.000    0.000    0.000    0.000 
#
# Total GULP energy -356495.185406 kJ/mol
# GULP energy per Si atom -5570.237272 kJ/mol
# Density = 2.005814 g / cm^3
# Si number density = 20.103901 Si / 1000 Ang^3
#
#
#
# Elastic Constant Matrix: (Units=GPa)
#
#
# Indices 1 2 3 4 5 6 
#
# 1 91.2402 26.7092 27.4402 0.0000 0.0000 0.0000
# 2 26.7092 83.7908 18.0943 0.0000 0.0000 0.0000
# 3 27.4402 18.0943 60.7396 0.0000 0.0000 0.0000
# 4 0.0000 0.0000 0.0000 11.6322 0.0000 0.0000
# 5 0.0000 0.0000 0.0000 0.0000 13.1858 0.0000
# 6 0.0000 0.0000 0.0000 0.0000 0.0000 30.3324
#
#
#
# Elastic Compliance Matrix: (Units=1/GPa)
#
#
# Indices 1 2 3 4 5 6 
#
# 1 0.013430 -0.003175 -0.005121 0.000000 0.000000 0.000000
# 2 -0.003175 0.013506 -0.002589 0.000000 0.000000 0.000000
# 3 -0.005121 -0.002589 0.019549 0.000000 0.000000 0.000000
# 4 0.000000 0.000000 0.000000 0.085968 0.000000 0.000000
# 5 0.000000 0.000000 0.000000 0.000000 0.075839 0.000000
# 6 0.000000 0.000000 0.000000 0.000000 0.000000 0.032968
#
#
# Mechanical properties :
#
#
# Convention : Reuss Voigt Hill
#
# Bulk Modulus (GPa) = 40.46372 42.25089 41.35731
# Shear Modulus (GPa) = 18.43199 21.93189 20.18194
#
# Velocity S-wave (km/s) = 3.03122 3.30650 3.17185
# Velocity P-wave (km/s) = 5.69403 5.96985 5.83357
#
# Compressibility (1/GPa) = 0.02471350
#
# Stress axis : x y z
#
# Youngs Moduli (GPa) = 74.46177 74.04330 51.15454
#
# Poissons Ratio (x) = 0.23508 0.26198
# Poissons Ratio (y) = 0.23641 0.13244
# Poissons Ratio (z) = 0.38134 0.19170
#
# Static dielectric constant tensor:
#      x y z
#    x 1.757340 0.000000 0.000000 
#    y 0.000000 1.776380 0.000000 
#    z 0.000000 0.000000 1.691280 
# 
# From -- ./inp_files/29768.got.cif
#   From: 2010.05.17/outbox.cif.g08.bks.cpg/sg52_15_cif.got.tgz:29768.got - 2010.06.03 12:15:38.
