data_PCOD9409960
_publ_section_title
;
Structure prediction by ZEFSAII (Michael W. Deem and Ramdas Pophale) SiO2 
 PCOD9409960
Probable space group: P N N A
;
_chemical_formula_sum "Si O2"
_cell_formula_units_Z 48
_cell_length_a 29.255222
_cell_length_b 10.088534
_cell_length_c 8.816753
_cell_angle_alpha 90.000000
_cell_angle_beta 90.000000
_cell_angle_gamma 90.000000
_cell_volume 2602.196775
_symmetry_space_group_name_H-M "P N N A"
_symmetry_group_IT_number 52
_symmetry_cell_setting 'orthorhombic'
loop_
_space_group_symop_operation_xyz
x,y,z
1/2-x,-y,z
x,1/2-y,1/2-z
1/2-x,1/2+y,1/2-z
-x,-y,-z
1/2+x,y,-z
-x,1/2+y,1/2+z
1/2+x,1/2-y,1/2+z
loop_
_atom_site_type_symbol
_atom_site_label
_atom_site_fract_x
_atom_site_fract_y
_atom_site_fract_z
Si Si1 0.391331 0.267660 0.069867
Si Si2 0.103042 0.258042 0.566547
Si Si3 0.451179 0.520581 0.076208
Si Si4 0.698900 0.157015 0.399310
Si Si5 0.699308 0.659146 0.100185
Si Si6 0.551744 0.992436 0.939754
O O1 0.386666 0.250000 0.250000
O O2 0.417801 0.401619 0.029721
O O3 0.424061 0.146884 0.022686
O O4 0.341287 0.281846 0.999897
O O5 0.100702 0.250000 0.750000
O O6 0.069162 0.154999 0.488603
O O7 0.154345 0.215274 0.517814
O O8 0.085300 0.399489 0.512893
O O9 0.451960 0.515771 0.258753
O O10 0.500000 0.500000 0.000000
O O11 0.701155 0.250000 0.250000
O O12 0.749539 0.168326 0.470012
O O13 0.691664 0.999084 0.367690
O O14 0.699293 0.750000 0.250000
O O15 0.500000 0.000000 0.000000
#
# Coordination Sequence:
#
# PCOD9409960 Si02
#       6
#     8   8   8   8   8   8
#     4  10  23  40  58  85 121 155 193 246 302 355
#     4  11  22  38  60  88 121 156 197 248 300 355
#     4  11  22  40  62  85 117 157 200 250 303 358
#     4   9  20  37  60  92 123 152 198 252 297 347
#     4  10  20  37  65  89 118 158 203 245 297 356
#     4  11  24  40  60  88 121 157 201 248 299 362
#
# _framework density 18.445951999999998
#
# number of rings (size 3 to 8) (size 9 to 14) (size 15 to 20)
#    0.000    1.667    1.667    2.500    4.667    2.667 
#    0.000    1.667    0.000    0.000    0.000    0.000 
#    0.000    0.000    0.000    0.000    0.000    0.000 
#
# Total GULP energy -267635.373969 kJ/mol
# GULP energy per Si atom -5575.736958 kJ/mol
# Density = 1.840397 g / cm^3
# Si number density = 18.445952 Si / 1000 Ang^3
#
#
#
# Elastic Constant Matrix: (Units=GPa)
#
#
# Indices 1 2 3 4 5 6 
#
# 1 127.6920 2.9500 18.1642 0.0000 0.0000 0.0000
# 2 2.9500 63.3586 7.9519 0.0000 0.0000 0.0000
# 3 18.1642 7.9519 28.9583 0.0000 0.0000 0.0000
# 4 0.0000 0.0000 0.0000 23.5818 0.0000 0.0000
# 5 0.0000 0.0000 0.0000 0.0000 -35.3787 0.0000
# 6 0.0000 0.0000 0.0000 0.0000 0.0000 30.8830
#
#
#
# Elastic Compliance Matrix: (Units=1/GPa)
#
#
# Indices 1 2 3 4 5 6 
#
# 1 0.008604 0.000287 -0.005475 0.000000 0.000000 0.000000
# 2 0.000287 0.016356 -0.004671 0.000000 0.000000 0.000000
# 3 -0.005475 -0.004671 0.039250 0.000000 0.000000 0.000000
# 4 0.000000 0.000000 0.000000 0.042406 0.000000 0.000000
# 5 0.000000 0.000000 0.000000 0.000000 -0.028266 0.000000
# 6 0.000000 0.000000 0.000000 0.000000 0.000000 0.032380
#
#
# Mechanical properties :
#
#
# Convention : Reuss Voigt Hill
#
# Bulk Modulus (GPa) = 22.47723 30.90458 26.69090
# Shear Modulus (GPa) = 34.41650 16.54673 25.48162
#
# Velocity S-wave (km/s) = 4.32418 2.99831 3.72078
# Velocity P-wave (km/s) = 6.09453 5.36442 5.74109
#
# Compressibility (1/GPa) = 0.04448948
#
# Stress axis : x y z
#
# Youngs Moduli (GPa) = 116.23047 61.13928 25.47796
#
# Poissons Ratio (x) = -0.01752 0.13950
# Poissons Ratio (y) = -0.03331 0.11901
# Poissons Ratio (z) = 0.63640 0.28559
#
# Static dielectric constant tensor:
#      x y z
#    x 1.653740 0.000000 0.000000 
#    y 0.000000 1.637450 0.000000 
#    z 0.000000 0.000000 1.604810 
# 
# From -- ./inp_files/15506.got.cif
#   From: 2010.05.17/outbox.cif.g08.bks.cpg/sg52_8_cif.got.tgz:15506.got - 2010.06.03 12:15:38.
