data_PCOD9409551
_publ_section_title
;
Structure prediction by ZEFSAII (Michael W. Deem and Ramdas Pophale) SiO2 
 PCOD9409551
Probable space group: P N N A
;
_chemical_formula_sum "Si O2"
_cell_formula_units_Z 48
_cell_length_a 17.738664
_cell_length_b 16.268482
_cell_length_c 9.322524
_cell_angle_alpha 90.000000
_cell_angle_beta 90.000000
_cell_angle_gamma 90.000000
_cell_volume 2690.304566
_symmetry_space_group_name_H-M "P N N A"
_symmetry_group_IT_number 52
_symmetry_cell_setting 'orthorhombic'
loop_
_space_group_symop_operation_xyz
x,y,z
1/2-x,-y,z
x,1/2-y,1/2-z
1/2-x,1/2+y,1/2-z
-x,-y,-z
1/2+x,y,-z
-x,1/2+y,1/2+z
1/2+x,1/2-y,1/2+z
loop_
_atom_site_type_symbol
_atom_site_label
_atom_site_fract_x
_atom_site_fract_y
_atom_site_fract_z
Si Si1 0.026774 0.080319 0.582638
Si Si2 0.708021 0.414864 0.081412
Si Si3 0.730846 0.731849 0.917676
Si Si4 0.980668 0.583900 0.416679
Si Si5 0.671843 0.326040 0.350481
Si Si6 0.555027 0.747317 0.923699
O O1 0.117441 0.081765 0.574899
O O2 0.000978 0.071715 0.748260
O O3 0.992232 0.167126 0.528336
O O4 0.000000 0.000000 0.500000
O O5 0.750000 0.500000 0.074524
O O6 0.723542 0.373439 0.236222
O O7 0.739228 0.358035 0.955902
O O8 0.738931 0.750000 0.750000
O O9 0.642929 0.737855 0.957969
O O10 0.780708 0.790314 0.018873
O O11 0.893837 0.615107 0.409280
O O12 0.000000 0.500000 0.500000
O O13 0.024632 0.664288 0.475004
O O14 0.640032 0.250000 0.250000
O O15 0.548300 0.750000 0.750000
#
# Coordination Sequence:
#
# PCOD9409551 Si02
#       6
#     8   8   8   8   8   8
#     4  10  20  36  57  78 105 142 178 215 262 318
#     4  10  20  35  55  79 109 142 177 219 269 325
#     4  10  20  34  55  79 104 138 178 222 269 316
#     4  10  20  35  55  78 105 139 177 217 264 317
#     4   9  19  37  56  74 105 146 178 214 270 326
#     4   9  18  35  54  74 105 141 173 211 265 318
#
# _framework density 17.841846
#
# number of rings (size 3 to 8) (size 9 to 14) (size 15 to 20)
#    0.000    2.333    0.000    4.500    0.000    4.000 
#    0.000    3.333    0.000    0.000    0.000    0.000 
#    0.000    0.000    0.000    0.000    0.000    0.000 
#
# Total GULP energy -267541.893534 kJ/mol
# GULP energy per Si atom -5573.789449 kJ/mol
# Density = 1.780124 g / cm^3
# Si number density = 17.841846 Si / 1000 Ang^3
#
#
#
# Elastic Constant Matrix: (Units=GPa)
#
#
# Indices 1 2 3 4 5 6 
#
# 1 82.3720 64.4538 43.4792 0.0000 0.0000 0.0000
# 2 64.4538 184.0944 65.4848 0.0000 0.0000 0.0000
# 3 43.4792 65.4848 69.7727 0.0000 0.0000 0.0000
# 4 0.0000 0.0000 0.0000 31.8680 0.0000 0.0000
# 5 0.0000 0.0000 0.0000 0.0000 14.8842 0.0000
# 6 0.0000 0.0000 0.0000 0.0000 0.0000 34.2589
#
#
#
# Elastic Compliance Matrix: (Units=1/GPa)
#
#
# Indices 1 2 3 4 5 6 
#
# 1 0.019717 -0.003802 -0.008718 0.000000 0.000000 0.000000
# 2 -0.003802 0.008887 -0.005972 0.000000 0.000000 0.000000
# 3 -0.008718 -0.005972 0.025370 0.000000 0.000000 0.000000
# 4 0.000000 0.000000 0.000000 0.031379 0.000000 0.000000
# 5 0.000000 0.000000 0.000000 0.000000 0.067185 0.000000
# 6 0.000000 0.000000 0.000000 0.000000 0.000000 0.029189
#
#
# Mechanical properties :
#
#
# Convention : Reuss Voigt Hill
#
# Bulk Modulus (GPa) = 58.85899 75.89719 67.37809
# Shear Modulus (GPa) = 22.28395 27.05697 24.67046
#
# Velocity S-wave (km/s) = 3.53791 3.89844 3.72254
# Velocity P-wave (km/s) = 7.05337 7.93063 7.50483
#
# Compressibility (1/GPa) = 0.01698976
#
# Stress axis : x y z
#
# Youngs Moduli (GPa) = 50.71814 112.51839 39.41618
#
# Poissons Ratio (x) = 0.42778 0.34365
# Poissons Ratio (y) = 0.19282 0.23540
# Poissons Ratio (z) = 0.44218 0.67197
#
# Static dielectric constant tensor:
#      x y z
#    x 1.621470 0.000000 0.000000 
#    y 0.000000 1.328230 0.000000 
#    z 0.000000 0.000000 1.601730 
# 
# From -- ./inp_files/12034.got.cif
#   From: 2010.05.17/outbox.cif.g08.bks.cpg/sg52_7_cif.got.tgz:12034.got - 2010.06.03 12:15:38.
