data_PCOD9409656
_publ_section_title
;
Structure prediction by ZEFSAII (Michael W. Deem and Ramdas Pophale) SiO2 
 PCOD9409656
Probable space group: P N N A
;
_chemical_formula_sum "Si O2"
_cell_formula_units_Z 48
_cell_length_a 17.213763
_cell_length_b 19.998709
_cell_length_c 7.488570
_cell_angle_alpha 90.000000
_cell_angle_beta 90.000000
_cell_angle_gamma 90.000000
_cell_volume 2577.962966
_symmetry_space_group_name_H-M "P N N A"
_symmetry_group_IT_number 52
_symmetry_cell_setting 'orthorhombic'
loop_
_space_group_symop_operation_xyz
x,y,z
1/2-x,-y,z
x,1/2-y,1/2-z
1/2-x,1/2+y,1/2-z
-x,-y,-z
1/2+x,y,-z
-x,1/2+y,1/2+z
1/2+x,1/2-y,1/2+z
loop_
_atom_site_type_symbol
_atom_site_label
_atom_site_fract_x
_atom_site_fract_y
_atom_site_fract_z
Si Si1 0.609389 0.457565 0.603301
Si Si2 0.290494 0.824666 0.454453
Si Si3 0.334018 0.528845 0.014155
Si Si4 0.700139 0.325283 0.536150
Si Si5 0.068432 0.954928 0.773495
Si Si6 0.163647 0.674771 0.753896
O O1 0.659345 0.481308 0.772898
O O2 0.638503 0.385628 0.529442
O O3 0.522483 0.455031 0.683301
O O4 0.609999 0.508517 0.439819
O O5 0.338124 0.890687 0.508148
O O6 0.326696 0.751713 0.497903
O O7 0.274816 0.826765 0.243496
O O8 0.210894 0.831035 0.562198
O O9 0.250000 0.500000 0.953735
O O10 0.401626 0.493222 0.902725
O O11 0.771459 0.335684 0.400833
O O12 0.098200 0.879827 0.760940
O O13 0.133021 0.750000 0.750000
#
# Coordination Sequence:
#
# PCOD9409656 Si02
#       6
#     8   8   8   8   8   8
#     4  10  24  38  57  85 118 154 183 243 289 349
#     4   9  18  34  54  88 107 141 192 237 270 328
#     4  11  21  35  62  86 109 152 197 235 285 339
#     4   9  19  35  57  81 112 145 192 231 277 338
#     4  11  23  39  55  85 122 146 190 238 298 341
#     4  10  20  35  57  83 111 148 188 237 278 335
#
# _framework density 18.619351999999999
#
# number of rings (size 3 to 8) (size 9 to 14) (size 15 to 20)
#    0.000    2.000    1.667    1.500    4.667    0.000 
#    6.000    0.000    0.000    0.000   13.000    0.000 
#    0.000    0.000    0.000    0.000    0.000    0.000 
#
# Total GULP energy -267646.488736 kJ/mol
# GULP energy per Si atom -5575.968515 kJ/mol
# Density = 1.857697 g / cm^3
# Si number density = 18.619352 Si / 1000 Ang^3
#
#
#
# Elastic Constant Matrix: (Units=GPa)
#
#
# Indices 1 2 3 4 5 6 
#
# 1 32.6539 34.7379 12.9537 0.0000 0.0000 0.0000
# 2 34.7379 116.9711 40.6129 0.0000 0.0000 0.0000
# 3 12.9537 40.6129 44.1358 0.0000 0.0000 0.0000
# 4 0.0000 0.0000 0.0000 26.9886 0.0000 0.0000
# 5 0.0000 0.0000 0.0000 0.0000 19.6599 0.0000
# 6 0.0000 0.0000 0.0000 0.0000 0.0000 20.9895
#
#
#
# Elastic Compliance Matrix: (Units=1/GPa)
#
#
# Indices 1 2 3 4 5 6 
#
# 1 0.044821 -0.012848 -0.001332 0.000000 0.000000 0.000000
# 2 -0.012848 0.016246 -0.011178 0.000000 0.000000 0.000000
# 3 -0.001332 -0.011178 0.033334 0.000000 0.000000 0.000000
# 4 0.000000 0.000000 0.000000 0.037053 0.000000 0.000000
# 5 0.000000 0.000000 0.000000 0.000000 0.050865 0.000000
# 6 0.000000 0.000000 0.000000 0.000000 0.000000 0.047643
#
#
# Mechanical properties :
#
#
# Convention : Reuss Voigt Hill
#
# Bulk Modulus (GPa) = 22.89171 41.15219 32.02195
# Shear Modulus (GPa) = 16.93536 20.55801 18.74669
#
# Velocity S-wave (km/s) = 3.01916 3.32644 3.17651
# Velocity P-wave (km/s) = 4.94722 6.07482 5.53978
#
# Compressibility (1/GPa) = 0.04368394
#
# Stress axis : x y z
#
# Youngs Moduli (GPa) = 22.31101 61.55385 29.99913
#
# Poissons Ratio (x) = 0.79087 0.03996
# Poissons Ratio (y) = 0.28666 0.33534
# Poissons Ratio (z) = 0.02972 0.68806
#
# Static dielectric constant tensor:
#      x y z
#    x 1.609260 0.000000 0.000000 
#    y 0.000000 1.681300 0.000000 
#    z 0.000000 0.000000 1.654050 
# 
# From -- ./inp_files/10642.got.cif
#   From: 2010.05.17/outbox.cif.g08.bks.cpg/sg52_6_cif.got.tgz:10642.got - 2010.06.03 12:15:38.
