data_PCOD9409234
_publ_section_title
;
Structure prediction by ZEFSAII (Michael W. Deem and Ramdas Pophale) SiO2 
 PCOD9409234
Probable space group: P N N A
;
_chemical_formula_sum "Si O2"
_cell_formula_units_Z 48
_cell_length_a 28.751493
_cell_length_b 10.156808
_cell_length_c 8.635812
_cell_angle_alpha 90.000000
_cell_angle_beta 90.000000
_cell_angle_gamma 90.000000
_cell_volume 2521.859131
_symmetry_space_group_name_H-M "P N N A"
_symmetry_group_IT_number 52
_symmetry_cell_setting 'orthorhombic'
loop_
_space_group_symop_operation_xyz
x,y,z
1/2-x,-y,z
x,1/2-y,1/2-z
1/2-x,1/2+y,1/2-z
-x,-y,-z
1/2+x,y,-z
-x,1/2+y,1/2+z
1/2+x,1/2-y,1/2+z
loop_
_atom_site_type_symbol
_atom_site_label
_atom_site_fract_x
_atom_site_fract_y
_atom_site_fract_z
Si Si1 0.452829 0.152615 0.392670
Si Si2 0.803698 0.505825 0.947632
Si Si3 0.140117 0.732627 0.930647
Si Si4 0.805202 0.022125 0.924702
Si Si5 0.455569 0.844073 0.397571
Si Si6 0.859455 0.760535 0.937564
O O1 0.461453 0.250000 0.250000
O O2 0.408113 0.212456 0.479118
O O3 0.498177 0.154320 0.500727
O O4 0.443996 0.996999 0.353432
O O5 0.750000 0.500000 0.984667
O O6 0.808816 0.474501 0.763373
O O7 0.823647 0.648403 0.984349
O O8 0.831654 0.400277 0.043313
O O9 0.131022 0.750000 0.750000
O O10 0.172052 0.848285 0.002230
O O11 0.750000 0.000000 0.959634
O O12 0.837563 0.900404 0.978079
O O13 0.463514 0.750000 0.250000
O O14 0.411324 0.780443 0.486911
O O15 0.861682 0.750000 0.750000
#
# Coordination Sequence:
#
# PCOD9409234 Si02
#       6
#     8   8   8   8   8   8
#     4  11  24  43  67  92 124 165 209 255 315 379
#     4  10  19  37  65  91 120 159 209 257 307 366
#     4  12  25  40  59  91 130 169 206 255 311 367
#     4  10  21  39  65  94 122 161 214 257 307 373
#     4  10  22  42  64  95 128 154 205 263 318 374
#     4   9  18  35  60  91 120 156 196 257 310 360
#
# _framework density 19.033577999999999
#
# number of rings (size 3 to 8) (size 9 to 14) (size 15 to 20)
#    0.000    1.667    1.667    3.000    4.667    4.000 
#    6.000    0.833    0.000    0.000    0.000    0.000 
#    0.000    0.000    0.000    0.000    0.000    0.000 
#
# Total GULP energy -267936.344620 kJ/mol
# GULP energy per Si atom -5582.007180 kJ/mol
# Density = 1.899026 g / cm^3
# Si number density = 19.033578 Si / 1000 Ang^3
#
#
#
# Elastic Constant Matrix: (Units=GPa)
#
#
# Indices 1 2 3 4 5 6 
#
# 1 110.4648 19.9707 17.1439 0.0000 0.0000 0.0000
# 2 19.9707 63.4526 14.3895 0.0000 0.0000 0.0000
# 3 17.1439 14.3895 39.7738 0.0000 0.0000 0.0000
# 4 0.0000 0.0000 0.0000 24.2709 0.0000 0.0000
# 5 0.0000 0.0000 0.0000 0.0000 10.8401 0.0000
# 6 0.0000 0.0000 0.0000 0.0000 0.0000 36.2429
#
#
#
# Elastic Compliance Matrix: (Units=1/GPa)
#
#
# Indices 1 2 3 4 5 6 
#
# 1 0.010018 -0.002368 -0.003461 0.000000 0.000000 0.000000
# 2 -0.002368 0.017728 -0.005393 0.000000 0.000000 0.000000
# 3 -0.003461 -0.005393 0.028585 0.000000 0.000000 0.000000
# 4 0.000000 0.000000 0.000000 0.041202 0.000000 0.000000
# 5 0.000000 0.000000 0.000000 0.000000 0.092250 0.000000
# 6 0.000000 0.000000 0.000000 0.000000 0.000000 0.027592
#
#
# Mechanical properties :
#
#
# Convention : Reuss Voigt Hill
#
# Bulk Modulus (GPa) = 29.51033 35.18882 32.34958
# Shear Modulus (GPa) = 19.91117 25.08325 22.49721
#
# Velocity S-wave (km/s) = 3.23787 3.63415 3.44172
# Velocity P-wave (km/s) = 5.43290 6.01143 5.72947
#
# Compressibility (1/GPa) = 0.03388644
#
# Stress axis : x y z
#
# Youngs Moduli (GPa) = 99.82072 56.40760 34.98305
#
# Poissons Ratio (x) = 0.13358 0.12109
# Poissons Ratio (y) = 0.23638 0.18867
# Poissons Ratio (z) = 0.34552 0.30421
#
# Static dielectric constant tensor:
#      x y z
#    x 1.664440 0.000000 0.000000 
#    y 0.000000 1.645190 0.000000 
#    z 0.000000 0.000000 -1.135800 
# 
# From -- ./inp_files/15489.got.cif
#   From: 2010.05.17/outbox.cif.g08.bks.cpg/sg52_8_cif.got.tgz:15489.got - 2010.06.03 12:15:38.
