data_PCOD9409881
_publ_section_title
;
Structure prediction by ZEFSAII (Michael W. Deem and Ramdas Pophale) SiO2 
 PCOD9409881
Probable space group: P N N A
;
_chemical_formula_sum "Si O2"
_cell_formula_units_Z 64
_cell_length_a 8.885837
_cell_length_b 14.910492
_cell_length_c 22.938099
_cell_angle_alpha 90.000000
_cell_angle_beta 90.000000
_cell_angle_gamma 90.000000
_cell_volume 3039.119235
_symmetry_space_group_name_H-M "P N N A"
_symmetry_group_IT_number 52
_symmetry_cell_setting 'orthorhombic'
loop_
_space_group_symop_operation_xyz
x,y,z
1/2-x,-y,z
x,1/2-y,1/2-z
1/2-x,1/2+y,1/2-z
-x,-y,-z
1/2+x,y,-z
-x,1/2+y,1/2+z
1/2+x,1/2-y,1/2+z
loop_
_atom_site_type_symbol
_atom_site_label
_atom_site_fract_x
_atom_site_fract_y
_atom_site_fract_z
Si Si1 0.211369 0.601711 0.321287
Si Si2 0.197573 0.718451 0.620553
Si Si3 0.887704 0.649963 0.276543
Si Si4 0.807931 0.415730 0.173145
Si Si5 0.643056 0.246737 0.892602
Si Si6 0.875629 0.065619 0.526538
Si Si7 0.642046 0.310599 0.026356
Si Si8 0.346014 0.591421 0.198328
O O1 0.250000 0.500000 0.337599
O O2 0.239450 0.670747 0.373662
O O3 0.311156 0.625970 0.263797
O O4 0.042691 0.608876 0.297680
O O5 0.276920 0.659512 0.668928
O O6 0.204250 0.821326 0.642056
O O7 0.295664 0.725885 0.562070
O O8 0.020661 0.701841 0.617303
O O9 0.914918 0.750000 0.250000
O O10 0.804051 0.593622 0.227478
O O11 0.750000 0.500000 0.136908
O O12 0.978737 0.429538 0.191671
O O13 0.629912 0.282971 0.958352
O O14 0.679241 0.331000 0.849892
O O15 0.775551 0.116111 0.478403
O O16 0.987026 0.144786 0.551130
O O17 0.750000 0.000000 0.557401
O O18 0.000000 0.000000 0.500000
O O19 0.250000 0.500000 0.191190
#
# Coordination Sequence:
#
# PCOD9409881 Si02
#       8
#     8   8   8   8   8   8   8   8
#     4  11  23  40  64  90 117 151 206 265 318 370
#     4  10  23  39  58  88 118 164 204 246 307 365
#     4  10  21  38  63  88 116 156 201 251 313 374
#     4  10  20  37  58  86 125 158 196 245 297 364
#     4  11  23  40  61  87 124 166 205 257 309 364
#     4   9  20  36  56  82 119 164 208 245 286 355
#     4  11  21  40  57  87 124 168 206 247 302 364
#     4  10  21  38  59  92 125 160 201 247 305 373
#
# _framework density 21.058731999999999
#
# number of rings (size 3 to 8) (size 9 to 14) (size 15 to 20)
#    0.000    1.750    1.250    3.375    1.750    6.000 
#    2.250    0.000    0.000    3.750    0.000    0.000 
#    0.000    0.000    0.000    0.000    0.000    0.000 
#
# Total GULP energy -357162.629535 kJ/mol
# GULP energy per Si atom -5580.666086 kJ/mol
# Density = 2.101080 g / cm^3
# Si number density = 21.058732 Si / 1000 Ang^3
#
#
#
# Elastic Constant Matrix: (Units=GPa)
#
#
# Indices 1 2 3 4 5 6 
#
# 1 105.5369 26.1260 4.6887 0.0000 0.0000 0.0000
# 2 26.1260 68.7814 11.6692 0.0000 0.0000 0.0000
# 3 4.6887 11.6692 56.8611 0.0000 0.0000 0.0000
# 4 0.0000 0.0000 0.0000 52.7848 0.0000 0.0000
# 5 0.0000 0.0000 0.0000 0.0000 -1.8724 0.0000
# 6 0.0000 0.0000 0.0000 0.0000 0.0000 31.9296
#
#
#
# Elastic Compliance Matrix: (Units=1/GPa)
#
#
# Indices 1 2 3 4 5 6 
#
# 1 0.010459 -0.003964 -0.000049 0.000000 0.000000 0.000000
# 2 -0.003964 0.016566 -0.003073 0.000000 0.000000 0.000000
# 3 -0.000049 -0.003073 0.018221 0.000000 0.000000 0.000000
# 4 0.000000 0.000000 0.000000 0.018945 0.000000 0.000000
# 5 0.000000 0.000000 0.000000 0.000000 -0.534062 0.000000
# 6 0.000000 0.000000 0.000000 0.000000 0.000000 0.031319
#
#
# Mechanical properties :
#
#
# Convention : Reuss Voigt Hill
#
# Bulk Modulus (GPa) = 32.18117 35.12749 33.65433
# Shear Modulus (GPa) = -12.07666 29.14810 8.53572
#
# Velocity S-wave (km/s) = -2.39733 3.72443 2.01546
# Velocity P-wave (km/s) = 2.76620 5.93398 4.62947
#
# Compressibility (1/GPa) = 0.03107407
#
# Stress axis : x y z
#
# Youngs Moduli (GPa) = 95.61199 60.36459 54.88068
#
# Poissons Ratio (x) = 0.23931 0.00268
# Poissons Ratio (y) = 0.37905 0.16864
# Poissons Ratio (z) = 0.00467 0.18549
#
# Static dielectric constant tensor:
#      x y z
#    x 1.989580 0.000000 0.000000 
#    y 0.000000 1.764370 0.000000 
#    z 0.000000 0.000000 1.804650 
# 
# From -- ./inp_files/39654.got.cif
#   From: 2010.05.17/outbox.cif.g08.bks.cpg/sg52_20_cif.got.tgz:39654.got - 2010.06.03 12:15:38.
