data_PCOD9409535
_publ_section_title
;
Structure prediction by ZEFSAII (Michael W. Deem and Ramdas Pophale) SiO2 
 PCOD9409535
Probable space group: P N N A
;
_chemical_formula_sum "Si O2"
_cell_formula_units_Z 60
_cell_length_a 16.928962
_cell_length_b 5.820278
_cell_length_c 25.224989
_cell_angle_alpha 90.000000
_cell_angle_beta 90.000000
_cell_angle_gamma 90.000000
_cell_volume 2485.450078
_symmetry_space_group_name_H-M "P N N A"
_symmetry_group_IT_number 52
_symmetry_cell_setting 'orthorhombic'
loop_
_space_group_symop_operation_xyz
x,y,z
1/2-x,-y,z
x,1/2-y,1/2-z
1/2-x,1/2+y,1/2-z
-x,-y,-z
1/2+x,y,-z
-x,1/2+y,1/2+z
1/2+x,1/2-y,1/2+z
loop_
_atom_site_type_symbol
_atom_site_label
_atom_site_fract_x
_atom_site_fract_y
_atom_site_fract_z
Si Si1 0.886892 0.457186 0.895243
Si Si2 0.661293 0.276631 0.165367
Si Si3 0.148563 0.732533 0.666849
Si Si4 0.692360 0.178780 0.050105
Si Si5 0.845557 0.499779 0.773413
Si Si6 0.250000 0.500000 0.032518
Si Si7 0.463136 0.277356 0.932535
Si Si8 0.086510 0.908267 0.031461
O O1 0.870958 0.492329 0.834374
O O2 0.820001 0.582860 0.929614
O O3 0.871428 0.200296 0.917652
O O4 0.974509 0.540609 0.909956
O O5 0.756436 0.260073 0.172688
O O6 0.625018 0.512464 0.188681
O O7 0.629408 0.029207 0.184689
O O8 0.653238 0.301138 0.100511
O O9 0.106107 0.732758 0.609168
O O10 0.755213 0.300336 0.011163
O O11 0.750000 0.000000 0.078141
O O12 0.630013 0.077052 0.009169
O O13 0.750000 0.500000 0.769365
O O14 0.872176 0.750000 0.750000
O O15 0.872093 0.250000 0.750000
O O16 0.514238 0.045917 0.943027
O O17 0.432135 0.310299 0.992574
#
# Coordination Sequence:
#
# PCOD9409535 Si02
#       8
#     8   8   8   8   8   4   8   8
#     4  12  25  39  62  89 121 163 213 274 329 397
#     4  10  20  34  53  71  98 155 215 255 282 328
#     4  10  20  34  53  71 103 147 209 248 291 341
#     4  12  20  33  49  70 107 156 212 264 299 339
#     4  10  24  47  74  97 123 156 211 290 358 394
#     4  12  24  34  52  84 110 150 216 274 308 372
#     4  11  24  38  52  82 125 169 210 253 315 377
#     4  11  24  37  51  81 122 170 209 258 309 380
#
# _framework density 24.140495000000001
#
# number of rings (size 3 to 8) (size 9 to 14) (size 15 to 20)
#    0.000    1.067    6.000    1.200    5.600    0.000 
#    2.400    0.000    0.000    0.000    0.000    0.000 
#    0.000    0.000    0.000    9.600    3.467    4.800 
#
# Total GULP energy -334045.742002 kJ/mol
# GULP energy per Si atom -5567.429033 kJ/mol
# Density = 2.408555 g / cm^3
# Si number density = 24.140495 Si / 1000 Ang^3
#
#
#
# Elastic Constant Matrix: (Units=GPa)
#
#
# Indices 1 2 3 4 5 6 
#
# 1 41.7090 8.5640 -4.8068 0.0000 0.0000 0.0000
# 2 8.5640 149.3291 38.8617 0.0000 0.0000 0.0000
# 3 -4.8068 38.8617 103.7793 0.0000 0.0000 0.0000
# 4 0.0000 0.0000 0.0000 -24.4577 0.0000 0.0000
# 5 0.0000 0.0000 0.0000 0.0000 -1.5043 0.0000
# 6 0.0000 0.0000 0.0000 0.0000 0.0000 25.2611
#
#
#
# Elastic Compliance Matrix: (Units=1/GPa)
#
#
# Indices 1 2 3 4 5 6 
#
# 1 0.024576 -0.001890 0.001846 0.000000 0.000000 0.000000
# 2 -0.001890 0.007565 -0.002920 0.000000 0.000000 0.000000
# 3 0.001846 -0.002920 0.010815 0.000000 0.000000 0.000000
# 4 0.000000 0.000000 0.000000 -0.040887 0.000000 0.000000
# 5 0.000000 0.000000 0.000000 0.000000 -0.664746 0.000000
# 6 0.000000 0.000000 0.000000 0.000000 0.000000 0.039587
#
#
# Mechanical properties :
#
#
# Convention : Reuss Voigt Hill
#
# Bulk Modulus (GPa) = 27.00664 42.22835 34.61749
# Shear Modulus (GPa) = -8.26693 16.67305 4.20306
#
# Velocity S-wave (km/s) = -1.85255 2.63091 1.32093
# Velocity P-wave (km/s) = 2.57597 5.17297 4.08627
#
# Compressibility (1/GPa) = 0.03702793
#
# Stress axis : x y z
#
# Youngs Moduli (GPa) = 40.68938 132.18773 92.46499
#
# Poissons Ratio (x) = 0.24982 -0.17069
# Poissons Ratio (y) = 0.07690 0.27003
# Poissons Ratio (z) = -0.07511 0.38604
#
# Static dielectric constant tensor:
#      x y z
#    x 1.975160 0.000000 0.000000 
#    y 0.000000 2.186530 0.000000 
#    z 0.000000 0.000000 1.860120 
# 
# From -- ./inp_files/41056.got.cif
#   From: 2010.05.17/outbox.cif.g08.bks.cpg/sg52_21_cif.got.tgz:41056.got - 2010.06.03 12:15:38.
