data_PCOD9409985
_publ_section_title
;
Structure prediction by ZEFSAII (Michael W. Deem and Ramdas Pophale) SiO2 
 PCOD9409985
Probable space group: P N N A
;
_chemical_formula_sum "Si O2"
_cell_formula_units_Z 60
_cell_length_a 9.446252
_cell_length_b 11.839019
_cell_length_c 27.038038
_cell_angle_alpha 90.000000
_cell_angle_beta 90.000000
_cell_angle_gamma 90.000000
_cell_volume 3023.781592
_symmetry_space_group_name_H-M "P N N A"
_symmetry_group_IT_number 52
_symmetry_cell_setting 'orthorhombic'
loop_
_space_group_symop_operation_xyz
x,y,z
1/2-x,-y,z
x,1/2-y,1/2-z
1/2-x,1/2+y,1/2-z
-x,-y,-z
1/2+x,y,-z
-x,1/2+y,1/2+z
1/2+x,1/2-y,1/2+z
loop_
_atom_site_type_symbol
_atom_site_label
_atom_site_fract_x
_atom_site_fract_y
_atom_site_fract_z
Si Si1 0.439099 0.249493 0.169618
Si Si2 0.242016 0.638349 0.562955
Si Si3 0.548246 0.573873 0.756262
Si Si4 0.250000 0.000000 0.705221
Si Si5 0.549343 0.161533 0.790042
Si Si6 0.714848 0.366604 0.609217
Si Si7 0.031086 0.132262 0.009638
Si Si8 0.778944 0.258488 0.164937
O O1 0.400205 0.372255 0.192079
O O2 0.411029 0.159591 0.213009
O O3 0.355243 0.206899 0.121547
O O4 0.609413 0.246664 0.168127
O O5 0.250000 0.500000 0.570187
O O6 0.390516 0.674005 0.539199
O O7 0.196486 0.702416 0.611830
O O8 0.123595 0.673323 0.523224
O O9 0.378303 0.554338 0.763632
O O10 0.591578 0.454247 0.735699
O O11 0.191124 0.892327 0.673784
O O12 0.601023 0.250000 0.750000
O O13 0.615061 0.165604 0.844489
O O14 0.381439 0.187683 0.798561
O O15 0.750000 0.500000 0.611994
O O16 0.633150 0.351699 0.557294
O O17 0.000000 0.000000 0.000000
#
# Coordination Sequence:
#
# PCOD9409985 Si02
#       8
#     8   8   8   4   8   8   8   8
#     4  10  24  36  58  85 124 164 207 247 311 373
#     4  10  22  37  62  91 122 152 196 260 328 389
#     4  10  20  38  54  84 121 166 205 251 297 358
#     4  10  20  40  60  84 126 160 214 258 300 358
#     4  12  24  38  62  88 125 171 217 262 306 375
#     4  12  24  39  58  90 128 166 205 257 327 393
#     4  10  22  40  60  90 128 158 198 264 335 390
#     4  11  23  38  63  92 116 165 212 256 310 371
#
# _framework density 19.842703
#
# number of rings (size 3 to 8) (size 9 to 14) (size 15 to 20)
#    0.000    1.333    4.000    2.000   11.200    0.000 
#    0.000    0.000    0.000    0.800    3.467    0.000 
#    0.000    0.000    0.000    0.000    0.000    0.000 
#
# Total GULP energy -334370.123284 kJ/mol
# GULP energy per Si atom -5572.835388 kJ/mol
# Density = 1.979754 g / cm^3
# Si number density = 19.842703 Si / 1000 Ang^3
#
#
#
# Elastic Constant Matrix: (Units=GPa)
#
#
# Indices 1 2 3 4 5 6 
#
# 1 91.2118 20.1398 24.8412 0.0000 0.0000 0.0000
# 2 20.1398 83.3046 28.1718 0.0000 0.0000 0.0000
# 3 24.8412 28.1718 73.2329 0.0000 0.0000 0.0000
# 4 0.0000 0.0000 0.0000 22.7590 0.0000 0.0000
# 5 0.0000 0.0000 0.0000 0.0000 40.8313 0.0000
# 6 0.0000 0.0000 0.0000 0.0000 0.0000 18.9701
#
#
#
# Elastic Compliance Matrix: (Units=1/GPa)
#
#
# Indices 1 2 3 4 5 6 
#
# 1 0.012309 -0.001798 -0.003484 0.000000 0.000000 0.000000
# 2 -0.001798 0.014062 -0.004800 0.000000 0.000000 0.000000
# 3 -0.003484 -0.004800 0.016683 0.000000 0.000000 0.000000
# 4 0.000000 0.000000 0.000000 0.043939 0.000000 0.000000
# 5 0.000000 0.000000 0.000000 0.000000 0.024491 0.000000
# 6 0.000000 0.000000 0.000000 0.000000 0.000000 0.052715
#
#
# Mechanical properties :
#
#
# Convention : Reuss Voigt Hill
#
# Bulk Modulus (GPa) = 43.68356 43.78388 43.73372
# Shear Modulus (GPa) = 26.04280 28.15184 27.09732
#
# Velocity S-wave (km/s) = 3.62672 3.77072 3.69942
# Velocity P-wave (km/s) = 6.29287 6.40868 6.35104
#
# Compressibility (1/GPa) = 0.02289191
#
# Stress axis : x y z
#
# Youngs Moduli (GPa) = 81.23972 71.11412 59.94070
#
# Poissons Ratio (x) = 0.12785 0.20882
# Poissons Ratio (y) = 0.14605 0.28769
# Poissons Ratio (z) = 0.28302 0.34132
#
# Static dielectric constant tensor:
#      x y z
#    x 1.826080 0.000000 0.000000 
#    y 0.000000 1.670780 0.000000 
#    z 0.000000 0.000000 1.719900 
# 
# From -- ./inp_files/44555.got.cif
#   From: 2010.05.17/outbox.cif.g08.bks.cpg/sg52_23_cif.got.tgz:44555.got - 2010.06.03 12:15:38.
