data_PCOD9409024
_publ_section_title
;
Structure prediction by ZEFSAII (Michael W. Deem and Ramdas Pophale) SiO2 
 PCOD9409024
Probable space group: P N N A
;
_chemical_formula_sum "Si O2"
_cell_formula_units_Z 44
_cell_length_a 5.189852
_cell_length_b 13.552946
_cell_length_c 30.625421
_cell_angle_alpha 90.000000
_cell_angle_beta 90.000000
_cell_angle_gamma 90.000000
_cell_volume 2154.124244
_symmetry_space_group_name_H-M "P N N A"
_symmetry_group_IT_number 52
_symmetry_cell_setting 'orthorhombic'
loop_
_space_group_symop_operation_xyz
x,y,z
1/2-x,-y,z
x,1/2-y,1/2-z
1/2-x,1/2+y,1/2-z
-x,-y,-z
1/2+x,y,-z
-x,1/2+y,1/2+z
1/2+x,1/2-y,1/2+z
loop_
_atom_site_type_symbol
_atom_site_label
_atom_site_fract_x
_atom_site_fract_y
_atom_site_fract_z
Si Si1 0.250000 0.000000 0.592332
Si Si2 0.877634 0.821010 0.471561
Si Si3 0.153341 0.673440 0.596715
Si Si4 0.154301 0.603401 0.364832
Si Si5 0.597025 0.639676 0.161109
Si Si6 0.395353 0.211261 0.298556
O O1 0.148393 0.086400 0.561267
O O2 0.442799 0.052454 0.626348
O O3 0.667844 0.826074 0.510481
O O4 0.781040 0.724582 0.445384
O O5 0.370679 0.600901 0.614996
O O6 0.117573 0.763059 0.630909
O O7 0.867978 0.627689 0.597617
O O8 0.250000 0.500000 0.345138
O O9 0.136410 0.692541 0.329959
O O10 0.367788 0.651557 0.194950
O O11 0.869831 0.642699 0.185642
O O12 0.436642 0.250000 0.250000
#
# Coordination Sequence:
#
# PCOD9409024 Si02
#       6
#     4   8   8   8   8   8
#     4  10  22  38  56  88 118 148 196 220 270 342
#     4  11  22  36  58  85 116 150 183 229 279 330
#     4   9  19  35  55  77 109 143 183 221 273 332
#     4  10  19  35  58  81 101 141 192 231 270 332
#     4   9  20  35  55  77 108 154 179 221 266 338
#     4  10  20  37  56  78 114 143 181 230 289 325
#
# _framework density 20.425932
#
# number of rings (size 3 to 8) (size 9 to 14) (size 15 to 20)
#    0.000    2.182    0.000    2.727    0.000    6.545 
#    3.273    0.000    0.000   10.909    0.000    0.000 
#    0.000    0.000    0.000    0.000    0.000    0.000 
#
# Total GULP energy -245215.055218 kJ/mol
# GULP energy per Si atom -5573.069437 kJ/mol
# Density = 2.037944 g / cm^3
# Si number density = 20.425932 Si / 1000 Ang^3
#
#
#
# Elastic Constant Matrix: (Units=GPa)
#
#
# Indices 1 2 3 4 5 6 
#
# 1 92.7128 19.1928 4.6731 0.0000 0.0000 0.0000
# 2 19.1928 47.5721 15.0697 0.0000 0.0000 0.0000
# 3 4.6731 15.0697 55.5224 0.0000 0.0000 0.0000
# 4 0.0000 0.0000 0.0000 -10.0094 0.0000 0.0000
# 5 0.0000 0.0000 0.0000 0.0000 -16.1069 0.0000
# 6 0.0000 0.0000 0.0000 0.0000 0.0000 -12.6568
#
#
#
# Elastic Compliance Matrix: (Units=1/GPa)
#
#
# Indices 1 2 3 4 5 6 
#
# 1 0.011774 -0.004854 0.000326 0.000000 0.000000 0.000000
# 2 -0.004854 0.024999 -0.006377 0.000000 0.000000 0.000000
# 3 0.000326 -0.006377 0.019714 0.000000 0.000000 0.000000
# 4 0.000000 0.000000 0.000000 -0.099906 0.000000 0.000000
# 5 0.000000 0.000000 0.000000 0.000000 -0.062085 0.000000
# 6 0.000000 0.000000 0.000000 0.000000 0.000000 -0.079009
#
#
# Mechanical properties :
#
#
# Convention : Reuss Voigt Hill
#
# Bulk Modulus (GPa) = 28.83558 30.40872 29.62215
# Shear Modulus (GPa) = -33.08072 2.70348 -15.18862
#
# Velocity S-wave (km/s) = -4.02872 1.15171 -2.72985
# Velocity P-wave (km/s) = 2.73734 4.08512 2.14420
#
# Compressibility (1/GPa) = 0.03467938
#
# Stress axis : x y z
#
# Youngs Moduli (GPa) = 84.93048 40.00175 50.72540
#
# Poissons Ratio (x) = 0.19416 -0.01656
# Poissons Ratio (y) = 0.41223 0.32345
# Poissons Ratio (z) = -0.02772 0.25507
#
# Static dielectric constant tensor:
#      x y z
#    x 1.733450 0.000000 0.000000 
#    y 0.000000 1.763900 0.000000 
#    z 0.000000 0.000000 1.700650 
# 
# From -- ./inp_files/41633.got.cif
#   From: 2010.05.17/outbox.cif.g08.bks.cpg/sg52_21_cif.got.tgz:41633.got - 2010.06.03 12:15:38.
