data_PCOD9409096
_publ_section_title
;
Structure prediction by ZEFSAII (Michael W. Deem and Ramdas Pophale) SiO2 
 PCOD9409096
Probable space group: P N N A
;
_chemical_formula_sum "Si O2"
_cell_formula_units_Z 64
_cell_length_a 18.500172
_cell_length_b 11.048472
_cell_length_c 16.458393
_cell_angle_alpha 90.000000
_cell_angle_beta 90.000000
_cell_angle_gamma 90.000000
_cell_volume 3364.073020
_symmetry_space_group_name_H-M "P N N A"
_symmetry_group_IT_number 52
_symmetry_cell_setting 'orthorhombic'
loop_
_space_group_symop_operation_xyz
x,y,z
1/2-x,-y,z
x,1/2-y,1/2-z
1/2-x,1/2+y,1/2-z
-x,-y,-z
1/2+x,y,-z
-x,1/2+y,1/2+z
1/2+x,1/2-y,1/2+z
loop_
_atom_site_type_symbol
_atom_site_label
_atom_site_fract_x
_atom_site_fract_y
_atom_site_fract_z
Si Si1 0.663751 0.699361 0.395447
Si Si2 0.912162 0.142781 0.642855
Si Si3 0.075237 0.086125 0.615965
Si Si4 0.333004 0.825611 0.878964
Si Si5 0.329434 0.057212 0.505711
Si Si6 0.414764 0.471003 0.713699
Si Si7 0.073131 0.929069 0.177160
Si Si8 0.665519 0.490061 0.529080
O O1 0.747512 0.691237 0.368595
O O2 0.658385 0.831165 0.433479
O O3 0.610131 0.656301 0.324210
O O4 0.650279 0.603513 0.468964
O O5 0.848472 0.106825 0.582741
O O6 0.901925 0.075354 0.728983
O O7 0.920366 0.287254 0.653775
O O8 0.990184 0.105815 0.607489
O O9 0.117638 0.209601 0.639185
O O10 0.113055 0.041763 0.534478
O O11 0.084429 0.991243 0.690043
O O12 0.356655 0.934351 0.821235
O O13 0.345472 0.872796 0.971664
O O14 0.250000 0.000000 0.512094
O O15 0.491894 0.518253 0.679865
O O16 0.118394 0.001600 0.110038
O O17 0.750000 0.500000 0.550393
#
# Coordination Sequence:
#
# PCOD9409096 Si02
#       8
#     8   8   8   8   8   8   8   8
#     4  10  21  38  54  88 121 151 196 245 297 342
#     4  10  22  39  60  85 120 151 199 252 293 366
#     4  11  22  39  58  85 118 164 194 233 301 359
#     4  10  19  36  57  85 123 151 192 242 293 353
#     4  12  24  39  60  83 120 162 200 241 295 368
#     4  10  21  36  60  87 118 151 196 252 291 353
#     4  10  19  37  64  89 111 152 198 249 308 351
#     4   9  19  34  60  86 117 143 187 255 297 342
#
# _framework density 19.024557999999999
#
# number of rings (size 3 to 8) (size 9 to 14) (size 15 to 20)
#    0.000    1.750    3.750    1.875    0.000    5.000 
#    2.250    0.000    0.000    2.250    0.000    0.000 
#    0.000    0.000    0.000    0.000    0.000    0.000 
#
# Total GULP energy -357041.691612 kJ/mol
# GULP energy per Si atom -5578.776431 kJ/mol
# Density = 1.898126 g / cm^3
# Si number density = 19.024558 Si / 1000 Ang^3
#
#
#
# Elastic Constant Matrix: (Units=GPa)
#
#
# Indices 1 2 3 4 5 6 
#
# 1 24.3661 12.6340 29.1461 0.0000 0.0000 0.0000
# 2 12.6340 60.3015 20.2616 0.0000 0.0000 0.0000
# 3 29.1461 20.2616 50.2742 0.0000 0.0000 0.0000
# 4 0.0000 0.0000 0.0000 25.6929 0.0000 0.0000
# 5 0.0000 0.0000 0.0000 0.0000 6.6238 0.0000
# 6 0.0000 0.0000 0.0000 0.0000 0.0000 20.2655
#
#
#
# Elastic Compliance Matrix: (Units=1/GPa)
#
#
# Indices 1 2 3 4 5 6 
#
# 1 0.134161 -0.002284 -0.076858 0.000000 0.000000 0.000000
# 2 -0.002284 0.019220 -0.006422 0.000000 0.000000 0.000000
# 3 -0.076858 -0.006422 0.067037 0.000000 0.000000 0.000000
# 4 0.000000 0.000000 0.000000 0.038921 0.000000 0.000000
# 5 0.000000 0.000000 0.000000 0.000000 0.150971 0.000000
# 6 0.000000 0.000000 0.000000 0.000000 0.000000 0.049345
#
#
# Mechanical properties :
#
#
# Convention : Reuss Voigt Hill
#
# Bulk Modulus (GPa) = 20.28827 28.78057 24.53442
# Shear Modulus (GPa) = 7.72544 15.37646 11.55095
#
# Velocity S-wave (km/s) = 2.01732 2.84605 2.46674
# Velocity P-wave (km/s) = 4.01417 5.09519 4.58664
#
# Compressibility (1/GPa) = 0.04928956
#
# Stress axis : x y z
#
# Youngs Moduli (GPa) = 7.45375 52.03022 14.91711
#
# Poissons Ratio (x) = 0.11882 1.14650
# Poissons Ratio (y) = 0.01702 0.09580
# Poissons Ratio (z) = 0.57288 0.33414
#
# Static dielectric constant tensor:
#      x y z
#    x 1.628560 0.000000 0.000000 
#    y 0.000000 1.686950 0.000000 
#    z 0.000000 0.000000 1.669940 
# 
# From -- ./inp_files/28303.got.cif
#   From: 2010.05.17/outbox.cif.g08.bks.cpg/sg52_15_cif.got.tgz:28303.got - 2010.06.03 12:15:38.
