data_PCOD9409855
_publ_section_title
;
Structure prediction by ZEFSAII (Michael W. Deem and Ramdas Pophale) SiO2 
 PCOD9409855
Probable space group: P N N A
;
_chemical_formula_sum "Si O2"
_cell_formula_units_Z 40
_cell_length_a 14.818379
_cell_length_b 18.176974
_cell_length_c 6.986834
_cell_angle_alpha 90.000000
_cell_angle_beta 90.000000
_cell_angle_gamma 90.000000
_cell_volume 1881.926723
_symmetry_space_group_name_H-M "P N N A"
_symmetry_group_IT_number 52
_symmetry_cell_setting 'orthorhombic'
loop_
_space_group_symop_operation_xyz
x,y,z
1/2-x,-y,z
x,1/2-y,1/2-z
1/2-x,1/2+y,1/2-z
-x,-y,-z
1/2+x,y,-z
-x,1/2+y,1/2+z
1/2+x,1/2-y,1/2+z
loop_
_atom_site_type_symbol
_atom_site_label
_atom_site_fract_x
_atom_site_fract_y
_atom_site_fract_z
Si Si1 0.401128 0.004854 0.245667
Si Si2 0.209010 0.421919 0.975966
Si Si3 0.603486 0.863063 0.473586
Si Si4 0.443277 0.670917 0.770619
Si Si5 0.049617 0.901958 0.927501
O O1 0.417897 0.057070 0.428394
O O2 0.329410 0.945934 0.317292
O O3 0.490287 0.963234 0.180286
O O4 0.378894 0.057659 0.066647
O O5 0.250000 0.500000 0.895390
O O6 0.126878 0.387806 0.856936
O O7 0.288907 0.362864 0.001204
O O8 0.529735 0.816206 0.588201
O O9 0.588948 0.856494 0.247527
O O10 0.397635 0.750000 0.750000
O O11 0.484345 0.640937 0.572686
#
# Coordination Sequence:
#
# PCOD9409855 Si02
#       5
#     8   8   8   8   8
#     4   9  19  35  62  97 123 155 208 271 333 380
#     4  10  22  41  65  99 136 163 215 294 328 387
#     4  10  21  42  64  92 133 167 216 272 325 399
#     4  11  25  46  61  91 135 179 223 273 336 406
#     4  10  20  36  69  88 121 177 208 261 338 397
#
# _framework density 21.254812999999999
#
# number of rings (size 3 to 8) (size 9 to 14) (size 15 to 20)
#    0.000    2.000    2.000    0.600   14.000    0.800 
#   18.000    0.000    0.000    0.000    0.000    0.000 
#    0.000    0.000    0.000    0.000    0.000    0.000 
#
# Total GULP energy -222801.076380 kJ/mol
# GULP energy per Si atom -5570.026910 kJ/mol
# Density = 2.120644 g / cm^3
# Si number density = 21.254813 Si / 1000 Ang^3
#
#
#
# Elastic Constant Matrix: (Units=GPa)
#
#
# Indices 1 2 3 4 5 6 
#
# 1 89.0522 22.1765 43.2442 0.0000 0.0000 0.0000
# 2 22.1765 50.2284 21.6433 0.0000 0.0000 0.0000
# 3 43.2442 21.6433 143.8697 0.0000 0.0000 0.0000
# 4 0.0000 0.0000 0.0000 8.3594 0.0000 0.0000
# 5 0.0000 0.0000 0.0000 0.0000 25.6653 0.0000
# 6 0.0000 0.0000 0.0000 0.0000 0.0000 21.8305
#
#
#
# Elastic Compliance Matrix: (Units=1/GPa)
#
#
# Indices 1 2 3 4 5 6 
#
# 1 0.014119 -0.004710 -0.003535 0.000000 0.000000 0.000000
# 2 -0.004710 0.022861 -0.002023 0.000000 0.000000 0.000000
# 3 -0.003535 -0.002023 0.008318 0.000000 0.000000 0.000000
# 4 0.000000 0.000000 0.000000 0.119626 0.000000 0.000000
# 5 0.000000 0.000000 0.000000 0.000000 0.038963 0.000000
# 6 0.000000 0.000000 0.000000 0.000000 0.000000 0.045807
#
#
# Mechanical properties :
#
#
# Convention : Reuss Voigt Hill
#
# Bulk Modulus (GPa) = 40.38842 50.80869 45.59855
# Shear Modulus (GPa) = 17.95430 24.24347 21.09889
#
# Velocity S-wave (km/s) = 2.90955 3.38096 3.15408
# Velocity P-wave (km/s) = 5.50732 6.26080 5.89611
#
# Compressibility (1/GPa) = 0.02475957
#
# Stress axis : x y z
#
# Youngs Moduli (GPa) = 70.82573 43.74347 120.22503
#
# Poissons Ratio (x) = 0.20605 0.42503
# Poissons Ratio (y) = 0.33362 0.24324
# Poissons Ratio (z) = 0.25039 0.08850
#
# Static dielectric constant tensor:
#      x y z
#    x 1.833970 0.000000 0.000000 
#    y 0.000000 1.862100 0.000000 
#    z 0.000000 0.000000 1.787650 
# 
# From -- ./inp_files/3338.got.cif
#   From: 2010.05.17/outbox.cif.g08.bks.cpg/sg52_2_cif.got.tgz:3338.got - 2010.06.03 12:15:38.
