data_PCOD9409063
_publ_section_title
;
Structure prediction by ZEFSAII (Michael W. Deem and Ramdas Pophale) SiO2 
 PCOD9409063
Probable space group: P N N A
;
_chemical_formula_sum "Si O2"
_cell_formula_units_Z 40
_cell_length_a 20.225390
_cell_length_b 8.990418
_cell_length_c 11.547763
_cell_angle_alpha 90.000000
_cell_angle_beta 90.000000
_cell_angle_gamma 90.000000
_cell_volume 2099.784140
_symmetry_space_group_name_H-M "P N N A"
_symmetry_group_IT_number 52
_symmetry_cell_setting 'orthorhombic'
loop_
_space_group_symop_operation_xyz
x,y,z
1/2-x,-y,z
x,1/2-y,1/2-z
1/2-x,1/2+y,1/2-z
-x,-y,-z
1/2+x,y,-z
-x,1/2+y,1/2+z
1/2+x,1/2-y,1/2+z
loop_
_atom_site_type_symbol
_atom_site_label
_atom_site_fract_x
_atom_site_fract_y
_atom_site_fract_z
Si Si1 0.328780 0.000981 0.101076
Si Si2 0.937081 0.502107 0.918937
Si Si3 0.396315 0.250000 0.250000
Si Si4 0.322698 0.924980 0.601164
Si Si5 0.677154 0.070088 0.141756
Si Si6 0.102598 0.250000 0.250000
O O1 0.352162 0.141666 0.172707
O O2 0.250000 0.000000 0.093748
O O3 0.353214 0.856114 0.169366
O O4 0.356635 0.002181 0.970170
O O5 0.935150 0.355971 0.838505
O O6 0.938413 0.642407 0.832869
O O7 0.871336 0.521760 0.999230
O O8 0.000000 0.500000 0.000000
O O9 0.351565 0.958079 0.730415
O O10 0.316311 0.744987 0.608769
O O11 0.250000 0.000000 0.587671
O O12 0.750000 0.000000 0.151203
#
# Coordination Sequence:
#
# PCOD9409063 Si02
#       6
#     8   8   4   8   8   4
#     4  10  19  35  61  94 129 162 197 257 302 361
#     4  11  25  46  63  90 123 164 205 256 309 372
#     4  10  25  40  60  90 123 158 218 242 306 378
#     4  10  21  38  64  92 126 163 206 258 304 358
#     4   9  19  35  58  96 127 158 209 252 305 356
#     4  10  21  42  60  88 123 160 212 240 314 372
#
# _framework density 19.049578
#
# number of rings (size 3 to 8) (size 9 to 14) (size 15 to 20)
#    0.000    2.000    2.000    0.600    5.600    4.800 
#    3.600    2.000    0.000    0.000    0.000    0.000 
#    0.000    0.000    0.000    0.000    0.000    0.000 
#
# Total GULP energy -223043.965283 kJ/mol
# GULP energy per Si atom -5576.099132 kJ/mol
# Density = 1.900622 g / cm^3
# Si number density = 19.049578 Si / 1000 Ang^3
#
#
#
# Elastic Constant Matrix: (Units=GPa)
#
#
# Indices 1 2 3 4 5 6 
#
# 1 68.7659 34.2456 49.5918 0.0000 0.0000 0.0000
# 2 34.2456 104.1798 62.6435 0.0000 0.0000 0.0000
# 3 49.5918 62.6435 168.0996 0.0000 0.0000 0.0000
# 4 0.0000 0.0000 0.0000 21.3740 0.0000 0.0000
# 5 0.0000 0.0000 0.0000 0.0000 36.0500 0.0000
# 6 0.0000 0.0000 0.0000 0.0000 0.0000 -2.3580
#
#
#
# Elastic Compliance Matrix: (Units=1/GPa)
#
#
# Indices 1 2 3 4 5 6 
#
# 1 0.019584 -0.003819 -0.004354 0.000000 0.000000 0.000000
# 2 -0.003819 0.013116 -0.003761 0.000000 0.000000 0.000000
# 3 -0.004354 -0.003761 0.008635 0.000000 0.000000 0.000000
# 4 0.000000 0.000000 0.000000 0.046786 0.000000 0.000000
# 5 0.000000 0.000000 0.000000 0.000000 0.027739 0.000000
# 6 0.000000 0.000000 0.000000 0.000000 0.000000 -0.424081
#
#
# Mechanical properties :
#
#
# Convention : Reuss Voigt Hill
#
# Bulk Modulus (GPa) = 57.25481 70.44522 63.85002
# Shear Modulus (GPa) = -17.95142 23.98416 3.01637
#
# Velocity S-wave (km/s) = -3.07311 3.55214 1.25971
# Velocity P-wave (km/s) = 4.18676 7.34056 5.97548
#
# Compressibility (1/GPa) = 0.01746578
#
# Stress axis : x y z
#
# Youngs Moduli (GPa) = 51.06106 76.24437 115.80819
#
# Poissons Ratio (x) = 0.29121 0.50427
# Poissons Ratio (y) = 0.19502 0.43554
# Poissons Ratio (z) = 0.22234 0.28675
#
# Static dielectric constant tensor:
#      x y z
#    x 1.606940 0.000000 0.000000 
#    y 0.000000 1.467730 0.000000 
#    z 0.000000 0.000000 1.734820 
# 
# From -- ./inp_files/21486.got.cif
#   From: 2010.05.17/outbox.cif.g08.bks.cpg/sg52_11_cif.got.tgz:21486.got - 2010.06.03 12:15:38.
