data_PCOD9409321
_publ_section_title
;
Structure prediction by ZEFSAII (Michael W. Deem and Ramdas Pophale) SiO2 
 PCOD9409321
Probable space group: P N N A
;
_chemical_formula_sum "Si O2"
_cell_formula_units_Z 28
_cell_length_a 11.090039
_cell_length_b 10.603507
_cell_length_c 9.994567
_cell_angle_alpha 90.000000
_cell_angle_beta 90.000000
_cell_angle_gamma 90.000000
_cell_volume 1175.294177
_symmetry_space_group_name_H-M "P N N A"
_symmetry_group_IT_number 52
_symmetry_cell_setting 'orthorhombic'
loop_
_space_group_symop_operation_xyz
x,y,z
1/2-x,-y,z
x,1/2-y,1/2-z
1/2-x,1/2+y,1/2-z
-x,-y,-z
1/2+x,y,-z
-x,1/2+y,1/2+z
1/2+x,1/2-y,1/2+z
loop_
_atom_site_type_symbol
_atom_site_label
_atom_site_fract_x
_atom_site_fract_y
_atom_site_fract_z
Si Si1 0.605889 0.867675 0.384081
Si Si2 0.035383 0.250000 0.750000
Si Si3 0.615156 0.507227 0.844234
Si Si4 0.755044 0.362721 0.394030
O O1 0.624351 0.972252 0.495879
O O2 0.650362 0.737846 0.452031
O O3 0.688988 0.884013 0.254625
O O4 0.470270 0.885369 0.330633
O O5 0.125922 0.297425 0.631363
O O6 0.957033 0.371710 0.788730
O O7 0.750000 0.500000 0.790037
O O8 0.750000 0.500000 0.459161
#
# Coordination Sequence:
#
# PCOD9409321 Si02
#       4
#     8   4   8   8
#     4   9  21  35  64  88 109 154 200 236 289 352
#     4  10  22  36  58  88 114 152 200 240 288 352
#     4  11  22  37  58  87 120 152 196 243 293 349
#     4  10  19  39  64  86 113 151 197 247 284 352
#
# _framework density 23.823823999999998
#
# number of rings (size 3 to 8) (size 9 to 14) (size 15 to 20)
#    0.000    2.286    2.857    0.857   12.000    2.286 
#    0.000    2.857    0.000    0.000    0.000    0.000 
#    0.000    0.000    0.000    0.000    0.000    0.000 
#
# Total GULP energy -156252.778441 kJ/mol
# GULP energy per Si atom -5580.456373 kJ/mol
# Density = 2.376960 g / cm^3
# Si number density = 23.823824 Si / 1000 Ang^3
#
#
#
# Elastic Constant Matrix: (Units=GPa)
#
#
# Indices 1 2 3 4 5 6 
#
# 1 217.1171 100.7725 1.2759 0.0000 0.0000 0.0000
# 2 100.7725 138.1739 -11.8885 0.0000 0.0000 0.0000
# 3 1.2759 -11.8885 40.3660 0.0000 0.0000 0.0000
# 4 0.0000 0.0000 0.0000 19.2018 0.0000 0.0000
# 5 0.0000 0.0000 0.0000 0.0000 13.8541 0.0000
# 6 0.0000 0.0000 0.0000 0.0000 0.0000 58.8108
#
#
#
# Elastic Compliance Matrix: (Units=1/GPa)
#
#
# Indices 1 2 3 4 5 6 
#
# 1 0.007087 -0.005323 -0.001792 0.000000 0.000000 0.000000
# 2 -0.005323 0.011423 0.003533 0.000000 0.000000 0.000000
# 3 -0.001792 0.003533 0.025870 0.000000 0.000000 0.000000
# 4 0.000000 0.000000 0.000000 0.052079 0.000000 0.000000
# 5 0.000000 0.000000 0.000000 0.000000 0.072181 0.000000
# 6 0.000000 0.000000 0.000000 0.000000 0.000000 0.017004
#
#
# Mechanical properties :
#
#
# Convention : Reuss Voigt Hill
#
# Bulk Modulus (GPa) = 26.86961 63.99741 45.43351
# Shear Modulus (GPa) = 24.36501 38.73980 31.55240
#
# Velocity S-wave (km/s) = 3.20146 4.03686 3.64319
# Velocity P-wave (km/s) = 4.99688 6.97491 6.06705
#
# Compressibility (1/GPa) = 0.03721677
#
# Stress axis : x y z
#
# Youngs Moduli (GPa) = 141.10755 87.54193 38.65428
#
# Poissons Ratio (x) = 0.46596 0.06925
# Poissons Ratio (y) = 0.75107 -0.13655
# Poissons Ratio (z) = 0.25281 -0.30925
#
# Static dielectric constant tensor:
#      x y z
#    x 1.975480 0.000000 0.000000 
#    y 0.000000 2.090210 0.000000 
#    z 0.000000 0.000000 1.934860 
# 
# From -- ./inp_files/17562.got.cif
#   From: 2010.05.17/outbox.cif.g08.bks.cpg/sg52_9_cif.got.tgz:17562.got - 2010.06.03 12:15:38.
