data_PCOD9409753
_publ_section_title
;
Structure prediction by ZEFSAII (Michael W. Deem and Ramdas Pophale) SiO2 
 PCOD9409753
Probable space group: P N N A
;
_chemical_formula_sum "Si O2"
_cell_formula_units_Z 52
_cell_length_a 12.931203
_cell_length_b 20.764280
_cell_length_c 8.541497
_cell_angle_alpha 90.000000
_cell_angle_beta 90.000000
_cell_angle_gamma 90.000000
_cell_volume 2293.452758
_symmetry_space_group_name_H-M "P N N A"
_symmetry_group_IT_number 52
_symmetry_cell_setting 'orthorhombic'
loop_
_space_group_symop_operation_xyz
x,y,z
1/2-x,-y,z
x,1/2-y,1/2-z
1/2-x,1/2+y,1/2-z
-x,-y,-z
1/2+x,y,-z
-x,1/2+y,1/2+z
1/2+x,1/2-y,1/2+z
loop_
_atom_site_type_symbol
_atom_site_label
_atom_site_fract_x
_atom_site_fract_y
_atom_site_fract_z
Si Si1 0.220973 0.631889 0.581829
Si Si2 0.886820 0.250000 0.250000
Si Si3 0.052456 0.338002 0.095305
Si Si4 0.295346 0.060254 0.467937
Si Si5 0.104989 0.090316 0.705199
Si Si6 0.947313 0.046950 0.259224
Si Si7 0.726517 0.819979 0.731834
O O1 0.181507 0.696710 0.665578
O O2 0.335493 0.617279 0.645083
O O3 0.137305 0.577154 0.638207
O O4 0.227116 0.646294 0.399876
O O5 0.961186 0.288753 0.132436
O O6 0.161374 0.308797 0.150395
O O7 0.036604 0.401003 0.209083
O O8 0.054025 0.359522 0.914236
O O9 0.203741 0.069826 0.595685
O O10 0.395299 0.045808 0.568767
O O11 0.317751 0.125435 0.380048
O O12 0.250000 0.000000 0.370585
O O13 0.036788 0.029333 0.762845
O O14 0.675937 0.750000 0.750000
#
# Coordination Sequence:
#
# PCOD9409753 Si02
#       7
#     8   4   8   8   8   8   8
#     4  10  22  35  58  83 114 154 200 242 290 350
#     4  10  22  36  58  80 118 160 196 248 292 346
#     4  10  20  36  58  84 120 157 188 244 309 354
#     4   8  17  34  57  83 110 151 198 234 283 350
#     4   9  18  36  62  87 109 153 198 242 292 362
#     4   9  18  37  63  88 114 147 201 247 296 352
#     4  11  23  36  56  83 122 158 193 241 303 368
#
# _framework density 22.67324
#
# number of rings (size 3 to 8) (size 9 to 14) (size 15 to 20)
#    0.000    2.462    0.769    1.846    8.615    1.231 
#    0.000    3.846    3.385    0.000    0.000    0.000 
#    0.000    0.000    0.000    0.000    0.000    0.000 
#
# Total GULP energy -290040.545312 kJ/mol
# GULP energy per Si atom -5577.702794 kJ/mol
# Density = 2.262163 g / cm^3
# Si number density = 22.673240 Si / 1000 Ang^3
#
#
#
# Elastic Constant Matrix: (Units=GPa)
#
#
# Indices 1 2 3 4 5 6 
#
# 1 13.0151 4.1734 -15.1004 0.0000 0.0000 0.0000
# 2 4.1734 97.9999 17.8496 0.0000 0.0000 0.0000
# 3 -15.1004 17.8496 57.7271 0.0000 0.0000 0.0000
# 4 0.0000 0.0000 0.0000 29.6001 0.0000 0.0000
# 5 0.0000 0.0000 0.0000 0.0000 7.1748 0.0000
# 6 0.0000 0.0000 0.0000 0.0000 0.0000 15.3876
#
#
#
# Elastic Compliance Matrix: (Units=1/GPa)
#
#
# Indices 1 2 3 4 5 6 
#
# 1 0.121660 -0.011632 0.035421 0.000000 0.000000 0.000000
# 2 -0.011632 0.011925 -0.006730 0.000000 0.000000 0.000000
# 3 0.035421 -0.006730 0.028669 0.000000 0.000000 0.000000
# 4 0.000000 0.000000 0.000000 0.033784 0.000000 0.000000
# 5 0.000000 0.000000 0.000000 0.000000 0.139377 0.000000
# 6 0.000000 0.000000 0.000000 0.000000 0.000000 0.064987
#
#
# Mechanical properties :
#
#
# Convention : Reuss Voigt Hill
#
# Bulk Modulus (GPa) = 5.09239 20.28746 12.68992
# Shear Modulus (GPa) = 11.58094 21.22047 16.40070
#
# Velocity S-wave (km/s) = 2.26249 3.06261 2.69244
# Velocity P-wave (km/s) = 3.01264 4.63393 3.90828
#
# Compressibility (1/GPa) = 0.19637158
#
# Stress axis : x y z
#
# Youngs Moduli (GPa) = 8.21962 83.85538 34.88030
#
# Poissons Ratio (x) = 0.97545 -1.23550
# Poissons Ratio (y) = 0.09561 0.23475
# Poissons Ratio (z) = -0.29115 0.56437
#
# Static dielectric constant tensor:
#      x y z
#    x 1.898070 0.000000 0.000000 
#    y 0.000000 1.938430 0.000000 
#    z 0.000000 0.000000 1.823260 
# 
# From -- ./inp_files/10732.got.cif
#   From: 2010.05.17/outbox.cif.g08.bks.cpg/sg52_6_cif.got.tgz:10732.got - 2010.06.03 12:15:38.
