data_PCOD9409424
_publ_section_title
;
Structure prediction by ZEFSAII (Michael W. Deem and Ramdas Pophale) SiO2 
 PCOD9409424
Probable space group: P N N A
;
_chemical_formula_sum "Si O2"
_cell_formula_units_Z 48
_cell_length_a 11.438459
_cell_length_b 30.022145
_cell_length_c 5.903129
_cell_angle_alpha 90.000000
_cell_angle_beta 90.000000
_cell_angle_gamma 90.000000
_cell_volume 2027.176261
_symmetry_space_group_name_H-M "P N N A"
_symmetry_group_IT_number 52
_symmetry_cell_setting 'orthorhombic'
loop_
_space_group_symop_operation_xyz
x,y,z
1/2-x,-y,z
x,1/2-y,1/2-z
1/2-x,1/2+y,1/2-z
-x,-y,-z
1/2+x,y,-z
-x,1/2+y,1/2+z
1/2+x,1/2-y,1/2+z
loop_
_atom_site_type_symbol
_atom_site_label
_atom_site_fract_x
_atom_site_fract_y
_atom_site_fract_z
Si Si1 0.722142 0.833807 0.010555
Si Si2 0.933192 0.037078 0.145770
Si Si3 0.443283 0.123012 0.608418
Si Si4 0.275127 0.250000 0.750000
Si Si5 0.250000 0.500000 0.992312
Si Si6 0.946266 0.292824 0.871446
Si Si7 0.271131 0.416856 0.273926
O O1 0.634133 0.814354 0.823157
O O2 0.790845 0.873818 0.887417
O O3 0.644518 0.855653 0.208001
O O4 0.785710 0.791570 0.122206
O O5 0.995272 0.079820 0.264109
O O6 0.860048 0.012421 0.339100
O O7 0.840443 0.059257 0.975665
O O8 0.000000 0.000000 0.000000
O O9 0.511244 0.165390 0.495610
O O10 0.364813 0.102867 0.405513
O O11 0.359706 0.227830 0.561216
O O12 0.214850 0.457719 0.141569
O O13 0.003835 0.250000 0.750000
#
# Coordination Sequence:
#
# PCOD9409424 Si02
#       7
#     8   8   8   4   4   8   8
#     4   8  13  22  36  57  86 121 164 192 243 308
#     4  10  20  33  49  69  95 132 186 219 270 316
#     4   8  15  25  39  60  86 122 170 199 251 305
#     4   8  12  18  32  56  84 120 164 180 242 302
#     4  10  20  32  48  68  92 130 186 228 272 318
#     4   8  12  19  33  54  84 120 162 186 242 304
#     4   9  17  30  45  63  91 126 175 207 264 308
#
# _framework density 23.678256999999999
#
# number of rings (size 3 to 8) (size 9 to 14) (size 15 to 20)
#    0.000    3.333    0.000    0.500    0.000    2.667 
#    0.000    0.000    0.000    0.000    0.000    0.000 
#    0.000    0.000    0.000    0.000 27125.667    0.000 
#
# Total GULP energy -267365.607507 kJ/mol
# GULP energy per Si atom -5570.116823 kJ/mol
# Density = 2.362436 g / cm^3
# Si number density = 23.678257 Si / 1000 Ang^3
#
#
#
# Elastic Constant Matrix: (Units=GPa)
#
#
# Indices 1 2 3 4 5 6 
#
# 1 43.4738 59.5875 26.0798 0.0000 0.0000 0.0000
# 2 59.5875 265.0909 100.5570 0.0000 0.0000 0.0000
# 3 26.0798 100.5570 124.6059 0.0000 0.0000 0.0000
# 4 0.0000 0.0000 0.0000 99.5240 0.0000 0.0000
# 5 0.0000 0.0000 0.0000 0.0000 -26.7649 0.0000
# 6 0.0000 0.0000 0.0000 0.0000 0.0000 19.6652
#
#
#
# Elastic Compliance Matrix: (Units=1/GPa)
#
#
# Indices 1 2 3 4 5 6 
#
# 1 0.033400 -0.006998 -0.001343 0.000000 0.000000 0.000000
# 2 -0.006998 0.006903 -0.004106 0.000000 0.000000 0.000000
# 3 -0.001343 -0.004106 0.011620 0.000000 0.000000 0.000000
# 4 0.000000 0.000000 0.000000 0.010048 0.000000 0.000000
# 5 0.000000 0.000000 0.000000 0.000000 -0.037362 0.000000
# 6 0.000000 0.000000 0.000000 0.000000 0.000000 0.050851
#
#
# Mechanical properties :
#
#
# Convention : Reuss Voigt Hill
#
# Bulk Modulus (GPa) = 36.99779 89.51323 63.25551
# Shear Modulus (GPa) = 45.71904 34.94796 40.33350
#
# Velocity S-wave (km/s) = 4.39891 3.84598 4.13170
# Velocity P-wave (km/s) = 6.43891 7.59000 7.03803
#
# Compressibility (1/GPa) = 0.02702864
#
# Stress axis : x y z
#
# Youngs Moduli (GPa) = 29.93986 144.86730 86.05985
#
# Poissons Ratio (x) = 1.01383 0.11557
# Poissons Ratio (y) = 0.20953 0.35335
# Poissons Ratio (z) = 0.04021 0.59481
#
# Static dielectric constant tensor:
#      x y z
#    x 1.691510 0.000000 0.000000 
#    y 0.000000 2.010990 0.000000 
#    z 0.000000 0.000000 1.967780 
# 
# From -- ./inp_files/2595.got.cif
#   From: 2010.05.17/outbox.cif.g08.bks.cpg/sg52_2_cif.got.tgz:2595.got - 2010.06.03 12:15:38.
