data_PCOD9409720
_publ_section_title
;
Structure prediction by ZEFSAII (Michael W. Deem and Ramdas Pophale) SiO2 
 PCOD9409720
Probable space group: P N N A
;
_chemical_formula_sum "Si O2"
_cell_formula_units_Z 60
_cell_length_a 22.591170
_cell_length_b 13.388953
_cell_length_c 9.211254
_cell_angle_alpha 90.000000
_cell_angle_beta 90.000000
_cell_angle_gamma 90.000000
_cell_volume 2786.147464
_symmetry_space_group_name_H-M "P N N A"
_symmetry_group_IT_number 52
_symmetry_cell_setting 'orthorhombic'
loop_
_space_group_symop_operation_xyz
x,y,z
1/2-x,-y,z
x,1/2-y,1/2-z
1/2-x,1/2+y,1/2-z
-x,-y,-z
1/2+x,y,-z
-x,1/2+y,1/2+z
1/2+x,1/2-y,1/2+z
loop_
_atom_site_type_symbol
_atom_site_label
_atom_site_fract_x
_atom_site_fract_y
_atom_site_fract_z
Si Si1 0.153869 0.427436 0.540173
Si Si2 0.148514 0.693584 0.904362
Si Si3 0.754067 0.194095 0.897131
Si Si4 0.568532 0.365747 0.209135
Si Si5 0.750000 0.000000 0.223293
Si Si6 0.170943 0.041616 0.550937
Si Si7 0.061295 0.839596 0.363823
Si Si8 0.166091 0.524086 0.253089
O O1 0.201040 0.337705 0.506808
O O2 0.098793 0.413224 0.647054
O O3 0.195010 0.512408 0.615404
O O4 0.137488 0.459341 0.379723
O O5 0.151428 0.750000 0.750000
O O6 0.159421 0.573544 0.898286
O O7 0.196510 0.742704 0.014941
O O8 0.083487 0.701168 0.980400
O O9 0.733554 0.250000 0.750000
O O10 0.786343 0.096247 0.829102
O O11 0.569192 0.250000 0.250000
O O12 0.613209 0.394492 0.080870
O O13 0.502560 0.390431 0.155490
O O14 0.721329 0.078657 0.336965
O O15 0.188802 0.039030 0.384330
O O16 0.061616 0.750000 0.250000
O O17 0.113741 0.911536 0.315196
#
# Coordination Sequence:
#
# PCOD9409720 Si02
#       8
#     8   8   8   8   4   8   8   8
#     4  11  24  38  62  91 131 168 214 267 320 410
#     4  11  22  36  66 104 125 162 220 276 332 390
#     4  12  21  39  63  99 138 170 211 274 339 395
#     4  10  25  46  62  87 129 179 222 275 336 395
#     4  10  20  36  56  82 124 168 194 258 316 384
#     4  10  23  38  62  93 128 166 218 265 336 386
#     4  10  20  43  68  87 132 176 221 278 328 390
#     4  11  21  39  64  99 125 167 218 268 329 394
#
# _framework density 21.535112999999999
#
# number of rings (size 3 to 8) (size 9 to 14) (size 15 to 20)
#    0.000    1.333    5.333    0.800    3.733    6.400 
#    0.000    4.000    0.000    0.000    0.000    0.000 
#    0.000    0.000    0.000    0.000    0.000    0.000 
#
# Total GULP energy -334475.108897 kJ/mol
# GULP energy per Si atom -5574.585148 kJ/mol
# Density = 2.148610 g / cm^3
# Si number density = 21.535113 Si / 1000 Ang^3
#
#
#
# Elastic Constant Matrix: (Units=GPa)
#
#
# Indices 1 2 3 4 5 6 
#
# 1 109.1933 17.7634 38.9522 0.0000 0.0000 0.0000
# 2 17.7634 51.2390 20.4289 0.0000 0.0000 0.0000
# 3 38.9522 20.4289 161.0734 0.0000 0.0000 0.0000
# 4 0.0000 0.0000 0.0000 38.1343 0.0000 0.0000
# 5 0.0000 0.0000 0.0000 0.0000 15.7160 0.0000
# 6 0.0000 0.0000 0.0000 0.0000 0.0000 30.7270
#
#
#
# Elastic Compliance Matrix: (Units=1/GPa)
#
#
# Indices 1 2 3 4 5 6 
#
# 1 0.010374 -0.002735 -0.002162 0.000000 0.000000 0.000000
# 2 -0.002735 0.021277 -0.002037 0.000000 0.000000 0.000000
# 3 -0.002162 -0.002037 0.006990 0.000000 0.000000 0.000000
# 4 0.000000 0.000000 0.000000 0.026223 0.000000 0.000000
# 5 0.000000 0.000000 0.000000 0.000000 0.063629 0.000000
# 6 0.000000 0.000000 0.000000 0.000000 0.000000 0.032545
#
#
# Mechanical properties :
#
#
# Convention : Reuss Voigt Hill
#
# Bulk Modulus (GPa) = 40.36666 52.86611 46.61638
# Shear Modulus (GPa) = 27.29819 33.20622 30.25220
#
# Velocity S-wave (km/s) = 3.56422 3.93104 3.75211
# Velocity P-wave (km/s) = 5.97691 6.72355 6.36120
#
# Compressibility (1/GPa) = 0.02477292
#
# Stress axis : x y z
#
# Youngs Moduli (GPa) = 96.39353 46.99999 143.07069
#
# Poissons Ratio (x) = 0.12852 0.30931
# Poissons Ratio (y) = 0.26359 0.29147
# Poissons Ratio (z) = 0.20840 0.09575
#
# Static dielectric constant tensor:
#      x y z
#    x 1.868520 0.000000 0.000000 
#    y 0.000000 1.887530 0.000000 
#    z 0.000000 0.000000 1.837930 
# 
# From -- ./inp_files/14459.got.cif
#   From: 2010.05.17/outbox.cif.g08.bks.cpg/sg52_8_cif.got.tgz:14459.got - 2010.06.03 12:15:38.
