data_PCOD9409822
_publ_section_title
;
Structure prediction by ZEFSAII (Michael W. Deem and Ramdas Pophale) SiO2 
 PCOD9409822
Probable space group: P N N A
;
_chemical_formula_sum "Si O2"
_cell_formula_units_Z 20
_cell_length_a 8.411974
_cell_length_b 7.670398
_cell_length_c 11.224080
_cell_angle_alpha 90.000000
_cell_angle_beta 90.000000
_cell_angle_gamma 90.000000
_cell_volume 724.213430
_symmetry_space_group_name_H-M "P N N A"
_symmetry_group_IT_number 52
_symmetry_cell_setting 'orthorhombic'
loop_
_space_group_symop_operation_xyz
x,y,z
1/2-x,-y,z
x,1/2-y,1/2-z
1/2-x,1/2+y,1/2-z
-x,-y,-z
1/2+x,y,-z
-x,1/2+y,1/2+z
1/2+x,1/2-y,1/2+z
loop_
_atom_site_type_symbol
_atom_site_label
_atom_site_fract_x
_atom_site_fract_y
_atom_site_fract_z
Si Si1 0.754660 0.699867 0.455333
Si Si2 0.501276 0.250000 0.750000
Si Si3 0.054179 0.904471 0.380204
O O1 0.750000 0.500000 0.488095
O O2 0.609848 0.724588 0.364760
O O3 0.909652 0.763262 0.381983
O O4 0.713690 0.804323 0.577370
O O5 0.564292 0.450516 0.776381
O O6 0.000000 0.000000 0.500000
#
# Coordination Sequence:
#
# PCOD9409822 Si02
#       3
#     8   4   8
#     4  11  21  38  66  98 134 178 222 276 336 400
#     4  10  20  36  62  94 130 178 232 270 318 408
#     4  10  21  38  64  95 131 177 224 276 334 395
#
# _framework density 27.616167999999998
#
# number of rings (size 3 to 8) (size 9 to 14) (size 15 to 20)
#    0.000    1.600    0.000    8.400    0.000    0.000 
#    0.000    0.000    0.000  134.400    0.000    0.000 
#    0.000    0.000    0.000    1.600    0.000    0.000 
#
# Total GULP energy -111542.339725 kJ/mol
# GULP energy per Si atom -5577.116986 kJ/mol
# Density = 2.755331 g / cm^3
# Si number density = 27.616168 Si / 1000 Ang^3
#
#
#
# Elastic Constant Matrix: (Units=GPa)
#
#
# Indices 1 2 3 4 5 6 
#
# 1 131.6466 78.2687 26.9636 0.0000 0.0000 0.0000
# 2 78.2687 216.9268 78.3953 0.0000 0.0000 0.0000
# 3 26.9636 78.3953 107.7142 0.0000 0.0000 0.0000
# 4 0.0000 0.0000 0.0000 80.5815 0.0000 0.0000
# 5 0.0000 0.0000 0.0000 0.0000 19.8068 0.0000
# 6 0.0000 0.0000 0.0000 0.0000 0.0000 103.6939
#
#
#
# Elastic Compliance Matrix: (Units=1/GPa)
#
#
# Indices 1 2 3 4 5 6 
#
# 1 0.009673 -0.003548 0.000161 0.000000 0.000000 0.000000
# 2 -0.003548 0.007557 -0.004612 0.000000 0.000000 0.000000
# 3 0.000161 -0.004612 0.012600 0.000000 0.000000 0.000000
# 4 0.000000 0.000000 0.000000 0.012410 0.000000 0.000000
# 5 0.000000 0.000000 0.000000 0.000000 0.050488 0.000000
# 6 0.000000 0.000000 0.000000 0.000000 0.000000 0.009644
#
#
# Mechanical properties :
#
#
# Convention : Reuss Voigt Hill
#
# Bulk Modulus (GPa) = 72.29735 91.50476 81.90106
# Shear Modulus (GPa) = 40.65761 58.99377 49.82569
#
# Velocity S-wave (km/s) = 3.84114 4.62692 4.25222
# Velocity P-wave (km/s) = 6.77559 7.85818 7.33688
#
# Compressibility (1/GPa) = 0.01383177
#
# Stress axis : x y z
#
# Youngs Moduli (GPa) = 103.38472 132.33413 79.36601
#
# Poissons Ratio (x) = 0.46954 -0.01278
# Poissons Ratio (y) = 0.36683 0.36600
# Poissons Ratio (z) = -0.01665 0.61027
#
# Static dielectric constant tensor:
#      x y z
#    x 2.355420 0.000000 0.000000 
#    y 0.000000 5.110990 0.000000 
#    z 0.000000 0.000000 2.169810 
# 
# From -- ./inp_files/16167.got.cif
#   From: 2010.05.17/outbox.cif.g08.bks.cpg/sg52_9_cif.got.tgz:16167.got - 2010.06.03 12:15:38.
