data_PCOD9409688
_publ_section_title
;
Structure prediction by ZEFSAII (Michael W. Deem and Ramdas Pophale) SiO2 
 PCOD9409688
Probable space group: P N N A
;
_chemical_formula_sum "Si O2"
_cell_formula_units_Z 48
_cell_length_a 19.157050
_cell_length_b 14.917977
_cell_length_c 8.935207
_cell_angle_alpha 90.000000
_cell_angle_beta 90.000000
_cell_angle_gamma 90.000000
_cell_volume 2553.543051
_symmetry_space_group_name_H-M "P N N A"
_symmetry_group_IT_number 52
_symmetry_cell_setting 'orthorhombic'
loop_
_space_group_symop_operation_xyz
x,y,z
1/2-x,-y,z
x,1/2-y,1/2-z
1/2-x,1/2+y,1/2-z
-x,-y,-z
1/2+x,y,-z
-x,1/2+y,1/2+z
1/2+x,1/2-y,1/2+z
loop_
_atom_site_type_symbol
_atom_site_label
_atom_site_fract_x
_atom_site_fract_y
_atom_site_fract_z
Si Si1 0.530258 0.771830 0.076586
Si Si2 0.893429 0.938555 0.423890
Si Si3 0.381283 0.758942 0.926515
Si Si4 0.320257 0.556841 0.602241
Si Si5 0.440996 0.098876 0.391027
Si Si6 0.930603 0.053850 0.951562
O O1 0.523084 0.750000 0.250000
O O2 0.452513 0.787815 0.009069
O O3 0.564689 0.692421 0.979169
O O4 0.573959 0.862095 0.061646
O O5 0.863899 0.842202 0.479596
O O6 0.859404 0.955029 0.262216
O O7 0.976612 0.923757 0.407717
O O8 0.891746 0.023822 0.532786
O O9 0.399292 0.750000 0.750000
O O10 0.322640 0.836233 0.931480
O O11 0.250000 0.500000 0.609416
O O12 0.367283 0.512683 0.474587
O O13 0.431113 0.095199 0.213731
O O14 0.000000 0.000000 0.000000
#
# Coordination Sequence:
#
# PCOD9409688 Si02
#       6
#     8   8   8   8   8   8
#     4  11  21  33  59  93 122 151 201 261 318 367
#     4   9  18  35  59  87 114 150 199 257 306 361
#     4   9  18  34  56  81 114 153 196 247 306 357
#     4  11  22  37  56  85 124 167 208 247 304 370
#     4  10  20  35  61  89 119 147 199 260 313 360
#     4  12  21  36  59  88 121 157 199 253 313 359
#
# _framework density 18.797412000000001
#
# number of rings (size 3 to 8) (size 9 to 14) (size 15 to 20)
#    0.000    1.667    3.333    3.500    4.667    0.000 
#    0.000    8.333    0.000    4.000    0.000    0.000 
#    0.000    0.000    0.000    0.000    0.000    0.000 
#
# Total GULP energy -267500.305091 kJ/mol
# GULP energy per Si atom -5572.923023 kJ/mol
# Density = 1.875463 g / cm^3
# Si number density = 18.797412 Si / 1000 Ang^3
#
#
#
# Elastic Constant Matrix: (Units=GPa)
#
#
# Indices 1 2 3 4 5 6 
#
# 1 25.8871 46.7919 5.4055 0.0000 0.0000 0.0000
# 2 46.7919 135.2930 38.0291 0.0000 0.0000 0.0000
# 3 5.4055 38.0291 67.1417 0.0000 0.0000 0.0000
# 4 0.0000 0.0000 0.0000 28.8703 0.0000 0.0000
# 5 0.0000 0.0000 0.0000 0.0000 9.3689 0.0000
# 6 0.0000 0.0000 0.0000 0.0000 0.0000 24.1719
#
#
#
# Elastic Compliance Matrix: (Units=1/GPa)
#
#
# Indices 1 2 3 4 5 6 
#
# 1 0.115731 -0.044491 0.015882 0.000000 0.000000 0.000000
# 2 -0.044491 0.025894 -0.011085 0.000000 0.000000 0.000000
# 3 0.015882 -0.011085 0.019894 0.000000 0.000000 0.000000
# 4 0.000000 0.000000 0.000000 0.034638 0.000000 0.000000
# 5 0.000000 0.000000 0.000000 0.000000 0.106736 0.000000
# 6 0.000000 0.000000 0.000000 0.000000 0.000000 0.041370
#
#
# Mechanical properties :
#
#
# Convention : Reuss Voigt Hill
#
# Bulk Modulus (GPa) = 12.17540 45.41942 28.79741
# Shear Modulus (GPa) = 11.08580 21.68858 16.38719
#
# Velocity S-wave (km/s) = 2.43111 3.40046 2.95579
# Velocity P-wave (km/s) = 3.79100 6.29544 5.19635
#
# Compressibility (1/GPa) = 0.08213282
#
# Stress axis : x y z
#
# Youngs Moduli (GPa) = 8.64072 38.61828 50.26726
#
# Poissons Ratio (x) = 1.71815 -0.79835
# Poissons Ratio (y) = 0.38443 0.55720
# Poissons Ratio (z) = -0.13723 0.42808
#
# Static dielectric constant tensor:
#      x y z
#    x 1.632720 0.000000 0.000000 
#    y 0.000000 1.747360 0.000000 
#    z 0.000000 0.000000 1.672470 
# 
# From -- ./inp_files/12105.got.cif
#   From: 2010.05.17/outbox.cif.g08.bks.cpg/sg52_7_cif.got.tgz:12105.got - 2010.06.03 12:15:38.
