data_PCOD9409442
_publ_section_title
;
Structure prediction by ZEFSAII (Michael W. Deem and Ramdas Pophale) SiO2 
 PCOD9409442
Probable space group: P N N A
;
_chemical_formula_sum "Si O2"
_cell_formula_units_Z 40
_cell_length_a 8.522644
_cell_length_b 11.905758
_cell_length_c 16.774800
_cell_angle_alpha 90.000000
_cell_angle_beta 90.000000
_cell_angle_gamma 90.000000
_cell_volume 1702.114414
_symmetry_space_group_name_H-M "P N N A"
_symmetry_group_IT_number 52
_symmetry_cell_setting 'orthorhombic'
loop_
_space_group_symop_operation_xyz
x,y,z
1/2-x,-y,z
x,1/2-y,1/2-z
1/2-x,1/2+y,1/2-z
-x,-y,-z
1/2+x,y,-z
-x,1/2+y,1/2+z
1/2+x,1/2-y,1/2+z
loop_
_atom_site_type_symbol
_atom_site_label
_atom_site_fract_x
_atom_site_fract_y
_atom_site_fract_z
Si Si1 0.686639 0.620538 0.063048
Si Si2 0.786662 0.616792 0.230495
Si Si3 0.946719 0.784435 0.009636
Si Si4 0.781875 0.335286 0.619754
Si Si5 0.657701 0.604296 0.800230
O O1 0.750000 0.500000 0.032515
O O2 0.667006 0.602762 0.156882
O O3 0.536998 0.673742 0.021969
O O4 0.806440 0.725843 0.057336
O O5 0.750000 0.500000 0.280260
O O6 0.767730 0.750000 0.250000
O O7 0.969760 0.607518 0.205735
O O8 0.869200 0.852022 0.936147
O O9 0.062865 0.854597 0.066119
O O10 0.786236 0.384911 0.708031
O O11 0.791650 0.204661 0.642577
O O12 0.750000 0.500000 0.833933
#
# Coordination Sequence:
#
# PCOD9409442 Si02
#       5
#     8   8   8   8   8
#     4  10  20  32  53  87 123 160 210 266 334 394
#     4  11  23  42  63  94 134 175 222 282 340 410
#     4  10  20  36  60  87 125 176 216 282 336 407
#     4  10  22  41  64  91 132 171 230 275 355 406
#     4  11  23  42  65  93 137 180 222 282 345 421
#
# _framework density 23.500181999999999
#
# number of rings (size 3 to 8) (size 9 to 14) (size 15 to 20)
#    0.000    1.600    4.000    0.600    5.600    4.800 
#    0.000    1.000    0.000    4.800    0.000    0.000 
#    0.000    0.000    0.000    0.000    0.000    0.000 
#
# Total GULP energy -222845.342922 kJ/mol
# GULP energy per Si atom -5571.133573 kJ/mol
# Density = 2.344669 g / cm^3
# Si number density = 23.500182 Si / 1000 Ang^3
#
#
#
# Elastic Constant Matrix: (Units=GPa)
#
#
# Indices 1 2 3 4 5 6 
#
# 1 26.1882 21.7239 13.9173 0.0000 0.0000 0.0000
# 2 21.7239 114.1658 0.7960 0.0000 0.0000 0.0000
# 3 13.9173 0.7960 95.5345 0.0000 0.0000 0.0000
# 4 0.0000 0.0000 0.0000 -66.5436 0.0000 0.0000
# 5 0.0000 0.0000 0.0000 0.0000 41.3690 0.0000
# 6 0.0000 0.0000 0.0000 0.0000 0.0000 6.1227
#
#
#
# Elastic Compliance Matrix: (Units=1/GPa)
#
#
# Indices 1 2 3 4 5 6 
#
# 1 0.049824 -0.009431 -0.007180 0.000000 0.000000 0.000000
# 2 -0.009431 0.010545 0.001286 0.000000 0.000000 0.000000
# 3 -0.007180 0.001286 0.011503 0.000000 0.000000 0.000000
# 4 0.000000 0.000000 0.000000 -0.015028 0.000000 0.000000
# 5 0.000000 0.000000 0.000000 0.000000 0.024173 0.000000
# 6 0.000000 0.000000 0.000000 0.000000 0.000000 0.163327
#
#
# Mechanical properties :
#
#
# Convention : Reuss Voigt Hill
#
# Bulk Modulus (GPa) = 24.25863 34.30699 29.28281
# Shear Modulus (GPa) = 17.31710 9.48638 13.40174
#
# Velocity S-wave (km/s) = 2.71752 2.01134 2.39065
# Velocity P-wave (km/s) = 4.49352 4.47485 4.48419
#
# Compressibility (1/GPa) = 0.04122245
#
# Stress axis : x y z
#
# Youngs Moduli (GPa) = 20.07084 94.83437 86.93674
#
# Poissons Ratio (x) = 0.89434 0.62417
# Poissons Ratio (y) = 0.18928 -0.11180
# Poissons Ratio (z) = 0.14410 -0.12195
#
# Static dielectric constant tensor:
#      x y z
#    x 1.888270 0.000000 0.000000 
#    y 0.000000 2.062730 0.000000 
#    z 0.000000 0.000000 1.956100 
# 
# From -- ./inp_files/30870.got.cif
#   From: 2010.05.17/outbox.cif.g08.bks.cpg/sg52_16_cif.got.tgz:30870.got - 2010.06.03 12:15:38.
