data_PCOD9409790
_publ_section_title
;
Structure prediction by ZEFSAII (Michael W. Deem and Ramdas Pophale) SiO2 
 PCOD9409790
Probable space group: P N N A
;
_chemical_formula_sum "Si O2"
_cell_formula_units_Z 48
_cell_length_a 8.764636
_cell_length_b 15.253822
_cell_length_c 17.402870
_cell_angle_alpha 90.000000
_cell_angle_beta 90.000000
_cell_angle_gamma 90.000000
_cell_volume 2326.662738
_symmetry_space_group_name_H-M "P N N A"
_symmetry_group_IT_number 52
_symmetry_cell_setting 'orthorhombic'
loop_
_space_group_symop_operation_xyz
x,y,z
1/2-x,-y,z
x,1/2-y,1/2-z
1/2-x,1/2+y,1/2-z
-x,-y,-z
1/2+x,y,-z
-x,1/2+y,1/2+z
1/2+x,1/2-y,1/2+z
loop_
_atom_site_type_symbol
_atom_site_label
_atom_site_fract_x
_atom_site_fract_y
_atom_site_fract_z
Si Si1 0.843582 0.152699 0.247396
Si Si2 0.591629 0.034204 0.819571
Si Si3 0.649676 0.413434 0.392833
Si Si4 0.300172 0.600778 0.905441
Si Si5 0.836285 0.683865 0.555374
Si Si6 0.072832 0.804179 0.481605
O O1 0.912082 0.250000 0.250000
O O2 0.733913 0.140951 0.173690
O O3 0.744283 0.139021 0.322982
O O4 0.971809 0.077497 0.239046
O O5 0.627101 0.111164 0.881196
O O6 0.750000 0.000000 0.785646
O O7 0.509548 0.953319 0.863232
O O8 0.750000 0.500000 0.406158
O O9 0.653330 0.361122 0.471562
O O10 0.250000 0.500000 0.902792
O O11 0.469317 0.633085 0.928779
O O12 0.196019 0.641719 0.971650
O O13 0.672030 0.730685 0.563432
O O14 0.967505 0.756918 0.546026
#
# Coordination Sequence:
#
# PCOD9409790 Si02
#       6
#     8   8   8   8   8   8
#     4  11  23  42  62  83 116 159 200 245 300 358
#     4  11  22  36  57  91 125 157 194 239 294 356
#     4  10  20  36  60  90 121 162 197 228 290 361
#     4  11  22  42  63  85 116 153 201 255 300 352
#     4  11  19  36  60  92 129 156 190 239 286 351
#     4  10  22  36  61  91 114 155 201 242 297 354
#
# _framework density 20.630407000000002
#
# number of rings (size 3 to 8) (size 9 to 14) (size 15 to 20)
#    0.000    1.333    0.000    9.000    0.000    0.000 
#    0.000   11.667    0.000    0.000    0.000    0.000 
#    0.000    0.000    0.000    0.000    0.000    0.000 
#
# Total GULP energy -268222.838629 kJ/mol
# GULP energy per Si atom -5587.975805 kJ/mol
# Density = 2.058345 g / cm^3
# Si number density = 20.630407 Si / 1000 Ang^3
#
#
#
# Elastic Constant Matrix: (Units=GPa)
#
#
# Indices 1 2 3 4 5 6 
#
# 1 72.9635 10.8237 -3.3524 0.0000 0.0000 0.0000
# 2 10.8237 75.1264 -12.8051 0.0000 0.0000 0.0000
# 3 -3.3524 -12.8051 34.1870 0.0000 0.0000 0.0000
# 4 0.0000 0.0000 0.0000 30.9539 0.0000 0.0000
# 5 0.0000 0.0000 0.0000 0.0000 14.8553 0.0000
# 6 0.0000 0.0000 0.0000 0.0000 0.0000 29.7016
#
#
#
# Elastic Compliance Matrix: (Units=1/GPa)
#
#
# Indices 1 2 3 4 5 6 
#
# 1 0.014019 -0.001907 0.000660 0.000000 0.000000 0.000000
# 2 -0.001907 0.014478 0.005236 0.000000 0.000000 0.000000
# 3 0.000660 0.005236 0.031277 0.000000 0.000000 0.000000
# 4 0.000000 0.000000 0.000000 0.032306 0.000000 0.000000
# 5 0.000000 0.000000 0.000000 0.000000 0.067316 0.000000
# 6 0.000000 0.000000 0.000000 0.000000 0.000000 0.033668
#
#
# Mechanical properties :
#
#
# Convention : Reuss Voigt Hill
#
# Bulk Modulus (GPa) = 14.75974 19.06769 16.91372
# Shear Modulus (GPa) = 24.07667 27.60953 25.84310
#
# Velocity S-wave (km/s) = 3.41991 3.66224 3.54315
# Velocity P-wave (km/s) = 4.77120 5.21011 4.99548
#
# Compressibility (1/GPa) = 0.06775187
#
# Stress axis : x y z
#
# Youngs Moduli (GPa) = 71.33311 69.06966 31.97256
#
# Poissons Ratio (x) = 0.13173 -0.02111
# Poissons Ratio (y) = 0.13604 -0.16741
# Poissons Ratio (z) = -0.04710 -0.36164
#
# Static dielectric constant tensor:
#      x y z
#    x 1.764270 0.000000 0.000000 
#    y 0.000000 1.816720 0.000000 
#    z 0.000000 0.000000 1.691030 
# 
# From -- ./inp_files/31204.got.cif
#   From: 2010.05.17/outbox.cif.g08.bks.cpg/sg52_16_cif.got.tgz:31204.got - 2010.06.03 12:15:38.
