data_PCOD9409164
_publ_section_title
;
Structure prediction by ZEFSAII (Michael W. Deem and Ramdas Pophale) SiO2 
 PCOD9409164
Probable space group: P N N A
;
_chemical_formula_sum "Si O2"
_cell_formula_units_Z 48
_cell_length_a 16.678954
_cell_length_b 19.665448
_cell_length_c 7.805386
_cell_angle_alpha 90.000000
_cell_angle_beta 90.000000
_cell_angle_gamma 90.000000
_cell_volume 2560.159603
_symmetry_space_group_name_H-M "P N N A"
_symmetry_group_IT_number 52
_symmetry_cell_setting 'orthorhombic'
loop_
_space_group_symop_operation_xyz
x,y,z
1/2-x,-y,z
x,1/2-y,1/2-z
1/2-x,1/2+y,1/2-z
-x,-y,-z
1/2+x,y,-z
-x,1/2+y,1/2+z
1/2+x,1/2-y,1/2+z
loop_
_atom_site_type_symbol
_atom_site_label
_atom_site_fract_x
_atom_site_fract_y
_atom_site_fract_z
Si Si1 0.256141 0.175746 0.277135
Si Si2 0.610038 0.818734 0.026382
Si Si3 0.672599 0.042966 0.845226
Si Si4 0.863150 0.331031 0.090324
Si Si5 0.054215 0.951085 0.390119
Si Si6 0.973907 0.923957 0.056161
O O1 0.218141 0.250000 0.250000
O O2 0.203701 0.109529 0.250942
O O3 0.285820 0.175519 0.471730
O O4 0.331969 0.171399 0.140159
O O5 0.589465 0.738792 0.044194
O O6 0.652962 0.834801 0.207673
O O7 0.532484 0.867336 0.024683
O O8 0.750000 0.000000 0.904938
O O9 0.620397 0.993334 0.720781
O O10 0.617226 0.073856 0.995222
O O11 0.907112 0.396609 0.016264
O O12 0.994238 0.916671 0.254655
O O13 0.000000 0.000000 0.500000
O O14 0.000000 0.000000 0.000000
#
# Coordination Sequence:
#
# PCOD9409164 Si02
#       6
#     8   8   8   8   8   8
#     4  10  20  39  63  88 125 164 197 249 312 372
#     4  10  20  37  65  92 116 162 206 253 299 369
#     4  11  21  39  61  87 125 164 200 254 317 364
#     4  10  19  36  65  90 119 156 212 242 305 367
#     4  11  22  39  61  88 122 160 209 260 301 372
#     4  10  20  37  59  86 120 154 201 250 305 357
#
# _framework density 18.748832
#
# number of rings (size 3 to 8) (size 9 to 14) (size 15 to 20)
#    0.000    1.667    3.333    3.000    0.000    0.000 
#    9.000    0.833    3.667    0.000    0.000    0.000 
#    0.000    0.000    0.000    0.000    0.000    0.000 
#
# Total GULP energy -267346.185714 kJ/mol
# GULP energy per Si atom -5569.712202 kJ/mol
# Density = 1.870616 g / cm^3
# Si number density = 18.748832 Si / 1000 Ang^3
#
#
#
# Elastic Constant Matrix: (Units=GPa)
#
#
# Indices 1 2 3 4 5 6 
#
# 1 64.0348 25.1455 19.6875 0.0000 0.0000 0.0000
# 2 25.1455 98.6904 3.5210 0.0000 0.0000 0.0000
# 3 19.6875 3.5210 85.6718 0.0000 0.0000 0.0000
# 4 0.0000 0.0000 0.0000 26.8502 0.0000 0.0000
# 5 0.0000 0.0000 0.0000 0.0000 12.6489 0.0000
# 6 0.0000 0.0000 0.0000 0.0000 0.0000 23.8231
#
#
#
# Elastic Compliance Matrix: (Units=1/GPa)
#
#
# Indices 1 2 3 4 5 6 
#
# 1 0.018691 -0.004616 -0.004106 0.000000 0.000000 0.000000
# 2 -0.004616 0.011288 0.000597 0.000000 0.000000 0.000000
# 3 -0.004106 0.000597 0.012591 0.000000 0.000000 0.000000
# 4 0.000000 0.000000 0.000000 0.037244 0.000000 0.000000
# 5 0.000000 0.000000 0.000000 0.000000 0.079058 0.000000
# 6 0.000000 0.000000 0.000000 0.000000 0.000000 0.041976
#
#
# Mechanical properties :
#
#
# Convention : Reuss Voigt Hill
#
# Bulk Modulus (GPa) = 37.99261 38.34501 38.16881
# Shear Modulus (GPa) = 22.13650 26.00065 24.06857
#
# Velocity S-wave (km/s) = 3.43984 3.72800 3.58681
# Velocity P-wave (km/s) = 6.00705 6.24716 6.12828
#
# Compressibility (1/GPa) = 0.02632091
#
# Stress axis : x y z
#
# Youngs Moduli (GPa) = 53.50058 88.59355 79.41926
#
# Poissons Ratio (x) = 0.40894 0.32606
# Poissons Ratio (y) = 0.24696 -0.04740
# Poissons Ratio (z) = 0.21965 -0.05288
#
# Static dielectric constant tensor:
#      x y z
#    x 1.827420 0.000000 0.000000 
#    y 0.000000 1.714860 0.000000 
#    z 0.000000 0.000000 1.683180 
# 
# From -- ./inp_files/12308.got.cif
#   From: 2010.05.17/outbox.cif.g08.bks.cpg/sg52_7_cif.got.tgz:12308.got - 2010.06.03 12:15:38.
