data_PCOD9409972
_publ_section_title
;
Structure prediction by ZEFSAII (Michael W. Deem and Ramdas Pophale) SiO2 
 PCOD9409972
Probable space group: P N N A
;
_chemical_formula_sum "Si O2"
_cell_formula_units_Z 32
_cell_length_a 4.968901
_cell_length_b 9.573020
_cell_length_c 28.645730
_cell_angle_alpha 90.000000
_cell_angle_beta 90.000000
_cell_angle_gamma 90.000000
_cell_volume 1362.602572
_symmetry_space_group_name_H-M "P N N A"
_symmetry_group_IT_number 52
_symmetry_cell_setting 'orthorhombic'
loop_
_space_group_symop_operation_xyz
x,y,z
1/2-x,-y,z
x,1/2-y,1/2-z
1/2-x,1/2+y,1/2-z
-x,-y,-z
1/2+x,y,-z
-x,1/2+y,1/2+z
1/2+x,1/2-y,1/2+z
loop_
_atom_site_type_symbol
_atom_site_label
_atom_site_fract_x
_atom_site_fract_y
_atom_site_fract_z
Si Si1 0.917967 0.783463 0.622286
Si Si2 0.286376 0.160223 0.032070
Si Si3 0.392224 0.644938 0.653609
Si Si4 0.036274 0.250000 0.750000
Si Si5 0.250000 0.500000 0.194939
O O1 0.794939 0.774200 0.570665
O O2 0.709467 0.673494 0.648212
O O3 0.228685 0.743054 0.618784
O O4 0.924780 0.914497 0.657176
O O5 0.250000 0.000000 0.051443
O O6 0.582759 0.170649 0.011350
O O7 0.250000 0.500000 0.644092
O O8 0.307544 0.688458 0.705998
O O9 0.878543 0.382081 0.772006
#
# Coordination Sequence:
#
# PCOD9409972 Si02
#       5
#     8   8   8   4   4
#     4  11  24  43  63  99 135 176 218 276 340 388
#     4  10  20  37  66  97 131 169 218 271 328 405
#     4  11  24  38  66  92 132 174 221 276 326 396
#     4  10  26  40  70  92 134 176 236 266 338 384
#     4  10  26  46  68  96 138 182 224 284 322 408
#
# _framework density 23.484473000000001
#
# number of rings (size 3 to 8) (size 9 to 14) (size 15 to 20)
#    0.000    1.500    0.000    3.750   10.500    6.000 
#    0.000    1.250    0.000    0.000    0.000    0.000 
#    0.000    0.000    0.000    0.000    0.000    0.000 
#
# Total GULP energy -178371.735222 kJ/mol
# GULP energy per Si atom -5574.116726 kJ/mol
# Density = 2.343102 g / cm^3
# Si number density = 23.484473 Si / 1000 Ang^3
#
#
#
# Elastic Constant Matrix: (Units=GPa)
#
#
# Indices 1 2 3 4 5 6 
#
# 1 78.7926 18.3049 8.9860 0.0000 0.0000 0.0000
# 2 18.3049 93.6519 25.1381 0.0000 0.0000 0.0000
# 3 8.9860 25.1381 110.0934 0.0000 0.0000 0.0000
# 4 0.0000 0.0000 0.0000 5.7869 0.0000 0.0000
# 5 0.0000 0.0000 0.0000 0.0000 19.9765 0.0000
# 6 0.0000 0.0000 0.0000 0.0000 0.0000 1.4052
#
#
#
# Elastic Compliance Matrix: (Units=1/GPa)
#
#
# Indices 1 2 3 4 5 6 
#
# 1 0.013324 -0.002463 -0.000525 0.000000 0.000000 0.000000
# 2 -0.002463 0.011830 -0.002500 0.000000 0.000000 0.000000
# 3 -0.000525 -0.002500 0.009697 0.000000 0.000000 0.000000
# 4 0.000000 0.000000 0.000000 0.172806 0.000000 0.000000
# 5 0.000000 0.000000 0.000000 0.000000 0.050059 0.000000
# 6 0.000000 0.000000 0.000000 0.000000 0.000000 0.711631
#
#
# Mechanical properties :
#
#
# Convention : Reuss Voigt Hill
#
# Bulk Modulus (GPa) = 41.88669 43.04399 42.46534
# Shear Modulus (GPa) = 5.05929 20.77431 12.91680
#
# Velocity S-wave (km/s) = 1.46935 2.97745 2.34778
# Velocity P-wave (km/s) = 4.55558 5.49443 5.04688
#
# Compressibility (1/GPa) = 0.02387393
#
# Stress axis : x y z
#
# Youngs Moduli (GPa) = 75.05433 84.52793 103.12534
#
# Poissons Ratio (x) = 0.20821 0.05415
# Poissons Ratio (y) = 0.18488 0.25784
# Poissons Ratio (z) = 0.03941 0.21134
#
# Static dielectric constant tensor:
#      x y z
#    x 1.987760 0.000000 0.000000 
#    y 0.000000 1.852880 0.000000 
#    z 0.000000 0.000000 1.907980 
# 
# From -- ./inp_files/43489.got.cif
#   From: 2010.05.17/outbox.cif.g08.bks.cpg/sg52_22_cif.got.tgz:43489.got - 2010.06.03 12:15:38.
