data_PCOD9409500
_publ_section_title
;
Structure prediction by ZEFSAII (Michael W. Deem and Ramdas Pophale) SiO2 
 PCOD9409500
Probable space group: P N N A
;
_chemical_formula_sum "Si O2"
_cell_formula_units_Z 64
_cell_length_a 22.463154
_cell_length_b 27.529584
_cell_length_c 5.596024
_cell_angle_alpha 90.000000
_cell_angle_beta 90.000000
_cell_angle_gamma 90.000000
_cell_volume 3460.588432
_symmetry_space_group_name_H-M "P N N A"
_symmetry_group_IT_number 52
_symmetry_cell_setting 'orthorhombic'
loop_
_space_group_symop_operation_xyz
x,y,z
1/2-x,-y,z
x,1/2-y,1/2-z
1/2-x,1/2+y,1/2-z
-x,-y,-z
1/2+x,y,-z
-x,1/2+y,1/2+z
1/2+x,1/2-y,1/2+z
loop_
_atom_site_type_symbol
_atom_site_label
_atom_site_fract_x
_atom_site_fract_y
_atom_site_fract_z
Si Si1 0.653042 0.621157 0.162095
Si Si2 0.301479 0.797372 0.384860
Si Si3 0.466950 0.942269 0.753295
Si Si4 0.750952 0.125998 0.983633
Si Si5 0.038999 0.944517 0.749755
Si Si6 0.828173 0.223677 0.492774
Si Si7 0.753524 0.556584 0.901013
Si Si8 0.647745 0.382846 0.133558
O O1 0.687635 0.640278 0.395264
O O2 0.595258 0.590762 0.226397
O O3 0.644673 0.669192 0.003453
O O4 0.702375 0.585541 0.044354
O O5 0.324515 0.750000 0.250000
O O6 0.268422 0.834753 0.208563
O O7 0.243992 0.781524 0.538342
O O8 0.351718 0.830070 0.508784
O O9 0.503337 0.938890 0.502234
O O10 0.413184 0.904456 0.727497
O O11 0.444314 0.998238 0.765412
O O12 0.503082 0.934175 0.002211
O O13 0.758181 0.072850 0.869668
O O14 0.695928 0.123841 0.160253
O O15 0.850309 0.250000 0.250000
O O16 0.837523 0.250000 0.750000
O O17 0.750000 0.500000 0.943195
O O18 0.818688 0.577971 0.964086
#
# Coordination Sequence:
#
# PCOD9409500 Si02
#       8
#     8   8   8   8   8   8   8   8
#     4  11  21  38  58  88 122 156 209 246 320 365
#     4  10  20  33  56  88 123 152 195 240 306 367
#     4  10  23  43  59  90 115 162 215 249 301 347
#     4  10  20  35  54  90 120 158 190 244 306 374
#     4  10  24  40  65  84 118 163 209 257 293 363
#     4  11  22  35  60  90 126 154 195 249 301 370
#     4  10  21  33  52  85 123 160 193 244 310 376
#     4  10  21  36  57  82 120 157 199 254 300 368
#
# _framework density 18.493963000000001
#
# number of rings (size 3 to 8) (size 9 to 14) (size 15 to 20)
#    0.000    1.750    3.750    2.250    5.250    3.000 
#    0.000    0.000    0.000    0.750    3.250    0.000 
#    0.000    0.000    0.000    0.000    0.000    0.000 
#
# Total GULP energy -356588.288417 kJ/mol
# GULP energy per Si atom -5571.692007 kJ/mol
# Density = 1.845187 g / cm^3
# Si number density = 18.493963 Si / 1000 Ang^3
#
#
#
# Elastic Constant Matrix: (Units=GPa)
#
#
# Indices 1 2 3 4 5 6 
#
# 1 86.1745 54.7347 42.8322 0.0000 0.0000 0.0000
# 2 54.7347 137.0177 56.9656 0.0000 0.0000 0.0000
# 3 42.8322 56.9656 101.3670 0.0000 0.0000 0.0000
# 4 0.0000 0.0000 0.0000 29.3676 0.0000 0.0000
# 5 0.0000 0.0000 0.0000 0.0000 11.3441 0.0000
# 6 0.0000 0.0000 0.0000 0.0000 0.0000 26.6967
#
#
#
# Elastic Compliance Matrix: (Units=1/GPa)
#
#
# Indices 1 2 3 4 5 6 
#
# 1 0.016914 -0.004939 -0.004371 0.000000 0.000000 0.000000
# 2 -0.004939 0.010966 -0.004075 0.000000 0.000000 0.000000
# 3 -0.004371 -0.004075 0.014002 0.000000 0.000000 0.000000
# 4 0.000000 0.000000 0.000000 0.034051 0.000000 0.000000
# 5 0.000000 0.000000 0.000000 0.000000 0.088152 0.000000
# 6 0.000000 0.000000 0.000000 0.000000 0.000000 0.037458
#
#
# Mechanical properties :
#
#
# Convention : Reuss Voigt Hill
#
# Bulk Modulus (GPa) = 66.17905 70.40268 68.29087
# Shear Modulus (GPa) = 21.42681 24.81678 23.12179
#
# Velocity S-wave (km/s) = 3.40749 3.66715 3.53970
# Velocity P-wave (km/s) = 7.16541 7.48874 7.32886
#
# Compressibility (1/GPa) = 0.01511052
#
# Stress axis : x y z
#
# Youngs Moduli (GPa) = 59.12119 91.19217 71.41609
#
# Poissons Ratio (x) = 0.45044 0.31218
# Poissons Ratio (y) = 0.29203 0.29105
# Poissons Ratio (z) = 0.25843 0.37164
#
# Static dielectric constant tensor:
#      x y z
#    x 1.594990 0.000000 0.000000 
#    y 0.000000 1.677970 0.000000 
#    z 0.000000 0.000000 1.753590 
# 
# From -- ./inp_files/4618.got.cif
#   From: 2010.05.17/outbox.cif.g08.bks.cpg/sg52_3_cif.got.tgz:4618.got - 2010.06.03 12:15:38.
