data_PCOD9409523
_publ_section_title
;
Structure prediction by ZEFSAII (Michael W. Deem and Ramdas Pophale) SiO2 
 PCOD9409523
Probable space group: P N N A
;
_chemical_formula_sum "Si O2"
_cell_formula_units_Z 44
_cell_length_a 20.211460
_cell_length_b 12.700108
_cell_length_c 8.203888
_cell_angle_alpha 90.000000
_cell_angle_beta 90.000000
_cell_angle_gamma 90.000000
_cell_volume 2105.837346
_symmetry_space_group_name_H-M "P N N A"
_symmetry_group_IT_number 52
_symmetry_cell_setting 'orthorhombic'
loop_
_space_group_symop_operation_xyz
x,y,z
1/2-x,-y,z
x,1/2-y,1/2-z
1/2-x,1/2+y,1/2-z
-x,-y,-z
1/2+x,y,-z
-x,1/2+y,1/2+z
1/2+x,1/2-y,1/2+z
loop_
_atom_site_type_symbol
_atom_site_label
_atom_site_fract_x
_atom_site_fract_y
_atom_site_fract_z
Si Si1 0.652830 0.670922 0.115616
Si Si2 0.628998 0.128513 0.293438
Si Si3 0.043785 0.785640 0.067200
Si Si4 0.250000 0.500000 0.852949
Si Si5 0.569643 0.161804 0.632089
Si Si6 0.960901 0.043236 0.181663
O O1 0.682806 0.750000 0.250000
O O2 0.706971 0.588187 0.055393
O O3 0.594405 0.608978 0.212911
O O4 0.615043 0.737433 0.980643
O O5 0.633936 0.250000 0.250000
O O6 0.695457 0.065054 0.252085
O O7 0.615547 0.119323 0.487969
O O8 0.567559 0.073421 0.202581
O O9 0.031626 0.750000 0.250000
O O10 0.042846 0.905016 0.997698
O O11 0.988368 0.727391 0.958488
O O12 0.601500 0.250000 0.750000
O O13 0.530566 0.071372 0.731842
#
# Coordination Sequence:
#
# PCOD9409523 Si02
#       6
#     8   8   8   4   8   8
#     4   8  15  30  51  72  97 135 179 218 265 325
#     4  11  21  35  56  83 111 146 193 240 281 333
#     4   9  16  31  56  84 111 139 176 224 278 340
#     4  10  20  34  52  72 100 146 190 228 274 326
#     4   9  18  35  56  81 113 144 175 221 283 350
#     4   8  17  33  55  81 111 144 175 216 279 343
#
# _framework density 20.894300999999999
#
# number of rings (size 3 to 8) (size 9 to 14) (size 15 to 20)
#    0.000    2.909    0.000    3.818    0.000    0.000 
#    0.000   14.545    0.000   10.909    0.000    1.273 
#    0.000    0.000    0.000    0.000    0.000    0.000 
#
# Total GULP energy -245412.441083 kJ/mol
# GULP energy per Si atom -5577.555479 kJ/mol
# Density = 2.084674 g / cm^3
# Si number density = 20.894301 Si / 1000 Ang^3
#
#
#
# Elastic Constant Matrix: (Units=GPa)
#
#
# Indices 1 2 3 4 5 6 
#
# 1 69.7975 39.1098 24.4584 0.0000 0.0000 0.0000
# 2 39.1098 133.3587 38.0239 0.0000 0.0000 0.0000
# 3 24.4584 38.0239 97.5826 0.0000 0.0000 0.0000
# 4 0.0000 0.0000 0.0000 24.9000 0.0000 0.0000
# 5 0.0000 0.0000 0.0000 0.0000 11.1006 0.0000
# 6 0.0000 0.0000 0.0000 0.0000 0.0000 26.5628
#
#
#
# Elastic Compliance Matrix: (Units=1/GPa)
#
#
# Indices 1 2 3 4 5 6 
#
# 1 0.017766 -0.004433 -0.002726 0.000000 0.000000 0.000000
# 2 -0.004433 0.009542 -0.002607 0.000000 0.000000 0.000000
# 3 -0.002726 -0.002607 0.011947 0.000000 0.000000 0.000000
# 4 0.000000 0.000000 0.000000 0.040161 0.000000 0.000000
# 5 0.000000 0.000000 0.000000 0.000000 0.090085 0.000000
# 6 0.000000 0.000000 0.000000 0.000000 0.000000 0.037647
#
#
# Mechanical properties :
#
#
# Convention : Reuss Voigt Hill
#
# Bulk Modulus (GPa) = 50.70075 55.99143 53.34609
# Shear Modulus (GPa) = 21.43595 25.78915 23.61255
#
# Velocity S-wave (km/s) = 3.20648 3.51703 3.36534
# Velocity P-wave (km/s) = 6.16658 6.58394 6.37867
#
# Compressibility (1/GPa) = 0.01972357
#
# Stress axis : x y z
#
# Youngs Moduli (GPa) = 56.28638 104.80002 83.70507
#
# Poissons Ratio (x) = 0.46459 0.22814
# Poissons Ratio (y) = 0.24953 0.21822
# Poissons Ratio (z) = 0.15341 0.27321
#
# Static dielectric constant tensor:
#      x y z
#    x 1.760470 0.000000 0.000000 
#    y 0.000000 1.858200 0.000000 
#    z 0.000000 0.000000 1.768650 
# 
# From -- ./inp_files/14180.got.cif
#   From: 2010.05.17/outbox.cif.g08.bks.cpg/sg52_8_cif.got.tgz:14180.got - 2010.06.03 12:15:38.
