data_PCOD9409911
_publ_section_title
;
Structure prediction by ZEFSAII (Michael W. Deem and Ramdas Pophale) SiO2 
 PCOD9409911
Probable space group: P N N A
;
_chemical_formula_sum "Si O2"
_cell_formula_units_Z 40
_cell_length_a 8.780365
_cell_length_b 7.913583
_cell_length_c 28.780655
_cell_angle_alpha 90.000000
_cell_angle_beta 90.000000
_cell_angle_gamma 90.000000
_cell_volume 1999.799268
_symmetry_space_group_name_H-M "P N N A"
_symmetry_group_IT_number 52
_symmetry_cell_setting 'orthorhombic'
loop_
_space_group_symop_operation_xyz
x,y,z
1/2-x,-y,z
x,1/2-y,1/2-z
1/2-x,1/2+y,1/2-z
-x,-y,-z
1/2+x,y,-z
-x,1/2+y,1/2+z
1/2+x,1/2-y,1/2+z
loop_
_atom_site_type_symbol
_atom_site_label
_atom_site_fract_x
_atom_site_fract_y
_atom_site_fract_z
Si Si1 0.424383 0.057939 0.229019
Si Si2 0.347399 0.667566 0.889207
Si Si3 0.428264 0.962523 0.327209
Si Si4 0.576514 0.057469 0.047226
Si Si5 0.559733 0.617544 0.358416
O O1 0.423785 0.250000 0.250000
O O2 0.480602 0.953494 0.273798
O O3 0.250000 0.000000 0.218821
O O4 0.525260 0.007670 0.184592
O O5 0.250000 0.500000 0.899509
O O6 0.477336 0.605968 0.854025
O O7 0.417065 0.748555 0.935816
O O8 0.230750 0.805264 0.866395
O O9 0.250000 0.000000 0.327210
O O10 0.460010 0.783428 0.349850
O O11 0.750000 0.000000 0.042537
O O12 0.511919 0.965361 0.092980
O O13 0.500000 0.000000 0.000000
#
# Coordination Sequence:
#
# PCOD9409911 Si02
#       5
#     8   8   8   8   8
#     4  11  21  35  58  88 121 159 204 252 294 350
#     4   9  20  41  62  84 120 155 194 247 303 361
#     4  10  20  37  61  91 122 157 200 246 294 354
#     4  10  22  40  60  85 115 151 196 249 303 359
#     4  10  21  39  59  84 120 158 196 248 304 358
#
# _framework density 20.002008
#
# number of rings (size 3 to 8) (size 9 to 14) (size 15 to 20)
#    0.000    2.000    0.000    4.200    0.000    2.400 
#    0.000   33.000    0.000    0.000    0.000    0.000 
#    0.000    0.000    0.000    0.000    0.000    0.000 
#
# Total GULP energy -223150.194838 kJ/mol
# GULP energy per Si atom -5578.754871 kJ/mol
# Density = 1.995648 g / cm^3
# Si number density = 20.002008 Si / 1000 Ang^3
#
#
#
# Elastic Constant Matrix: (Units=GPa)
#
#
# Indices 1 2 3 4 5 6 
#
# 1 54.3355 44.4377 71.3120 0.0000 0.0000 0.0000
# 2 44.4377 129.2123 74.3822 0.0000 0.0000 0.0000
# 3 71.3120 74.3822 194.4033 0.0000 0.0000 0.0000
# 4 0.0000 0.0000 0.0000 23.4567 0.0000 0.0000
# 5 0.0000 0.0000 0.0000 0.0000 26.6666 0.0000
# 6 0.0000 0.0000 0.0000 0.0000 0.0000 23.7585
#
#
#
# Elastic Compliance Matrix: (Units=1/GPa)
#
#
# Indices 1 2 3 4 5 6 
#
# 1 0.039594 -0.006741 -0.011945 0.000000 0.000000 0.000000
# 2 -0.006741 0.011073 -0.001764 0.000000 0.000000 0.000000
# 3 -0.011945 -0.001764 0.010201 0.000000 0.000000 0.000000
# 4 0.000000 0.000000 0.000000 0.042632 0.000000 0.000000
# 5 0.000000 0.000000 0.000000 0.000000 0.037500 0.000000
# 6 0.000000 0.000000 0.000000 0.000000 0.000000 0.042090
#
#
# Mechanical properties :
#
#
# Convention : Reuss Voigt Hill
#
# Bulk Modulus (GPa) = 50.07975 84.24610 67.16293
# Shear Modulus (GPa) = 21.67836 27.29765 24.48801
#
# Velocity S-wave (km/s) = 3.29570 3.69825 3.50276
# Velocity P-wave (km/s) = 6.29078 7.77473 7.07178
#
# Compressibility (1/GPa) = 0.01996815
#
# Stress axis : x y z
#
# Youngs Moduli (GPa) = 25.25641 90.31082 98.03325
#
# Poissons Ratio (x) = 0.60875 1.17100
# Poissons Ratio (y) = 0.17024 0.17294
# Poissons Ratio (z) = 0.30169 0.15931
#
# Static dielectric constant tensor:
#      x y z
#    x 1.719990 0.000000 0.000000 
#    y 0.000000 1.793250 0.000000 
#    z 0.000000 0.000000 1.693650 
# 
# From -- ./inp_files/39161.got.cif
#   From: 2010.05.17/outbox.cif.g08.bks.cpg/sg52_20_cif.got.tgz:39161.got - 2010.06.03 12:15:38.
