data_PCOD9409548
_publ_section_title
;
Structure prediction by ZEFSAII (Michael W. Deem and Ramdas Pophale) SiO2 
 PCOD9409548
Probable space group: P N N A
;
_chemical_formula_sum "Si O2"
_cell_formula_units_Z 48
_cell_length_a 8.575329
_cell_length_b 13.193218
_cell_length_c 19.907780
_cell_angle_alpha 90.000000
_cell_angle_beta 90.000000
_cell_angle_gamma 90.000000
_cell_volume 2252.290279
_symmetry_space_group_name_H-M "P N N A"
_symmetry_group_IT_number 52
_symmetry_cell_setting 'orthorhombic'
loop_
_space_group_symop_operation_xyz
x,y,z
1/2-x,-y,z
x,1/2-y,1/2-z
1/2-x,1/2+y,1/2-z
-x,-y,-z
1/2+x,y,-z
-x,1/2+y,1/2+z
1/2+x,1/2-y,1/2+z
loop_
_atom_site_type_symbol
_atom_site_label
_atom_site_fract_x
_atom_site_fract_y
_atom_site_fract_z
Si Si1 0.289455 0.771215 0.902598
Si Si2 0.750000 0.000000 0.118245
Si Si3 0.312538 0.112590 0.073251
Si Si4 0.516194 0.222335 0.977796
Si Si5 0.644127 0.860939 0.778295
Si Si6 0.290275 0.250000 0.750000
Si Si7 0.999587 0.559862 0.729027
O O1 0.292351 0.893485 0.915524
O O2 0.297738 0.759276 0.821805
O O3 0.118511 0.733672 0.929641
O O4 0.415531 0.723627 0.954621
O O5 0.899318 0.033790 0.162912
O O6 0.166737 0.188244 0.063347
O O7 0.393253 0.139630 0.142987
O O8 0.250000 0.000000 0.077148
O O9 0.428439 0.127523 0.011831
O O10 0.628534 0.750000 0.750000
O O11 0.826261 0.894744 0.778119
O O12 0.538221 0.947131 0.742565
O O13 0.396182 0.350850 0.760016
#
# Coordination Sequence:
#
# PCOD9409548 Si02
#       7
#     8   4   8   8   8   4   8
#     4  10  22  35  58  83 124 161 204 247 311 371
#     4  10  20  34  54  86 122 166 200 238 304 382
#     4  11  20  34  53  80 121 157 198 235 300 373
#     4  10  23  33  51  86 120 164 192 246 306 378
#     4  11  22  37  59  88 122 161 204 258 301 362
#     4  10  20  40  64  86 120 174 204 258 304 372
#     4  10  20  37  57  86 123 154 211 253 303 360
#
# _framework density 21.311641000000002
#
# number of rings (size 3 to 8) (size 9 to 14) (size 15 to 20)
#    0.000    1.667    2.500    3.500    7.000    0.000 
#   13.500    0.000    0.000    0.000    0.000    7.000 
#    0.000    0.000    0.000    0.000    0.000    0.000 
#
# Total GULP energy -267414.018784 kJ/mol
# GULP energy per Si atom -5571.125391 kJ/mol
# Density = 2.126313 g / cm^3
# Si number density = 21.311641 Si / 1000 Ang^3
#
#
#
# Elastic Constant Matrix: (Units=GPa)
#
#
# Indices 1 2 3 4 5 6 
#
# 1 103.7281 20.4983 37.6075 0.0000 0.0000 0.0000
# 2 20.4983 86.5635 24.8734 0.0000 0.0000 0.0000
# 3 37.6075 24.8734 106.8892 0.0000 0.0000 0.0000
# 4 0.0000 0.0000 0.0000 23.3495 0.0000 0.0000
# 5 0.0000 0.0000 0.0000 0.0000 56.5584 0.0000
# 6 0.0000 0.0000 0.0000 0.0000 0.0000 25.1699
#
#
#
# Elastic Compliance Matrix: (Units=1/GPa)
#
#
# Indices 1 2 3 4 5 6 
#
# 1 0.011263 -0.001638 -0.003582 0.000000 0.000000 0.000000
# 2 -0.001638 0.012618 -0.002360 0.000000 0.000000 0.000000
# 3 -0.003582 -0.002360 0.011165 0.000000 0.000000 0.000000
# 4 0.000000 0.000000 0.000000 0.042827 0.000000 0.000000
# 5 0.000000 0.000000 0.000000 0.000000 0.017681 0.000000
# 6 0.000000 0.000000 0.000000 0.000000 0.000000 0.039730
#
#
# Mechanical properties :
#
#
# Convention : Reuss Voigt Hill
#
# Bulk Modulus (GPa) = 50.28439 51.45990 50.87214
# Shear Modulus (GPa) = 31.83256 35.29567 33.56412
#
# Velocity S-wave (km/s) = 3.86900 4.07402 3.97283
# Velocity P-wave (km/s) = 6.60340 6.80654 6.70574
#
# Compressibility (1/GPa) = 0.01988689
#
# Stress axis : x y z
#
# Youngs Moduli (GPa) = 88.78808 79.25055 89.56750
#
# Poissons Ratio (x) = 0.12981 0.32079
# Poissons Ratio (y) = 0.14543 0.21138
# Poissons Ratio (z) = 0.31800 0.18703
#
# Static dielectric constant tensor:
#      x y z
#    x 1.881960 0.000000 0.000000 
#    y 0.000000 1.755100 0.000000 
#    z 0.000000 0.000000 1.823940 
# 
# From -- ./inp_files/35920.got.cif
#   From: 2010.05.17/outbox.cif.g08.bks.cpg/sg52_18_cif.got.tgz:35920.got - 2010.06.03 12:15:38.
