data_PCOD9409516
_publ_section_title
;
Structure prediction by ZEFSAII (Michael W. Deem and Ramdas Pophale) SiO2 
 PCOD9409516
Probable space group: P N N A
;
_chemical_formula_sum "Si O2"
_cell_formula_units_Z 64
_cell_length_a 25.066553
_cell_length_b 22.752035
_cell_length_c 6.582305
_cell_angle_alpha 90.000000
_cell_angle_beta 90.000000
_cell_angle_gamma 90.000000
_cell_volume 3753.987876
_symmetry_space_group_name_H-M "P N N A"
_symmetry_group_IT_number 52
_symmetry_cell_setting 'orthorhombic'
loop_
_space_group_symop_operation_xyz
x,y,z
1/2-x,-y,z
x,1/2-y,1/2-z
1/2-x,1/2+y,1/2-z
-x,-y,-z
1/2+x,y,-z
-x,1/2+y,1/2+z
1/2+x,1/2-y,1/2+z
loop_
_atom_site_type_symbol
_atom_site_label
_atom_site_fract_x
_atom_site_fract_y
_atom_site_fract_z
Si Si1 0.403231 0.114853 0.035157
Si Si2 0.322247 0.530273 0.231521
Si Si3 0.563643 0.808141 0.348216
Si Si4 0.978361 0.089773 0.611514
Si Si5 0.414287 0.976688 0.529933
Si Si6 0.661831 0.807907 0.639633
Si Si7 0.223938 0.580559 0.008395
Si Si8 0.671176 0.514870 0.350448
O O1 0.455150 0.095159 0.161889
O O2 0.369021 0.154848 0.188331
O O3 0.419154 0.150791 0.837233
O O4 0.367434 0.060917 0.962961
O O5 0.282702 0.571343 0.100576
O O6 0.310313 0.464374 0.148112
O O7 0.309112 0.527630 0.469583
O O8 0.383525 0.542415 0.175455
O O9 0.538644 0.750000 0.250000
O O10 0.528625 0.848172 0.498062
O O11 0.616551 0.790524 0.475824
O O12 0.037801 0.065306 0.594287
O O13 0.939951 0.041265 0.503761
O O14 0.367542 0.980810 0.695622
O O15 0.684431 0.750000 0.750000
O O16 0.702395 0.853719 0.534807
O O17 0.212997 0.552874 0.785050
#
# Coordination Sequence:
#
# PCOD9409516 Si02
#       8
#     8   8   8   8   8   8   8   8
#     4  11  18  32  51  78 108 139 173 213 266 321
#     4  10  20  34  52  72 110 144 177 225 264 313
#     4  11  20  33  53  78 105 142 173 216 269 327
#     4  10  21  32  51  80 111 138 176 225 262 319
#     4  10  20  34  49  78 110 140 178 219 265 317
#     4  11  20  32  51  78 112 136 170 225 271 319
#     4  10  21  33  50  81 105 140 183 219 264 328
#     4  11  18  34  55  74 108 145 176 213 273 326
#
# _framework density 17.048535999999999
#
# number of rings (size 3 to 8) (size 9 to 14) (size 15 to 20)
#    0.000    1.500    6.250    1.500    0.000    5.500 
#    0.000    0.000    0.000    0.750    0.000    0.000 
#    0.000    0.000    0.000    0.000    0.000    0.000 
#
# Total GULP energy -356780.103447 kJ/mol
# GULP energy per Si atom -5574.689116 kJ/mol
# Density = 1.700973 g / cm^3
# Si number density = 17.048536 Si / 1000 Ang^3
#
#
#
# Elastic Constant Matrix: (Units=GPa)
#
#
# Indices 1 2 3 4 5 6 
#
# 1 70.9770 27.8582 27.9079 0.0000 0.0000 0.0000
# 2 27.8582 68.4527 16.2984 0.0000 0.0000 0.0000
# 3 27.9079 16.2984 101.1299 0.0000 0.0000 0.0000
# 4 0.0000 0.0000 0.0000 21.1777 0.0000 0.0000
# 5 0.0000 0.0000 0.0000 0.0000 17.8532 0.0000
# 6 0.0000 0.0000 0.0000 0.0000 0.0000 16.4011
#
#
#
# Elastic Compliance Matrix: (Units=1/GPa)
#
#
# Indices 1 2 3 4 5 6 
#
# 1 0.018187 -0.006454 -0.003979 0.000000 0.000000 0.000000
# 2 -0.006454 0.017482 -0.001036 0.000000 0.000000 0.000000
# 3 -0.003979 -0.001036 0.011153 0.000000 0.000000 0.000000
# 4 0.000000 0.000000 0.000000 0.047219 0.000000 0.000000
# 5 0.000000 0.000000 0.000000 0.000000 0.056012 0.000000
# 6 0.000000 0.000000 0.000000 0.000000 0.000000 0.060971
#
#
# Mechanical properties :
#
#
# Convention : Reuss Voigt Hill
#
# Bulk Modulus (GPa) = 41.86964 42.74319 42.30642
# Shear Modulus (GPa) = 20.66758 22.31941 21.49349
#
# Velocity S-wave (km/s) = 3.48556 3.62217 3.55452
# Velocity P-wave (km/s) = 6.38836 6.52835 6.45874
#
# Compressibility (1/GPa) = 0.02388366
#
# Stress axis : x y z
#
# Youngs Moduli (GPa) = 54.98527 57.20161 89.65997
#
# Poissons Ratio (x) = 0.36919 0.35673
# Poissons Ratio (y) = 0.35488 0.09292
# Poissons Ratio (z) = 0.21877 0.05928
#
# Static dielectric constant tensor:
#      x y z
#    x 1.602370 0.000000 0.000000 
#    y 0.000000 1.578490 0.000000 
#    z 0.000000 0.000000 1.635720 
# 
# From -- ./inp_files/6032.got.cif
#   From: 2010.05.17/outbox.cif.g08.bks.cpg/sg52_4_cif.got.tgz:6032.got - 2010.06.03 12:15:38.
