data_PCOD9409526
_publ_section_title
;
Structure prediction by ZEFSAII (Michael W. Deem and Ramdas Pophale) SiO2 
 PCOD9409526
Probable space group: P N N A
;
_chemical_formula_sum "Si O2"
_cell_formula_units_Z 48
_cell_length_a 5.494179
_cell_length_b 13.605506
_cell_length_c 27.906337
_cell_angle_alpha 90.000000
_cell_angle_beta 90.000000
_cell_angle_gamma 90.000000
_cell_volume 2086.028979
_symmetry_space_group_name_H-M "P N N A"
_symmetry_group_IT_number 52
_symmetry_cell_setting 'orthorhombic'
loop_
_space_group_symop_operation_xyz
x,y,z
1/2-x,-y,z
x,1/2-y,1/2-z
1/2-x,1/2+y,1/2-z
-x,-y,-z
1/2+x,y,-z
-x,1/2+y,1/2+z
1/2+x,1/2-y,1/2+z
loop_
_atom_site_type_symbol
_atom_site_label
_atom_site_fract_x
_atom_site_fract_y
_atom_site_fract_z
Si Si1 0.672928 0.104809 0.944012
Si Si2 0.830616 0.829389 0.100899
Si Si3 0.499997 0.460695 0.817964
Si Si4 0.663079 0.743927 0.301505
Si Si5 0.993725 0.536763 0.706445
Si Si6 0.172575 0.200144 0.512681
O O1 0.415521 0.110364 0.915075
O O2 0.664295 0.195982 0.981670
O O3 0.910285 0.123243 0.911222
O O4 0.750000 0.000000 0.967405
O O5 0.824938 0.792205 0.154941
O O6 0.815892 0.733364 0.067244
O O7 0.250000 0.500000 0.840180
O O8 0.471644 0.343752 0.815110
O O9 0.501687 0.497972 0.762140
O O10 0.750000 0.500000 0.839794
O O11 0.795296 0.750000 0.250000
O O12 0.480944 0.653736 0.293605
O O13 0.250000 0.500000 0.685319
O O14 0.750000 0.500000 0.682475
O O15 0.420033 0.148350 0.498139
#
# Coordination Sequence:
#
# PCOD9409526 Si02
#       6
#     8   8   8   8   8   8
#     4  10  20  34  52  77 113 151 187 229 276 335
#     4  10  21  33  49  76 105 142 191 225 269 335
#     4   9  19  36  56  75  96 132 185 235 278 329
#     4  10  22  39  58  80 113 152 190 242 296 338
#     4   9  19  34  51  74 104 139 178 219 273 337
#     4   8  16  30  48  70 102 138 180 223 267 324
#
# _framework density 23.010224000000001
#
# number of rings (size 3 to 8) (size 9 to 14) (size 15 to 20)
#    0.000    2.667    0.000    0.500    0.000   12.000 
#    0.000   10.833    0.000    0.000    0.000    0.000 
#    0.000   36.000    0.000    0.000    0.000    0.000 
#
# Total GULP energy -267770.361871 kJ/mol
# GULP energy per Si atom -5578.549206 kJ/mol
# Density = 2.295785 g / cm^3
# Si number density = 23.010224 Si / 1000 Ang^3
#
#
#
# Elastic Constant Matrix: (Units=GPa)
#
#
# Indices 1 2 3 4 5 6 
#
# 1 196.3422 28.0323 6.6655 0.0000 0.0000 0.0000
# 2 28.0323 60.5638 -9.9017 0.0000 0.0000 0.0000
# 3 6.6655 -9.9017 88.2413 0.0000 0.0000 0.0000
# 4 0.0000 0.0000 0.0000 6.5966 0.0000 0.0000
# 5 0.0000 0.0000 0.0000 0.0000 63.7479 0.0000
# 6 0.0000 0.0000 0.0000 0.0000 0.0000 3.5951
#
#
#
# Elastic Compliance Matrix: (Units=1/GPa)
#
#
# Indices 1 2 3 4 5 6 
#
# 1 0.005497 -0.002661 -0.000714 0.000000 0.000000 0.000000
# 2 -0.002661 0.018108 0.002233 0.000000 0.000000 0.000000
# 3 -0.000714 0.002233 0.011637 0.000000 0.000000 0.000000
# 4 0.000000 0.000000 0.000000 0.151593 0.000000 0.000000
# 5 0.000000 0.000000 0.000000 0.000000 0.015687 0.000000
# 6 0.000000 0.000000 0.000000 0.000000 0.000000 0.278160
#
#
# Mechanical properties :
#
#
# Convention : Reuss Voigt Hill
#
# Bulk Modulus (GPa) = 30.34112 43.85994 37.10053
# Shear Modulus (GPa) = 10.12243 36.14467 23.13355
#
# Velocity S-wave (km/s) = 2.09968 3.96764 3.17418
# Velocity P-wave (km/s) = 4.36953 6.33183 5.43989
#
# Compressibility (1/GPa) = 0.03295857
#
# Stress axis : x y z
#
# Youngs Moduli (GPa) = 181.90660 55.22320 85.93245
#
# Poissons Ratio (x) = 0.14696 0.06134
# Poissons Ratio (y) = 0.48409 -0.19189
# Poissons Ratio (z) = 0.12986 -0.12331
#
# Static dielectric constant tensor:
#      x y z
#    x 1.933860 0.000000 0.000000 
#    y 0.000000 1.875740 0.000000 
#    z 0.000000 0.000000 1.897160 
# 
# From -- ./inp_files/43748.got.cif
#   From: 2010.05.17/outbox.cif.g08.bks.cpg/sg52_22_cif.got.tgz:43748.got - 2010.06.03 12:15:38.
