data_PCOD9409436
_publ_section_title
;
Structure prediction by ZEFSAII (Michael W. Deem and Ramdas Pophale) SiO2 
 PCOD9409436
Probable space group: P N N A
;
_chemical_formula_sum "Si O2"
_cell_formula_units_Z 44
_cell_length_a 16.713380
_cell_length_b 5.205995
_cell_length_c 27.971300
_cell_angle_alpha 90.000000
_cell_angle_beta 90.000000
_cell_angle_gamma 90.000000
_cell_volume 2433.776455
_symmetry_space_group_name_H-M "P N N A"
_symmetry_group_IT_number 52
_symmetry_cell_setting 'orthorhombic'
loop_
_space_group_symop_operation_xyz
x,y,z
1/2-x,-y,z
x,1/2-y,1/2-z
1/2-x,1/2+y,1/2-z
-x,-y,-z
1/2+x,y,-z
-x,1/2+y,1/2+z
1/2+x,1/2-y,1/2+z
loop_
_atom_site_type_symbol
_atom_site_label
_atom_site_fract_x
_atom_site_fract_y
_atom_site_fract_z
Si Si1 0.058134 0.240755 0.645409
Si Si2 0.043522 0.762820 0.059564
Si Si3 0.393238 0.750000 0.750000
Si Si4 0.840002 0.249635 0.123502
Si Si5 0.750000 0.500000 0.298093
Si Si6 0.605591 0.268337 0.987556
Si Si7 0.750000 0.500000 0.462357
O O1 0.056244 0.198164 0.702486
O O2 0.097977 0.518112 0.635048
O O3 0.977353 0.225463 0.615007
O O4 0.115839 0.018068 0.625534
O O5 0.100629 0.544427 0.037613
O O6 0.075207 0.045863 0.048255
O O7 0.959424 0.732274 0.030684
O O8 0.328118 0.537855 0.733799
O O9 0.772400 0.223733 0.164523
O O10 0.801504 0.182533 0.072765
O O11 0.690181 0.175068 0.007360
#
# Coordination Sequence:
#
# PCOD9409436 Si02
#       7
#     8   8   4   8   4   8   4
#     4  11  21  37  52  74 103 145 182 216 260 310
#     4  10  21  38  51  75 104 144 174 224 267 319
#     4  10  20  32  52  72 102 144 178 222 252 310
#     4  10  22  32  52  74 107 139 180 225 248 297
#     4   9  18  32  44  72 106 136 174 216 259 276
#     4  10  22  35  56  74 104 137 184 219 270 317
#     4  11  22  36  54  86 102 142 188 230 263 328
#
# _framework density 18.078900999999998
#
# number of rings (size 3 to 8) (size 9 to 14) (size 15 to 20)
#    0.000    1.818    1.818    2.182    5.091   10.182 
#    0.000    0.000    0.000    0.000    0.000    0.000 
#    0.000    2.909    0.000    0.000    0.000    0.000 
#
# Total GULP energy -245795.942981 kJ/mol
# GULP energy per Si atom -5586.271431 kJ/mol
# Density = 1.803775 g / cm^3
# Si number density = 18.078901 Si / 1000 Ang^3
#
#
#
# Elastic Constant Matrix: (Units=GPa)
#
#
# Indices 1 2 3 4 5 6 
#
# 1 42.0442 8.5729 38.5029 0.0000 0.0000 0.0000
# 2 8.5729 80.4111 15.7185 0.0000 0.0000 0.0000
# 3 38.5029 15.7185 118.4985 0.0000 0.0000 0.0000
# 4 0.0000 0.0000 0.0000 9.0813 0.0000 0.0000
# 5 0.0000 0.0000 0.0000 0.0000 2.8827 0.0000
# 6 0.0000 0.0000 0.0000 0.0000 0.0000 25.3494
#
#
#
# Elastic Compliance Matrix: (Units=1/GPa)
#
#
# Indices 1 2 3 4 5 6 
#
# 1 0.034036 -0.001506 -0.010859 0.000000 0.000000 0.000000
# 2 -0.001506 0.012834 -0.001213 0.000000 0.000000 0.000000
# 3 -0.010859 -0.001213 0.012128 0.000000 0.000000 0.000000
# 4 0.000000 0.000000 0.000000 0.110117 0.000000 0.000000
# 5 0.000000 0.000000 0.000000 0.000000 0.346900 0.000000
# 6 0.000000 0.000000 0.000000 0.000000 0.000000 0.039449
#
#
# Mechanical properties :
#
#
# Convention : Reuss Voigt Hill
#
# Bulk Modulus (GPa) = 31.40549 40.72692 36.06620
# Shear Modulus (GPa) = 8.42836 19.33996 13.88416
#
# Velocity S-wave (km/s) = 2.16151 3.27426 2.77424
# Velocity P-wave (km/s) = 4.86195 6.07211 5.50041
#
# Compressibility (1/GPa) = 0.03184157
#
# Stress axis : x y z
#
# Youngs Moduli (GPa) = 29.38038 77.91937 82.45175
#
# Poissons Ratio (x) = 0.11734 0.89538
# Poissons Ratio (y) = 0.04425 0.10002
# Poissons Ratio (z) = 0.31905 0.09452
#
# Static dielectric constant tensor:
#      x y z
#    x 1.624510 0.000000 0.000000 
#    y 0.000000 1.801830 0.000000 
#    z 0.000000 0.000000 1.662110 
# 
# From -- ./inp_files/44929.got.cif
#   From: 2010.05.17/outbox.cif.g08.bks.cpg/sg52_23_cif.got.tgz:44929.got - 2010.06.03 12:15:38.
