data_PCOD9409008
_publ_section_title
;
Structure prediction by ZEFSAII (Michael W. Deem and Ramdas Pophale) SiO2 
 PCOD9409008
Probable space group: P N N A
;
_chemical_formula_sum "Si O2"
_cell_formula_units_Z 52
_cell_length_a 22.786900
_cell_length_b 8.079136
_cell_length_c 15.001241
_cell_angle_alpha 90.000000
_cell_angle_beta 90.000000
_cell_angle_gamma 90.000000
_cell_volume 2761.705428
_symmetry_space_group_name_H-M "P N N A"
_symmetry_group_IT_number 52
_symmetry_cell_setting 'orthorhombic'
loop_
_space_group_symop_operation_xyz
x,y,z
1/2-x,-y,z
x,1/2-y,1/2-z
1/2-x,1/2+y,1/2-z
-x,-y,-z
1/2+x,y,-z
-x,1/2+y,1/2+z
1/2+x,1/2-y,1/2+z
loop_
_atom_site_type_symbol
_atom_site_label
_atom_site_fract_x
_atom_site_fract_y
_atom_site_fract_z
Si Si1 0.277180 0.183806 0.350776
Si Si2 0.750000 0.000000 0.971690
Si Si3 0.882698 0.557591 0.469168
Si Si4 0.437282 0.411810 0.349046
Si Si5 0.402440 0.066941 0.337254
Si Si6 0.454365 0.363284 0.663471
Si Si7 0.535760 0.340026 0.966106
O O1 0.270525 0.250000 0.250000
O O2 0.256823 0.333680 0.412811
O O3 0.344332 0.147527 0.375652
O O4 0.250000 0.000000 0.358893
O O5 0.687782 0.040583 0.021050
O O6 0.911624 0.475083 0.558204
O O7 0.900351 0.457379 0.380819
O O8 0.920266 0.732118 0.471161
O O9 0.448411 0.215989 0.351052
O O10 0.392723 0.452128 0.268251
O O11 0.495562 0.502489 0.316346
O O12 0.422033 0.904112 0.386440
O O13 0.443560 0.250000 0.750000
O O14 0.485558 0.266301 0.582014
O O15 0.500000 0.500000 0.000000
#
# Coordination Sequence:
#
# PCOD9409008 Si02
#       7
#     8   4   8   8   8   8   8
#     4  12  23  36  55  88 129 177 219 254 299 381
#     4  12  24  44  62  86 132 178 224 266 316 378
#     4  11  23  40  62  86 125 170 215 265 323 386
#     4  10  19  35  56  86 123 162 196 251 309 385
#     4  11  19  35  56  86 129 160 204 251 309 386
#     4  11  22  40  61  90 119 159 206 259 330 385
#     4  11  22  37  63  95 125 160 203 265 332 391
#
# _framework density 18.828945000000001
#
# number of rings (size 3 to 8) (size 9 to 14) (size 15 to 20)
#    0.000    0.923    5.385    4.615    0.000    0.000 
#    0.000    0.000    0.000    1.846    0.000    0.000 
#    0.000    0.000    0.000    0.000    0.000    0.000 
#
# Total GULP energy -289631.353720 kJ/mol
# GULP energy per Si atom -5569.833725 kJ/mol
# Density = 1.878609 g / cm^3
# Si number density = 18.828945 Si / 1000 Ang^3
#
#
#
# Elastic Constant Matrix: (Units=GPa)
#
#
# Indices 1 2 3 4 5 6 
#
# 1 111.2329 51.0545 40.4660 0.0000 0.0000 0.0000
# 2 51.0545 108.5745 24.0767 0.0000 0.0000 0.0000
# 3 40.4660 24.0767 42.5157 0.0000 0.0000 0.0000
# 4 0.0000 0.0000 0.0000 38.1770 0.0000 0.0000
# 5 0.0000 0.0000 0.0000 0.0000 25.2984 0.0000
# 6 0.0000 0.0000 0.0000 0.0000 0.0000 20.9948
#
#
#
# Elastic Compliance Matrix: (Units=1/GPa)
#
#
# Indices 1 2 3 4 5 6 
#
# 1 0.015533 -0.004604 -0.012177 0.000000 0.000000 0.000000
# 2 -0.004604 0.011897 -0.002356 0.000000 0.000000 0.000000
# 3 -0.012177 -0.002356 0.036445 0.000000 0.000000 0.000000
# 4 0.000000 0.000000 0.000000 0.026194 0.000000 0.000000
# 5 0.000000 0.000000 0.000000 0.000000 0.039528 0.000000
# 6 0.000000 0.000000 0.000000 0.000000 0.000000 0.047631
#
#
# Mechanical properties :
#
#
# Convention : Reuss Voigt Hill
#
# Bulk Modulus (GPa) = 39.05919 54.83528 46.94724
# Shear Modulus (GPa) = 22.31782 26.67576 24.49679
#
# Velocity S-wave (km/s) = 3.44654 3.76805 3.61088
# Velocity P-wave (km/s) = 6.05206 6.93664 6.50940
#
# Compressibility (1/GPa) = 0.02560217
#
# Stress axis : x y z
#
# Youngs Moduli (GPa) = 64.37795 84.05151 27.43864
#
# Poissons Ratio (x) = 0.38696 0.33413
# Poissons Ratio (y) = 0.29638 0.06464
# Poissons Ratio (z) = 0.78395 0.19800
#
# Static dielectric constant tensor:
#      x y z
#    x 1.715550 0.000000 0.000000 
#    y 0.000000 1.817320 0.000000 
#    z 0.000000 0.000000 1.679080 
# 
# From -- ./inp_files/28714.got.cif
#   From: 2010.05.17/outbox.cif.g08.bks.cpg/sg52_15_cif.got.tgz:28714.got - 2010.06.03 12:15:38.
