data_PCOD9409807
_publ_section_title
;
Structure prediction by ZEFSAII (Michael W. Deem and Ramdas Pophale) SiO2 
 PCOD9409807
Probable space group: P N N A
;
_chemical_formula_sum "Si O2"
_cell_formula_units_Z 32
_cell_length_a 5.059510
_cell_length_b 11.095377
_cell_length_c 22.394264
_cell_angle_alpha 90.000000
_cell_angle_beta 90.000000
_cell_angle_gamma 90.000000
_cell_volume 1257.150625
_symmetry_space_group_name_H-M "P N N A"
_symmetry_group_IT_number 52
_symmetry_cell_setting 'orthorhombic'
loop_
_space_group_symop_operation_xyz
x,y,z
1/2-x,-y,z
x,1/2-y,1/2-z
1/2-x,1/2+y,1/2-z
-x,-y,-z
1/2+x,y,-z
-x,1/2+y,1/2+z
1/2+x,1/2-y,1/2+z
loop_
_atom_site_type_symbol
_atom_site_label
_atom_site_fract_x
_atom_site_fract_y
_atom_site_fract_z
Si Si1 0.434781 0.617745 0.800938
Si Si2 0.481780 0.076873 0.427868
Si Si3 0.423924 0.620333 0.672387
Si Si4 0.919494 0.347148 0.537635
O O1 0.250000 0.500000 0.798762
O O2 0.609839 0.606981 0.859811
O O3 0.576380 0.619428 0.736296
O O4 0.289446 0.746398 0.817398
O O5 0.486397 0.204307 0.459546
O O6 0.250000 0.000000 0.456170
O O7 0.750000 0.000000 0.422832
O O8 0.250000 0.500000 0.672545
O O9 0.555940 0.617781 0.607346
O O10 0.139561 0.383740 0.489281
#
# Coordination Sequence:
#
# PCOD9409807 Si02
#       4
#     8   8   8   8
#     4   8  16  34  61  93 124 156 203 262 322 378
#     4  10  20  36  61  92 124 158 202 260 320 374
#     4   9  18  36  61  89 124 166 208 257 316 374
#     4  11  24  40  59  87 124 168 215 256 300 366
#
# _framework density 25.454386
#
# number of rings (size 3 to 8) (size 9 to 14) (size 15 to 20)
#    0.000    2.500    0.000    1.500    0.000    4.000 
#    0.000    7.500    0.000   33.000    0.000    0.000 
#    0.000    0.000    0.000    0.000    0.000    0.000 
#
# Total GULP energy -178291.103568 kJ/mol
# GULP energy per Si atom -5571.596986 kJ/mol
# Density = 2.539645 g / cm^3
# Si number density = 25.454386 Si / 1000 Ang^3
#
#
#
# Elastic Constant Matrix: (Units=GPa)
#
#
# Indices 1 2 3 4 5 6 
#
# 1 56.5736 14.5501 24.6267 0.0000 0.0000 0.0000
# 2 14.5501 181.0150 7.8763 0.0000 0.0000 0.0000
# 3 24.6267 7.8763 263.5261 0.0000 0.0000 0.0000
# 4 0.0000 0.0000 0.0000 33.1326 0.0000 0.0000
# 5 0.0000 0.0000 0.0000 0.0000 -9.1427 0.0000
# 6 0.0000 0.0000 0.0000 0.0000 0.0000 38.1903
#
#
#
# Elastic Compliance Matrix: (Units=1/GPa)
#
#
# Indices 1 2 3 4 5 6 
#
# 1 0.018791 -0.001436 -0.001713 0.000000 0.000000 0.000000
# 2 -0.001436 0.005641 -0.000034 0.000000 0.000000 0.000000
# 3 -0.001713 -0.000034 0.003956 0.000000 0.000000 0.000000
# 4 0.000000 0.000000 0.000000 0.030182 0.000000 0.000000
# 5 0.000000 0.000000 0.000000 0.000000 -0.109377 0.000000
# 6 0.000000 0.000000 0.000000 0.000000 0.000000 0.026185
#
#
# Mechanical properties :
#
#
# Convention : Reuss Voigt Hill
#
# Bulk Modulus (GPa) = 45.41046 66.13565 55.77305
# Shear Modulus (GPa) = -458.09894 42.70682 -207.69606
#
# Velocity S-wave (km/s) = -13.42979 4.10051 -9.04282
# Velocity P-wave (km/s) = 14.91980 6.96113 9.33121
#
# Compressibility (1/GPa) = 0.02202136
#
# Stress axis : x y z
#
# Youngs Moduli (GPa) = 53.21661 177.26351 252.79255
#
# Poissons Ratio (x) = 0.25453 0.43307
# Poissons Ratio (y) = 0.07641 0.00870
# Poissons Ratio (z) = 0.09117 0.00610
#
# Static dielectric constant tensor:
#      x y z
#    x 1.958550 0.000000 0.000000 
#    y 0.000000 2.042210 0.000000 
#    z 0.000000 0.000000 2.036430 
# 
# From -- ./inp_files/38533.got.cif
#   From: 2010.05.17/outbox.cif.g08.bks.cpg/sg52_20_cif.got.tgz:38533.got - 2010.06.03 12:15:38.
