data_PCOD9409603
_publ_section_title
;
Structure prediction by ZEFSAII (Michael W. Deem and Ramdas Pophale) SiO2 
 PCOD9409603
Probable space group: P N N A
;
_chemical_formula_sum "Si O2"
_cell_formula_units_Z 64
_cell_length_a 18.390512
_cell_length_b 13.618942
_cell_length_c 10.147980
_cell_angle_alpha 90.000000
_cell_angle_beta 90.000000
_cell_angle_gamma 90.000000
_cell_volume 2541.656132
_symmetry_space_group_name_H-M "P N N A"
_symmetry_group_IT_number 52
_symmetry_cell_setting 'orthorhombic'
loop_
_space_group_symop_operation_xyz
x,y,z
1/2-x,-y,z
x,1/2-y,1/2-z
1/2-x,1/2+y,1/2-z
-x,-y,-z
1/2+x,y,-z
-x,1/2+y,1/2+z
1/2+x,1/2-y,1/2+z
loop_
_atom_site_type_symbol
_atom_site_label
_atom_site_fract_x
_atom_site_fract_y
_atom_site_fract_z
Si Si1 0.946129 0.687008 0.117075
Si Si2 0.287048 0.145763 0.289989
Si Si3 0.129147 0.688168 0.876431
Si Si4 0.446193 0.529310 0.329369
Si Si5 0.038878 0.843342 0.002241
Si Si6 0.578191 0.542332 0.927104
Si Si7 0.289246 0.696582 0.947735
Si Si8 0.203568 0.414665 0.471812
O O1 0.952146 0.750000 0.250000
O O2 0.864173 0.650851 0.100138
O O3 0.002384 0.598851 0.100939
O O4 0.972269 0.766942 0.010533
O O5 0.319345 0.250000 0.250000
O O6 0.349239 0.081346 0.353998
O O7 0.227072 0.164062 0.402572
O O8 0.251170 0.104752 0.159282
O O9 0.103671 0.750000 0.750000
O O10 0.107992 0.771852 0.985663
O O11 0.215596 0.673121 0.870560
O O12 0.095910 0.584869 0.926055
O O13 0.454990 0.414431 0.371667
O O14 0.517508 0.584131 0.383727
O O15 0.434205 0.549323 0.173759
O O16 0.376196 0.558484 0.418148
O O17 0.299670 0.814151 0.947199
O O18 0.250000 0.500000 0.543035
#
# Coordination Sequence:
#
# PCOD9409603 Si02
#       8
#     8   8   8   8   8   8   8   8
#     4  11  19  34  57  86 111 153 203 250 298 359
#     4   9  19  33  53  83 118 148 193 252 307 362
#     4  10  22  41  59  82 118 168 207 247 299 372
#     4  11  20  36  58  93 120 149 195 258 317 373
#     4  10  22  37  58  85 127 150 196 251 314 371
#     4  10  20  34  62  85 118 155 200 252 308 365
#     4  10  21  36  55  86 117 158 205 247 299 365
#     4  11  19  32  59  92 118 146 193 257 318 360
#
# _framework density 25.180430999999999
#
# number of rings (size 3 to 8) (size 9 to 14) (size 15 to 20)
#    0.000    1.750    3.750    1.500    3.500    0.000 
#    4.500    0.625    0.000    0.000    6.500    0.000 
#    0.000    0.000    0.000    0.000    0.000    0.000 
#
# Total GULP energy -357209.451319 kJ/mol
# GULP energy per Si atom -5581.397677 kJ/mol
# Density = 2.512312 g / cm^3
# Si number density = 25.180431 Si / 1000 Ang^3
#
#
#
# Elastic Constant Matrix: (Units=GPa)
#
#
# Indices 1 2 3 4 5 6 
#
# 1 129.1950 9.1053 -4.1962 0.0000 0.0000 0.0000
# 2 9.1053 54.4712 -1.2158 0.0000 0.0000 0.0000
# 3 -4.1962 -1.2158 71.6508 0.0000 0.0000 0.0000
# 4 0.0000 0.0000 0.0000 21.5984 0.0000 0.0000
# 5 0.0000 0.0000 0.0000 0.0000 30.5754 0.0000
# 6 0.0000 0.0000 0.0000 0.0000 0.0000 32.3136
#
#
#
# Elastic Compliance Matrix: (Units=1/GPa)
#
#
# Indices 1 2 3 4 5 6 
#
# 1 0.007846 -0.001302 0.000437 0.000000 0.000000 0.000000
# 2 -0.001302 0.018581 0.000239 0.000000 0.000000 0.000000
# 3 0.000437 0.000239 0.013986 0.000000 0.000000 0.000000
# 4 0.000000 0.000000 0.000000 0.046300 0.000000 0.000000
# 5 0.000000 0.000000 0.000000 0.000000 0.032706 0.000000
# 6 0.000000 0.000000 0.000000 0.000000 0.000000 0.030947
#
#
# Mechanical properties :
#
#
# Convention : Reuss Voigt Hill
#
# Bulk Modulus (GPa) = 25.53425 29.18927 27.36176
# Shear Modulus (GPa) = 30.36357 33.67242 32.01799
#
# Velocity S-wave (km/s) = 3.47629 3.66080 3.56974
# Velocity P-wave (km/s) = 5.12594 5.43009 5.28021
#
# Compressibility (1/GPa) = 0.03916309
#
# Stress axis : x y z
#
# Youngs Moduli (GPa) = 127.45036 53.81768 71.49874
#
# Poissons Ratio (x) = 0.07006 -0.03128
# Poissons Ratio (y) = 0.16591 -0.01709
# Poissons Ratio (z) = -0.05575 -0.01287
#
# Static dielectric constant tensor:
#      x y z
#    x 1.962070 0.000000 0.000000 
#    y 0.000000 2.064960 0.000000 
#    z 0.000000 0.000000 2.086100 
# 
# From -- ./inp_files/20890.got.cif
#   From: 2010.05.17/outbox.cif.g08.bks.cpg/sg52_11_cif.got.tgz:20890.got - 2010.06.03 12:15:38.
