data_PCOD9409292
_publ_section_title
;
Structure prediction by ZEFSAII (Michael W. Deem and Ramdas Pophale) SiO2 
 PCOD9409292
Probable space group: P N N A
;
_chemical_formula_sum "Si O2"
_cell_formula_units_Z 48
_cell_length_a 32.193130
_cell_length_b 9.314387
_cell_length_c 7.805233
_cell_angle_alpha 90.000000
_cell_angle_beta 90.000000
_cell_angle_gamma 90.000000
_cell_volume 2340.471482
_symmetry_space_group_name_H-M "P N N A"
_symmetry_group_IT_number 52
_symmetry_cell_setting 'orthorhombic'
loop_
_space_group_symop_operation_xyz
x,y,z
1/2-x,-y,z
x,1/2-y,1/2-z
1/2-x,1/2+y,1/2-z
-x,-y,-z
1/2+x,y,-z
-x,1/2+y,1/2+z
1/2+x,1/2-y,1/2+z
loop_
_atom_site_type_symbol
_atom_site_label
_atom_site_fract_x
_atom_site_fract_y
_atom_site_fract_z
Si Si1 0.294473 0.995388 0.503019
Si Si2 0.454719 0.910277 0.816802
Si Si3 0.371263 0.492009 0.593342
Si Si4 0.319874 0.750000 0.750000
Si Si5 0.031714 0.410235 0.271733
Si Si6 0.876180 0.580738 0.787746
Si Si7 0.316769 0.250000 0.750000
O O1 0.295166 0.137586 0.621279
O O2 0.250000 0.000000 0.405184
O O3 0.294966 0.854383 0.624182
O O4 0.338360 0.979498 0.402071
O O5 0.447751 0.750000 0.750000
O O6 0.413313 0.004133 0.795450
O O7 0.496226 0.974727 0.734687
O O8 0.459347 0.914546 0.023753
O O9 0.348004 0.639742 0.642888
O O10 0.376372 0.496767 0.390746
O O11 0.344632 0.355442 0.638260
O O12 0.014889 0.250000 0.250000
O O13 0.074585 0.425827 0.163269
O O14 0.868356 0.750000 0.750000
#
# Coordination Sequence:
#
# PCOD9409292 Si02
#       7
#     8   8   8   4   8   8   4
#     4  11  23  43  66  95 121 162 210 259 319 378
#     4  10  20  37  59  90 120 165 207 247 295 369
#     4  10  20  38  61  89 125 166 207 244 311 369
#     4  10  19  38  66  86 124 162 204 256 297 382
#     4   9  21  37  57  88 124 155 207 254 305 353
#     4  10  20  41  65  91 123 168 205 258 316 376
#     4  10  25  40  60  96 128 162 198 262 313 362
#
# _framework density 20.508689
#
# number of rings (size 3 to 8) (size 9 to 14) (size 15 to 20)
#    0.000    2.000    2.500    0.500    1.167    1.333 
#   12.000    0.833    0.000    0.000    0.000    0.000 
#    0.000    0.000    0.000    0.000    0.000    0.000 
#
# Total GULP energy -267438.778697 kJ/mol
# GULP energy per Si atom -5571.641223 kJ/mol
# Density = 2.046201 g / cm^3
# Si number density = 20.508689 Si / 1000 Ang^3
#
#
#
# Elastic Constant Matrix: (Units=GPa)
#
#
# Indices 1 2 3 4 5 6 
#
# 1 138.2606 37.9680 34.9332 0.0000 0.0000 0.0000
# 2 37.9680 84.1650 13.5083 0.0000 0.0000 0.0000
# 3 34.9332 13.5083 35.7130 0.0000 0.0000 0.0000
# 4 0.0000 0.0000 0.0000 18.6289 0.0000 0.0000
# 5 0.0000 0.0000 0.0000 0.0000 15.7797 0.0000
# 6 0.0000 0.0000 0.0000 0.0000 0.0000 171.5291
#
#
#
# Elastic Compliance Matrix: (Units=1/GPa)
#
#
# Indices 1 2 3 4 5 6 
#
# 1 0.010380 -0.003250 -0.008924 0.000000 0.000000 0.000000
# 2 -0.003250 0.013667 -0.001990 0.000000 0.000000 0.000000
# 3 -0.008924 -0.001990 0.037483 0.000000 0.000000 0.000000
# 4 0.000000 0.000000 0.000000 0.053680 0.000000 0.000000
# 5 0.000000 0.000000 0.000000 0.000000 0.063372 0.000000
# 6 0.000000 0.000000 0.000000 0.000000 0.000000 0.005830
#
#
# Mechanical properties :
#
#
# Convention : Reuss Voigt Hill
#
# Bulk Modulus (GPa) = 30.11946 47.88418 39.00182
# Shear Modulus (GPa) = 22.34052 52.63614 37.48833
#
# Velocity S-wave (km/s) = 3.30407 5.07159 4.28006
# Velocity P-wave (km/s) = 5.41053 7.59563 6.59422
#
# Compressibility (1/GPa) = 0.03320113
#
# Stress axis : x y z
#
# Youngs Moduli (GPa) = 96.33875 73.16837 26.67880
#
# Poissons Ratio (x) = 0.23782 0.23808
# Poissons Ratio (y) = 0.31313 0.05310
# Poissons Ratio (z) = 0.85973 0.14562
#
# Static dielectric constant tensor:
#      x y z
#    x 1.807050 0.000000 0.000000 
#    y 0.000000 1.730890 0.000000 
#    z 0.000000 0.000000 1.763670 
# 
# From -- ./inp_files/15570.got.cif
#   From: 2010.05.17/outbox.cif.g08.bks.cpg/sg52_8_cif.got.tgz:15570.got - 2010.06.03 12:15:38.
