data_PCOD9409135
_publ_section_title
;
Structure prediction by ZEFSAII (Michael W. Deem and Ramdas Pophale) SiO2 
 PCOD9409135
Probable space group: P N N A
;
_chemical_formula_sum "Si O2"
_cell_formula_units_Z 48
_cell_length_a 16.683485
_cell_length_b 15.773808
_cell_length_c 8.874619
_cell_angle_alpha 90.000000
_cell_angle_beta 90.000000
_cell_angle_gamma 90.000000
_cell_volume 2335.463277
_symmetry_space_group_name_H-M "P N N A"
_symmetry_group_IT_number 52
_symmetry_cell_setting 'orthorhombic'
loop_
_space_group_symop_operation_xyz
x,y,z
1/2-x,-y,z
x,1/2-y,1/2-z
1/2-x,1/2+y,1/2-z
-x,-y,-z
1/2+x,y,-z
-x,1/2+y,1/2+z
1/2+x,1/2-y,1/2+z
loop_
_atom_site_type_symbol
_atom_site_label
_atom_site_fract_x
_atom_site_fract_y
_atom_site_fract_z
Si Si1 0.786195 0.907132 0.379705
Si Si2 0.563851 0.346082 0.292419
Si Si3 0.478998 0.582366 0.403664
Si Si4 0.879472 0.661134 0.840316
Si Si5 0.523194 0.902191 0.531540
Si Si6 0.625668 0.653174 0.215749
O O1 0.866887 0.905576 0.278385
O O2 0.810146 0.863952 0.540152
O O3 0.720032 0.861278 0.275901
O O4 0.750000 0.000000 0.405988
O O5 0.583775 0.250000 0.250000
O O6 0.549091 0.352678 0.468022
O O7 0.484708 0.378244 0.204920
O O8 0.500000 0.500000 0.500000
O O9 0.406801 0.588922 0.281538
O O10 0.561927 0.604142 0.319200
O O11 0.869007 0.750000 0.750000
O O12 0.958493 0.657750 0.946379
O O13 0.605370 0.877688 0.453409
O O14 0.500000 0.000000 0.500000
O O15 0.608079 0.750000 0.250000
#
# Coordination Sequence:
#
# PCOD9409135 Si02
#       6
#     8   8   8   8   8   8
#     4  11  23  41  61  84 119 165 203 241 302 373
#     4  11  21  37  61  89 118 157 198 239 297 370
#     4  11  21  37  62  91 118 149 195 255 301 344
#     4  10  21  40  61  84 118 164 204 239 293 370
#     4  10  19  36  61  88 118 159 199 236 294 370
#     4  11  22  39  60  88 121 156 198 254 299 341
#
# _framework density 20.552668000000001
#
# number of rings (size 3 to 8) (size 9 to 14) (size 15 to 20)
#    0.000    1.333    0.000   10.500    0.000    0.000 
#    0.000    8.333    0.000    0.000    0.000    0.000 
#    0.000    0.000    0.000    0.000    0.000    0.000 
#
# Total GULP energy -267511.363584 kJ/mol
# GULP energy per Si atom -5573.153408 kJ/mol
# Density = 2.050589 g / cm^3
# Si number density = 20.552668 Si / 1000 Ang^3
#
#
#
# Elastic Constant Matrix: (Units=GPa)
#
#
# Indices 1 2 3 4 5 6 
#
# 1 76.3421 26.6279 32.1808 0.0000 0.0000 0.0000
# 2 26.6279 114.6446 16.9580 0.0000 0.0000 0.0000
# 3 32.1808 16.9580 112.0112 0.0000 0.0000 0.0000
# 4 0.0000 0.0000 0.0000 39.9785 0.0000 0.0000
# 5 0.0000 0.0000 0.0000 0.0000 29.8501 0.0000
# 6 0.0000 0.0000 0.0000 0.0000 0.0000 25.5411
#
#
#
# Elastic Compliance Matrix: (Units=1/GPa)
#
#
# Indices 1 2 3 4 5 6 
#
# 1 0.015905 -0.003087 -0.004102 0.000000 0.000000 0.000000
# 2 -0.003087 0.009522 -0.000555 0.000000 0.000000 0.000000
# 3 -0.004102 -0.000555 0.010190 0.000000 0.000000 0.000000
# 4 0.000000 0.000000 0.000000 0.025013 0.000000 0.000000
# 5 0.000000 0.000000 0.000000 0.000000 0.033501 0.000000
# 6 0.000000 0.000000 0.000000 0.000000 0.000000 0.039153
#
#
# Mechanical properties :
#
#
# Convention : Reuss Voigt Hill
#
# Bulk Modulus (GPa) = 49.67995 50.50345 50.09170
# Shear Modulus (GPa) = 32.15824 34.22270 33.19047
#
# Velocity S-wave (km/s) = 3.95989 4.08502 4.02294
# Velocity P-wave (km/s) = 6.71804 6.84660 6.78262
#
# Compressibility (1/GPa) = 0.02012885
#
# Stress axis : x y z
#
# Youngs Moduli (GPa) = 62.87346 105.02303 98.13388
#
# Poissons Ratio (x) = 0.32425 0.40255
# Poissons Ratio (y) = 0.19411 0.05442
# Poissons Ratio (z) = 0.25791 0.05824
#
# Static dielectric constant tensor:
#      x y z
#    x 1.739040 0.000000 0.000000 
#    y 0.000000 1.785500 0.000000 
#    z 0.000000 0.000000 1.801740 
# 
# From -- ./inp_files/12104.got.cif
#   From: 2010.05.17/outbox.cif.g08.bks.cpg/sg52_7_cif.got.tgz:12104.got - 2010.06.03 12:15:38.
