data_PCOD9409055
_publ_section_title
;
Structure prediction by ZEFSAII (Michael W. Deem and Ramdas Pophale) SiO2 
 PCOD9409055
Probable space group: P N N A
;
_chemical_formula_sum "Si O2"
_cell_formula_units_Z 40
_cell_length_a 9.244630
_cell_length_b 10.334394
_cell_length_c 22.370595
_cell_angle_alpha 90.000000
_cell_angle_beta 90.000000
_cell_angle_gamma 90.000000
_cell_volume 2137.234049
_symmetry_space_group_name_H-M "P N N A"
_symmetry_group_IT_number 52
_symmetry_cell_setting 'orthorhombic'
loop_
_space_group_symop_operation_xyz
x,y,z
1/2-x,-y,z
x,1/2-y,1/2-z
1/2-x,1/2+y,1/2-z
-x,-y,-z
1/2+x,y,-z
-x,1/2+y,1/2+z
1/2+x,1/2-y,1/2+z
loop_
_atom_site_type_symbol
_atom_site_label
_atom_site_fract_x
_atom_site_fract_y
_atom_site_fract_z
Si Si1 0.868825 0.387504 0.328616
Si Si2 0.582882 0.023238 0.591804
Si Si3 0.380341 0.100659 0.698540
Si Si4 0.566473 0.292536 0.024307
Si Si5 0.154994 0.627472 0.538796
O O1 0.750000 0.500000 0.330113
O O2 0.814754 0.242028 0.316002
O O3 0.949408 0.409734 0.265333
O O4 0.924401 0.387766 0.396806
O O5 0.498958 0.076088 0.648626
O O6 0.575949 0.124754 0.536931
O O7 0.750000 0.000000 0.604735
O O8 0.504928 0.890993 0.570920
O O9 0.250000 0.000000 0.694663
O O10 0.724020 0.241295 0.042788
O O11 0.460246 0.172273 0.010341
O O12 0.250000 0.500000 0.525437
#
# Coordination Sequence:
#
# PCOD9409055 Si02
#       5
#     8   8   8   8   8
#     4   9  19  34  57  85 110 146 198 244 287 346
#     4  11  22  35  57  84 124 147 194 252 299 349
#     4  10  19  35  61  84 110 153 200 246 293 346
#     4  11  22  36  55  90 117 157 194 241 303 349
#     4  11  21  37  58  84 122 156 195 240 296 365
#
# _framework density 18.715779999999999
#
# number of rings (size 3 to 8) (size 9 to 14) (size 15 to 20)
#    0.000    1.600    4.000    1.800    0.000    0.000 
#    0.000    0.000    0.000   32.400    0.000    0.000 
#    0.000    0.000    0.000    0.000    0.000    0.000 
#
# Total GULP energy -222835.491095 kJ/mol
# GULP energy per Si atom -5570.887277 kJ/mol
# Density = 1.867318 g / cm^3
# Si number density = 18.715780 Si / 1000 Ang^3
#
#
#
# Elastic Constant Matrix: (Units=GPa)
#
#
# Indices 1 2 3 4 5 6 
#
# 1 71.4509 13.7698 23.8840 0.0000 0.0000 0.0000
# 2 13.7698 76.6647 21.3112 0.0000 0.0000 0.0000
# 3 23.8840 21.3112 98.6770 0.0000 0.0000 0.0000
# 4 0.0000 0.0000 0.0000 20.9058 0.0000 0.0000
# 5 0.0000 0.0000 0.0000 0.0000 85.9953 0.0000
# 6 0.0000 0.0000 0.0000 0.0000 0.0000 19.5198
#
#
#
# Elastic Compliance Matrix: (Units=1/GPa)
#
#
# Indices 1 2 3 4 5 6 
#
# 1 0.015470 -0.001849 -0.003345 0.000000 0.000000 0.000000
# 2 -0.001849 0.014098 -0.002597 0.000000 0.000000 0.000000
# 3 -0.003345 -0.002597 0.011505 0.000000 0.000000 0.000000
# 4 0.000000 0.000000 0.000000 0.047834 0.000000 0.000000
# 5 0.000000 0.000000 0.000000 0.000000 0.011629 0.000000
# 6 0.000000 0.000000 0.000000 0.000000 0.000000 0.051230
#
#
# Mechanical properties :
#
#
# Convention : Reuss Voigt Hill
#
# Bulk Modulus (GPa) = 39.23045 40.52473 39.87759
# Shear Modulus (GPa) = 28.43433 37.80603 33.12018
#
# Velocity S-wave (km/s) = 3.90201 4.49933 4.21127
# Velocity P-wave (km/s) = 6.42710 6.97794 6.70817
#
# Compressibility (1/GPa) = 0.02549040
#
# Stress axis : x y z
#
# Youngs Moduli (GPa) = 64.64087 70.93287 86.92123
#
# Poissons Ratio (x) = 0.13113 0.29076
# Poissons Ratio (y) = 0.11950 0.22575
# Poissons Ratio (z) = 0.21623 0.18423
#
# Static dielectric constant tensor:
#      x y z
#    x 1.633400 0.000000 0.000000 
#    y 0.000000 1.687610 0.000000 
#    z 0.000000 0.000000 1.693010 
# 
# From -- ./inp_files/30894.got.cif
#   From: 2010.05.17/outbox.cif.g08.bks.cpg/sg52_16_cif.got.tgz:30894.got - 2010.06.03 12:15:38.
