data_PCOD9409085
_publ_section_title
;
Structure prediction by ZEFSAII (Michael W. Deem and Ramdas Pophale) SiO2 
 PCOD9409085
Probable space group: P N N A
;
_chemical_formula_sum "Si O2"
_cell_formula_units_Z 60
_cell_length_a 19.153925
_cell_length_b 11.497418
_cell_length_c 14.137470
_cell_angle_alpha 90.000000
_cell_angle_beta 90.000000
_cell_angle_gamma 90.000000
_cell_volume 3113.363286
_symmetry_space_group_name_H-M "P N N A"
_symmetry_group_IT_number 52
_symmetry_cell_setting 'orthorhombic'
loop_
_space_group_symop_operation_xyz
x,y,z
1/2-x,-y,z
x,1/2-y,1/2-z
1/2-x,1/2+y,1/2-z
-x,-y,-z
1/2+x,y,-z
-x,1/2+y,1/2+z
1/2+x,1/2-y,1/2+z
loop_
_atom_site_type_symbol
_atom_site_label
_atom_site_fract_x
_atom_site_fract_y
_atom_site_fract_z
Si Si1 0.073155 0.211845 0.396870
Si Si2 0.591183 0.293984 0.108544
Si Si3 0.912897 0.034774 0.304433
Si Si4 0.689117 0.570989 0.351431
Si Si5 0.786102 0.750000 0.250000
Si Si6 0.946047 0.187292 0.848280
Si Si7 0.561343 0.429937 0.725566
Si Si8 0.591795 0.737172 0.053782
O O1 0.107222 0.204892 0.498341
O O2 0.091088 0.327329 0.338956
O O3 0.088084 0.099148 0.331791
O O4 0.990598 0.230438 0.420064
O O5 0.562249 0.419694 0.141276
O O6 0.662129 0.274273 0.163772
O O7 0.529616 0.203238 0.133343
O O8 0.859079 0.000357 0.221983
O O9 0.883813 0.124926 0.383577
O O10 0.978396 0.086652 0.246473
O O11 0.750000 0.500000 0.405413
O O12 0.734446 0.649396 0.281311
O O13 0.637326 0.653490 0.410229
O O14 0.929300 0.250000 0.750000
O O15 0.929592 0.052190 0.827044
O O16 0.909813 0.247646 0.939502
#
# Coordination Sequence:
#
# PCOD9409085 Si02
#       8
#     8   8   8   8   4   8   8   8
#     4   9  21  35  59  81 119 162 192 237 301 362
#     4  11  22  35  53  90 119 156 194 243 300 353
#     4  11  19  36  56  81 123 153 198 235 292 368
#     4  12  23  37  59  84 116 158 197 245 298 361
#     4  12  22  36  56  86 120 150 194 244 300 354
#     4  11  22  35  56  90 123 151 196 251 298 351
#     4  10  19  36  55  82 120 152 192 242 293 354
#     4  10  22  35  56  84 114 162 197 234 302 361
#
# _framework density 19.271763
#
# number of rings (size 3 to 8) (size 9 to 14) (size 15 to 20)
#    0.000    1.333    6.000    0.000    1.867    4.800 
#    0.000    0.000    0.000    0.000    6.933    0.000 
#    0.000    0.000    0.000    0.000    0.000    0.000 
#
# Total GULP energy -334046.505917 kJ/mol
# GULP energy per Si atom -5567.441765 kJ/mol
# Density = 1.922790 g / cm^3
# Si number density = 19.271763 Si / 1000 Ang^3
#
#
#
# Elastic Constant Matrix: (Units=GPa)
#
#
# Indices 1 2 3 4 5 6 
#
# 1 32.1827 -7.6625 19.9505 0.0000 0.0000 0.0000
# 2 -7.6625 57.3242 14.4032 0.0000 0.0000 0.0000
# 3 19.9505 14.4032 127.1221 0.0000 0.0000 0.0000
# 4 0.0000 0.0000 0.0000 16.4705 0.0000 0.0000
# 5 0.0000 0.0000 0.0000 0.0000 16.1054 0.0000
# 6 0.0000 0.0000 0.0000 0.0000 0.0000 19.2178
#
#
#
# Elastic Compliance Matrix: (Units=1/GPa)
#
#
# Indices 1 2 3 4 5 6 
#
# 1 0.036652 0.006530 -0.006492 0.000000 0.000000 0.000000
# 2 0.006530 0.019119 -0.003191 0.000000 0.000000 0.000000
# 3 -0.006492 -0.003191 0.009247 0.000000 0.000000 0.000000
# 4 0.000000 0.000000 0.000000 0.060715 0.000000 0.000000
# 5 0.000000 0.000000 0.000000 0.000000 0.062091 0.000000
# 6 0.000000 0.000000 0.000000 0.000000 0.000000 0.052035
#
#
# Mechanical properties :
#
#
# Convention : Reuss Voigt Hill
#
# Bulk Modulus (GPa) = 17.03207 30.00125 23.51666
# Shear Modulus (GPa) = 18.81572 23.02128 20.91850
#
# Velocity S-wave (km/s) = 3.12803 3.45999 3.29819
# Velocity P-wave (km/s) = 4.68007 5.61812 5.17042
#
# Compressibility (1/GPa) = 0.05871278
#
# Stress axis : x y z
#
# Youngs Moduli (GPa) = 27.28360 52.30299 108.14458
#
# Poissons Ratio (x) = -0.34156 0.70208
# Poissons Ratio (y) = -0.17817 0.34511
# Poissons Ratio (z) = 0.17713 0.16691
#
# Static dielectric constant tensor:
#      x y z
#    x 1.680140 0.000000 0.000000 
#    y 0.000000 1.746920 0.000000 
#    z 0.000000 0.000000 1.694970 
# 
# From -- ./inp_files/28259.got.cif
#   From: 2010.05.17/outbox.cif.g08.bks.cpg/sg52_15_cif.got.tgz:28259.got - 2010.06.03 12:15:38.
