data_PCOD9409262
_publ_section_title
;
Structure prediction by ZEFSAII (Michael W. Deem and Ramdas Pophale) SiO2 
 PCOD9409262
Probable space group: P N N A
;
_chemical_formula_sum "Si O2"
_cell_formula_units_Z 40
_cell_length_a 20.939915
_cell_length_b 11.021618
_cell_length_c 8.884337
_cell_angle_alpha 90.000000
_cell_angle_beta 90.000000
_cell_angle_gamma 90.000000
_cell_volume 2050.431631
_symmetry_space_group_name_H-M "P N N A"
_symmetry_group_IT_number 52
_symmetry_cell_setting 'orthorhombic'
loop_
_space_group_symop_operation_xyz
x,y,z
1/2-x,-y,z
x,1/2-y,1/2-z
1/2-x,1/2+y,1/2-z
-x,-y,-z
1/2+x,y,-z
-x,1/2+y,1/2+z
1/2+x,1/2-y,1/2+z
loop_
_atom_site_type_symbol
_atom_site_label
_atom_site_fract_x
_atom_site_fract_y
_atom_site_fract_z
Si Si1 0.441384 0.073166 0.416086
Si Si2 0.811401 0.576381 0.995867
Si Si3 0.332958 0.750000 0.250000
Si Si4 0.585535 0.100055 0.990031
Si Si5 0.054043 0.856776 0.060394
Si Si6 0.361038 0.750000 0.750000
O O1 0.453175 0.096940 0.235826
O O2 0.432266 0.214915 0.462105
O O3 0.500000 0.000000 0.500000
O O4 0.376565 0.997506 0.453396
O O5 0.750000 0.500000 0.034428
O O6 0.823840 0.667326 0.132912
O O7 0.794250 0.656701 0.850137
O O8 0.376508 0.827521 0.136430
O O9 0.603252 0.958510 0.997004
O O10 0.510437 0.119532 0.966541
O O11 0.597137 0.161663 0.149305
#
# Coordination Sequence:
#
# PCOD9409262 Si02
#       6
#     8   8   4   8   8   4
#     4  11  21  39  63  95 129 166 208 268 319 373
#     4  11  24  44  66  91 122 168 210 260 319 379
#     4  10  20  40  66  86 126 170 212 248 328 376
#     4  10  19  38  60  94 128 170 203 257 314 380
#     4  10  21  33  60  97 130 157 216 258 310 374
#     4  10  22  44  62  82 128 166 208 248 326 374
#
# _framework density 19.508088000000001
#
# number of rings (size 3 to 8) (size 9 to 14) (size 15 to 20)
#    0.000    1.600    2.000    4.800    0.000    1.600 
#    3.600    2.000    0.000    0.000    0.000    0.000 
#    0.000    0.000    0.000    0.000    0.000    0.000 
#
# Total GULP energy -222722.658205 kJ/mol
# GULP energy per Si atom -5568.066455 kJ/mol
# Density = 1.946369 g / cm^3
# Si number density = 19.508088 Si / 1000 Ang^3
#
#
#
# Elastic Constant Matrix: (Units=GPa)
#
#
# Indices 1 2 3 4 5 6 
#
# 1 51.7446 26.2533 1.2866 0.0000 0.0000 0.0000
# 2 26.2533 163.0841 43.2612 0.0000 0.0000 0.0000
# 3 1.2866 43.2612 65.1088 0.0000 0.0000 0.0000
# 4 0.0000 0.0000 0.0000 33.8175 0.0000 0.0000
# 5 0.0000 0.0000 0.0000 0.0000 2.9067 0.0000
# 6 0.0000 0.0000 0.0000 0.0000 0.0000 17.6185
#
#
#
# Elastic Compliance Matrix: (Units=1/GPa)
#
#
# Indices 1 2 3 4 5 6 
#
# 1 0.021314 -0.004030 0.002256 0.000000 0.000000 0.000000
# 2 -0.004030 0.008206 -0.005373 0.000000 0.000000 0.000000
# 3 0.002256 -0.005373 0.018884 0.000000 0.000000 0.000000
# 4 0.000000 0.000000 0.000000 0.029571 0.000000 0.000000
# 5 0.000000 0.000000 0.000000 0.000000 0.344035 0.000000
# 6 0.000000 0.000000 0.000000 0.000000 0.000000 0.056758
#
#
# Mechanical properties :
#
#
# Convention : Reuss Voigt Hill
#
# Bulk Modulus (GPa) = 29.31521 46.83776 38.07648
# Shear Modulus (GPa) = 9.91217 24.81096 17.36157
#
# Velocity S-wave (km/s) = 2.25657 3.57014 2.98647
# Velocity P-wave (km/s) = 4.67432 6.40750 5.60827
#
# Compressibility (1/GPa) = 0.03411199
#
# Stress axis : x y z
#
# Youngs Moduli (GPa) = 46.91729 121.86666 52.95459
#
# Poissons Ratio (x) = 0.49108 -0.11948
# Poissons Ratio (y) = 0.18906 0.28450
# Poissons Ratio (z) = -0.10586 0.65474
#
# Static dielectric constant tensor:
#      x y z
#    x 1.660440 0.000000 0.000000 
#    y 0.000000 1.786430 0.000000 
#    z 0.000000 0.000000 1.664240 
# 
# From -- ./inp_files/11695.got.cif
#   From: 2010.05.17/outbox.cif.g08.bks.cpg/sg52_6_cif.got.tgz:11695.got - 2010.06.03 12:15:38.
