data_PCOD9409077
_publ_section_title
;
Structure prediction by ZEFSAII (Michael W. Deem and Ramdas Pophale) SiO2 
 PCOD9409077
Probable space group: P N N A
;
_chemical_formula_sum "Si O2"
_cell_formula_units_Z 60
_cell_length_a 15.424035
_cell_length_b 13.314270
_cell_length_c 15.640632
_cell_angle_alpha 90.000000
_cell_angle_beta 90.000000
_cell_angle_gamma 90.000000
_cell_volume 3211.956535
_symmetry_space_group_name_H-M "P N N A"
_symmetry_group_IT_number 52
_symmetry_cell_setting 'orthorhombic'
loop_
_space_group_symop_operation_xyz
x,y,z
1/2-x,-y,z
x,1/2-y,1/2-z
1/2-x,1/2+y,1/2-z
-x,-y,-z
1/2+x,y,-z
-x,1/2+y,1/2+z
1/2+x,1/2-y,1/2+z
loop_
_atom_site_type_symbol
_atom_site_label
_atom_site_fract_x
_atom_site_fract_y
_atom_site_fract_z
Si Si1 0.690949 0.298226 0.565979
Si Si2 0.589077 0.587836 0.082437
Si Si3 0.412042 0.626643 0.972747
Si Si4 0.131995 0.733604 0.489961
Si Si5 0.512947 0.411876 0.564948
Si Si6 0.478481 0.554091 0.238677
Si Si7 0.355182 0.750000 0.250000
Si Si8 0.459848 0.171057 0.327722
O O1 0.654516 0.200377 0.517288
O O2 0.782441 0.330314 0.527624
O O3 0.611746 0.374924 0.560275
O O4 0.699642 0.272883 0.666055
O O5 0.623407 0.483770 0.045587
O O6 0.561444 0.577604 0.180048
O O7 0.496625 0.610204 0.033940
O O8 0.650410 0.678351 0.057552
O O9 0.451012 0.666805 0.883028
O O10 0.106160 0.787659 0.400316
O O11 0.052483 0.673466 0.531466
O O12 0.500000 0.500000 0.500000
O O13 0.497369 0.447047 0.661753
O O14 0.413865 0.650570 0.230724
O O15 0.444415 0.444196 0.205748
O O16 0.462634 0.250000 0.250000
#
# Coordination Sequence:
#
# PCOD9409077 Si02
#       8
#     8   8   8   8   8   8   4   8
#     4  11  22  38  61  89 123 159 196 257 307 374
#     4   9  16  34  58  87 113 148 197 241 308 361
#     4   9  17  33  59  83 117 154 190 242 301 364
#     4  11  23  37  63  89 121 161 201 259 309 374
#     4  11  23  42  63  86 120 172 210 245 311 372
#     4  10  19  35  67  85 119 162 205 260 305 379
#     4  10  20  36  54  92 124 152 196 250 322 380
#     4  10  20  36  59  91 119 158 205 253 309 370
#
# _framework density 18.680202000000001
#
# number of rings (size 3 to 8) (size 9 to 14) (size 15 to 20)
#    0.000    1.867    4.000    2.400    0.933    1.067 
#    0.000    0.000    2.933    1.600    0.000    0.000 
#    0.000    0.000    0.000    0.000    0.000    0.000 
#
# Total GULP energy -334363.616979 kJ/mol
# GULP energy per Si atom -5572.726950 kJ/mol
# Density = 1.863768 g / cm^3
# Si number density = 18.680202 Si / 1000 Ang^3
#
#
#
# Elastic Constant Matrix: (Units=GPa)
#
#
# Indices 1 2 3 4 5 6 
#
# 1 48.1798 3.3212 24.5939 0.0000 0.0000 0.0000
# 2 3.3212 67.6994 34.5542 0.0000 0.0000 0.0000
# 3 24.5939 34.5542 115.7801 0.0000 0.0000 0.0000
# 4 0.0000 0.0000 0.0000 36.5395 0.0000 0.0000
# 5 0.0000 0.0000 0.0000 0.0000 14.5292 0.0000
# 6 0.0000 0.0000 0.0000 0.0000 0.0000 3.3028
#
#
#
# Elastic Compliance Matrix: (Units=1/GPa)
#
#
# Indices 1 2 3 4 5 6 
#
# 1 0.023433 0.001641 -0.005467 0.000000 0.000000 0.000000
# 2 0.001641 0.017541 -0.005584 0.000000 0.000000 0.000000
# 3 -0.005467 -0.005584 0.011465 0.000000 0.000000 0.000000
# 4 0.000000 0.000000 0.000000 0.027368 0.000000 0.000000
# 5 0.000000 0.000000 0.000000 0.000000 0.068827 0.000000
# 6 0.000000 0.000000 0.000000 0.000000 0.000000 0.302769
#
#
# Mechanical properties :
#
#
# Convention : Reuss Voigt Hill
#
# Bulk Modulus (GPa) = 29.74518 39.62200 34.68359
# Shear Modulus (GPa) = 10.38575 22.15365 16.26970
#
# Velocity S-wave (km/s) = 2.36047 3.44749 2.95440
# Velocity P-wave (km/s) = 4.83602 6.09128 5.49958
#
# Compressibility (1/GPa) = 0.03361890
#
# Stress axis : x y z
#
# Youngs Moduli (GPa) = 42.67412 57.01078 87.22319
#
# Poissons Ratio (x) = -0.09356 0.47689
# Poissons Ratio (y) = -0.07003 0.48701
# Poissons Ratio (z) = 0.23332 0.31832
#
# Static dielectric constant tensor:
#      x y z
#    x 1.682750 0.000000 0.000000 
#    y 0.000000 1.665710 0.000000 
#    z 0.000000 0.000000 1.639940 
# 
# From -- ./inp_files/27447.got.cif
#   From: 2010.05.17/outbox.cif.g08.bks.cpg/sg52_14_cif.got.tgz:27447.got - 2010.06.03 12:15:38.
