data_PCOD9409226
_publ_section_title
;
Structure prediction by ZEFSAII (Michael W. Deem and Ramdas Pophale) SiO2 
 PCOD9409226
Probable space group: P N N A
;
_chemical_formula_sum "Si O2"
_cell_formula_units_Z 28
_cell_length_a 29.178131
_cell_length_b 5.559291
_cell_length_c 7.298473
_cell_angle_alpha 90.000000
_cell_angle_beta 90.000000
_cell_angle_gamma 90.000000
_cell_volume 1183.883270
_symmetry_space_group_name_H-M "P N N A"
_symmetry_group_IT_number 52
_symmetry_cell_setting 'orthorhombic'
loop_
_space_group_symop_operation_xyz
x,y,z
1/2-x,-y,z
x,1/2-y,1/2-z
1/2-x,1/2+y,1/2-z
-x,-y,-z
1/2+x,y,-z
-x,1/2+y,1/2+z
1/2+x,1/2-y,1/2+z
loop_
_atom_site_type_symbol
_atom_site_label
_atom_site_fract_x
_atom_site_fract_y
_atom_site_fract_z
Si Si1 0.007808 0.250000 0.250000
Si Si2 0.063300 0.376565 0.923814
Si Si3 0.658400 0.514306 0.959717
Si Si4 0.195310 0.491107 0.457965
O O1 0.040302 0.298121 0.425373
O O2 0.975544 0.460638 0.173155
O O3 0.085620 0.250000 0.750000
O O4 0.103456 0.518460 0.025225
O O5 0.674735 0.502795 0.748379
O O6 0.677800 0.759767 0.043215
O O7 0.678125 0.262808 0.036393
O O8 0.250000 0.500000 0.448474
#
# Coordination Sequence:
#
# PCOD9409226 Si02
#       4
#     4   8   8   8
#     4  10  24  46  66  98 134 190 228 284 350 420
#     4  11  24  43  68  99 138 178 236 284 352 410
#     4  10  20  34  63  96 133 169 225 284 328 401
#     4  10  19  37  64 102 131 178 231 273 341 421
#
# _framework density 23.650977000000001
#
# number of rings (size 3 to 8) (size 9 to 14) (size 15 to 20)
#    0.000    1.714    0.000    6.857    4.000    0.000 
#   20.571    0.000    0.000    5.143    0.000    0.000 
#    0.000    0.000    0.000    0.000    0.000    0.000 
#
# Total GULP energy -156323.939867 kJ/mol
# GULP energy per Si atom -5582.997852 kJ/mol
# Density = 2.359715 g / cm^3
# Si number density = 23.650977 Si / 1000 Ang^3
#
#
#
# Elastic Constant Matrix: (Units=GPa)
#
#
# Indices 1 2 3 4 5 6 
#
# 1 153.6940 41.6608 59.3016 0.0000 0.0000 0.0000
# 2 41.6608 178.3104 36.8675 0.0000 0.0000 0.0000
# 3 59.3016 36.8675 125.7647 0.0000 0.0000 0.0000
# 4 0.0000 0.0000 0.0000 3.1166 0.0000 0.0000
# 5 0.0000 0.0000 0.0000 0.0000 -527.4874 0.0000
# 6 0.0000 0.0000 0.0000 0.0000 0.0000 42.1558
#
#
#
# Elastic Compliance Matrix: (Units=1/GPa)
#
#
# Indices 1 2 3 4 5 6 
#
# 1 0.008182 -0.001186 -0.003511 0.000000 0.000000 0.000000
# 2 -0.001186 0.006142 -0.001241 0.000000 0.000000 0.000000
# 3 -0.003511 -0.001241 0.009971 0.000000 0.000000 0.000000
# 4 0.000000 0.000000 0.000000 0.320858 0.000000 0.000000
# 5 0.000000 0.000000 0.000000 0.000000 -0.001896 0.000000
# 6 0.000000 0.000000 0.000000 0.000000 0.000000 0.023722
#
#
# Mechanical properties :
#
#
# Convention : Reuss Voigt Hill
#
# Bulk Modulus (GPa) = 80.51963 81.49210 81.00587
# Shear Modulus (GPa) = 13.05505 -75.11371 -31.02933
#
# Velocity S-wave (km/s) = 2.35199 -5.64165 -3.62604
# Velocity P-wave (km/s) = 6.44164 2.81188 4.09805
#
# Compressibility (1/GPa) = 0.01241933
#
# Stress axis : x y z
#
# Youngs Moduli (GPa) = 122.21313 162.81540 100.29507
#
# Poissons Ratio (x) = 0.19308 0.35210
# Poissons Ratio (y) = 0.14493 0.12450
# Poissons Ratio (z) = 0.42904 0.20210
#
# Static dielectric constant tensor:
#      x y z
#    x 1.846290 0.000000 0.000000 
#    y 0.000000 1.960280 0.000000 
#    z 0.000000 0.000000 1.876620 
# 
# From -- ./inp_files/14635.got.cif
#   From: 2010.05.17/outbox.cif.g08.bks.cpg/sg52_8_cif.got.tgz:14635.got - 2010.06.03 12:15:38.
