data_PCOD9409219
_publ_section_title
;
Structure prediction by ZEFSAII (Michael W. Deem and Ramdas Pophale) SiO2 
 PCOD9409219
Probable space group: P N N A
;
_chemical_formula_sum "Si O2"
_cell_formula_units_Z 40
_cell_length_a 8.829992
_cell_length_b 21.552300
_cell_length_c 10.480019
_cell_angle_alpha 90.000000
_cell_angle_beta 90.000000
_cell_angle_gamma 90.000000
_cell_volume 1994.417167
_symmetry_space_group_name_H-M "P N N A"
_symmetry_group_IT_number 52
_symmetry_cell_setting 'orthorhombic'
loop_
_space_group_symop_operation_xyz
x,y,z
1/2-x,-y,z
x,1/2-y,1/2-z
1/2-x,1/2+y,1/2-z
-x,-y,-z
1/2+x,y,-z
-x,1/2+y,1/2+z
1/2+x,1/2-y,1/2+z
loop_
_atom_site_type_symbol
_atom_site_label
_atom_site_fract_x
_atom_site_fract_y
_atom_site_fract_z
Si Si1 0.315614 0.558906 0.320916
Si Si2 0.585796 0.594609 0.463736
Si Si3 0.147535 0.165084 0.852668
Si Si4 0.464546 0.696924 0.908689
Si Si5 0.187228 0.311578 0.169904
O O1 0.250000 0.500000 0.244440
O O2 0.488001 0.552114 0.369217
O O3 0.204434 0.562437 0.442992
O O4 0.306698 0.626122 0.254217
O O5 0.465194 0.627590 0.555656
O O6 0.682772 0.644595 0.384315
O O7 0.113461 0.236207 0.887318
O O8 0.103913 0.155282 0.705203
O O9 0.643581 0.701305 0.883567
O O10 0.423680 0.677543 0.051081
O O11 0.143606 0.250000 0.250000
#
# Coordination Sequence:
#
# PCOD9409219 Si02
#       5
#     8   8   8   8   8
#     4  11  23  41  65  92 128 167 213 261 315 375
#     4  10  20  38  64  91 123 163 207 258 320 367
#     4  10  19  37  62  94 125 160 205 257 314 378
#     4  11  22  37  60  91 129 160 205 259 311 373
#     4  12  24  42  63  92 124 168 207 260 315 373
#
# _framework density 20.055983999999999
#
# number of rings (size 3 to 8) (size 9 to 14) (size 15 to 20)
#    0.000    1.200    4.000    4.200    2.800    0.000 
#    0.000    1.000    0.000    0.000    0.000    0.000 
#    0.000    0.000    0.000    0.000    0.000    0.000 
#
# Total GULP energy -223393.295046 kJ/mol
# GULP energy per Si atom -5584.832376 kJ/mol
# Density = 2.001034 g / cm^3
# Si number density = 20.055984 Si / 1000 Ang^3
#
#
#
# Elastic Constant Matrix: (Units=GPa)
#
#
# Indices 1 2 3 4 5 6 
#
# 1 71.6202 -8.8562 17.9469 0.0000 0.0000 0.0000
# 2 -8.8562 58.2712 12.4565 0.0000 0.0000 0.0000
# 3 17.9469 12.4565 87.6628 0.0000 0.0000 0.0000
# 4 0.0000 0.0000 0.0000 16.2034 0.0000 0.0000
# 5 0.0000 0.0000 0.0000 0.0000 61.4582 0.0000
# 6 0.0000 0.0000 0.0000 0.0000 0.0000 20.6418
#
#
#
# Elastic Compliance Matrix: (Units=1/GPa)
#
#
# Indices 1 2 3 4 5 6 
#
# 1 0.015234 0.003075 -0.003556 0.000000 0.000000 0.000000
# 2 0.003075 0.018320 -0.003233 0.000000 0.000000 0.000000
# 3 -0.003556 -0.003233 0.012595 0.000000 0.000000 0.000000
# 4 0.000000 0.000000 0.000000 0.061715 0.000000 0.000000
# 5 0.000000 0.000000 0.000000 0.000000 0.016271 0.000000
# 6 0.000000 0.000000 0.000000 0.000000 0.000000 0.048445
#
#
# Mechanical properties :
#
#
# Convention : Reuss Voigt Hill
#
# Bulk Modulus (GPa) = 25.82521 28.96094 27.39308
# Shear Modulus (GPa) = 25.91832 32.72782 29.32307
#
# Velocity S-wave (km/s) = 3.59876 4.04397 3.82784
# Velocity P-wave (km/s) = 5.49296 6.02298 5.76406
#
# Compressibility (1/GPa) = 0.03872185
#
# Stress axis : x y z
#
# Youngs Moduli (GPa) = 65.64333 54.58633 79.39867
#
# Poissons Ratio (x) = -0.16787 0.28232
# Poissons Ratio (y) = -0.20188 0.25668
# Poissons Ratio (z) = 0.23341 0.17646
#
# Static dielectric constant tensor:
#      x y z
#    x 1.718940 0.000000 0.000000 
#    y 0.000000 1.770640 0.000000 
#    z 0.000000 0.000000 1.747410 
# 
# From -- ./inp_files/7411.got.cif
#   From: 2010.05.17/outbox.cif.g08.bks.cpg/sg52_4_cif.got.tgz:7411.got - 2010.06.03 12:15:38.
