data_PCOD9409941
_publ_section_title
;
Structure prediction by ZEFSAII (Michael W. Deem and Ramdas Pophale) SiO2 
 PCOD9409941
Probable space group: P N N A
;
_chemical_formula_sum "Si O2"
_cell_formula_units_Z 36
_cell_length_a 10.356202
_cell_length_b 8.304989
_cell_length_c 18.801714
_cell_angle_alpha 90.000000
_cell_angle_beta 90.000000
_cell_angle_gamma 90.000000
_cell_volume 1617.100519
_symmetry_space_group_name_H-M "P N N A"
_symmetry_group_IT_number 52
_symmetry_cell_setting 'orthorhombic'
loop_
_space_group_symop_operation_xyz
x,y,z
1/2-x,-y,z
x,1/2-y,1/2-z
1/2-x,1/2+y,1/2-z
-x,-y,-z
1/2+x,y,-z
-x,1/2+y,1/2+z
1/2+x,1/2-y,1/2+z
loop_
_atom_site_type_symbol
_atom_site_label
_atom_site_fract_x
_atom_site_fract_y
_atom_site_fract_z
Si Si1 0.626111 0.115389 0.500741
Si Si2 0.608831 0.033305 0.285329
Si Si3 0.073938 0.250000 0.250000
Si Si4 0.076609 0.175627 0.866072
Si Si5 0.628293 0.097739 0.891831
O O1 0.643351 0.237142 0.432928
O O2 0.607440 0.240959 0.564550
O O3 0.750000 0.000000 0.508054
O O4 0.500000 0.000000 0.500000
O O5 0.638688 0.097391 0.205160
O O6 0.522868 0.164180 0.327243
O O7 0.750000 0.000000 0.318237
O O8 0.524268 0.875487 0.285130
O O9 0.150343 0.154686 0.189598
O O10 0.986807 0.032175 0.893220
O O11 0.750000 0.000000 0.919917
#
# Coordination Sequence:
#
# PCOD9409941 Si02
#       5
#     8   8   4   8   8
#     4  12  26  44  68  96 131 172 220 274 329 394
#     4  10  20  37  62  95 128 162 208 266 327 391
#     4  10  22  38  62  92 124 166 216 264 320 384
#     4  10  22  39  62  91 127 167 210 262 327 390
#     4  11  25  43  64  91 128 171 218 269 325 395
#
# _framework density 22.262065
#
# number of rings (size 3 to 8) (size 9 to 14) (size 15 to 20)
#    0.000    1.333    0.000    5.333    0.000    8.889 
#    0.000    0.000    0.000    0.000    0.000    0.000 
#    0.000    0.000    0.000    0.000    0.000    0.000 
#
# Total GULP energy -200583.931882 kJ/mol
# GULP energy per Si atom -5571.775886 kJ/mol
# Density = 2.221140 g / cm^3
# Si number density = 22.262065 Si / 1000 Ang^3
#
#
#
# Elastic Constant Matrix: (Units=GPa)
#
#
# Indices 1 2 3 4 5 6 
#
# 1 71.5294 71.5022 27.5087 0.0000 0.0000 0.0000
# 2 71.5022 193.1074 47.9492 0.0000 0.0000 0.0000
# 3 27.5087 47.9492 82.4021 0.0000 0.0000 0.0000
# 4 0.0000 0.0000 0.0000 56.8920 0.0000 0.0000
# 5 0.0000 0.0000 0.0000 0.0000 8.1271 0.0000
# 6 0.0000 0.0000 0.0000 0.0000 0.0000 14.1464
#
#
#
# Elastic Compliance Matrix: (Units=1/GPa)
#
#
# Indices 1 2 3 4 5 6 
#
# 1 0.022881 -0.007686 -0.003166 0.000000 0.000000 0.000000
# 2 -0.007686 0.008635 -0.002459 0.000000 0.000000 0.000000
# 3 -0.003166 -0.002459 0.014623 0.000000 0.000000 0.000000
# 4 0.000000 0.000000 0.000000 0.017577 0.000000 0.000000
# 5 0.000000 0.000000 0.000000 0.000000 0.123046 0.000000
# 6 0.000000 0.000000 0.000000 0.000000 0.000000 0.070689
#
#
# Mechanical properties :
#
#
# Convention : Reuss Voigt Hill
#
# Bulk Modulus (GPa) = 51.23587 71.21766 61.22676
# Shear Modulus (GPa) = 17.20706 29.17170 23.18938
#
# Velocity S-wave (km/s) = 2.78318 3.62384 3.23097
# Velocity P-wave (km/s) = 5.77867 7.04057 6.44060
#
# Compressibility (1/GPa) = 0.01951758
#
# Stress axis : x y z
#
# Youngs Moduli (GPa) = 43.70448 115.80922 68.38426
#
# Poissons Ratio (x) = 0.89011 0.21650
# Poissons Ratio (y) = 0.33591 0.16814
# Poissons Ratio (z) = 0.13837 0.28474
#
# Static dielectric constant tensor:
#      x y z
#    x 1.799380 0.000000 0.000000 
#    y 0.000000 1.845780 0.000000 
#    z 0.000000 0.000000 1.920020 
# 
# From -- ./inp_files/35590.got.cif
#   From: 2010.05.17/outbox.cif.g08.bks.cpg/sg52_18_cif.got.tgz:35590.got - 2010.06.03 12:15:38.
