data_PCOD9409291
_publ_section_title
;
Structure prediction by ZEFSAII (Michael W. Deem and Ramdas Pophale) SiO2 
 PCOD9409291
Probable space group: P N N A
;
_chemical_formula_sum "Si O2"
_cell_formula_units_Z 44
_cell_length_a 26.086098
_cell_length_b 13.869059
_cell_length_c 5.548017
_cell_angle_alpha 90.000000
_cell_angle_beta 90.000000
_cell_angle_gamma 90.000000
_cell_volume 2007.215030
_symmetry_space_group_name_H-M "P N N A"
_symmetry_group_IT_number 52
_symmetry_cell_setting 'orthorhombic'
loop_
_space_group_symop_operation_xyz
x,y,z
1/2-x,-y,z
x,1/2-y,1/2-z
1/2-x,1/2+y,1/2-z
-x,-y,-z
1/2+x,y,-z
-x,1/2+y,1/2+z
1/2+x,1/2-y,1/2+z
loop_
_atom_site_type_symbol
_atom_site_label
_atom_site_fract_x
_atom_site_fract_y
_atom_site_fract_z
Si Si1 0.888329 0.535389 0.314883
Si Si2 0.419577 0.863755 0.305897
Si Si3 0.203306 0.564135 0.499857
Si Si4 0.194424 0.750000 0.750000
Si Si5 0.123356 0.649222 0.135771
Si Si6 0.459263 0.365305 0.805318
O O1 0.894902 0.590899 0.565947
O O2 0.829891 0.496562 0.306180
O O3 0.926619 0.442572 0.347108
O O4 0.900219 0.596448 0.068897
O O5 0.412955 0.750000 0.250000
O O6 0.480781 0.882801 0.302576
O O7 0.250000 0.500000 0.413332
O O8 0.222678 0.668834 0.593952
O O9 0.161134 0.588489 0.298567
O O10 0.157282 0.815379 0.588865
O O11 0.109798 0.750000 0.250000
O O12 0.068637 0.609446 0.058118
O O13 0.451428 0.250000 0.750000
#
# Coordination Sequence:
#
# PCOD9409291 Si02
#       6
#     8   8   8   4   8   8
#     4  12  24  46  69 104 141 188 243 299 352 427
#     4  11  27  46  68 101 149 195 240 285 356 442
#     4  11  25  43  69 101 135 185 235 300 360 427
#     4  10  20  44  68  98 134 166 234 298 360 416
#     4  10  19  38  66 102 136 172 230 296 354 409
#     4  11  21  40  71 107 140 184 229 295 365 423
#
# _framework density 21.920921
#
# number of rings (size 3 to 8) (size 9 to 14) (size 15 to 20)
#    0.000    1.091    2.727    3.818    0.000    5.091 
#    3.273    0.909    0.000    0.000    0.000    0.000 
#    0.000    0.000    0.000    0.000    0.000    0.000 
#
# Total GULP energy -245175.353676 kJ/mol
# GULP energy per Si atom -5572.167129 kJ/mol
# Density = 2.187103 g / cm^3
# Si number density = 21.920921 Si / 1000 Ang^3
#
#
#
# Elastic Constant Matrix: (Units=GPa)
#
#
# Indices 1 2 3 4 5 6 
#
# 1 57.6574 44.9530 19.8017 0.0000 0.0000 0.0000
# 2 44.9530 127.9450 46.9443 0.0000 0.0000 0.0000
# 3 19.8017 46.9443 106.9156 0.0000 0.0000 0.0000
# 4 0.0000 0.0000 0.0000 42.2887 0.0000 0.0000
# 5 0.0000 0.0000 0.0000 0.0000 477.2390 0.0000
# 6 0.0000 0.0000 0.0000 0.0000 0.0000 -3.3193
#
#
#
# Elastic Compliance Matrix: (Units=1/GPa)
#
#
# Indices 1 2 3 4 5 6 
#
# 1 0.023957 -0.008093 -0.000884 0.000000 0.000000 0.000000
# 2 -0.008093 0.012051 -0.003792 0.000000 0.000000 0.000000
# 3 -0.000884 -0.003792 0.011182 0.000000 0.000000 0.000000
# 4 0.000000 0.000000 0.000000 0.023647 0.000000 0.000000
# 5 0.000000 0.000000 0.000000 0.000000 0.002095 0.000000
# 6 0.000000 0.000000 0.000000 0.000000 0.000000 -0.301271
#
#
# Mechanical properties :
#
#
# Convention : Reuss Voigt Hill
#
# Bulk Modulus (GPa) = 46.18531 57.32398 51.75464
# Shear Modulus (GPa) = -25.56453 115.29629 44.86588
#
# Velocity S-wave (km/s) = -3.41870 7.26021 4.52897
# Velocity P-wave (km/s) = 2.35191 9.82283 7.14211
#
# Compressibility (1/GPa) = 0.02165191
#
# Stress axis : x y z
#
# Youngs Moduli (GPa) = 41.74132 82.98240 89.42994
#
# Poissons Ratio (x) = 0.67158 0.07902
# Poissons Ratio (y) = 0.33781 0.33915
# Poissons Ratio (z) = 0.03688 0.31470
#
# Static dielectric constant tensor:
#      x y z
#    x 1.735600 0.000000 0.000000 
#    y 0.000000 1.893140 0.000000 
#    z 0.000000 0.000000 2.560430 
# 
# From -- ./inp_files/5726.got.cif
#   From: 2010.05.17/outbox.cif.g08.bks.cpg/sg52_3_cif.got.tgz:5726.got - 2010.06.03 12:15:38.
