data_PCOD9409915
_publ_section_title
;
Structure prediction by ZEFSAII (Michael W. Deem and Ramdas Pophale) SiO2 
 PCOD9409915
Probable space group: P N N A
;
_chemical_formula_sum "Si O2"
_cell_formula_units_Z 48
_cell_length_a 29.025384
_cell_length_b 8.497025
_cell_length_c 9.885630
_cell_angle_alpha 90.000000
_cell_angle_beta 90.000000
_cell_angle_gamma 90.000000
_cell_volume 2438.087129
_symmetry_space_group_name_H-M "P N N A"
_symmetry_group_IT_number 52
_symmetry_cell_setting 'orthorhombic'
loop_
_space_group_symop_operation_xyz
x,y,z
1/2-x,-y,z
x,1/2-y,1/2-z
1/2-x,1/2+y,1/2-z
-x,-y,-z
1/2+x,y,-z
-x,1/2+y,1/2+z
1/2+x,1/2-y,1/2+z
loop_
_atom_site_type_symbol
_atom_site_label
_atom_site_fract_x
_atom_site_fract_y
_atom_site_fract_z
Si Si1 0.614141 0.428900 0.707543
Si Si2 0.051399 0.556998 0.525574
Si Si3 0.900234 0.373710 0.963930
Si Si4 0.311620 0.163440 0.122100
Si Si5 0.294454 0.088587 0.828373
Si Si6 0.610595 0.062157 0.259619
O O1 0.617972 0.250000 0.750000
O O2 0.583902 0.456956 0.574916
O O3 0.663691 0.506769 0.677525
O O4 0.590655 0.526702 0.829310
O O5 0.061640 0.740857 0.495135
O O6 0.069856 0.519005 0.674656
O O7 0.000000 0.500000 0.500000
O O8 0.891311 0.489148 0.089914
O O9 0.854014 0.274506 0.928476
O O10 0.288621 0.250000 0.250000
O O11 0.284931 0.128125 0.985419
O O12 0.302324 0.250000 0.750000
O O13 0.250000 0.000000 0.771359
O O14 0.340918 0.988359 0.809097
O O15 0.606103 0.250000 0.250000
#
# Coordination Sequence:
#
# PCOD9409915 Si02
#       6
#     8   8   8   8   8   8
#     4  10  20  37  61  92 121 161 210 260 312 379
#     4  11  23  40  61  90 126 170 217 264 321 386
#     4  10  20  39  66  85 123 169 210 256 322 376
#     4   9  19  39  65  86 120 167 206 252 317 377
#     4  12  23  43  66  96 131 168 218 267 324 384
#     4  12  23  40  65  95 127 171 217 265 325 388
#
# _framework density 19.687564999999999
#
# number of rings (size 3 to 8) (size 9 to 14) (size 15 to 20)
#    0.000    1.333    5.000    3.500    0.000    2.667 
#    0.000    4.167    0.000    0.000    0.000    0.000 
#    0.000    0.000    0.000    0.000    0.000    0.000 
#
# Total GULP energy -268064.933471 kJ/mol
# GULP energy per Si atom -5584.686114 kJ/mol
# Density = 1.964276 g / cm^3
# Si number density = 19.687565 Si / 1000 Ang^3
#
#
#
# Elastic Constant Matrix: (Units=GPa)
#
#
# Indices 1 2 3 4 5 6 
#
# 1 39.0499 -1.6092 -15.0993 0.0000 0.0000 0.0000
# 2 -1.6092 126.1318 16.0084 0.0000 0.0000 0.0000
# 3 -15.0993 16.0084 89.3203 0.0000 0.0000 0.0000
# 4 0.0000 0.0000 0.0000 25.6856 0.0000 0.0000
# 5 0.0000 0.0000 0.0000 0.0000 -0.1763 0.0000
# 6 0.0000 0.0000 0.0000 0.0000 0.0000 14.1643
#
#
#
# Elastic Compliance Matrix: (Units=1/GPa)
#
#
# Indices 1 2 3 4 5 6 
#
# 1 0.027407 -0.000244 0.004677 0.000000 0.000000 0.000000
# 2 -0.000244 0.008115 -0.001496 0.000000 0.000000 0.000000
# 3 0.004677 -0.001496 0.012254 0.000000 0.000000 0.000000
# 4 0.000000 0.000000 0.000000 0.038932 0.000000 0.000000
# 5 0.000000 0.000000 0.000000 0.000000 -5.671917 0.000000
# 6 0.000000 0.000000 0.000000 0.000000 0.000000 0.070600
#
#
# Mechanical properties :
#
#
# Convention : Reuss Voigt Hill
#
# Bulk Modulus (GPa) = 18.63931 28.12242 23.38087
# Shear Modulus (GPa) = -0.90866 24.94821 12.01977
#
# Velocity S-wave (km/s) = -0.68010 3.56365 2.47356
# Velocity P-wave (km/s) = 2.97849 5.59000 4.47881
#
# Compressibility (1/GPa) = 0.05365006
#
# Stress axis : x y z
#
# Youngs Moduli (GPa) = 36.48767 123.22975 81.60406
#
# Poissons Ratio (x) = 0.03006 -0.38164
# Poissons Ratio (y) = 0.00890 0.12205
# Poissons Ratio (z) = -0.17064 0.18431
#
# Static dielectric constant tensor:
#      x y z
#    x 1.662180 0.000000 0.000000 
#    y 0.000000 1.707510 0.000000 
#    z 0.000000 0.000000 1.701870 
# 
# From -- ./inp_files/15501.got.cif
#   From: 2010.05.17/outbox.cif.g08.bks.cpg/sg52_8_cif.got.tgz:15501.got - 2010.06.03 12:15:38.
