data_PCOD9409942
_publ_section_title
;
Structure prediction by ZEFSAII (Michael W. Deem and Ramdas Pophale) SiO2 
 PCOD9409942
Probable space group: P N N A
;
_chemical_formula_sum "Si O2"
_cell_formula_units_Z 52
_cell_length_a 20.487385
_cell_length_b 18.704204
_cell_length_c 6.359979
_cell_angle_alpha 90.000000
_cell_angle_beta 90.000000
_cell_angle_gamma 90.000000
_cell_volume 2437.145406
_symmetry_space_group_name_H-M "P N N A"
_symmetry_group_IT_number 52
_symmetry_cell_setting 'orthorhombic'
loop_
_space_group_symop_operation_xyz
x,y,z
1/2-x,-y,z
x,1/2-y,1/2-z
1/2-x,1/2+y,1/2-z
-x,-y,-z
1/2+x,y,-z
-x,1/2+y,1/2+z
1/2+x,1/2-y,1/2+z
loop_
_atom_site_type_symbol
_atom_site_label
_atom_site_fract_x
_atom_site_fract_y
_atom_site_fract_z
Si Si1 0.454137 0.952244 0.354694
Si Si2 0.537676 0.819455 0.364719
Si Si3 0.577626 0.750000 0.750000
Si Si4 0.280363 0.750000 0.750000
Si Si5 0.840845 0.336141 0.403695
Si Si6 0.750000 0.000000 0.599704
Si Si7 0.643707 0.996343 0.961057
Si Si8 0.334784 0.898781 0.649437
O O1 0.499192 0.886931 0.286170
O O2 0.395382 0.921512 0.500849
O O3 0.500000 0.000000 0.500000
O O4 0.425675 0.992517 0.151857
O O5 0.510706 0.750000 0.250000
O O6 0.535068 0.803964 0.610688
O O7 0.614024 0.824657 0.302065
O O8 0.620660 0.701228 0.595345
O O9 0.229132 0.702331 0.612330
O O10 0.324686 0.813450 0.655804
O O11 0.842415 0.421149 0.428841
O O12 0.809314 0.008133 0.759330
O O13 0.730432 0.066597 0.454037
O O14 0.656372 0.061198 0.124917
#
# Coordination Sequence:
#
# PCOD9409942 Si02
#       8
#     8   8   4   4   8   4   8   8
#     4  11  25  44  68  96 132 181 233 283 341 411
#     4  10  22  41  62  97 132 171 228 283 334 415
#     4  10  20  37  62  98 123 170 214 276 346 394
#     4  12  24  43  66  98 139 172 220 288 346 410
#     4  11  22  39  66  99 129 168 225 277 346 414
#     4  10  22  44  66  94 134 174 222 276 342 424
#     4  11  24  43  68  98 132 182 226 284 354 404
#     4  11  26  43  64  99 136 177 227 284 343 422
#
# _framework density 21.336437
#
# number of rings (size 3 to 8) (size 9 to 14) (size 15 to 20)
#    0.000    1.231    2.308    4.154    2.154    9.231 
#    0.000    0.000    0.000    0.000    0.000    0.000 
#    0.000    0.000    0.000    0.000    0.000    0.000 
#
# Total GULP energy -290195.418899 kJ/mol
# GULP energy per Si atom -5580.681133 kJ/mol
# Density = 2.128787 g / cm^3
# Si number density = 21.336437 Si / 1000 Ang^3
#
#
#
# Elastic Constant Matrix: (Units=GPa)
#
#
# Indices 1 2 3 4 5 6 
#
# 1 68.2387 33.4016 15.9922 0.0000 0.0000 0.0000
# 2 33.4016 158.3390 25.2339 0.0000 0.0000 0.0000
# 3 15.9922 25.2339 76.6077 0.0000 0.0000 0.0000
# 4 0.0000 0.0000 0.0000 27.5130 0.0000 0.0000
# 5 0.0000 0.0000 0.0000 0.0000 14.8081 0.0000
# 6 0.0000 0.0000 0.0000 0.0000 0.0000 36.2578
#
#
#
# Elastic Compliance Matrix: (Units=1/GPa)
#
#
# Indices 1 2 3 4 5 6 
#
# 1 0.016772 -0.003145 -0.002465 0.000000 0.000000 0.000000
# 2 -0.003145 0.007255 -0.001733 0.000000 0.000000 0.000000
# 3 -0.002465 -0.001733 0.014139 0.000000 0.000000 0.000000
# 4 0.000000 0.000000 0.000000 0.036346 0.000000 0.000000
# 5 0.000000 0.000000 0.000000 0.000000 0.067530 0.000000
# 6 0.000000 0.000000 0.000000 0.000000 0.000000 0.027580
#
#
# Mechanical properties :
#
#
# Convention : Reuss Voigt Hill
#
# Bulk Modulus (GPa) = 42.59152 50.27119 46.43136
# Shear Modulus (GPa) = 26.02317 30.95298 28.48807
#
# Velocity S-wave (km/s) = 3.49615 3.81295 3.65798
# Velocity P-wave (km/s) = 6.02517 6.55722 6.29682
#
# Compressibility (1/GPa) = 0.02347885
#
# Stress axis : x y z
#
# Youngs Moduli (GPa) = 59.62439 137.83127 70.72606
#
# Poissons Ratio (x) = 0.43349 0.17435
# Poissons Ratio (y) = 0.18753 0.12259
# Poissons Ratio (z) = 0.14699 0.23890
#
# Static dielectric constant tensor:
#      x y z
#    x 1.824900 0.000000 0.000000 
#    y 0.000000 1.796510 0.000000 
#    z 0.000000 0.000000 1.808540 
# 
# From -- ./inp_files/4468.got.cif
#   From: 2010.05.17/outbox.cif.g08.bks.cpg/sg52_3_cif.got.tgz:4468.got - 2010.06.03 12:15:38.
