data_PCOD9409497
_publ_section_title
;
Structure prediction by ZEFSAII (Michael W. Deem and Ramdas Pophale) SiO2 
 PCOD9409497
Probable space group: P N N A
;
_chemical_formula_sum "Si O2"
_cell_formula_units_Z 48
_cell_length_a 10.891895
_cell_length_b 8.809974
_cell_length_c 25.428133
_cell_angle_alpha 90.000000
_cell_angle_beta 90.000000
_cell_angle_gamma 90.000000
_cell_volume 2440.015286
_symmetry_space_group_name_H-M "P N N A"
_symmetry_group_IT_number 52
_symmetry_cell_setting 'orthorhombic'
loop_
_space_group_symop_operation_xyz
x,y,z
1/2-x,-y,z
x,1/2-y,1/2-z
1/2-x,1/2+y,1/2-z
-x,-y,-z
1/2+x,y,-z
-x,1/2+y,1/2+z
1/2+x,1/2-y,1/2+z
loop_
_atom_site_type_symbol
_atom_site_label
_atom_site_fract_x
_atom_site_fract_y
_atom_site_fract_z
Si Si1 0.128043 0.595931 0.905254
Si Si2 0.583782 0.335762 0.304692
Si Si3 0.276577 0.325930 0.019765
Si Si4 0.492513 0.288242 0.094418
Si Si5 0.621874 0.686763 0.308946
Si Si6 0.621104 0.411176 0.482779
O O1 0.250000 0.500000 0.887831
O O2 0.032727 0.460666 0.916445
O O3 0.085115 0.707415 0.858654
O O4 0.164372 0.675619 0.960614
O O5 0.564572 0.250000 0.250000
O O6 0.496117 0.247682 0.344814
O O7 0.566394 0.517200 0.308839
O O8 0.729914 0.318095 0.315355
O O9 0.250000 0.500000 0.030766
O O10 0.369680 0.260505 0.062119
O O11 0.151583 0.230925 0.020199
O O12 0.591782 0.168620 0.072179
O O13 0.597869 0.750000 0.250000
O O14 0.750000 0.500000 0.481516
O O15 0.500000 0.500000 0.500000
#
# Coordination Sequence:
#
# PCOD9409497 Si02
#       6
#     8   8   8   8   8   8
#     4  11  20  35  56  86 125 166 216 256 322 395
#     4  10  21  35  55  87 125 165 216 267 333 395
#     4  11  24  43  61  90 128 175 220 266 327 397
#     4  12  23  38  63  89 126 174 213 270 331 391
#     4  10  20  33  56  85 128 171 208 267 332 399
#     4  12  25  40  62  95 137 170 220 267 326 394
#
# _framework density 19.672007000000001
#
# number of rings (size 3 to 8) (size 9 to 14) (size 15 to 20)
#    0.000    1.000    6.667    1.500    7.000    0.000 
#    0.000    0.000    0.000    0.000    4.333    0.000 
#    0.000    0.000    0.000    0.000    0.000    0.000 
#
# Total GULP energy -267841.723603 kJ/mol
# GULP energy per Si atom -5580.035908 kJ/mol
# Density = 1.962723 g / cm^3
# Si number density = 19.672007 Si / 1000 Ang^3
#
#
#
# Elastic Constant Matrix: (Units=GPa)
#
#
# Indices 1 2 3 4 5 6 
#
# 1 66.1992 38.1346 36.7177 0.0000 0.0000 0.0000
# 2 38.1346 105.4080 38.5791 0.0000 0.0000 0.0000
# 3 36.7177 38.5791 106.9663 0.0000 0.0000 0.0000
# 4 0.0000 0.0000 0.0000 36.5942 0.0000 0.0000
# 5 0.0000 0.0000 0.0000 0.0000 17.6508 0.0000
# 6 0.0000 0.0000 0.0000 0.0000 0.0000 29.8720
#
#
#
# Elastic Compliance Matrix: (Units=1/GPa)
#
#
# Indices 1 2 3 4 5 6 
#
# 1 0.021357 -0.005810 -0.005235 0.000000 0.000000 0.000000
# 2 -0.005810 0.012510 -0.002518 0.000000 0.000000 0.000000
# 3 -0.005235 -0.002518 0.012054 0.000000 0.000000 0.000000
# 4 0.000000 0.000000 0.000000 0.027327 0.000000 0.000000
# 5 0.000000 0.000000 0.000000 0.000000 0.056655 0.000000
# 6 0.000000 0.000000 0.000000 0.000000 0.000000 0.033476
#
#
# Mechanical properties :
#
#
# Convention : Reuss Voigt Hill
#
# Bulk Modulus (GPa) = 53.20731 56.15958 54.68344
# Shear Modulus (GPa) = 25.41033 27.83288 26.62161
#
# Velocity S-wave (km/s) = 3.59792 3.76553 3.68268
# Velocity P-wave (km/s) = 6.66078 6.89315 6.77796
#
# Compressibility (1/GPa) = 0.01879441
#
# Stress axis : x y z
#
# Youngs Moduli (GPa) = 46.82335 79.93313 82.96072
#
# Poissons Ratio (x) = 0.46444 0.43434
# Poissons Ratio (y) = 0.27206 0.20886
# Poissons Ratio (z) = 0.24514 0.20124
#
# Static dielectric constant tensor:
#      x y z
#    x 1.703130 0.000000 0.000000 
#    y 0.000000 1.784790 0.000000 
#    z 0.000000 0.000000 1.695280 
# 
# From -- ./inp_files/40166.got.cif
#   From: 2010.05.17/outbox.cif.g08.bks.cpg/sg52_21_cif.got.tgz:40166.got - 2010.06.03 12:15:38.
