data_PCOD9409539
_publ_section_title
;
Structure prediction by ZEFSAII (Michael W. Deem and Ramdas Pophale) SiO2 
 PCOD9409539
Probable space group: P N N A
;
_chemical_formula_sum "Si O2"
_cell_formula_units_Z 32
_cell_length_a 22.340055
_cell_length_b 7.256647
_cell_length_c 8.757884
_cell_angle_alpha 90.000000
_cell_angle_beta 90.000000
_cell_angle_gamma 90.000000
_cell_volume 1419.774671
_symmetry_space_group_name_H-M "P N N A"
_symmetry_group_IT_number 52
_symmetry_cell_setting 'orthorhombic'
loop_
_space_group_symop_operation_xyz
x,y,z
1/2-x,-y,z
x,1/2-y,1/2-z
1/2-x,1/2+y,1/2-z
-x,-y,-z
1/2+x,y,-z
-x,1/2+y,1/2+z
1/2+x,1/2-y,1/2+z
loop_
_atom_site_type_symbol
_atom_site_label
_atom_site_fract_x
_atom_site_fract_y
_atom_site_fract_z
Si Si1 0.752072 0.280907 0.570880
Si Si2 0.001291 0.787850 0.066626
Si Si3 0.870984 0.779140 0.068498
Si Si4 0.375104 0.282208 0.570942
O O1 0.750000 0.500000 0.539942
O O2 0.756839 0.250000 0.750000
O O3 0.688670 0.206187 0.511178
O O4 0.812279 0.207942 0.492170
O O5 0.002662 0.750000 0.250000
O O6 0.936399 0.709391 0.016684
O O7 0.063395 0.710613 0.001916
O O8 0.000000 0.000000 0.000000
O O9 0.865353 0.750000 0.250000
O O10 0.873368 0.998629 0.041249
O O11 0.377917 0.250000 0.750000
#
# Coordination Sequence:
#
# PCOD9409539 Si02
#       4
#     8   8   8   8
#     4  10  21  35  52  75 104 136 174 219 265 316
#     4   9  18  35  55  76 108 144 178 223 274 325
#     4   9  19  36  53  74 105 138 172 216 266 318
#     4  10  20  34  54  79 106 138 176 220 268 321
#
# _framework density 22.538788
#
# number of rings (size 3 to 8) (size 9 to 14) (size 15 to 20)
#    0.000    2.500    0.000    1.500    0.000    3.000 
#    0.000   11.250    0.000    0.000    0.000    0.000 
#    0.000    0.000    0.000    0.000    0.000    0.000 
#
# Total GULP energy -178482.968192 kJ/mol
# GULP energy per Si atom -5577.592756 kJ/mol
# Density = 2.248749 g / cm^3
# Si number density = 22.538788 Si / 1000 Ang^3
#
#
#
# Elastic Constant Matrix: (Units=GPa)
#
#
# Indices 1 2 3 4 5 6 
#
# 1 312.8899 18.3136 113.5046 0.0000 0.0000 0.0000
# 2 18.3136 114.5024 -2.2514 0.0000 0.0000 0.0000
# 3 113.5046 -2.2514 116.9580 0.0000 0.0000 0.0000
# 4 0.0000 0.0000 0.0000 27.5416 0.0000 0.0000
# 5 0.0000 0.0000 0.0000 0.0000 53.1728 0.0000
# 6 0.0000 0.0000 0.0000 0.0000 0.0000 -39.9734
#
#
#
# Elastic Compliance Matrix: (Units=1/GPa)
#
#
# Indices 1 2 3 4 5 6 
#
# 1 0.005023 -0.000900 -0.004892 0.000000 0.000000 0.000000
# 2 -0.000900 0.008898 0.001044 0.000000 0.000000 0.000000
# 3 -0.004892 0.001044 0.013318 0.000000 0.000000 0.000000
# 4 0.000000 0.000000 0.000000 0.036309 0.000000 0.000000
# 5 0.000000 0.000000 0.000000 0.000000 0.018807 0.000000
# 6 0.000000 0.000000 0.000000 0.000000 0.000000 -0.025017
#
#
# Mechanical properties :
#
#
# Convention : Reuss Voigt Hill
#
# Bulk Modulus (GPa) = 56.35695 89.27599 72.81647
# Shear Modulus (GPa) = 68.73005 35.80043 52.26524
#
# Velocity S-wave (km/s) = 5.52814 3.98979 4.82072
# Velocity P-wave (km/s) = 8.11208 7.80516 7.96010
#
# Compressibility (1/GPa) = 0.01774404
#
# Stress axis : x y z
#
# Youngs Moduli (GPa) = 199.06560 112.38648 75.08531
#
# Poissons Ratio (x) = 0.10111 0.36735
# Poissons Ratio (y) = 0.17909 -0.07842
# Poissons Ratio (z) = 0.97392 -0.11737
#
# Static dielectric constant tensor:
#      x y z
#    x 1.870110 0.000000 0.000000 
#    y 0.000000 1.856740 0.000000 
#    z 0.000000 0.000000 1.825260 
# 
# From -- ./inp_files/3888.got.cif
#   From: 2010.05.17/outbox.cif.g08.bks.cpg/sg52_2_cif.got.tgz:3888.got - 2010.06.03 12:15:38.
