data_PCOD9409696
_publ_section_title
;
Structure prediction by ZEFSAII (Michael W. Deem and Ramdas Pophale) SiO2 
 PCOD9409696
Probable space group: P N N A
;
_chemical_formula_sum "Si O2"
_cell_formula_units_Z 56
_cell_length_a 14.101924
_cell_length_b 5.275749
_cell_length_c 34.146144
_cell_angle_alpha 90.000000
_cell_angle_beta 90.000000
_cell_angle_gamma 90.000000
_cell_volume 2540.412041
_symmetry_space_group_name_H-M "P N N A"
_symmetry_group_IT_number 52
_symmetry_cell_setting 'orthorhombic'
loop_
_space_group_symop_operation_xyz
x,y,z
1/2-x,-y,z
x,1/2-y,1/2-z
1/2-x,1/2+y,1/2-z
-x,-y,-z
1/2+x,y,-z
-x,1/2+y,1/2+z
1/2+x,1/2-y,1/2+z
loop_
_atom_site_type_symbol
_atom_site_label
_atom_site_fract_x
_atom_site_fract_y
_atom_site_fract_z
Si Si1 0.579368 0.041553 0.174803
Si Si2 0.687289 0.250000 0.250000
Si Si3 0.148758 0.959031 0.158287
Si Si4 0.250000 0.500000 0.497095
Si Si5 0.899204 0.309535 0.044164
Si Si6 0.604480 0.356844 0.968250
Si Si7 0.383026 0.538524 0.114032
Si Si8 0.395170 0.459494 0.869724
O O1 0.620343 0.137795 0.215860
O O2 0.461891 0.030771 0.174824
O O3 0.621033 0.256313 0.145158
O O4 0.621255 0.770006 0.160780
O O5 0.750000 0.500000 0.238203
O O6 0.158733 0.680124 0.140567
O O7 0.250000 0.000000 0.181300
O O8 0.149640 0.178835 0.125080
O O9 0.170272 0.612557 0.524924
O O10 0.301661 0.697425 0.470069
O O11 0.861779 0.395562 0.086340
O O12 0.007907 0.212014 0.044046
O O13 0.904376 0.532678 0.011867
O O14 0.619545 0.540535 0.931480
O O15 0.492542 0.543250 0.124905
#
# Coordination Sequence:
#
# PCOD9409696 Si02
#       8
#     8   4   8   4   8   8   8   8
#     4  10  22  44  69  97 131 162 203 264 319 389
#     4  12  26  48  74 106 130 168 222 268 322 384
#     4  10  20  35  62  96 132 166 208 253 315 387
#     4  12  24  36  54  86 112 158 224 270 326 372
#     4  10  23  41  58  81 121 166 215 269 326 389
#     4  10  23  40  56  79 120 170 216 274 330 370
#     4   9  20  35  57  88 123 171 218 261 306 375
#     4   9  20  41  66  90 123 168 208 255 330 380
#
# _framework density 22.043668
#
# number of rings (size 3 to 8) (size 9 to 14) (size 15 to 20)
#    0.000    2.000    0.000    2.143    5.000    1.143 
#    3.857    0.000    0.000    6.000    0.000    0.000 
#    0.000    0.000    0.000    0.000    0.000    0.000 
#
# Total GULP energy -311925.723235 kJ/mol
# GULP energy per Si atom -5570.102201 kJ/mol
# Density = 2.199350 g / cm^3
# Si number density = 22.043668 Si / 1000 Ang^3
#
#
#
# Elastic Constant Matrix: (Units=GPa)
#
#
# Indices 1 2 3 4 5 6 
#
# 1 113.6790 23.9247 29.0045 0.0000 0.0000 0.0000
# 2 23.9247 88.5143 11.1535 0.0000 0.0000 0.0000
# 3 29.0045 11.1535 84.1331 0.0000 0.0000 0.0000
# 4 0.0000 0.0000 0.0000 21.0358 0.0000 0.0000
# 5 0.0000 0.0000 0.0000 0.0000 17.1487 0.0000
# 6 0.0000 0.0000 0.0000 0.0000 0.0000 34.0860
#
#
#
# Elastic Compliance Matrix: (Units=1/GPa)
#
#
# Indices 1 2 3 4 5 6 
#
# 1 0.010096 -0.002329 -0.003172 0.000000 0.000000 0.000000
# 2 -0.002329 0.012027 -0.000791 0.000000 0.000000 0.000000
# 3 -0.003172 -0.000791 0.013084 0.000000 0.000000 0.000000
# 4 0.000000 0.000000 0.000000 0.047538 0.000000 0.000000
# 5 0.000000 0.000000 0.000000 0.000000 0.058313 0.000000
# 6 0.000000 0.000000 0.000000 0.000000 0.000000 0.029338
#
#
# Mechanical properties :
#
#
# Convention : Reuss Voigt Hill
#
# Bulk Modulus (GPa) = 44.20385 46.05464 45.12924
# Shear Modulus (GPa) = 26.24364 29.27032 27.75698
#
# Velocity S-wave (km/s) = 3.45415 3.64790 3.55234
# Velocity P-wave (km/s) = 6.00038 6.21938 6.11086
#
# Compressibility (1/GPa) = 0.02262246
#
# Stress axis : x y z
#
# Youngs Moduli (GPa) = 99.04732 83.14685 76.42735
#
# Poissons Ratio (x) = 0.19367 0.24241
# Poissons Ratio (y) = 0.23071 0.06048
# Poissons Ratio (z) = 0.31416 0.06580
#
# Static dielectric constant tensor:
#      x y z
#    x 1.903430 0.000000 0.000000 
#    y 0.000000 1.843630 0.000000 
#    z 0.000000 0.000000 1.807380 
# 
# From -- ./inp_files/45013.got.cif
#   From: 2010.05.17/outbox.cif.g08.bks.cpg/sg52_23_cif.got.tgz:45013.got - 2010.06.03 12:15:38.
