data_PCOD9409843
_publ_section_title
;
Structure prediction by ZEFSAII (Michael W. Deem and Ramdas Pophale) SiO2 
 PCOD9409843
Probable space group: P N N A
;
_chemical_formula_sum "Si O2"
_cell_formula_units_Z 64
_cell_length_a 9.012727
_cell_length_b 30.685635
_cell_length_c 11.332547
_cell_angle_alpha 90.000000
_cell_angle_beta 90.000000
_cell_angle_gamma 90.000000
_cell_volume 3134.143376
_symmetry_space_group_name_H-M "P N N A"
_symmetry_group_IT_number 52
_symmetry_cell_setting 'orthorhombic'
loop_
_space_group_symop_operation_xyz
x,y,z
1/2-x,-y,z
x,1/2-y,1/2-z
1/2-x,1/2+y,1/2-z
-x,-y,-z
1/2+x,y,-z
-x,1/2+y,1/2+z
1/2+x,1/2-y,1/2+z
loop_
_atom_site_type_symbol
_atom_site_label
_atom_site_fract_x
_atom_site_fract_y
_atom_site_fract_z
Si Si1 0.029552 0.846199 0.614344
Si Si2 0.749429 0.193113 0.950541
Si Si3 0.801733 0.049254 0.252664
Si Si4 0.354114 0.898101 0.951310
Si Si5 0.902880 0.590997 0.722387
Si Si6 0.535381 0.747478 0.385367
Si Si7 0.350884 0.880387 0.592425
Si Si8 0.097842 0.627802 0.281492
O O1 0.989200 0.796962 0.586354
O O2 0.203829 0.851169 0.591990
O O3 0.988907 0.863794 0.744571
O O4 0.935098 0.878383 0.531029
O O5 0.607896 0.217380 0.898793
O O6 0.838960 0.171122 0.842642
O O7 0.701019 0.151762 0.031414
O O8 0.844414 0.226738 0.027384
O O9 0.755184 0.074807 0.132679
O O10 0.712553 0.074078 0.357067
O O11 0.979126 0.055440 0.267048
O O12 0.750000 0.000000 0.245329
O O13 0.511367 0.897445 0.884874
O O14 0.377845 0.915064 0.083101
O O15 0.734991 0.599202 0.766833
O O16 0.589693 0.750000 0.250000
O O17 0.474361 0.863647 0.684013
#
# Coordination Sequence:
#
# PCOD9409843 Si02
#       8
#     8   8   8   8   8   8   8   8
#     4  11  23  41  63  88 127 172 220 266 325 389
#     4  11  23  40  58  93 126 170 217 269 324 384
#     4  10  23  41  67  98 128 164 218 277 330 409
#     4  10  20  38  63  89 126 167 209 254 338 390
#     4  10  20  37  64  90 124 169 205 263 330 391
#     4  12  26  38  62  94 130 170 230 278 321 392
#     4  10  23  43  66  91 126 175 214 269 337 397
#     4  10  20  36  65  87 120 166 214 254 326 391
#
# _framework density 20.420252000000001
#
# number of rings (size 3 to 8) (size 9 to 14) (size 15 to 20)
#    0.000    1.500    1.250    4.500    7.000    1.500 
#    0.000    5.625    0.000    0.750    0.000    0.000 
#    0.000    0.000    0.000    0.000    0.000    0.000 
#
# Total GULP energy -357223.451643 kJ/mol
# GULP energy per Si atom -5581.616432 kJ/mol
# Density = 2.037378 g / cm^3
# Si number density = 20.420252 Si / 1000 Ang^3
#
#
#
# Elastic Constant Matrix: (Units=GPa)
#
#
# Indices 1 2 3 4 5 6 
#
# 1 94.9966 -0.9723 26.8971 0.0000 0.0000 0.0000
# 2 -0.9723 79.1058 20.4129 0.0000 0.0000 0.0000
# 3 26.8971 20.4129 72.4054 0.0000 0.0000 0.0000
# 4 0.0000 0.0000 0.0000 15.5952 0.0000 0.0000
# 5 0.0000 0.0000 0.0000 0.0000 31.3858 0.0000
# 6 0.0000 0.0000 0.0000 0.0000 0.0000 18.3029
#
#
#
# Elastic Compliance Matrix: (Units=1/GPa)
#
#
# Indices 1 2 3 4 5 6 
#
# 1 0.011904 0.001388 -0.004813 0.000000 0.000000 0.000000
# 2 0.001388 0.013795 -0.004405 0.000000 0.000000 0.000000
# 3 -0.004813 -0.004405 0.016841 0.000000 0.000000 0.000000
# 4 0.000000 0.000000 0.000000 0.064122 0.000000 0.000000
# 5 0.000000 0.000000 0.000000 0.000000 0.031862 0.000000
# 6 0.000000 0.000000 0.000000 0.000000 0.000000 0.054636
#
#
# Mechanical properties :
#
#
# Convention : Reuss Voigt Hill
#
# Bulk Modulus (GPa) = 37.20243 37.68701 37.44472
# Shear Modulus (GPa) = 22.95899 26.40146 24.68022
#
# Velocity S-wave (km/s) = 3.35673 3.59960 3.48029
# Velocity P-wave (km/s) = 5.76901 5.98096 5.87594
#
# Compressibility (1/GPa) = 0.02687996
#
# Stress axis : x y z
#
# Youngs Moduli (GPa) = 84.00708 72.48989 59.37866
#
# Poissons Ratio (x) = -0.10064 0.28581
# Poissons Ratio (y) = -0.11664 0.26156
# Poissons Ratio (z) = 0.40436 0.31931
#
# Static dielectric constant tensor:
#      x y z
#    x 1.746000 0.000000 0.000000 
#    y 0.000000 1.707580 0.000000 
#    z 0.000000 0.000000 1.799300 
# 
# From -- ./inp_files/17253.got.cif
#   From: 2010.05.17/outbox.cif.g08.bks.cpg/sg52_9_cif.got.tgz:17253.got - 2010.06.03 12:15:38.
