data_PCOD9409501
_publ_section_title
;
Structure prediction by ZEFSAII (Michael W. Deem and Ramdas Pophale) SiO2 
 PCOD9409501
Probable space group: P N N A
;
_chemical_formula_sum "Si O2"
_cell_formula_units_Z 64
_cell_length_a 12.816566
_cell_length_b 9.345820
_cell_length_c 27.306406
_cell_angle_alpha 90.000000
_cell_angle_beta 90.000000
_cell_angle_gamma 90.000000
_cell_volume 3270.797324
_symmetry_space_group_name_H-M "P N N A"
_symmetry_group_IT_number 52
_symmetry_cell_setting 'orthorhombic'
loop_
_space_group_symop_operation_xyz
x,y,z
1/2-x,-y,z
x,1/2-y,1/2-z
1/2-x,1/2+y,1/2-z
-x,-y,-z
1/2+x,y,-z
-x,1/2+y,1/2+z
1/2+x,1/2-y,1/2+z
loop_
_atom_site_type_symbol
_atom_site_label
_atom_site_fract_x
_atom_site_fract_y
_atom_site_fract_z
Si Si1 0.844001 0.322357 0.565498
Si Si2 0.174322 0.362926 0.117071
Si Si3 0.790281 0.152156 0.297569
Si Si4 0.514725 0.500094 0.384657
Si Si5 0.158475 0.213810 0.606743
Si Si6 0.321711 0.367183 0.548383
Si Si7 0.514486 0.539308 0.943393
Si Si8 0.514798 0.244212 0.808267
O O1 0.741298 0.262105 0.591763
O O2 0.829838 0.370193 0.509710
O O3 0.917873 0.183783 0.560433
O O4 0.903421 0.443944 0.596201
O O5 0.250000 0.500000 0.125732
O O6 0.082301 0.416082 0.081524
O O7 0.115382 0.308606 0.165045
O O8 0.784429 0.250000 0.250000
O O9 0.714512 0.192353 0.341794
O O10 0.909225 0.163622 0.316396
O O11 0.750000 0.000000 0.280680
O O12 0.585348 0.355242 0.385549
O O13 0.569499 0.607554 0.423796
O O14 0.507054 0.589152 0.334000
O O15 0.252070 0.237118 0.567745
O O16 0.089130 0.083114 0.586434
O O17 0.250000 0.500000 0.563733
O O18 0.500000 0.500000 0.000000
O O19 0.530750 0.250000 0.750000
#
# Coordination Sequence:
#
# PCOD9409501 Si02
#       8
#     8   8   8   8   8   8   8   8
#     4  10  22  37  60  92 123 174 215 258 324 375
#     4  10  23  44  61  85 128 163 216 277 313 386
#     4  11  25  40  68  98 129 172 214 268 336 395
#     4  10  22  39  62  93 131 165 213 272 315 388
#     4  10  21  39  60  93 135 169 212 260 329 386
#     4  10  20  33  56  92 131 166 204 254 313 393
#     4  10  21  37  62  91 130 169 214 259 317 383
#     4  11  25  43  68  94 122 165 219 269 331 388
#
# _framework density 19.567094000000001
#
# number of rings (size 3 to 8) (size 9 to 14) (size 15 to 20)
#    0.000    1.750    1.250    1.875    7.000    1.000 
#    2.250    0.000    0.000    0.000    0.000    0.000 
#    0.000    0.000    0.000    0.000    0.000    0.000 
#
# Total GULP energy -357140.529291 kJ/mol
# GULP energy per Si atom -5580.320770 kJ/mol
# Density = 1.952256 g / cm^3
# Si number density = 19.567094 Si / 1000 Ang^3
#
#
#
# Elastic Constant Matrix: (Units=GPa)
#
#
# Indices 1 2 3 4 5 6 
#
# 1 113.8714 51.8529 68.4182 0.0000 0.0000 0.0000
# 2 51.8529 61.9062 35.9442 0.0000 0.0000 0.0000
# 3 68.4182 35.9442 141.0650 0.0000 0.0000 0.0000
# 4 0.0000 0.0000 0.0000 32.6139 0.0000 0.0000
# 5 0.0000 0.0000 0.0000 0.0000 34.8154 0.0000
# 6 0.0000 0.0000 0.0000 0.0000 0.0000 29.0234
#
#
#
# Elastic Compliance Matrix: (Units=1/GPa)
#
#
# Indices 1 2 3 4 5 6 
#
# 1 0.017174 -0.011207 -0.005474 0.000000 0.000000 0.000000
# 2 -0.011207 0.026271 -0.001259 0.000000 0.000000 0.000000
# 3 -0.005474 -0.001259 0.010065 0.000000 0.000000 0.000000
# 4 0.000000 0.000000 0.000000 0.030662 0.000000 0.000000
# 5 0.000000 0.000000 0.000000 0.000000 0.028723 0.000000
# 6 0.000000 0.000000 0.000000 0.000000 0.000000 0.034455
#
#
# Mechanical properties :
#
#
# Convention : Reuss Voigt Hill
#
# Bulk Modulus (GPa) = 56.71859 69.91924 63.31892
# Shear Modulus (GPa) = 26.44036 29.99903 28.21970
#
# Velocity S-wave (km/s) = 3.67995 3.91978 3.80175
# Velocity P-wave (km/s) = 6.86336 7.50312 7.19036
#
# Compressibility (1/GPa) = 0.01763090
#
# Stress axis : x y z
#
# Youngs Moduli (GPa) = 58.22777 38.06479 99.35790
#
# Poissons Ratio (x) = 0.42658 0.54389
# Poissons Ratio (y) = 0.65254 0.12506
# Poissons Ratio (z) = 0.31874 0.04791
#
# Static dielectric constant tensor:
#      x y z
#    x 1.718770 0.000000 0.000000 
#    y 0.000000 1.721210 0.000000 
#    z 0.000000 0.000000 1.639810 
# 
# From -- ./inp_files/44852.got.cif
#   From: 2010.05.17/outbox.cif.g08.bks.cpg/sg52_23_cif.got.tgz:44852.got - 2010.06.03 12:15:38.
