data_PCOD9409250
_publ_section_title
;
Structure prediction by ZEFSAII (Michael W. Deem and Ramdas Pophale) SiO2 
 PCOD9409250
Probable space group: P N N A
;
_chemical_formula_sum "Si O2"
_cell_formula_units_Z 64
_cell_length_a 23.722129
_cell_length_b 9.305659
_cell_length_c 14.838550
_cell_angle_alpha 90.000000
_cell_angle_beta 90.000000
_cell_angle_gamma 90.000000
_cell_volume 3275.610554
_symmetry_space_group_name_H-M "P N N A"
_symmetry_group_IT_number 52
_symmetry_cell_setting 'orthorhombic'
loop_
_space_group_symop_operation_xyz
x,y,z
1/2-x,-y,z
x,1/2-y,1/2-z
1/2-x,1/2+y,1/2-z
-x,-y,-z
1/2+x,y,-z
-x,1/2+y,1/2+z
1/2+x,1/2-y,1/2+z
loop_
_atom_site_type_symbol
_atom_site_label
_atom_site_fract_x
_atom_site_fract_y
_atom_site_fract_z
Si Si1 0.615497 0.514343 0.689301
Si Si2 0.076908 0.661185 0.658475
Si Si3 0.663380 0.291857 0.564170
Si Si4 0.709611 0.788161 0.895540
Si Si5 0.636770 0.521231 0.895199
Si Si6 0.469453 0.348789 0.009264
Si Si7 0.500046 0.081186 0.097138
Si Si8 0.188274 0.965541 0.923657
O O1 0.620677 0.369687 0.631259
O O2 0.669205 0.616731 0.667839
O O3 0.615810 0.485779 0.794725
O O4 0.559566 0.584850 0.648729
O O5 0.074655 0.750000 0.750000
O O6 0.049280 0.762935 0.580858
O O7 0.140214 0.608490 0.635338
O O8 0.041545 0.512896 0.657528
O O9 0.723707 0.303084 0.615333
O O10 0.666524 0.389107 0.474068
O O11 0.648714 0.126066 0.552502
O O12 0.691024 0.623761 0.889863
O O13 0.698756 0.854867 0.994201
O O14 0.588984 0.616597 0.941277
O O15 0.509705 0.244821 0.068018
O O16 0.500000 0.500000 0.000000
O O17 0.500000 0.000000 0.000000
O O18 0.250000 0.000000 0.882768
#
# Coordination Sequence:
#
# PCOD9409250 Si02
#       8
#     8   8   8   8   8   8   8   8
#     4  11  22  36  56  87 124 169 208 252 300 369
#     4  11  24  44  71  95 119 159 216 265 312 386
#     4  10  22  34  60  89 122 169 215 246 296 381
#     4  10  19  38  57  86 122 169 210 254 303 358
#     4  12  23  35  57  88 130 159 204 260 315 359
#     4  11  25  41  63  91 128 166 200 259 319 381
#     4  10  22  42  64  84 123 164 207 249 312 381
#     4   9  19  42  70  87 117 163 207 253 318 381
#
# _framework density 19.538342
#
# number of rings (size 3 to 8) (size 9 to 14) (size 15 to 20)
#    0.000    1.500    2.500    4.500    7.000    3.000 
#    0.000    0.000    5.500    0.000    0.000    0.000 
#    0.000    0.000    0.000    0.000    0.000    0.000 
#
# Total GULP energy -357155.343108 kJ/mol
# GULP energy per Si atom -5580.552236 kJ/mol
# Density = 1.949387 g / cm^3
# Si number density = 19.538342 Si / 1000 Ang^3
#
#
#
# Elastic Constant Matrix: (Units=GPa)
#
#
# Indices 1 2 3 4 5 6 
#
# 1 68.7844 31.5342 35.8366 0.0000 0.0000 0.0000
# 2 31.5342 146.9132 31.2282 0.0000 0.0000 0.0000
# 3 35.8366 31.2282 59.9291 0.0000 0.0000 0.0000
# 4 0.0000 0.0000 0.0000 20.4821 0.0000 0.0000
# 5 0.0000 0.0000 0.0000 0.0000 6.7486 0.0000
# 6 0.0000 0.0000 0.0000 0.0000 0.0000 39.0630
#
#
#
# Elastic Compliance Matrix: (Units=1/GPa)
#
#
# Indices 1 2 3 4 5 6 
#
# 1 0.021697 -0.002136 -0.011862 0.000000 0.000000 0.000000
# 2 -0.002136 0.007865 -0.002821 0.000000 0.000000 0.000000
# 3 -0.011862 -0.002821 0.025249 0.000000 0.000000 0.000000
# 4 0.000000 0.000000 0.000000 0.048823 0.000000 0.000000
# 5 0.000000 0.000000 0.000000 0.000000 0.148179 0.000000
# 6 0.000000 0.000000 0.000000 0.000000 0.000000 0.025600
#
#
# Mechanical properties :
#
#
# Convention : Reuss Voigt Hill
#
# Bulk Modulus (GPa) = 47.22670 52.53608 49.88139
# Shear Modulus (GPa) = 15.71789 25.06058 20.38923
#
# Velocity S-wave (km/s) = 2.83938 3.58528 3.23391
# Velocity P-wave (km/s) = 5.91382 6.63973 6.28726
#
# Compressibility (1/GPa) = 0.02117446
#
# Stress axis : x y z
#
# Youngs Moduli (GPa) = 46.08866 127.14811 39.60480
#
# Poissons Ratio (x) = 0.27157 0.46978
# Poissons Ratio (y) = 0.09844 0.11173
# Poissons Ratio (z) = 0.54669 0.35869
#
# Static dielectric constant tensor:
#      x y z
#    x 1.805130 0.000000 0.000000 
#    y 0.000000 1.749790 0.000000 
#    z 0.000000 0.000000 1.663080 
# 
# From -- ./inp_files/29242.got.cif
#   From: 2010.05.17/outbox.cif.g08.bks.cpg/sg52_15_cif.got.tgz:29242.got - 2010.06.03 12:15:38.
