data_PCOD9409089
_publ_section_title
;
Structure prediction by ZEFSAII (Michael W. Deem and Ramdas Pophale) SiO2 
 PCOD9409089
Probable space group: P N N A
;
_chemical_formula_sum "Si O2"
_cell_formula_units_Z 48
_cell_length_a 8.782236
_cell_length_b 11.653256
_cell_length_c 24.075226
_cell_angle_alpha 90.000000
_cell_angle_beta 90.000000
_cell_angle_gamma 90.000000
_cell_volume 2463.898217
_symmetry_space_group_name_H-M "P N N A"
_symmetry_group_IT_number 52
_symmetry_cell_setting 'orthorhombic'
loop_
_space_group_symop_operation_xyz
x,y,z
1/2-x,-y,z
x,1/2-y,1/2-z
1/2-x,1/2+y,1/2-z
-x,-y,-z
1/2+x,y,-z
-x,1/2+y,1/2+z
1/2+x,1/2-y,1/2+z
loop_
_atom_site_type_symbol
_atom_site_label
_atom_site_fract_x
_atom_site_fract_y
_atom_site_fract_z
Si Si1 0.069845 0.972915 0.439983
Si Si2 0.421503 0.599525 0.790283
Si Si3 0.395863 0.116949 0.653046
Si Si4 0.599587 0.749440 0.866596
Si Si5 0.088889 0.185111 0.189496
Si Si6 0.411574 0.547052 0.668626
O O1 0.069555 0.842275 0.415836
O O2 0.250000 0.000000 0.438237
O O3 0.000000 0.000000 0.500000
O O4 0.967933 0.055384 0.400310
O O5 0.461231 0.466303 0.798932
O O6 0.283336 0.618159 0.833806
O O7 0.555749 0.677383 0.811226
O O8 0.373708 0.612272 0.727077
O O9 0.453419 0.243337 0.661303
O O10 0.767016 0.793634 0.850960
O O11 0.490614 0.859370 0.870189
O O12 0.111897 0.250000 0.250000
O O13 0.032071 0.053419 0.184471
O O14 0.250000 0.500000 0.648004
#
# Coordination Sequence:
#
# PCOD9409089 Si02
#       6
#     8   8   8   8   8   8
#     4  11  25  46  73  97 122 159 219 290 354 388
#     4  10  19  36  56  88 133 173 221 254 310 380
#     4  10  20  38  60  91 128 170 213 272 308 388
#     4  11  25  38  59  94 132 169 221 280 326 391
#     4  12  21  36  58  90 138 184 213 252 320 390
#     4  12  22  37  57  91 135 187 220 250 310 393
#
# _framework density 19.481324000000001
#
# number of rings (size 3 to 8) (size 9 to 14) (size 15 to 20)
#    0.000    1.000    5.000    3.000    4.667    0.000 
#    0.000    0.000    0.000    1.000    0.000    0.000 
#    0.000    0.000    0.000    0.000    0.000    0.000 
#
# Total GULP energy -267325.975275 kJ/mol
# GULP energy per Si atom -5569.291152 kJ/mol
# Density = 1.943698 g / cm^3
# Si number density = 19.481324 Si / 1000 Ang^3
#
#
#
# Elastic Constant Matrix: (Units=GPa)
#
#
# Indices 1 2 3 4 5 6 
#
# 1 97.9717 45.2601 34.9332 0.0000 0.0000 0.0000
# 2 45.2601 96.0453 36.5516 0.0000 0.0000 0.0000
# 3 34.9332 36.5516 98.2101 0.0000 0.0000 0.0000
# 4 0.0000 0.0000 0.0000 14.8051 0.0000 0.0000
# 5 0.0000 0.0000 0.0000 0.0000 21.1629 0.0000
# 6 0.0000 0.0000 0.0000 0.0000 0.0000 41.7685
#
#
#
# Elastic Compliance Matrix: (Units=1/GPa)
#
#
# Indices 1 2 3 4 5 6 
#
# 1 0.013713 -0.005366 -0.002881 0.000000 0.000000 0.000000
# 2 -0.005366 0.014229 -0.003387 0.000000 0.000000 0.000000
# 3 -0.002881 -0.003387 0.012468 0.000000 0.000000 0.000000
# 4 0.000000 0.000000 0.000000 0.067544 0.000000 0.000000
# 5 0.000000 0.000000 0.000000 0.000000 0.047253 0.000000
# 6 0.000000 0.000000 0.000000 0.000000 0.000000 0.023941
#
#
# Mechanical properties :
#
#
# Convention : Reuss Voigt Hill
#
# Bulk Modulus (GPa) = 58.33449 58.41302 58.37375
# Shear Modulus (GPa) = 24.02347 27.24612 25.63480
#
# Velocity S-wave (km/s) = 3.51544 3.74381 3.63142
# Velocity P-wave (km/s) = 6.81810 6.98122 6.90014
#
# Compressibility (1/GPa) = 0.01714252
#
# Stress axis : x y z
#
# Youngs Moduli (GPa) = 72.92338 70.27710 80.20813
#
# Poissons Ratio (x) = 0.37709 0.23105
# Poissons Ratio (y) = 0.39129 0.27168
# Poissons Ratio (z) = 0.21007 0.23805
#
# Static dielectric constant tensor:
#      x y z
#    x 1.754660 0.000000 0.000000 
#    y 0.000000 1.755550 0.000000 
#    z 0.000000 0.000000 1.697730 
# 
# From -- ./inp_files/42215.got.cif
#   From: 2010.05.17/outbox.cif.g08.bks.cpg/sg52_22_cif.got.tgz:42215.got - 2010.06.03 12:15:38.
