data_PCOD9409772
_publ_section_title
;
Structure prediction by ZEFSAII (Michael W. Deem and Ramdas Pophale) SiO2 
 PCOD9409772
Probable space group: P N N A
;
_chemical_formula_sum "Si O2"
_cell_formula_units_Z 60
_cell_length_a 17.425064
_cell_length_b 24.557549
_cell_length_c 6.738961
_cell_angle_alpha 90.000000
_cell_angle_beta 90.000000
_cell_angle_gamma 90.000000
_cell_volume 2883.715051
_symmetry_space_group_name_H-M "P N N A"
_symmetry_group_IT_number 52
_symmetry_cell_setting 'orthorhombic'
loop_
_space_group_symop_operation_xyz
x,y,z
1/2-x,-y,z
x,1/2-y,1/2-z
1/2-x,1/2+y,1/2-z
-x,-y,-z
1/2+x,y,-z
-x,1/2+y,1/2+z
1/2+x,1/2-y,1/2+z
loop_
_atom_site_type_symbol
_atom_site_label
_atom_site_fract_x
_atom_site_fract_y
_atom_site_fract_z
Si Si1 0.474409 0.202034 0.121629
Si Si2 0.408279 0.613113 0.487133
Si Si3 0.505364 0.412386 0.880964
Si Si4 0.750000 0.000000 0.151414
Si Si5 0.314859 0.194016 0.344774
Si Si6 0.884634 0.324100 0.246812
Si Si7 0.735713 0.615741 0.532498
Si Si8 0.916555 0.520697 0.230611
O O1 0.513122 0.250000 0.250000
O O2 0.531604 0.152640 0.091203
O O3 0.400469 0.190052 0.255000
O O4 0.437415 0.210773 0.901537
O O5 0.426960 0.610932 0.255749
O O6 0.322007 0.630663 0.531831
O O7 0.421741 0.551787 0.561689
O O8 0.441829 0.364651 0.872722
O O9 0.460767 0.464083 0.786424
O O10 0.544346 0.437377 0.076157
O O11 0.731774 0.948632 0.009200
O O12 0.824967 0.988970 0.286787
O O13 0.281645 0.250000 0.250000
O O14 0.327254 0.199303 0.579480
O O15 0.274639 0.140678 0.253244
O O16 0.829422 0.357678 0.395226
#
# Coordination Sequence:
#
# PCOD9409772 Si02
#       8
#     8   8   8   4   8   8   8   8
#     4   9  20  38  63  91 118 156 208 255 311 370
#     4  10  21  38  58  87 128 156 199 255 305 370
#     4  10  20  37  61  89 118 163 205 244 305 373
#     4  10  20  40  58  94 132 162 206 266 310 376
#     4  10  22  41  65  90 118 161 213 256 309 374
#     4  10  20  40  65  88 124 159 207 260 305 373
#     4  10  22  39  60  91 127 165 206 252 319 370
#     4  10  20  36  59  89 123 163 201 250 306 368
#
# _framework density 20.806495000000002
#
# number of rings (size 3 to 8) (size 9 to 14) (size 15 to 20)
#    0.000    2.133    1.333    1.200    0.000    6.933 
#   12.000    1.333    5.867    0.000    0.000    0.000 
#    0.000    0.000    0.000    0.000    0.000    0.000 
#
# Total GULP energy -334112.271661 kJ/mol
# GULP energy per Si atom -5568.537861 kJ/mol
# Density = 2.075914 g / cm^3
# Si number density = 20.806495 Si / 1000 Ang^3
#
#
#
# Elastic Constant Matrix: (Units=GPa)
#
#
# Indices 1 2 3 4 5 6 
#
# 1 69.8373 15.4565 17.2911 0.0000 0.0000 0.0000
# 2 15.4565 66.9307 39.7433 0.0000 0.0000 0.0000
# 3 17.2911 39.7433 79.8497 0.0000 0.0000 0.0000
# 4 0.0000 0.0000 0.0000 29.6937 0.0000 0.0000
# 5 0.0000 0.0000 0.0000 0.0000 10.1729 0.0000
# 6 0.0000 0.0000 0.0000 0.0000 0.0000 25.0131
#
#
#
# Elastic Compliance Matrix: (Units=1/GPa)
#
#
# Indices 1 2 3 4 5 6 
#
# 1 0.015362 -0.002232 -0.002216 0.000000 0.000000 0.000000
# 2 -0.002232 0.021533 -0.010234 0.000000 0.000000 0.000000
# 3 -0.002216 -0.010234 0.018097 0.000000 0.000000 0.000000
# 4 0.000000 0.000000 0.000000 0.033677 0.000000 0.000000
# 5 0.000000 0.000000 0.000000 0.000000 0.098301 0.000000
# 6 0.000000 0.000000 0.000000 0.000000 0.000000 0.039979
#
#
# Mechanical properties :
#
#
# Convention : Reuss Voigt Hill
#
# Bulk Modulus (GPa) = 39.01925 40.17771 39.59848
# Shear Modulus (GPa) = 18.87819 22.58437 20.73128
#
# Velocity S-wave (km/s) = 3.01545 3.29819 3.15998
# Velocity P-wave (km/s) = 5.56040 5.81860 5.69096
#
# Compressibility (1/GPa) = 0.02562838
#
# Stress axis : x y z
#
# Youngs Moduli (GPa) = 65.09773 46.43941 55.25699
#
# Poissons Ratio (x) = 0.10365 0.12243
# Poissons Ratio (y) = 0.14529 0.56552
# Poissons Ratio (z) = 0.14423 0.47528
#
# Static dielectric constant tensor:
#      x y z
#    x 1.735160 0.000000 0.000000 
#    y 0.000000 1.833890 0.000000 
#    z 0.000000 0.000000 1.771980 
# 
# From -- ./inp_files/3619.got.cif
#   From: 2010.05.17/outbox.cif.g08.bks.cpg/sg52_2_cif.got.tgz:3619.got - 2010.06.03 12:15:38.
