data_PCOD9409999
_publ_section_title
;
Structure prediction by ZEFSAII (Michael W. Deem and Ramdas Pophale) SiO2 
 PCOD9409999
Probable space group: P N N A
;
_chemical_formula_sum "Si O2"
_cell_formula_units_Z 56
_cell_length_a 20.581270
_cell_length_b 9.578090
_cell_length_c 14.223852
_cell_angle_alpha 90.000000
_cell_angle_beta 90.000000
_cell_angle_gamma 90.000000
_cell_volume 2803.937368
_symmetry_space_group_name_H-M "P N N A"
_symmetry_group_IT_number 52
_symmetry_cell_setting 'orthorhombic'
loop_
_space_group_symop_operation_xyz
x,y,z
1/2-x,-y,z
x,1/2-y,1/2-z
1/2-x,1/2+y,1/2-z
-x,-y,-z
1/2+x,y,-z
-x,1/2+y,1/2+z
1/2+x,1/2-y,1/2+z
loop_
_atom_site_type_symbol
_atom_site_label
_atom_site_fract_x
_atom_site_fract_y
_atom_site_fract_z
Si Si1 0.859089 0.813930 0.564924
Si Si2 0.556751 0.850472 0.340150
Si Si3 0.976294 0.635038 0.556977
Si Si4 0.428663 0.548516 0.233740
Si Si5 0.807498 0.103066 0.783776
Si Si6 0.682304 0.565719 0.067352
Si Si7 0.231090 0.646493 0.485157
O O1 0.917004 0.726542 0.514787
O O2 0.886115 0.845793 0.668993
O O3 0.795863 0.717663 0.558084
O O4 0.840859 0.962003 0.516687
O O5 0.562816 0.750000 0.250000
O O6 0.534067 0.745713 0.423194
O O7 0.496757 0.955449 0.321351
O O8 0.622991 0.928056 0.361093
O O9 0.949529 0.587624 0.660084
O O10 0.000000 0.500000 0.500000
O O11 0.378200 0.423551 0.241561
O O12 0.783764 0.250000 0.750000
O O13 0.811906 0.099921 0.896330
O O14 0.750000 0.000000 0.754177
O O15 0.750000 0.500000 0.102405
O O16 0.697096 0.726043 0.038657
O O17 0.250000 0.500000 0.535341
#
# Coordination Sequence:
#
# PCOD9409999 Si02
#       7
#     8   8   8   8   8   8   8
#     4  10  20  38  58  85 126 163 204 249 314 374
#     4   9  21  41  65  83 117 166 205 255 318 375
#     4  10  21  35  60  89 121 166 206 258 304 368
#     4  10  21  38  56  89 124 167 206 248 312 373
#     4  11  21  33  55  86 126 165 200 240 294 365
#     4  10  22  41  65  90 123 158 214 257 325 377
#     4  10  21  33  57  91 119 159 199 256 304 372
#
# _framework density 19.971914999999999
#
# number of rings (size 3 to 8) (size 9 to 14) (size 15 to 20)
#    0.000    2.000    0.000    4.714    4.000    5.143 
#    2.571    0.714    3.143    0.000    0.000    0.000 
#    0.000    0.000    0.000    0.000    0.000    0.000 
#
# Total GULP energy -312001.225043 kJ/mol
# GULP energy per Si atom -5571.450447 kJ/mol
# Density = 1.992646 g / cm^3
# Si number density = 19.971915 Si / 1000 Ang^3
#
#
#
# Elastic Constant Matrix: (Units=GPa)
#
#
# Indices 1 2 3 4 5 6 
#
# 1 147.3123 45.2816 32.6599 0.0000 0.0000 0.0000
# 2 45.2816 126.8496 15.7779 0.0000 0.0000 0.0000
# 3 32.6599 15.7779 24.0436 0.0000 0.0000 0.0000
# 4 0.0000 0.0000 0.0000 20.5359 0.0000 0.0000
# 5 0.0000 0.0000 0.0000 0.0000 1.3215 0.0000
# 6 0.0000 0.0000 0.0000 0.0000 0.0000 29.2620
#
#
#
# Elastic Compliance Matrix: (Units=1/GPa)
#
#
# Indices 1 2 3 4 5 6 
#
# 1 0.010197 -0.002088 -0.012482 0.000000 0.000000 0.000000
# 2 -0.002088 0.009011 -0.003078 0.000000 0.000000 0.000000
# 3 -0.012482 -0.003078 0.060565 0.000000 0.000000 0.000000
# 4 0.000000 0.000000 0.000000 0.048695 0.000000 0.000000
# 5 0.000000 0.000000 0.000000 0.000000 0.756727 0.000000
# 6 0.000000 0.000000 0.000000 0.000000 0.000000 0.034174
#
#
# Mechanical properties :
#
#
# Convention : Reuss Voigt Hill
#
# Bulk Modulus (GPa) = 22.48203 53.96047 38.22125
# Shear Modulus (GPa) = 5.15735 23.85629 14.50682
#
# Velocity S-wave (km/s) = 1.60870 3.45989 2.69803
# Velocity P-wave (km/s) = 3.83820 6.56033 5.37447
#
# Compressibility (1/GPa) = 0.04447997
#
# Stress axis : x y z
#
# Youngs Moduli (GPa) = 98.06587 110.97076 16.51115
#
# Poissons Ratio (x) = 0.23166 0.20608
# Poissons Ratio (y) = 0.20472 0.05082
# Poissons Ratio (z) = 1.22401 0.34154
#
# Static dielectric constant tensor:
#      x y z
#    x 1.729700 0.000000 0.000000 
#    y 0.000000 1.763810 0.000000 
#    z 0.000000 0.000000 1.730230 
# 
# From -- ./inp_files/28751.got.cif
#   From: 2010.05.17/outbox.cif.g08.bks.cpg/sg52_15_cif.got.tgz:28751.got - 2010.06.03 12:15:38.
