data_PCOD9409691
_publ_section_title
;
Structure prediction by ZEFSAII (Michael W. Deem and Ramdas Pophale) SiO2 
 PCOD9409691
Probable space group: P N N A
;
_chemical_formula_sum "Si O2"
_cell_formula_units_Z 24
_cell_length_a 15.776968
_cell_length_b 7.035670
_cell_length_c 8.445662
_cell_angle_alpha 90.000000
_cell_angle_beta 90.000000
_cell_angle_gamma 90.000000
_cell_volume 937.481492
_symmetry_space_group_name_H-M "P N N A"
_symmetry_group_IT_number 52
_symmetry_cell_setting 'orthorhombic'
loop_
_space_group_symop_operation_xyz
x,y,z
1/2-x,-y,z
x,1/2-y,1/2-z
1/2-x,1/2+y,1/2-z
-x,-y,-z
1/2+x,y,-z
-x,1/2+y,1/2+z
1/2+x,1/2-y,1/2+z
loop_
_atom_site_type_symbol
_atom_site_label
_atom_site_fract_x
_atom_site_fract_y
_atom_site_fract_z
Si Si1 0.152004 0.027062 0.267132
Si Si2 0.851726 0.531006 0.100161
Si Si3 0.594848 0.472523 0.439113
O O1 0.129641 0.250000 0.250000
O O2 0.111133 0.955552 0.431606
O O3 0.250000 0.000000 0.303624
O O4 0.143776 0.944387 0.091134
O O5 0.750000 0.500000 0.119902
O O6 0.893266 0.454274 0.260913
O O7 0.872065 0.755828 0.082743
O O8 0.500000 0.500000 0.500000
#
# Coordination Sequence:
#
# PCOD9409691 Si02
#       3
#     8   8   8
#     4   9  18  35  59  84 117 161 214 255 312 390
#     4   9  19  38  64  86 124 177 221 256 323 409
#     4  10  20  35  61  93 129 159 213 281 330 371
#
# _framework density 25.600504999999998
#
# number of rings (size 3 to 8) (size 9 to 14) (size 15 to 20)
#    0.000    2.667    0.000    1.000    0.000    1.333 
#    6.000    0.000   58.667    0.000    0.000    0.000 
#    0.000    0.000    0.000    0.000    0.000    0.000 
#
# Total GULP energy -133670.711597 kJ/mol
# GULP energy per Si atom -5569.612983 kJ/mol
# Density = 2.554224 g / cm^3
# Si number density = 25.600505 Si / 1000 Ang^3
#
#
#
# Elastic Constant Matrix: (Units=GPa)
#
#
# Indices 1 2 3 4 5 6 
#
# 1 101.1960 7.2755 38.8575 0.0000 0.0000 0.0000
# 2 7.2755 169.1119 15.5534 0.0000 0.0000 0.0000
# 3 38.8575 15.5534 381.2023 0.0000 0.0000 0.0000
# 4 0.0000 0.0000 0.0000 -48.7127 0.0000 0.0000
# 5 0.0000 0.0000 0.0000 0.0000 24.5758 0.0000
# 6 0.0000 0.0000 0.0000 0.0000 0.0000 17.8817
#
#
#
# Elastic Compliance Matrix: (Units=1/GPa)
#
#
# Indices 1 2 3 4 5 6 
#
# 1 0.010305 -0.000348 -0.001036 0.000000 0.000000 0.000000
# 2 -0.000348 0.005947 -0.000207 0.000000 0.000000 0.000000
# 3 -0.001036 -0.000207 0.002737 0.000000 0.000000 0.000000
# 4 0.000000 0.000000 0.000000 -0.020529 0.000000 0.000000
# 5 0.000000 0.000000 0.000000 0.000000 0.040690 0.000000
# 6 0.000000 0.000000 0.000000 0.000000 0.000000 0.055923
#
#
# Mechanical properties :
#
#
# Convention : Reuss Voigt Hill
#
# Bulk Modulus (GPa) = 63.26501 86.09812 74.68157
# Shear Modulus (GPa) = 48.29705 38.07054 43.18380
#
# Velocity S-wave (km/s) = 4.34817 3.86048 4.11156
# Velocity P-wave (km/s) = 7.06929 7.31953 7.19550
#
# Compressibility (1/GPa) = 0.01580652
#
# Stress axis : x y z
#
# Youngs Moduli (GPa) = 97.04296 168.14430 365.31591
#
# Poissons Ratio (x) = 0.05852 0.37854
# Poissons Ratio (y) = 0.03377 0.07569
# Poissons Ratio (z) = 0.10056 0.03484
#
# Static dielectric constant tensor:
#      x y z
#    x 2.133740 0.000000 0.000000 
#    y 0.000000 4.358430 0.000000 
#    z 0.000000 0.000000 2.298250 
# 
# From -- ./inp_files/7973.got.cif
#   From: 2010.05.17/outbox.cif.g08.bks.cpg/sg52_4_cif.got.tgz:7973.got - 2010.06.03 12:15:38.
