data_PCOD9409070
_publ_section_title
;
Structure prediction by ZEFSAII (Michael W. Deem and Ramdas Pophale) SiO2 
 PCOD9409070
Probable space group: P N N A
;
_chemical_formula_sum "Si O2"
_cell_formula_units_Z 52
_cell_length_a 14.879388
_cell_length_b 18.612057
_cell_length_c 8.707923
_cell_angle_alpha 90.000000
_cell_angle_beta 90.000000
_cell_angle_gamma 90.000000
_cell_volume 2411.537517
_symmetry_space_group_name_H-M "P N N A"
_symmetry_group_IT_number 52
_symmetry_cell_setting 'orthorhombic'
loop_
_space_group_symop_operation_xyz
x,y,z
1/2-x,-y,z
x,1/2-y,1/2-z
1/2-x,1/2+y,1/2-z
-x,-y,-z
1/2+x,y,-z
-x,1/2+y,1/2+z
1/2+x,1/2-y,1/2+z
loop_
_atom_site_type_symbol
_atom_site_label
_atom_site_fract_x
_atom_site_fract_y
_atom_site_fract_z
Si Si1 0.071260 0.103502 0.934576
Si Si2 0.685753 0.391154 0.932960
Si Si3 0.024470 0.144885 0.597254
Si Si4 0.871980 0.447323 0.930036
Si Si5 0.381748 0.445696 0.446120
Si Si6 0.268780 0.848359 0.090778
Si Si7 0.378640 0.250000 0.250000
O O1 0.064317 0.111562 0.753047
O O2 0.967557 0.103440 0.989759
O O3 0.140873 0.162845 0.994739
O O4 0.103972 0.024728 0.987807
O O5 0.789890 0.395837 0.981807
O O6 0.650114 0.471153 0.969331
O O7 0.693146 0.378144 0.751813
O O8 0.612922 0.336622 0.000833
O O9 0.964518 0.085081 0.510655
O O10 0.948682 0.201799 0.651628
O O11 0.877089 0.447073 0.741649
O O12 0.289423 0.409311 0.494794
O O13 0.192253 0.791006 0.138474
#
# Coordination Sequence:
#
# PCOD9409070 Si02
#       7
#     8   8   8   8   8   8   4
#     4  10  19  35  63  91 115 152 193 250 311 350
#     4  10  19  36  65  87 116 157 198 238 305 364
#     4  11  23  39  58  92 122 158 193 253 303 347
#     4   9  17  37  60  90 119 150 190 242 305 366
#     4   9  17  35  62  89 122 145 190 247 305 362
#     4  11  21  39  62  85 113 169 201 235 292 373
#     4  12  24  42  62  76 126 170 210 238 290 364
#
# _framework density 21.563006000000001
#
# number of rings (size 3 to 8) (size 9 to 14) (size 15 to 20)
#    0.000    1.846    6.154    0.923    0.000    1.231 
#    5.538    0.000    0.000    1.846    0.000    0.000 
#    0.000    0.000    0.000    0.000    0.000    0.000 
#
# Total GULP energy -289609.978608 kJ/mol
# GULP energy per Si atom -5569.422666 kJ/mol
# Density = 2.151393 g / cm^3
# Si number density = 21.563006 Si / 1000 Ang^3
#
#
#
# Elastic Constant Matrix: (Units=GPa)
#
#
# Indices 1 2 3 4 5 6 
#
# 1 195.6020 47.7933 50.0977 0.0000 0.0000 0.0000
# 2 47.7933 65.5414 13.0571 0.0000 0.0000 0.0000
# 3 50.0977 13.0571 22.9087 0.0000 0.0000 0.0000
# 4 0.0000 0.0000 0.0000 10.1477 0.0000 0.0000
# 5 0.0000 0.0000 0.0000 0.0000 41.1467 0.0000
# 6 0.0000 0.0000 0.0000 0.0000 0.0000 14.0711
#
#
#
# Elastic Compliance Matrix: (Units=1/GPa)
#
#
# Indices 1 2 3 4 5 6 
#
# 1 0.012551 -0.004156 -0.025078 0.000000 0.000000 0.000000
# 2 -0.004156 0.018588 -0.001506 0.000000 0.000000 0.000000
# 3 -0.025078 -0.001506 0.099351 0.000000 0.000000 0.000000
# 4 0.000000 0.000000 0.000000 0.098545 0.000000 0.000000
# 5 0.000000 0.000000 0.000000 0.000000 0.024303 0.000000
# 6 0.000000 0.000000 0.000000 0.000000 0.000000 0.071068
#
#
# Mechanical properties :
#
#
# Convention : Reuss Voigt Hill
#
# Bulk Modulus (GPa) = 14.49049 56.21648 35.35348
# Shear Modulus (GPa) = 12.22825 24.61336 18.42081
#
# Velocity S-wave (km/s) = 2.38396 3.38222 2.92597
# Velocity P-wave (km/s) = 3.78316 6.43272 5.27694
#
# Compressibility (1/GPa) = 0.06901078
#
# Stress axis : x y z
#
# Youngs Moduli (GPa) = 79.67530 53.79748 10.06531
#
# Poissons Ratio (x) = 0.22360 0.25242
# Poissons Ratio (y) = 0.33115 0.01515
# Poissons Ratio (z) = 1.99810 0.08099
#
# Static dielectric constant tensor:
#      x y z
#    x 1.831320 0.000000 0.000000 
#    y 0.000000 1.898110 0.000000 
#    z 0.000000 0.000000 1.772330 
# 
# From -- ./inp_files/10721.got.cif
#   From: 2010.05.17/outbox.cif.g08.bks.cpg/sg52_6_cif.got.tgz:10721.got - 2010.06.03 12:15:38.
