data_PCOD9409723
_publ_section_title
;
Structure prediction by ZEFSAII (Michael W. Deem and Ramdas Pophale) SiO2 
 PCOD9409723
Probable space group: P N N A
;
_chemical_formula_sum "Si O2"
_cell_formula_units_Z 32
_cell_length_a 26.609060
_cell_length_b 5.322136
_cell_length_c 11.498556
_cell_angle_alpha 90.000000
_cell_angle_beta 90.000000
_cell_angle_gamma 90.000000
_cell_volume 1628.391421
_symmetry_space_group_name_H-M "P N N A"
_symmetry_group_IT_number 52
_symmetry_cell_setting 'orthorhombic'
loop_
_space_group_symop_operation_xyz
x,y,z
1/2-x,-y,z
x,1/2-y,1/2-z
1/2-x,1/2+y,1/2-z
-x,-y,-z
1/2+x,y,-z
-x,1/2+y,1/2+z
1/2+x,1/2-y,1/2+z
loop_
_atom_site_type_symbol
_atom_site_label
_atom_site_fract_x
_atom_site_fract_y
_atom_site_fract_z
Si Si1 0.042957 0.300160 0.541059
Si Si2 0.190661 0.001908 0.625858
Si Si3 0.036248 0.991806 0.321129
Si Si4 0.852236 0.500313 0.388140
O O1 0.060166 0.106919 0.439316
O O2 0.089360 0.456969 0.589885
O O3 0.000000 0.500000 0.500000
O O4 0.016591 0.122107 0.635320
O O5 0.170395 0.755488 0.563230
O O6 0.250000 0.000000 0.648200
O O7 0.175925 0.256584 0.562811
O O8 0.162349 0.000640 0.750993
O O9 0.030133 0.250000 0.250000
O O10 0.058928 0.750000 0.250000
#
# Coordination Sequence:
#
# PCOD9409723 Si02
#       4
#     8   8   8   8
#     4  11  25  38  58  89 120 159 228 252 291 387
#     4  10  20  36  56  84 120 160 197 242 309 380
#     4  11  24  39  58  75 119 167 207 261 311 334
#     4  10  21  31  54  78 114 157 194 235 301 351
#
# _framework density 19.651292999999999
#
# number of rings (size 3 to 8) (size 9 to 14) (size 15 to 20)
#    0.000    1.500    2.500    3.750   10.500    2.000 
#    0.000    0.000    0.000    0.000    0.000    0.000 
#    0.000    8.000    3.000    0.000    0.000    0.000 
#
# Total GULP energy -178245.459906 kJ/mol
# GULP energy per Si atom -5570.170622 kJ/mol
# Density = 1.960657 g / cm^3
# Si number density = 19.651293 Si / 1000 Ang^3
#
#
#
# Elastic Constant Matrix: (Units=GPa)
#
#
# Indices 1 2 3 4 5 6 
#
# 1 140.2553 41.5434 8.1305 0.0000 0.0000 0.0000
# 2 41.5434 196.0362 10.0692 0.0000 0.0000 0.0000
# 3 8.1305 10.0692 29.7524 0.0000 0.0000 0.0000
# 4 0.0000 0.0000 0.0000 27.2433 0.0000 0.0000
# 5 0.0000 0.0000 0.0000 0.0000 12.6800 0.0000
# 6 0.0000 0.0000 0.0000 0.0000 0.0000 30.9755
#
#
#
# Elastic Compliance Matrix: (Units=1/GPa)
#
#
# Indices 1 2 3 4 5 6 
#
# 1 0.007679 -0.001546 -0.001575 0.000000 0.000000 0.000000
# 2 -0.001546 0.005503 -0.001440 0.000000 0.000000 0.000000
# 3 -0.001575 -0.001440 0.034528 0.000000 0.000000 0.000000
# 4 0.000000 0.000000 0.000000 0.036706 0.000000 0.000000
# 5 0.000000 0.000000 0.000000 0.000000 0.078864 0.000000
# 6 0.000000 0.000000 0.000000 0.000000 0.000000 0.032284
#
#
# Mechanical properties :
#
#
# Convention : Reuss Voigt Hill
#
# Bulk Modulus (GPa) = 25.91494 53.94778 39.93136
# Shear Modulus (GPa) = 22.98327 34.59983 28.79155
#
# Velocity S-wave (km/s) = 3.42359 4.20061 3.83184
# Velocity P-wave (km/s) = 5.37066 7.14416 6.31992
#
# Compressibility (1/GPa) = 0.03858778
#
# Stress axis : x y z
#
# Youngs Moduli (GPa) = 130.22153 181.72672 28.96167
#
# Poissons Ratio (x) = 0.28103 0.04562
# Poissons Ratio (y) = 0.20138 0.04170
# Poissons Ratio (z) = 0.20512 0.26163
#
# Static dielectric constant tensor:
#      x y z
#    x 1.681280 0.000000 0.000000 
#    y 0.000000 2.947370 0.000000 
#    z 0.000000 0.000000 1.745660 
# 
# From -- ./inp_files/21948.got.cif
#   From: 2010.05.17/outbox.cif.g08.bks.cpg/sg52_11_cif.got.tgz:21948.got - 2010.06.03 12:15:38.
