data_PCOD9409672
_publ_section_title
;
Structure prediction by ZEFSAII (Michael W. Deem and Ramdas Pophale) SiO2 
 PCOD9409672
Probable space group: P N N A
;
_chemical_formula_sum "Si O2"
_cell_formula_units_Z 48
_cell_length_a 27.089324
_cell_length_b 14.215982
_cell_length_c 6.041900
_cell_angle_alpha 90.000000
_cell_angle_beta 90.000000
_cell_angle_gamma 90.000000
_cell_volume 2326.743801
_symmetry_space_group_name_H-M "P N N A"
_symmetry_group_IT_number 52
_symmetry_cell_setting 'orthorhombic'
loop_
_space_group_symop_operation_xyz
x,y,z
1/2-x,-y,z
x,1/2-y,1/2-z
1/2-x,1/2+y,1/2-z
-x,-y,-z
1/2+x,y,-z
-x,1/2+y,1/2+z
1/2+x,1/2-y,1/2+z
loop_
_atom_site_type_symbol
_atom_site_label
_atom_site_fract_x
_atom_site_fract_y
_atom_site_fract_z
Si Si1 0.709426 0.074765 0.004144
Si Si2 0.527866 0.402501 0.442019
Si Si3 0.639719 0.162526 0.379770
Si Si4 0.947454 0.150337 0.636253
Si Si5 0.289431 0.750000 0.250000
Si Si6 0.387617 0.532228 0.260786
Si Si7 0.478989 0.250000 0.750000
O O1 0.735287 0.161749 0.872385
O O2 0.669274 0.031498 0.833645
O O3 0.750000 0.000000 0.072440
O O4 0.676877 0.110353 0.211382
O O5 0.500000 0.500000 0.500000
O O6 0.503624 0.379032 0.204225
O O7 0.582782 0.422757 0.529841
O O8 0.510854 0.312487 0.584385
O O9 0.613998 0.250000 0.250000
O O10 0.674876 0.211142 0.560045
O O11 0.607609 0.093343 0.534221
O O12 0.935594 0.250000 0.750000
O O13 0.946701 0.173354 0.378796
O O14 0.911213 0.068787 0.712784
#
# Coordination Sequence:
#
# PCOD9409672 Si02
#       7
#     8   8   8   8   4   8   4
#     4  10  21  38  61  88 122 159 204 252 303 358
#     4   9  20  36  55  82 111 149 193 236 290 347
#     4   9  19  35  58  89 119 153 194 255 302 361
#     4   9  20  39  59  82 121 156 199 244 291 360
#     4   8  18  39  60  80 116 158 188 250 304 359
#     4  10  21  37  61  86 117 159 199 245 303 358
#     4  10  20  35  58  86 120 156 188 248 298 347
#
# _framework density 20.629688000000002
#
# number of rings (size 3 to 8) (size 9 to 14) (size 15 to 20)
#    0.000    2.667    0.000    0.000    0.000   14.667 
#    1.500    8.333    0.000    0.000    0.000    0.000 
#    0.000    0.000    0.000    0.000    0.000    0.000 
#
# Total GULP energy -267358.522732 kJ/mol
# GULP energy per Si atom -5569.969224 kJ/mol
# Density = 2.058273 g / cm^3
# Si number density = 20.629688 Si / 1000 Ang^3
#
#
#
# Elastic Constant Matrix: (Units=GPa)
#
#
# Indices 1 2 3 4 5 6 
#
# 1 65.8306 47.0592 27.8497 0.0000 0.0000 0.0000
# 2 47.0592 128.6278 37.4972 0.0000 0.0000 0.0000
# 3 27.8497 37.4972 83.4171 0.0000 0.0000 0.0000
# 4 0.0000 0.0000 0.0000 39.1711 0.0000 0.0000
# 5 0.0000 0.0000 0.0000 0.0000 17.0884 0.0000
# 6 0.0000 0.0000 0.0000 0.0000 0.0000 24.8920
#
#
#
# Elastic Compliance Matrix: (Units=1/GPa)
#
#
# Indices 1 2 3 4 5 6 
#
# 1 0.021806 -0.006739 -0.004251 0.000000 0.000000 0.000000
# 2 -0.006739 0.011029 -0.002708 0.000000 0.000000 0.000000
# 3 -0.004251 -0.002708 0.014624 0.000000 0.000000 0.000000
# 4 0.000000 0.000000 0.000000 0.025529 0.000000 0.000000
# 5 0.000000 0.000000 0.000000 0.000000 0.058519 0.000000
# 6 0.000000 0.000000 0.000000 0.000000 0.000000 0.040173
#
#
# Mechanical properties :
#
#
# Convention : Reuss Voigt Hill
#
# Bulk Modulus (GPa) = 49.83972 55.85417 52.84694
# Shear Modulus (GPa) = 24.29957 27.26161 25.78059
#
# Velocity S-wave (km/s) = 3.43577 3.63915 3.53892
# Velocity P-wave (km/s) = 6.32068 6.69263 6.50931
#
# Compressibility (1/GPa) = 0.02006432
#
# Stress axis : x y z
#
# Youngs Moduli (GPa) = 45.85886 90.66887 68.37842
#
# Poissons Ratio (x) = 0.61098 0.29068
# Poissons Ratio (y) = 0.30902 0.18517
# Poissons Ratio (z) = 0.19495 0.24553
#
# Static dielectric constant tensor:
#      x y z
#    x 1.738950 0.000000 0.000000 
#    y 0.000000 1.784190 0.000000 
#    z 0.000000 0.000000 1.822360 
# 
# From -- ./inp_files/6384.got.cif
#   From: 2010.05.17/outbox.cif.g08.bks.cpg/sg52_4_cif.got.tgz:6384.got - 2010.06.03 12:15:38.
