data_PCOD9409579
_publ_section_title
;
Structure prediction by ZEFSAII (Michael W. Deem and Ramdas Pophale) SiO2 
 PCOD9409579
Probable space group: P N N A
;
_chemical_formula_sum "Si O2"
_cell_formula_units_Z 40
_cell_length_a 5.735974
_cell_length_b 7.866169
_cell_length_c 40.803427
_cell_angle_alpha 90.000000
_cell_angle_beta 90.000000
_cell_angle_gamma 90.000000
_cell_volume 1841.056374
_symmetry_space_group_name_H-M "P N N A"
_symmetry_group_IT_number 52
_symmetry_cell_setting 'orthorhombic'
loop_
_space_group_symop_operation_xyz
x,y,z
1/2-x,-y,z
x,1/2-y,1/2-z
1/2-x,1/2+y,1/2-z
-x,-y,-z
1/2+x,y,-z
-x,1/2+y,1/2+z
1/2+x,1/2-y,1/2+z
loop_
_atom_site_type_symbol
_atom_site_label
_atom_site_fract_x
_atom_site_fract_y
_atom_site_fract_z
Si Si1 0.750000 0.500000 0.618500
Si Si2 0.129009 0.313391 0.587754
Si Si3 0.377310 0.681841 0.786507
Si Si4 0.240004 0.291794 0.515565
Si Si5 0.606008 0.743394 0.348855
Si Si6 0.250000 0.000000 0.322718
O O1 0.640014 0.643656 0.595048
O O2 0.555581 0.415114 0.641237
O O3 0.250000 0.500000 0.586606
O O4 0.190846 0.235438 0.552977
O O5 0.226497 0.227104 0.620308
O O6 0.250000 0.500000 0.785468
O O7 0.375822 0.750000 0.750000
O O8 0.243551 0.783912 0.814973
O O9 0.634537 0.643492 0.799969
O O10 0.250000 0.500000 0.514272
O O11 0.501218 0.239692 0.503773
O O12 0.444431 0.907191 0.343776
#
# Coordination Sequence:
#
# PCOD9409579 Si02
#       6
#     4   8   8   8   8   4
#     4  10  20  34  57  84 116 150 196 238 300 346
#     4   9  19  31  50  78 115 151 194 241 291 351
#     4  10  23  41  59  84 116 148 191 239 289 352
#     4   9  18  28  46  75 115 159 196 245 303 361
#     4  10  21  38  57  85 115 151 193 243 285 351
#     4  10  22  40  61  82 114 150 196 228 292 352
#
# _framework density 21.726655000000001
#
# number of rings (size 3 to 8) (size 9 to 14) (size 15 to 20)
#    0.000    2.400    0.000    1.200    9.800    7.200 
#    0.000    2.000    0.000    0.000    0.000    1.400 
#    0.000    0.000    0.000    0.000    0.000    0.000 
#
# Total GULP energy -223196.178987 kJ/mol
# GULP energy per Si atom -5579.904475 kJ/mol
# Density = 2.167720 g / cm^3
# Si number density = 21.726655 Si / 1000 Ang^3
#
#
#
# Elastic Constant Matrix: (Units=GPa)
#
#
# Indices 1 2 3 4 5 6 
#
# 1 129.5486 15.5954 87.8776 0.0000 0.0000 0.0000
# 2 15.5954 28.3052 30.2772 0.0000 0.0000 0.0000
# 3 87.8776 30.2772 199.5076 0.0000 0.0000 0.0000
# 4 0.0000 0.0000 0.0000 8.1204 0.0000 0.0000
# 5 0.0000 0.0000 0.0000 0.0000 16.8005 0.0000
# 6 0.0000 0.0000 0.0000 0.0000 0.0000 27.7746
#
#
#
# Elastic Compliance Matrix: (Units=1/GPa)
#
#
# Indices 1 2 3 4 5 6 
#
# 1 0.011034 -0.001051 -0.004701 0.000000 0.000000 0.000000
# 2 -0.001051 0.042276 -0.005953 0.000000 0.000000 0.000000
# 3 -0.004701 -0.005953 0.007986 0.000000 0.000000 0.000000
# 4 0.000000 0.000000 0.000000 0.123146 0.000000 0.000000
# 5 0.000000 0.000000 0.000000 0.000000 0.059522 0.000000
# 6 0.000000 0.000000 0.000000 0.000000 0.000000 0.036004
#
#
# Mechanical properties :
#
#
# Convention : Reuss Voigt Hill
#
# Bulk Modulus (GPa) = 26.39431 69.42908 47.91169
# Shear Modulus (GPa) = 15.82242 25.44653 20.63448
#
# Velocity S-wave (km/s) = 2.70154 3.42601 3.08511
# Velocity P-wave (km/s) = 4.68036 6.90472 5.89835
#
# Compressibility (1/GPa) = 0.03788695
#
# Stress axis : x y z
#
# Youngs Moduli (GPa) = 90.62562 23.65413 125.21460
#
# Poissons Ratio (x) = 0.02487 0.58861
# Poissons Ratio (y) = 0.09528 0.74536
# Poissons Ratio (z) = 0.42601 0.14081
#
# Static dielectric constant tensor:
#      x y z
#    x 1.883740 0.000000 0.000000 
#    y 0.000000 1.831480 0.000000 
#    z 0.000000 0.000000 1.794840 
# 
# From -- ./inp_files/43685.got.cif
#   From: 2010.05.17/outbox.cif.g08.bks.cpg/sg52_22_cif.got.tgz:43685.got - 2010.06.03 12:15:38.
