data_PCOD9409011
_publ_section_title
;
Structure prediction by ZEFSAII (Michael W. Deem and Ramdas Pophale) SiO2 
 PCOD9409011
Probable space group: P N N A
;
_chemical_formula_sum "Si O2"
_cell_formula_units_Z 56
_cell_length_a 10.388405
_cell_length_b 20.845044
_cell_length_c 13.415857
_cell_angle_alpha 90.000000
_cell_angle_beta 90.000000
_cell_angle_gamma 90.000000
_cell_volume 2905.160357
_symmetry_space_group_name_H-M "P N N A"
_symmetry_group_IT_number 52
_symmetry_cell_setting 'orthorhombic'
loop_
_space_group_symop_operation_xyz
x,y,z
1/2-x,-y,z
x,1/2-y,1/2-z
1/2-x,1/2+y,1/2-z
-x,-y,-z
1/2+x,y,-z
-x,1/2+y,1/2+z
1/2+x,1/2-y,1/2+z
loop_
_atom_site_type_symbol
_atom_site_label
_atom_site_fract_x
_atom_site_fract_y
_atom_site_fract_z
Si Si1 0.125402 0.543008 0.509744
Si Si2 0.712058 0.736027 0.582757
Si Si3 0.482484 0.114738 0.804638
Si Si4 0.286847 0.111162 0.189235
Si Si5 0.498057 0.263664 0.580997
Si Si6 0.992927 0.109383 0.416445
Si Si7 0.706846 0.609404 0.910292
O O1 0.250000 0.500000 0.525598
O O2 0.101065 0.586033 0.606735
O O3 0.145779 0.579663 0.405375
O O4 0.000000 0.500000 0.500000
O O5 0.694863 0.688032 0.675546
O O6 0.606101 0.718949 0.501507
O O7 0.705075 0.812494 0.597355
O O8 0.856743 0.721702 0.545402
O O9 0.633740 0.098201 0.817794
O O10 0.476357 0.191682 0.822803
O O11 0.448070 0.090357 0.694535
O O12 0.328491 0.087423 0.298377
O O13 0.491548 0.187218 0.591876
O O14 0.895412 0.090382 0.504717
O O15 0.143644 0.091085 0.432464
#
# Coordination Sequence:
#
# PCOD9409011 Si02
#       7
#     8   8   8   8   8   8   8
#     4  12  24  40  58  82 104 139 189 232 275 316
#     4   9  16  28  50  79 110 144 178 210 260 329
#     4  10  19  35  57  77 108 146 179 224 273 318
#     4  10  19  35  57  77 108 147 179 223 275 318
#     4   9  16  28  50  79 110 144 176 210 262 329
#     4   9  18  33  53  81 113 144 178 212 262 330
#     4   9  18  33  53  81 113 145 178 212 262 330
#
# _framework density 19.276043999999999
#
# number of rings (size 3 to 8) (size 9 to 14) (size 15 to 20)
#    0.000    2.286    2.857    0.857    0.000    3.429 
#    2.571    0.000    0.000    8.571    0.000    0.000 
#    0.000    0.000    0.000    0.000    0.000    0.000 
#
# Total GULP energy -312054.737936 kJ/mol
# GULP energy per Si atom -5572.406035 kJ/mol
# Density = 1.923217 g / cm^3
# Si number density = 19.276044 Si / 1000 Ang^3
#
#
#
# Elastic Constant Matrix: (Units=GPa)
#
#
# Indices 1 2 3 4 5 6 
#
# 1 85.3274 12.4445 74.0861 0.0000 0.0000 0.0000
# 2 12.4445 20.5521 13.1372 0.0000 0.0000 0.0000
# 3 74.0861 13.1372 169.3656 0.0000 0.0000 0.0000
# 4 0.0000 0.0000 0.0000 14.2630 0.0000 0.0000
# 5 0.0000 0.0000 0.0000 0.0000 31.2688 0.0000
# 6 0.0000 0.0000 0.0000 0.0000 0.0000 -17.4925
#
#
#
# Elastic Compliance Matrix: (Units=1/GPa)
#
#
# Indices 1 2 3 4 5 6 
#
# 1 0.019754 -0.006774 -0.008116 0.000000 0.000000 0.000000
# 2 -0.006774 0.053518 -0.001188 0.000000 0.000000 0.000000
# 3 -0.008116 -0.001188 0.009547 0.000000 0.000000 0.000000
# 4 0.000000 0.000000 0.000000 0.070112 0.000000 0.000000
# 5 0.000000 0.000000 0.000000 0.000000 0.031981 0.000000
# 6 0.000000 0.000000 0.000000 0.000000 0.000000 -0.057167
#
#
# Mechanical properties :
#
#
# Convention : Reuss Voigt Hill
#
# Bulk Modulus (GPa) = 19.73805 52.73119 36.23462
# Shear Modulus (GPa) = 28.28275 17.31301 22.79788
#
# Velocity S-wave (km/s) = 3.83462 3.00019 3.44278
# Velocity P-wave (km/s) = 5.46513 6.27827 5.88576
#
# Compressibility (1/GPa) = 0.05066357
#
# Stress axis : x y z
#
# Youngs Moduli (GPa) = 50.62293 18.68531 104.74951
#
# Poissons Ratio (x) = 0.12657 0.85010
# Poissons Ratio (y) = 0.34290 0.12447
# Poissons Ratio (z) = 0.41084 0.02220
#
# Static dielectric constant tensor:
#      x y z
#    x 1.634190 0.000000 0.000000 
#    y 0.000000 1.728290 0.000000 
#    z 0.000000 0.000000 1.686090 
# 
# From -- ./inp_files/18465.got.cif
#   From: 2010.05.17/outbox.cif.g08.bks.cpg/sg52_10_cif.got.tgz:18465.got - 2010.06.03 12:15:38.
