data_PCOD9409783
_publ_section_title
;
Structure prediction by ZEFSAII (Michael W. Deem and Ramdas Pophale) SiO2 
 PCOD9409783
Probable space group: P N N A
;
_chemical_formula_sum "Si O2"
_cell_formula_units_Z 64
_cell_length_a 16.247171
_cell_length_b 22.648963
_cell_length_c 9.509068
_cell_angle_alpha 90.000000
_cell_angle_beta 90.000000
_cell_angle_gamma 90.000000
_cell_volume 3499.161818
_symmetry_space_group_name_H-M "P N N A"
_symmetry_group_IT_number 52
_symmetry_cell_setting 'orthorhombic'
loop_
_space_group_symop_operation_xyz
x,y,z
1/2-x,-y,z
x,1/2-y,1/2-z
1/2-x,1/2+y,1/2-z
-x,-y,-z
1/2+x,y,-z
-x,1/2+y,1/2+z
1/2+x,1/2-y,1/2+z
loop_
_atom_site_type_symbol
_atom_site_label
_atom_site_fract_x
_atom_site_fract_y
_atom_site_fract_z
Si Si1 0.068206 0.896116 0.051562
Si Si2 0.356134 0.231785 0.086162
Si Si3 0.036087 0.414406 0.114320
Si Si4 0.026512 0.044729 0.697545
Si Si5 0.342278 0.991580 0.918931
Si Si6 0.107596 0.387775 0.393613
Si Si7 0.003677 0.712695 0.895729
Si Si8 0.328258 0.741084 0.417361
O O1 0.123289 0.837830 0.068836
O O2 0.037423 0.919486 0.204285
O O3 0.116830 0.948522 0.974858
O O4 0.985527 0.886095 0.957335
O O5 0.360999 0.250000 0.250000
O O6 0.265030 0.249726 0.029617
O O7 0.428367 0.263172 0.000449
O O8 0.106416 0.395645 0.225165
O O9 0.005428 0.478311 0.166500
O O10 0.979152 0.356464 0.129267
O O11 0.048344 0.423609 0.948445
O O12 0.105505 0.035667 0.793442
O O13 0.250000 0.000000 0.873655
O O14 0.347701 0.944064 0.043108
O O15 0.148855 0.327174 0.439458
O O16 0.005792 0.750000 0.750000
O O17 0.910397 0.721821 0.957461
O O18 0.321806 0.750000 0.250000
#
# Coordination Sequence:
#
# PCOD9409783 Si02
#       8
#     8   8   8   8   8   8   8   8
#     4  11  19  37  60  85 113 151 201 242 293 351
#     4  11  23  37  58  88 120 150 195 251 301 347
#     4  11  19  37  63  85 114 153 201 240 302 363
#     4  10  22  36  60  87 115 152 196 248 300 354
#     4  11  22  36  56  85 118 153 198 246 294 344
#     4  11  18  37  63  84 108 155 202 239 289 359
#     4  11  21  39  64  85 118 164 198 239 301 363
#     4  10  20  36  60  85 115 153 197 242 287 356
#
# _framework density 18.290094
#
# number of rings (size 3 to 8) (size 9 to 14) (size 15 to 20)
#    0.000    1.250    6.250    2.250    0.000    0.000 
#    0.000    2.500    2.750    0.000    0.000    0.000 
#    0.000    0.000    0.000    0.000    0.000    0.000 
#
# Total GULP energy -356692.841626 kJ/mol
# GULP energy per Si atom -5573.325650 kJ/mol
# Density = 1.824846 g / cm^3
# Si number density = 18.290094 Si / 1000 Ang^3
#
#
#
# Elastic Constant Matrix: (Units=GPa)
#
#
# Indices 1 2 3 4 5 6 
#
# 1 91.2790 -0.8209 10.8329 0.0000 0.0000 0.0000
# 2 -0.8209 73.4688 5.1129 0.0000 0.0000 0.0000
# 3 10.8329 5.1129 79.5873 0.0000 0.0000 0.0000
# 4 0.0000 0.0000 0.0000 22.0493 0.0000 0.0000
# 5 0.0000 0.0000 0.0000 0.0000 16.1710 0.0000
# 6 0.0000 0.0000 0.0000 0.0000 0.0000 6.8653
#
#
#
# Elastic Compliance Matrix: (Units=1/GPa)
#
#
# Indices 1 2 3 4 5 6 
#
# 1 0.011139 0.000231 -0.001531 0.000000 0.000000 0.000000
# 2 0.000231 0.013677 -0.000910 0.000000 0.000000 0.000000
# 3 -0.001531 -0.000910 0.012832 0.000000 0.000000 0.000000
# 4 0.000000 0.000000 0.000000 0.045353 0.000000 0.000000
# 5 0.000000 0.000000 0.000000 0.000000 0.061839 0.000000
# 6 0.000000 0.000000 0.000000 0.000000 0.000000 0.145661
#
#
# Mechanical properties :
#
#
# Convention : Reuss Voigt Hill
#
# Bulk Modulus (GPa) = 30.09530 30.50943 30.30236
# Shear Modulus (GPa) = 16.34003 24.29778 20.31891
#
# Velocity S-wave (km/s) = 2.99219 3.64877 3.33667
# Velocity P-wave (km/s) = 5.33177 5.87098 5.60786
#
# Compressibility (1/GPa) = 0.03322778
#
# Stress axis : x y z
#
# Youngs Moduli (GPa) = 89.77300 73.11467 77.93210
#
# Poissons Ratio (x) = -0.01689 0.11932
# Poissons Ratio (y) = -0.02074 0.07093
# Poissons Ratio (z) = 0.13745 0.06654
#
# Static dielectric constant tensor:
#      x y z
#    x 1.639450 0.000000 0.000000 
#    y 0.000000 1.653550 0.000000 
#    z 0.000000 0.000000 1.635190 
# 
# From -- ./inp_files/12566.got.cif
#   From: 2010.05.17/outbox.cif.g08.bks.cpg/sg52_7_cif.got.tgz:12566.got - 2010.06.03 12:15:38.
