data_PCOD9409859
_publ_section_title
;
Structure prediction by ZEFSAII (Michael W. Deem and Ramdas Pophale) SiO2 
 PCOD9409859
Probable space group: P N N A
;
_chemical_formula_sum "Si O2"
_cell_formula_units_Z 48
_cell_length_a 17.018459
_cell_length_b 5.094453
_cell_length_c 27.580775
_cell_angle_alpha 90.000000
_cell_angle_beta 90.000000
_cell_angle_gamma 90.000000
_cell_volume 2391.246008
_symmetry_space_group_name_H-M "P N N A"
_symmetry_group_IT_number 52
_symmetry_cell_setting 'orthorhombic'
loop_
_space_group_symop_operation_xyz
x,y,z
1/2-x,-y,z
x,1/2-y,1/2-z
1/2-x,1/2+y,1/2-z
-x,-y,-z
1/2+x,y,-z
-x,1/2+y,1/2+z
1/2+x,1/2-y,1/2+z
loop_
_atom_site_type_symbol
_atom_site_label
_atom_site_fract_x
_atom_site_fract_y
_atom_site_fract_z
Si Si1 0.250000 0.500000 0.449478
Si Si2 0.622851 0.614860 0.935895
Si Si3 0.026833 0.458107 0.556079
Si Si4 0.458770 0.796688 0.368219
Si Si5 0.329365 0.866149 0.529061
Si Si6 0.250000 0.500000 0.282052
Si Si7 0.918114 0.195917 0.806584
O O1 0.303309 0.291071 0.422173
O O2 0.300844 0.668385 0.487321
O O3 0.543684 0.772903 0.925712
O O4 0.615332 0.350965 0.904520
O O5 0.627058 0.574487 0.994039
O O6 0.108202 0.298764 0.559433
O O7 0.000000 0.500000 0.500000
O O8 0.023814 0.712959 0.591046
O O9 0.455981 0.559196 0.330674
O O10 0.451803 0.052881 0.334765
O O11 0.250000 0.000000 0.550277
O O12 0.280680 0.750000 0.250000
O O13 0.175738 0.628853 0.309368
O O14 0.932526 0.250000 0.750000
#
# Coordination Sequence:
#
# PCOD9409859 Si02
#       7
#     4   8   8   8   8   4   8
#     4  10  20  37  50  86 122 170 218 252 306 363
#     4  11  21  37  56  85 125 160 224 252 314 367
#     4  12  22  39  59  87 127 169 211 262 315 380
#     4  12  24  38  60  91 109 168 207 261 332 377
#     4  10  22  36  59  80 121 175 209 254 312 367
#     4  10  20  41  66  82 110 162 208 270 348 381
#     4  11  24  44  60  83 119 154 213 272 327 385
#
# _framework density 20.073217
#
# number of rings (size 3 to 8) (size 9 to 14) (size 15 to 20)
#    0.000    1.000    5.000    3.000    0.000    0.667 
#    9.000    0.000    0.000    0.000    0.000    0.000 
#    0.000    0.000    8.500    0.500    0.000    0.000 
#
# Total GULP energy -267478.771000 kJ/mol
# GULP energy per Si atom -5572.474396 kJ/mol
# Density = 2.002753 g / cm^3
# Si number density = 20.073217 Si / 1000 Ang^3
#
#
#
# Elastic Constant Matrix: (Units=GPa)
#
#
# Indices 1 2 3 4 5 6 
#
# 1 84.5925 46.5139 29.3102 0.0000 0.0000 0.0000
# 2 46.5139 145.2591 53.0058 0.0000 0.0000 0.0000
# 3 29.3102 53.0058 118.5409 0.0000 0.0000 0.0000
# 4 0.0000 0.0000 0.0000 12.7010 0.0000 0.0000
# 5 0.0000 0.0000 0.0000 0.0000 0.3821 0.0000
# 6 0.0000 0.0000 0.0000 0.0000 0.0000 45.7515
#
#
#
# Elastic Compliance Matrix: (Units=1/GPa)
#
#
# Indices 1 2 3 4 5 6 
#
# 1 0.014671 -0.004032 -0.001825 0.000000 0.000000 0.000000
# 2 -0.004032 0.009335 -0.003177 0.000000 0.000000 0.000000
# 3 -0.001825 -0.003177 0.010308 0.000000 0.000000 0.000000
# 4 0.000000 0.000000 0.000000 0.078734 0.000000 0.000000
# 5 0.000000 0.000000 0.000000 0.000000 2.617257 0.000000
# 6 0.000000 0.000000 0.000000 0.000000 0.000000 0.021857
#
#
# Mechanical properties :
#
#
# Convention : Reuss Voigt Hill
#
# Bulk Modulus (GPa) = 61.55436 67.33916 64.44676
# Shear Modulus (GPa) = 1.80138 26.40441 14.10290
#
# Velocity S-wave (km/s) = 0.94834 3.63079 2.65348
# Velocity P-wave (km/s) = 5.65072 7.15517 6.44698
#
# Compressibility (1/GPa) = 0.01624580
#
# Stress axis : x y z
#
# Youngs Moduli (GPa) = 68.16381 107.12759 97.01510
#
# Poissons Ratio (x) = 0.43193 0.17701
# Poissons Ratio (y) = 0.27483 0.30823
# Poissons Ratio (z) = 0.12437 0.34035
#
# Static dielectric constant tensor:
#      x y z
#    x 1.593990 0.000000 0.000000 
#    y 0.000000 1.665270 0.000000 
#    z 0.000000 0.000000 1.767410 
# 
# From -- ./inp_files/43011.got.cif
#   From: 2010.05.17/outbox.cif.g08.bks.cpg/sg52_22_cif.got.tgz:43011.got - 2010.06.03 12:15:38.
