data_PCOD9409736
_publ_section_title
;
Structure prediction by ZEFSAII (Michael W. Deem and Ramdas Pophale) SiO2 
 PCOD9409736
Probable space group: P N N A
;
_chemical_formula_sum "Si O2"
_cell_formula_units_Z 56
_cell_length_a 8.055201
_cell_length_b 22.879917
_cell_length_c 16.577494
_cell_angle_alpha 90.000000
_cell_angle_beta 90.000000
_cell_angle_gamma 90.000000
_cell_volume 3055.270775
_symmetry_space_group_name_H-M "P N N A"
_symmetry_group_IT_number 52
_symmetry_cell_setting 'orthorhombic'
loop_
_space_group_symop_operation_xyz
x,y,z
1/2-x,-y,z
x,1/2-y,1/2-z
1/2-x,1/2+y,1/2-z
-x,-y,-z
1/2+x,y,-z
-x,1/2+y,1/2+z
1/2+x,1/2-y,1/2+z
loop_
_atom_site_type_symbol
_atom_site_label
_atom_site_fract_x
_atom_site_fract_y
_atom_site_fract_z
Si Si1 0.898961 0.536499 0.934200
Si Si2 0.930283 0.572364 0.231117
Si Si3 0.118914 0.124626 0.561094
Si Si4 0.702390 0.254349 0.880943
Si Si5 0.118108 0.709665 0.962430
Si Si6 0.951951 0.064298 0.270189
Si Si7 0.255090 0.150671 0.243435
O O1 0.750000 0.500000 0.894122
O O2 0.020162 0.562500 0.867253
O O3 0.811087 0.585187 0.988836
O O4 0.000000 0.500000 0.000000
O O5 0.935833 0.584336 0.134618
O O6 0.735711 0.583177 0.251927
O O7 0.967084 0.504632 0.251523
O O8 0.073213 0.614882 0.263542
O O9 0.248365 0.173665 0.588953
O O10 0.981679 0.162089 0.514876
O O11 0.509110 0.258078 0.904488
O O12 0.741929 0.198940 0.826210
O O13 0.746576 0.312245 0.827673
O O14 0.794231 0.253241 0.967300
O O15 0.099000 0.106158 0.240038
#
# Coordination Sequence:
#
# PCOD9409736 Si02
#       7
#     8   8   8   8   8   8   8
#     4  12  21  29  45  78 118 163 204 228 269 337
#     4  11  21  36  53  80 118 155 192 231 287 353
#     4  11  19  30  49  78 114 154 193 234 277 332
#     4  10  22  40  60  83 116 148 206 245 301 347
#     4  10  20  36  57  80 112 150 198 255 281 339
#     4  11  23  35  52  83 118 157 200 237 278 350
#     4  11  22  41  58  86 117 164 192 245 295 353
#
# _framework density 18.328980999999999
#
# number of rings (size 3 to 8) (size 9 to 14) (size 15 to 20)
#    0.000    1.143    2.857    6.429    0.000    0.000 
#    5.143    1.429    0.000    0.000    0.000    4.000 
#    0.000    0.000    0.000    0.000    0.000    0.000 
#
# Total GULP energy -312437.537029 kJ/mol
# GULP energy per Si atom -5579.241733 kJ/mol
# Density = 1.828726 g / cm^3
# Si number density = 18.328981 Si / 1000 Ang^3
#
#
#
# Elastic Constant Matrix: (Units=GPa)
#
#
# Indices 1 2 3 4 5 6 
#
# 1 126.9346 66.6769 18.9061 0.0000 0.0000 0.0000
# 2 66.6769 99.2573 29.3519 0.0000 0.0000 0.0000
# 3 18.9061 29.3519 33.2560 0.0000 0.0000 0.0000
# 4 0.0000 0.0000 0.0000 22.5378 0.0000 0.0000
# 5 0.0000 0.0000 0.0000 0.0000 14.3561 0.0000
# 6 0.0000 0.0000 0.0000 0.0000 0.0000 30.9843
#
#
#
# Elastic Compliance Matrix: (Units=1/GPa)
#
#
# Indices 1 2 3 4 5 6 
#
# 1 0.012178 -0.008299 0.000402 0.000000 0.000000 0.000000
# 2 -0.008299 0.019289 -0.012307 0.000000 0.000000 0.000000
# 3 0.000402 -0.012307 0.040703 0.000000 0.000000 0.000000
# 4 0.000000 0.000000 0.000000 0.044370 0.000000 0.000000
# 5 0.000000 0.000000 0.000000 0.000000 0.069657 0.000000
# 6 0.000000 0.000000 0.000000 0.000000 0.000000 0.032274
#
#
# Mechanical properties :
#
#
# Convention : Reuss Voigt Hill
#
# Bulk Modulus (GPa) = 31.48403 54.36863 42.92633
# Shear Modulus (GPa) = 18.55518 23.20982 20.88250
#
# Velocity S-wave (km/s) = 3.18518 3.56236 3.37904
# Velocity P-wave (km/s) = 5.54452 6.82990 6.22050
#
# Compressibility (1/GPa) = 0.03176214
#
# Stress axis : x y z
#
# Youngs Moduli (GPa) = 82.11702 51.84241 24.56822
#
# Poissons Ratio (x) = 0.43026 -0.00988
# Poissons Ratio (y) = 0.68152 0.30235
# Poissons Ratio (z) = -0.03301 0.63800
#
# Static dielectric constant tensor:
#      x y z
#    x 1.702310 0.000000 0.000000 
#    y 0.000000 1.664460 0.000000 
#    z 0.000000 0.000000 1.606650 
# 
# From -- ./inp_files/31559.got.cif
#   From: 2010.05.17/outbox.cif.g08.bks.cpg/sg52_16_cif.got.tgz:31559.got - 2010.06.03 12:15:38.
