data_PCOD9409212
_publ_section_title
;
Structure prediction by ZEFSAII (Michael W. Deem and Ramdas Pophale) SiO2 
 PCOD9409212
Probable space group: P N N A
;
_chemical_formula_sum "Si O2"
_cell_formula_units_Z 28
_cell_length_a 13.262766
_cell_length_b 12.960123
_cell_length_c 5.342470
_cell_angle_alpha 90.000000
_cell_angle_beta 90.000000
_cell_angle_gamma 90.000000
_cell_volume 918.301561
_symmetry_space_group_name_H-M "P N N A"
_symmetry_group_IT_number 52
_symmetry_cell_setting 'orthorhombic'
loop_
_space_group_symop_operation_xyz
x,y,z
1/2-x,-y,z
x,1/2-y,1/2-z
1/2-x,1/2+y,1/2-z
-x,-y,-z
1/2+x,y,-z
-x,1/2+y,1/2+z
1/2+x,1/2-y,1/2+z
loop_
_atom_site_type_symbol
_atom_site_label
_atom_site_fract_x
_atom_site_fract_y
_atom_site_fract_z
Si Si1 0.539838 0.415998 0.897348
Si Si2 0.750000 0.500000 0.745922
Si Si3 0.726975 0.811744 0.012961
Si Si4 0.538626 0.158225 0.135203
O O1 0.662636 0.438436 0.894293
O O2 0.501556 0.373175 0.636478
O O3 0.493624 0.544204 0.817753
O O4 0.524547 0.296375 0.072513
O O5 0.687869 0.578091 0.573592
O O6 0.686340 0.750000 0.250000
O O7 0.840198 0.841681 0.092825
O O8 0.719833 0.750000 0.750000
#
# Coordination Sequence:
#
# PCOD9409212 Si02
#       4
#     8   4   8   8
#     4  11  23  38  61  93 125 161 213 258 315 388
#     4  10  22  40  66  92 132 176 202 266 330 364
#     4  10  20  35  60  94 122 160 216 255 306 386
#     4  10  19  37  62  88 120 163 207 259 313 375
#
# _framework density 30.491074999999999
#
# number of rings (size 3 to 8) (size 9 to 14) (size 15 to 20)
#    0.000    1.714    0.000    8.571    0.000   10.286 
#    0.000    1.429    0.000   12.000    0.000    0.000 
#    0.000    0.000    0.000    0.000    0.000    0.000 
#
# Total GULP energy -156039.176970 kJ/mol
# GULP energy per Si atom -5572.827749 kJ/mol
# Density = 3.042168 g / cm^3
# Si number density = 30.491075 Si / 1000 Ang^3
#
#
#
# Elastic Constant Matrix: (Units=GPa)
#
#
# Indices 1 2 3 4 5 6 
#
# 1 174.0368 31.8805 72.1176 0.0000 0.0000 0.0000
# 2 31.8805 288.0818 155.2148 0.0000 0.0000 0.0000
# 3 72.1176 155.2148 423.3551 0.0000 0.0000 0.0000
# 4 0.0000 0.0000 0.0000 89.7148 0.0000 0.0000
# 5 0.0000 0.0000 0.0000 0.0000 553.5914 0.0000
# 6 0.0000 0.0000 0.0000 0.0000 0.0000 34.5433
#
#
#
# Elastic Compliance Matrix: (Units=1/GPa)
#
#
# Indices 1 2 3 4 5 6 
#
# 1 0.006187 -0.000146 -0.001001 0.000000 0.000000 0.000000
# 2 -0.000146 0.004329 -0.001562 0.000000 0.000000 0.000000
# 3 -0.001001 -0.001562 0.003105 0.000000 0.000000 0.000000
# 4 0.000000 0.000000 0.000000 0.011146 0.000000 0.000000
# 5 0.000000 0.000000 0.000000 0.000000 0.001806 0.000000
# 6 0.000000 0.000000 0.000000 0.000000 0.000000 0.028949
#
#
# Mechanical properties :
#
#
# Convention : Reuss Voigt Hill
#
# Bulk Modulus (GPa) = 121.88381 155.98881 138.93631
# Shear Modulus (GPa) = 78.52290 177.32064 127.92177
#
# Velocity S-wave (km/s) = 5.08022 7.63421 6.48421
# Velocity P-wave (km/s) = 8.62971 11.35685 10.08588
#
# Compressibility (1/GPa) = 0.00820454
#
# Stress axis : x y z
#
# Youngs Moduli (GPa) = 161.62368 230.99244 322.02455
#
# Poissons Ratio (x) = 0.03363 0.32222
# Poissons Ratio (y) = 0.02353 0.50313
# Poissons Ratio (z) = 0.16172 0.36090
#
# Static dielectric constant tensor:
#      x y z
#    x 2.216740 0.000000 0.000000 
#    y 0.000000 3.941710 0.000000 
#    z 0.000000 0.000000 2.357200 
# 
# From -- ./inp_files/2915.got.cif
#   From: 2010.05.17/outbox.cif.g08.bks.cpg/sg52_2_cif.got.tgz:2915.got - 2010.06.03 12:15:38.
