data_PCOD9409615
_publ_section_title
;
Structure prediction by ZEFSAII (Michael W. Deem and Ramdas Pophale) SiO2 
 PCOD9409615
Probable space group: P N N A
;
_chemical_formula_sum "Si O2"
_cell_formula_units_Z 40
_cell_length_a 9.988398
_cell_length_b 8.762572
_cell_length_c 25.576521
_cell_angle_alpha 90.000000
_cell_angle_beta 90.000000
_cell_angle_gamma 90.000000
_cell_volume 2238.560873
_symmetry_space_group_name_H-M "P N N A"
_symmetry_group_IT_number 52
_symmetry_cell_setting 'orthorhombic'
loop_
_space_group_symop_operation_xyz
x,y,z
1/2-x,-y,z
x,1/2-y,1/2-z
1/2-x,1/2+y,1/2-z
-x,-y,-z
1/2+x,y,-z
-x,1/2+y,1/2+z
1/2+x,1/2-y,1/2+z
loop_
_atom_site_type_symbol
_atom_site_label
_atom_site_fract_x
_atom_site_fract_y
_atom_site_fract_z
Si Si1 0.750000 0.500000 0.817928
Si Si2 0.114907 0.598535 0.972450
Si Si3 0.395778 0.250000 0.250000
Si Si4 0.090565 0.529164 0.338542
Si Si5 0.691637 0.659121 0.556432
Si Si6 0.441159 0.705530 0.118975
O O1 0.696314 0.640629 0.784711
O O2 0.623896 0.434450 0.849725
O O3 0.250000 0.500000 0.969956
O O4 0.064436 0.652903 0.915966
O O5 0.132271 0.743017 0.010328
O O6 0.000000 0.500000 0.000000
O O7 0.465154 0.364768 0.291957
O O8 0.250000 0.500000 0.327517
O O9 0.094892 0.617807 0.394428
O O10 0.032055 0.359429 0.347302
O O11 0.750000 0.500000 0.536253
O O12 0.818524 0.746736 0.580874
#
# Coordination Sequence:
#
# PCOD9409615 Si02
#       6
#     4   8   4   8   8   8
#     4  12  18  32  52  86 120 150 182 262 282 364
#     4  12  23  37  58  86 116 166 201 235 292 348
#     4  12  18  28  56  84 118 148 194 228 330 334
#     4   9  18  31  49  81 116 153 183 237 302 345
#     4   9  19  36  53  81 121 158 185 238 289 344
#     4  10  20  35  51  76 125 147 193 243 289 335
#
# _framework density 17.868622999999999
#
# number of rings (size 3 to 8) (size 9 to 14) (size 15 to 20)
#    0.000    2.000    7.000    1.200    0.000    3.200 
#    0.000    0.000    0.000    0.000    0.000    4.200 
#    0.000    0.000    0.000    0.000    0.000    0.000 
#
# Total GULP energy -222909.934590 kJ/mol
# GULP energy per Si atom -5572.748365 kJ/mol
# Density = 1.782795 g / cm^3
# Si number density = 17.868623 Si / 1000 Ang^3
#
#
#
# Elastic Constant Matrix: (Units=GPa)
#
#
# Indices 1 2 3 4 5 6 
#
# 1 46.8013 36.6088 31.5418 0.0000 0.0000 0.0000
# 2 36.6088 128.2263 77.8840 0.0000 0.0000 0.0000
# 3 31.5418 77.8840 102.5604 0.0000 0.0000 0.0000
# 4 0.0000 0.0000 0.0000 42.9069 0.0000 0.0000
# 5 0.0000 0.0000 0.0000 0.0000 10.2884 0.0000
# 6 0.0000 0.0000 0.0000 0.0000 0.0000 15.6208
#
#
#
# Elastic Compliance Matrix: (Units=1/GPa)
#
#
# Indices 1 2 3 4 5 6 
#
# 1 0.028750 -0.005267 -0.004842 0.000000 0.000000 0.000000
# 2 -0.005267 0.015441 -0.010106 0.000000 0.000000 0.000000
# 3 -0.004842 -0.010106 0.018914 0.000000 0.000000 0.000000
# 4 0.000000 0.000000 0.000000 0.023306 0.000000 0.000000
# 5 0.000000 0.000000 0.000000 0.000000 0.097197 0.000000
# 6 0.000000 0.000000 0.000000 0.000000 0.000000 0.064017
#
#
# Mechanical properties :
#
#
# Convention : Reuss Voigt Hill
#
# Bulk Modulus (GPa) = 44.10186 63.29525 53.69856
# Shear Modulus (GPa) = 16.91401 22.53345 19.72373
#
# Velocity S-wave (km/s) = 3.07999 3.55500 3.32598
# Velocity P-wave (km/s) = 6.11418 7.23534 6.69826
#
# Compressibility (1/GPa) = 0.02267478
#
# Stress axis : x y z
#
# Youngs Moduli (GPa) = 34.78214 64.76413 52.87164
#
# Poissons Ratio (x) = 0.34113 0.25601
# Poissons Ratio (y) = 0.18320 0.53430
# Poissons Ratio (z) = 0.16842 0.65449
#
# Static dielectric constant tensor:
#      x y z
#    x 1.590180 0.000000 0.000000 
#    y 0.000000 1.670640 0.000000 
#    z 0.000000 0.000000 1.664330 
# 
# From -- ./inp_files/42152.got.cif
#   From: 2010.05.17/outbox.cif.g08.bks.cpg/sg52_22_cif.got.tgz:42152.got - 2010.06.03 12:15:38.
