data_PCOD9409973
_publ_section_title
;
Structure prediction by ZEFSAII (Michael W. Deem and Ramdas Pophale) SiO2 
 PCOD9409973
Probable space group: P N N A
;
_chemical_formula_sum "Si O2"
_cell_formula_units_Z 44
_cell_length_a 7.472482
_cell_length_b 13.027041
_cell_length_c 18.712067
_cell_angle_alpha 90.000000
_cell_angle_beta 90.000000
_cell_angle_gamma 90.000000
_cell_volume 1821.513614
_symmetry_space_group_name_H-M "P N N A"
_symmetry_group_IT_number 52
_symmetry_cell_setting 'orthorhombic'
loop_
_space_group_symop_operation_xyz
x,y,z
1/2-x,-y,z
x,1/2-y,1/2-z
1/2-x,1/2+y,1/2-z
-x,-y,-z
1/2+x,y,-z
-x,1/2+y,1/2+z
1/2+x,1/2-y,1/2+z
loop_
_atom_site_type_symbol
_atom_site_label
_atom_site_fract_x
_atom_site_fract_y
_atom_site_fract_z
Si Si1 0.489531 0.042245 0.736428
Si Si2 0.546753 0.250000 0.750000
Si Si3 0.541962 0.490512 0.400228
Si Si4 0.449830 0.716681 0.409586
Si Si5 0.619796 0.340448 0.191582
Si Si6 0.553733 0.761541 0.936320
O O1 0.630575 0.136262 0.739161
O O2 0.472437 0.993554 0.814589
O O3 0.307951 0.106082 0.715973
O O4 0.504512 0.942654 0.688131
O O5 0.466965 0.271155 0.669499
O O6 0.750000 0.500000 0.419825
O O7 0.443775 0.594270 0.423163
O O8 0.470518 0.383579 0.427505
O O9 0.541058 0.763340 0.479756
O O10 0.250489 0.760826 0.406793
O O11 0.580112 0.250000 0.250000
O O12 0.594844 0.289543 0.114195
#
# Coordination Sequence:
#
# PCOD9409973 Si02
#       6
#     8   4   8   8   8   8
#     4  10  20  37  67 105 131 187 229 288 341 429
#     4  10  24  44  68  94 148 178 234 284 360 420
#     4  11  20  40  68 104 139 182 231 288 355 418
#     4  11  27  43  67 103 144 187 233 294 357 419
#     4  11  20  37  68 101 137 180 237 279 349 423
#     4  12  25  42  67  99 143 183 236 297 355 421
#
# _framework density 24.155733999999999
#
# number of rings (size 3 to 8) (size 9 to 14) (size 15 to 20)
#    0.000    1.091    4.545    2.182    6.364    0.000 
#    0.000    1.818    0.000    0.000    0.000    0.000 
#    0.000    0.000    0.000    0.000    0.000    0.000 
#
# Total GULP energy -245316.667747 kJ/mol
# GULP energy per Si atom -5575.378812 kJ/mol
# Density = 2.410075 g / cm^3
# Si number density = 24.155734 Si / 1000 Ang^3
#
#
#
# Elastic Constant Matrix: (Units=GPa)
#
#
# Indices 1 2 3 4 5 6 
#
# 1 81.9583 8.3072 30.3818 0.0000 0.0000 0.0000
# 2 8.3072 131.9029 52.4385 0.0000 0.0000 0.0000
# 3 30.3818 52.4385 194.1726 0.0000 0.0000 0.0000
# 4 0.0000 0.0000 0.0000 8.7606 0.0000 0.0000
# 5 0.0000 0.0000 0.0000 0.0000 24.0646 0.0000
# 6 0.0000 0.0000 0.0000 0.0000 0.0000 20.1526
#
#
#
# Elastic Compliance Matrix: (Units=1/GPa)
#
#
# Indices 1 2 3 4 5 6 
#
# 1 0.012953 -0.000011 -0.002024 0.000000 0.000000 0.000000
# 2 -0.000011 0.008493 -0.002292 0.000000 0.000000 0.000000
# 3 -0.002024 -0.002292 0.006086 0.000000 0.000000 0.000000
# 4 0.000000 0.000000 0.000000 0.114147 0.000000 0.000000
# 5 0.000000 0.000000 0.000000 0.000000 0.041555 0.000000
# 6 0.000000 0.000000 0.000000 0.000000 0.000000 0.049621
#
#
# Mechanical properties :
#
#
# Convention : Reuss Voigt Hill
#
# Bulk Modulus (GPa) = 52.97208 65.58764 59.27986
# Shear Modulus (GPa) = 20.17746 31.72264 25.95005
#
# Velocity S-wave (km/s) = 2.89330 3.62782 3.28118
# Velocity P-wave (km/s) = 5.75662 6.69022 6.24090
#
# Compressibility (1/GPa) = 0.01887787
#
# Stress axis : x y z
#
# Youngs Moduli (GPa) = 77.20441 117.74113 164.32092
#
# Poissons Ratio (x) = 0.00132 0.33252
# Poissons Ratio (y) = 0.00087 0.37661
# Poissons Ratio (z) = 0.15623 0.26985
#
# Static dielectric constant tensor:
#      x y z
#    x 2.065960 0.000000 0.000000 
#    y 0.000000 1.953270 0.000000 
#    z 0.000000 0.000000 1.899850 
# 
# From -- ./inp_files/31133.got.cif
#   From: 2010.05.17/outbox.cif.g08.bks.cpg/sg52_16_cif.got.tgz:31133.got - 2010.06.03 12:15:38.
