data_PCOD9409347
_publ_section_title
;
Structure prediction by ZEFSAII (Michael W. Deem and Ramdas Pophale) SiO2 
 PCOD9409347
Probable space group: P N N A
;
_chemical_formula_sum "Si O2"
_cell_formula_units_Z 48
_cell_length_a 10.037410
_cell_length_b 8.309721
_cell_length_c 28.741241
_cell_angle_alpha 90.000000
_cell_angle_beta 90.000000
_cell_angle_gamma 90.000000
_cell_volume 2397.251633
_symmetry_space_group_name_H-M "P N N A"
_symmetry_group_IT_number 52
_symmetry_cell_setting 'orthorhombic'
loop_
_space_group_symop_operation_xyz
x,y,z
1/2-x,-y,z
x,1/2-y,1/2-z
1/2-x,1/2+y,1/2-z
-x,-y,-z
1/2+x,y,-z
-x,1/2+y,1/2+z
1/2+x,1/2-y,1/2+z
loop_
_atom_site_type_symbol
_atom_site_label
_atom_site_fract_x
_atom_site_fract_y
_atom_site_fract_z
Si Si1 0.392305 0.932640 0.062964
Si Si2 0.803753 0.819627 0.369707
Si Si3 0.964109 0.159534 0.156626
Si Si4 0.697343 0.179983 0.699211
Si Si5 0.027804 0.812137 0.195948
Si Si6 0.362060 0.641953 0.536149
O O1 0.474750 0.864503 0.105564
O O2 0.250000 0.000000 0.077991
O O3 0.489886 0.074417 0.045533
O O4 0.364797 0.816315 0.018722
O O5 0.688978 0.704242 0.348731
O O6 0.932134 0.789756 0.337643
O O7 0.830400 0.767280 0.423114
O O8 0.750000 0.000000 0.367718
O O9 0.054901 0.302475 0.176016
O O10 0.988879 0.998648 0.187242
O O11 0.678040 0.250000 0.750000
O O12 0.819589 0.286020 0.679560
O O13 0.750000 0.000000 0.700505
O O14 0.018504 0.750000 0.250000
O O15 0.250000 0.500000 0.540107
#
# Coordination Sequence:
#
# PCOD9409347 Si02
#       6
#     8   8   8   8   8   8
#     4  10  20  35  69  97 116 162 214 257 310 381
#     4  12  25  41  60  90 131 169 208 269 325 378
#     4  12  23  42  66  94 126 169 214 266 314 383
#     4  11  23  41  62  92 127 164 206 260 315 376
#     4  11  23  41  65  93 122 165 214 263 314 383
#     4  10  19  40  64  90 126 163 212 257 312 383
#
# _framework density 20.022929999999999
#
# number of rings (size 3 to 8) (size 9 to 14) (size 15 to 20)
#    0.000    1.000    3.333    5.000    0.000    2.000 
#    0.000    1.667    0.000    0.000    0.000    0.000 
#    0.000    0.000    0.000    0.000    0.000    0.000 
#
# Total GULP energy -267905.127416 kJ/mol
# GULP energy per Si atom -5581.356821 kJ/mol
# Density = 1.997736 g / cm^3
# Si number density = 20.022930 Si / 1000 Ang^3
#
#
#
# Elastic Constant Matrix: (Units=GPa)
#
#
# Indices 1 2 3 4 5 6 
#
# 1 88.7848 -13.0455 13.4398 0.0000 0.0000 0.0000
# 2 -13.0455 68.1907 19.1906 0.0000 0.0000 0.0000
# 3 13.4398 19.1906 94.2846 0.0000 0.0000 0.0000
# 4 0.0000 0.0000 0.0000 14.3338 0.0000 0.0000
# 5 0.0000 0.0000 0.0000 0.0000 15.0956 0.0000
# 6 0.0000 0.0000 0.0000 0.0000 0.0000 36.1215
#
#
#
# Elastic Compliance Matrix: (Units=1/GPa)
#
#
# Indices 1 2 3 4 5 6 
#
# 1 0.012049 0.002958 -0.002320 0.000000 0.000000 0.000000
# 2 0.002958 0.016282 -0.003736 0.000000 0.000000 0.000000
# 3 -0.002320 -0.003736 0.011697 0.000000 0.000000 0.000000
# 4 0.000000 0.000000 0.000000 0.069765 0.000000 0.000000
# 5 0.000000 0.000000 0.000000 0.000000 0.066244 0.000000
# 6 0.000000 0.000000 0.000000 0.000000 0.000000 0.027684
#
#
# Mechanical properties :
#
#
# Convention : Reuss Voigt Hill
#
# Bulk Modulus (GPa) = 29.55664 32.26999 30.91332
# Shear Modulus (GPa) = 22.60457 28.55520 25.57989
#
# Velocity S-wave (km/s) = 3.36361 3.78050 3.57813
# Velocity P-wave (km/s) = 5.46613 5.93362 5.70466
#
# Compressibility (1/GPa) = 0.03383335
#
# Stress axis : x y z
#
# Youngs Moduli (GPa) = 82.99496 61.41783 85.49077
#
# Poissons Ratio (x) = -0.18166 0.19830
# Poissons Ratio (y) = -0.24549 0.31936
# Poissons Ratio (z) = 0.19251 0.22943
#
# Static dielectric constant tensor:
#      x y z
#    x 1.772330 0.000000 0.000000 
#    y 0.000000 1.737820 0.000000 
#    z 0.000000 0.000000 1.787490 
# 
# From -- ./inp_files/44344.got.cif
#   From: 2010.05.17/outbox.cif.g08.bks.cpg/sg52_23_cif.got.tgz:44344.got - 2010.06.03 12:15:38.
