data_PCOD9409283
_publ_section_title
;
Structure prediction by ZEFSAII (Michael W. Deem and Ramdas Pophale) SiO2 
 PCOD9409283
Probable space group: P N N A
;
_chemical_formula_sum "Si O2"
_cell_formula_units_Z 40
_cell_length_a 10.215363
_cell_length_b 8.419855
_cell_length_c 20.327214
_cell_angle_alpha 90.000000
_cell_angle_beta 90.000000
_cell_angle_gamma 90.000000
_cell_volume 1748.381794
_symmetry_space_group_name_H-M "P N N A"
_symmetry_group_IT_number 52
_symmetry_cell_setting 'orthorhombic'
loop_
_space_group_symop_operation_xyz
x,y,z
1/2-x,-y,z
x,1/2-y,1/2-z
1/2-x,1/2+y,1/2-z
-x,-y,-z
1/2+x,y,-z
-x,1/2+y,1/2+z
1/2+x,1/2-y,1/2+z
loop_
_atom_site_type_symbol
_atom_site_label
_atom_site_fract_x
_atom_site_fract_y
_atom_site_fract_z
Si Si1 0.560757 0.750000 0.750000
Si Si2 0.390812 0.730198 0.985576
Si Si3 0.250000 0.000000 0.174388
Si Si4 0.998594 0.177556 0.114384
Si Si5 0.750000 0.500000 0.915510
Si Si6 0.250000 0.000000 0.903502
Si Si7 0.011178 0.043469 0.639862
O O1 0.658344 0.621484 0.715737
O O2 0.462695 0.846790 0.701587
O O3 0.431067 0.607779 0.928463
O O4 0.310727 0.864536 0.949397
O O5 0.501573 0.801746 0.034197
O O6 0.308020 0.632125 0.037711
O O7 0.361856 0.900780 0.134135
O O8 0.976599 0.353769 0.144228
O O9 0.875282 0.070248 0.134370
O O10 0.857677 0.425934 0.869764
#
# Coordination Sequence:
#
# PCOD9409283 Si02
#       7
#     4   8   4   8   4   4   8
#     4  12  24  42  68  98 130 172 224 276 324 398
#     4  11  21  38  62  96 136 175 216 273 336 396
#     4  12  24  44  70 100 131 172 223 278 330 396
#     4  11  24  41  67 101 135 174 222 279 337 390
#     4  10  19  38  64  96 129 170 218 276 336 394
#     4  12  23  36  60  98 136 172 211 270 336 396
#     4  11  23  40  65  97 133 176 222 271 331 398
#
# _framework density 22.878298000000001
#
# number of rings (size 3 to 8) (size 9 to 14) (size 15 to 20)
#    0.000    0.800    0.000   11.400    0.000    0.000 
#    0.000    0.000    0.000   28.800    0.000    0.000 
#    0.000    0.000    0.000    0.000    0.000    0.000 
#
# Total GULP energy -223437.022666 kJ/mol
# GULP energy per Si atom -5585.925567 kJ/mol
# Density = 2.282623 g / cm^3
# Si number density = 22.878298 Si / 1000 Ang^3
#
#
#
# Elastic Constant Matrix: (Units=GPa)
#
#
# Indices 1 2 3 4 5 6 
#
# 1 66.5088 34.2272 11.2754 0.0000 0.0000 0.0000
# 2 34.2272 130.2418 50.8142 0.0000 0.0000 0.0000
# 3 11.2754 50.8142 76.8247 0.0000 0.0000 0.0000
# 4 0.0000 0.0000 0.0000 26.5466 0.0000 0.0000
# 5 0.0000 0.0000 0.0000 0.0000 12.3280 0.0000
# 6 0.0000 0.0000 0.0000 0.0000 0.0000 23.1820
#
#
#
# Elastic Compliance Matrix: (Units=1/GPa)
#
#
# Indices 1 2 3 4 5 6 
#
# 1 0.017410 -0.004823 0.000635 0.000000 0.000000 0.000000
# 2 -0.004823 0.011685 -0.007021 0.000000 0.000000 0.000000
# 3 0.000635 -0.007021 0.017567 0.000000 0.000000 0.000000
# 4 0.000000 0.000000 0.000000 0.037670 0.000000 0.000000
# 5 0.000000 0.000000 0.000000 0.000000 0.081116 0.000000
# 6 0.000000 0.000000 0.000000 0.000000 0.000000 0.043137
#
#
# Mechanical properties :
#
#
# Convention : Reuss Voigt Hill
#
# Bulk Modulus (GPa) = 41.24712 51.80100 46.52406
# Shear Modulus (GPa) = 20.91316 24.22855 22.57086
#
# Velocity S-wave (km/s) = 3.02670 3.25779 3.14437
# Velocity P-wave (km/s) = 5.50296 6.06976 5.79330
#
# Compressibility (1/GPa) = 0.02424411
#
# Stress axis : x y z
#
# Youngs Moduli (GPa) = 57.43825 85.58237 56.92428
#
# Poissons Ratio (x) = 0.41276 -0.03614
# Poissons Ratio (y) = 0.27702 0.39965
# Poissons Ratio (z) = -0.03646 0.60085
#
# Static dielectric constant tensor:
#      x y z
#    x 1.936920 0.000000 0.000000 
#    y 0.000000 1.814440 0.000000 
#    z 0.000000 0.000000 1.912050 
# 
# From -- ./inp_files/32065.got.cif
#   From: 2010.05.17/outbox.cif.g08.bks.cpg/sg52_17_cif.got.tgz:32065.got - 2010.06.03 12:15:38.
