data_PCOD9409632
_publ_section_title
;
Structure prediction by ZEFSAII (Michael W. Deem and Ramdas Pophale) SiO2 
 PCOD9409632
Probable space group: P N N A
;
_chemical_formula_sum "Si O2"
_cell_formula_units_Z 64
_cell_length_a 9.425622
_cell_length_b 27.084359
_cell_length_c 14.186731
_cell_angle_alpha 90.000000
_cell_angle_beta 90.000000
_cell_angle_gamma 90.000000
_cell_volume 3621.687004
_symmetry_space_group_name_H-M "P N N A"
_symmetry_group_IT_number 52
_symmetry_cell_setting 'orthorhombic'
loop_
_space_group_symop_operation_xyz
x,y,z
1/2-x,-y,z
x,1/2-y,1/2-z
1/2-x,1/2+y,1/2-z
-x,-y,-z
1/2+x,y,-z
-x,1/2+y,1/2+z
1/2+x,1/2-y,1/2+z
loop_
_atom_site_type_symbol
_atom_site_label
_atom_site_fract_x
_atom_site_fract_y
_atom_site_fract_z
Si Si1 0.308384 0.360234 0.196624
Si Si2 0.516916 0.766640 0.641469
Si Si3 0.028339 0.863667 0.699782
Si Si4 0.189656 0.670869 0.411650
Si Si5 0.363612 0.461380 0.097936
Si Si6 0.474074 0.327387 0.587382
Si Si7 0.694558 0.768792 0.357961
Si Si8 0.872625 0.467265 0.117790
O O1 0.397267 0.317588 0.144524
O O2 0.139099 0.355946 0.179161
O O3 0.329277 0.354710 0.309574
O O4 0.361586 0.412034 0.157435
O O5 0.501706 0.750000 0.750000
O O6 0.615018 0.724121 0.598923
O O7 0.355850 0.770187 0.603022
O O8 0.048106 0.853718 0.811616
O O9 0.120613 0.822264 0.645284
O O10 0.075465 0.918631 0.671302
O O11 0.108441 0.647355 0.500575
O O12 0.357495 0.675049 0.429866
O O13 0.250000 0.500000 0.136356
O O14 0.506756 0.492045 0.102753
O O15 0.327449 0.450613 0.988160
O O16 0.406121 0.272756 0.597310
O O17 0.704363 0.750000 0.250000
O O18 0.750000 0.500000 0.164570
#
# Coordination Sequence:
#
# PCOD9409632 Si02
#       8
#     8   8   8   8   8   8   8   8
#     4  10  20  35  58  80 107 148 184 219 270 330
#     4   9  18  32  51  78 107 138 180 219 260 316
#     4  10  20  36  56  80 110 146 183 221 273 325
#     4  10  20  35  54  79 110 147 185 223 267 320
#     4  10  20  39  59  79 108 137 174 222 273 332
#     4  10  20  35  55  77 111 148 183 225 268 319
#     4   9  18  32  51  77 108 140 176 221 262 310
#     4  10  22  37  57  83 108 136 175 226 278 327
#
# _framework density 17.671323999999998
#
# number of rings (size 3 to 8) (size 9 to 14) (size 15 to 20)
#    0.000    2.250    1.250    1.500    1.750    5.000 
#    0.000    2.500    0.000    1.500    0.000    0.000 
#    0.000    0.000    0.000    0.000    0.000    0.000 
#
# Total GULP energy -356720.102915 kJ/mol
# GULP energy per Si atom -5573.751608 kJ/mol
# Density = 1.763110 g / cm^3
# Si number density = 17.671324 Si / 1000 Ang^3
#
#
#
# Elastic Constant Matrix: (Units=GPa)
#
#
# Indices 1 2 3 4 5 6 
#
# 1 106.0178 50.2813 34.4016 0.0000 0.0000 0.0000
# 2 50.2813 122.3410 43.4285 0.0000 0.0000 0.0000
# 3 34.4016 43.4285 67.8595 0.0000 0.0000 0.0000
# 4 0.0000 0.0000 0.0000 26.2783 0.0000 0.0000
# 5 0.0000 0.0000 0.0000 0.0000 24.5522 0.0000
# 6 0.0000 0.0000 0.0000 0.0000 0.0000 24.8835
#
#
#
# Elastic Compliance Matrix: (Units=1/GPa)
#
#
# Indices 1 2 3 4 5 6 
#
# 1 0.012480 -0.003731 -0.003939 0.000000 0.000000 0.000000
# 2 -0.003731 0.011692 -0.005591 0.000000 0.000000 0.000000
# 3 -0.003939 -0.005591 0.020312 0.000000 0.000000 0.000000
# 4 0.000000 0.000000 0.000000 0.038054 0.000000 0.000000
# 5 0.000000 0.000000 0.000000 0.000000 0.040729 0.000000
# 6 0.000000 0.000000 0.000000 0.000000 0.000000 0.040187
#
#
# Mechanical properties :
#
#
# Convention : Reuss Voigt Hill
#
# Bulk Modulus (GPa) = 55.67582 61.38234 58.52908
# Shear Modulus (GPa) = 25.51488 26.34993 25.93241
#
# Velocity S-wave (km/s) = 3.80394 3.86568 3.83493
# Velocity P-wave (km/s) = 7.13218 7.39835 7.26648
#
# Compressibility (1/GPa) = 0.01796112
#
# Stress axis : x y z
#
# Youngs Moduli (GPa) = 80.12800 85.52835 49.23312
#
# Poissons Ratio (x) = 0.31910 0.19393
# Poissons Ratio (y) = 0.29895 0.27527
# Poissons Ratio (z) = 0.31563 0.47821
#
# Static dielectric constant tensor:
#      x y z
#    x 1.577910 0.000000 0.000000 
#    y 0.000000 1.551580 0.000000 
#    z 0.000000 0.000000 1.650570 
# 
# From -- ./inp_files/25115.got.cif
#   From: 2010.05.17/outbox.cif.g08.bks.cpg/sg52_13_cif.got.tgz:25115.got - 2010.06.03 12:15:38.
