data_PCOD9409082
_publ_section_title
;
Structure prediction by ZEFSAII (Michael W. Deem and Ramdas Pophale) SiO2 
 PCOD9409082
Probable space group: P N N A
;
_chemical_formula_sum "Si O2"
_cell_formula_units_Z 44
_cell_length_a 8.967664
_cell_length_b 10.123108
_cell_length_c 19.222378
_cell_angle_alpha 90.000000
_cell_angle_beta 90.000000
_cell_angle_gamma 90.000000
_cell_volume 1745.019608
_symmetry_space_group_name_H-M "P N N A"
_symmetry_group_IT_number 52
_symmetry_cell_setting 'orthorhombic'
loop_
_space_group_symop_operation_xyz
x,y,z
1/2-x,-y,z
x,1/2-y,1/2-z
1/2-x,1/2+y,1/2-z
-x,-y,-z
1/2+x,y,-z
-x,1/2+y,1/2+z
1/2+x,1/2-y,1/2+z
loop_
_atom_site_type_symbol
_atom_site_label
_atom_site_fract_x
_atom_site_fract_y
_atom_site_fract_z
Si Si1 0.912712 0.451200 0.111846
Si Si2 0.650081 0.312655 0.496806
Si Si3 0.421707 0.367523 0.594117
Si Si4 0.272146 0.250000 0.250000
Si Si5 0.525655 0.601521 0.258863
Si Si6 0.113054 0.684207 0.094202
O O1 0.750000 0.500000 0.086353
O O2 0.053348 0.534674 0.086016
O O3 0.935600 0.294096 0.104109
O O4 0.920348 0.481460 0.194484
O O5 0.565975 0.406873 0.550610
O O6 0.523472 0.258722 0.444636
O O7 0.773225 0.373522 0.448348
O O8 0.743091 0.214274 0.547166
O O9 0.425535 0.443301 0.666078
O O10 0.152425 0.370827 0.257454
O O11 0.355969 0.273503 0.175525
O O12 0.591260 0.750000 0.250000
#
# Coordination Sequence:
#
# PCOD9409082 Si02
#       6
#     8   8   8   4   8   8
#     4  11  21  34  54  87 117 158 191 234 290 345
#     4  10  21  34  56  85 118 154 189 236 293 355
#     4  10  19  36  53  80 116 156 188 236 288 346
#     4  10  20  38  56  82 110 162 200 244 276 348
#     4   8  18  36  54  71 116 152 195 238 284 326
#     4  11  22  35  57  87 118 151 198 230 296 350
#
# _framework density 25.214615999999999
#
# number of rings (size 3 to 8) (size 9 to 14) (size 15 to 20)
#    0.545    1.455    3.636    0.000    0.000    8.727 
#    0.000    0.000    0.000    0.000    0.000   14.000 
#    0.000    0.000    0.000    0.000    0.000    0.000 
#
# Total GULP energy -245667.822131 kJ/mol
# GULP energy per Si atom -5583.359594 kJ/mol
# Density = 2.515723 g / cm^3
# Si number density = 25.214616 Si / 1000 Ang^3
#
#
#
# Elastic Constant Matrix: (Units=GPa)
#
#
# Indices 1 2 3 4 5 6 
#
# 1 159.9116 22.8061 75.1109 0.0000 0.0000 0.0000
# 2 22.8061 68.0372 19.8534 0.0000 0.0000 0.0000
# 3 75.1109 19.8534 174.9557 0.0000 0.0000 0.0000
# 4 0.0000 0.0000 0.0000 22.3538 0.0000 0.0000
# 5 0.0000 0.0000 0.0000 0.0000 42.9201 0.0000
# 6 0.0000 0.0000 0.0000 0.0000 0.0000 -1.0903
#
#
#
# Elastic Compliance Matrix: (Units=1/GPa)
#
#
# Indices 1 2 3 4 5 6 
#
# 1 0.008028 -0.001743 -0.003249 0.000000 0.000000 0.000000
# 2 -0.001743 0.015580 -0.001020 0.000000 0.000000 0.000000
# 3 -0.003249 -0.001020 0.007226 0.000000 0.000000 0.000000
# 4 0.000000 0.000000 0.000000 0.044735 0.000000 0.000000
# 5 0.000000 0.000000 0.000000 0.000000 0.023299 0.000000
# 6 0.000000 0.000000 0.000000 0.000000 0.000000 -0.917163
#
#
# Mechanical properties :
#
#
# Convention : Reuss Voigt Hill
#
# Bulk Modulus (GPa) = 53.16026 70.93837 62.04932
# Shear Modulus (GPa) = -6.24999 31.84565 12.79783
#
# Velocity S-wave (km/s) = -1.57610 3.55770 2.25534
# Velocity P-wave (km/s) = 4.22099 6.71351 5.60749
#
# Compressibility (1/GPa) = 0.01881104
#
# Stress axis : x y z
#
# Youngs Moduli (GPa) = 124.56445 64.18641 138.38609
#
# Poissons Ratio (x) = 0.11188 0.44958
# Poissons Ratio (y) = 0.21712 0.14110
# Poissons Ratio (z) = 0.40468 0.06545
#
# Static dielectric constant tensor:
#      x y z
#    x 1.954480 0.000000 0.000000 
#    y 0.000000 2.077680 0.000000 
#    z 0.000000 0.000000 2.059810 
# 
# From -- ./inp_files/31173.got.cif
#   From: 2010.05.17/outbox.cif.g08.bks.cpg/sg52_16_cif.got.tgz:31173.got - 2010.06.03 12:15:38.
