data_PCOD9409575
_publ_section_title
;
Structure prediction by ZEFSAII (Michael W. Deem and Ramdas Pophale) SiO2 
 PCOD9409575
Probable space group: P N N A
;
_chemical_formula_sum "Si O2"
_cell_formula_units_Z 32
_cell_length_a 24.075726
_cell_length_b 5.307091
_cell_length_c 11.392432
_cell_angle_alpha 90.000000
_cell_angle_beta 90.000000
_cell_angle_gamma 90.000000
_cell_volume 1455.634605
_symmetry_space_group_name_H-M "P N N A"
_symmetry_group_IT_number 52
_symmetry_cell_setting 'orthorhombic'
loop_
_space_group_symop_operation_xyz
x,y,z
1/2-x,-y,z
x,1/2-y,1/2-z
1/2-x,1/2+y,1/2-z
-x,-y,-z
1/2+x,y,-z
-x,1/2+y,1/2+z
1/2+x,1/2-y,1/2+z
loop_
_atom_site_type_symbol
_atom_site_label
_atom_site_fract_x
_atom_site_fract_y
_atom_site_fract_z
Si Si1 0.864260 0.264428 0.480260
Si Si2 0.713128 0.750000 0.250000
Si Si3 0.011391 0.037377 0.186068
Si Si4 0.935525 0.734727 0.039312
Si Si5 0.617152 0.750000 0.750000
O O1 0.820892 0.228782 0.373422
O O2 0.890143 0.540718 0.458061
O O3 0.851178 0.250541 0.623265
O O4 0.907718 0.035445 0.465449
O O5 0.750000 0.500000 0.259426
O O6 0.975357 0.250000 0.250000
O O7 0.071441 0.973408 0.241811
O O8 0.028186 0.197974 0.072251
O O9 0.979069 0.792127 0.141949
#
# Coordination Sequence:
#
# PCOD9409575 Si02
#       5
#     8   4   8   8   4
#     4  11  24  45  67  97 128 173 224 272 337 403
#     4  12  28  52  75  96 126 160 209 288 370 432
#     4  10  20  34  56  94 146 184 226 262 304 364
#     4  10  23  36  61  94 137 188 220 261 311 377
#     4  10  22  38  67  94 136 176 223 270 314 374
#
# _framework density 21.983540999999999
#
# number of rings (size 3 to 8) (size 9 to 14) (size 15 to 20)
#    0.000    1.500    2.500    1.500    5.250    3.000 
#    0.000    1.250    0.000    0.000    0.000    0.000 
#    0.000    0.000    0.000    0.000    0.000    0.000 
#
# Total GULP energy -178253.777601 kJ/mol
# GULP energy per Si atom -5570.430550 kJ/mol
# Density = 2.193351 g / cm^3
# Si number density = 21.983541 Si / 1000 Ang^3
#
#
#
# Elastic Constant Matrix: (Units=GPa)
#
#
# Indices 1 2 3 4 5 6 
#
# 1 48.4896 12.7721 51.8643 0.0000 0.0000 0.0000
# 2 12.7721 99.5903 5.4111 0.0000 0.0000 0.0000
# 3 51.8643 5.4111 171.6706 0.0000 0.0000 0.0000
# 4 0.0000 0.0000 0.0000 37.8355 0.0000 0.0000
# 5 0.0000 0.0000 0.0000 0.0000 28.2464 0.0000
# 6 0.0000 0.0000 0.0000 0.0000 0.0000 38.4426
#
#
#
# Elastic Compliance Matrix: (Units=1/GPa)
#
#
# Indices 1 2 3 4 5 6 
#
# 1 0.031673 -0.003548 -0.009457 0.000000 0.000000 0.000000
# 2 -0.003548 0.010456 0.000742 0.000000 0.000000 0.000000
# 3 -0.009457 0.000742 0.008659 0.000000 0.000000 0.000000
# 4 0.000000 0.000000 0.000000 0.026430 0.000000 0.000000
# 5 0.000000 0.000000 0.000000 0.000000 0.035403 0.000000
# 6 0.000000 0.000000 0.000000 0.000000 0.000000 0.026013
#
#
# Mechanical properties :
#
#
# Convention : Reuss Voigt Hill
#
# Bulk Modulus (GPa) = 38.07790 51.09394 44.58592
# Shear Modulus (GPa) = 29.08455 37.55175 33.31815
#
# Velocity S-wave (km/s) = 3.64127 4.13749 3.89729
# Velocity P-wave (km/s) = 5.91922 6.79099 6.37003
#
# Compressibility (1/GPa) = 0.02626195
#
# Stress axis : x y z
#
# Youngs Moduli (GPa) = 31.57290 95.64040 115.48932
#
# Poissons Ratio (x) = 0.33934 1.09218
# Poissons Ratio (y) = 0.11202 -0.08574
# Poissons Ratio (z) = 0.29858 -0.07100
#
# Static dielectric constant tensor:
#      x y z
#    x 1.785980 0.000000 0.000000 
#    y 0.000000 1.867130 0.000000 
#    z 0.000000 0.000000 1.979540 
# 
# From -- ./inp_files/21987.got.cif
#   From: 2010.05.17/outbox.cif.g08.bks.cpg/sg52_11_cif.got.tgz:21987.got - 2010.06.03 12:15:38.
