data_PCOD9409237
_publ_section_title
;
Structure prediction by ZEFSAII (Michael W. Deem and Ramdas Pophale) SiO2 
 PCOD9409237
Probable space group: P N N A
;
_chemical_formula_sum "Si O2"
_cell_formula_units_Z 40
_cell_length_a 18.021261
_cell_length_b 12.524455
_cell_length_c 9.102963
_cell_angle_alpha 90.000000
_cell_angle_beta 90.000000
_cell_angle_gamma 90.000000
_cell_volume 2054.597667
_symmetry_space_group_name_H-M "P N N A"
_symmetry_group_IT_number 52
_symmetry_cell_setting 'orthorhombic'
loop_
_space_group_symop_operation_xyz
x,y,z
1/2-x,-y,z
x,1/2-y,1/2-z
1/2-x,1/2+y,1/2-z
-x,-y,-z
1/2+x,y,-z
-x,1/2+y,1/2+z
1/2+x,1/2-y,1/2+z
loop_
_atom_site_type_symbol
_atom_site_label
_atom_site_fract_x
_atom_site_fract_y
_atom_site_fract_z
Si Si1 0.352683 0.121026 0.551296
Si Si2 0.250518 0.680030 0.532267
Si Si3 0.466034 0.250000 0.750000
Si Si4 0.891214 0.837405 0.867695
Si Si5 0.750000 0.000000 0.275478
Si Si6 0.825260 0.444936 0.740646
O O1 0.285558 0.206195 0.558154
O O2 0.417021 0.171271 0.651059
O O3 0.322145 0.011393 0.621324
O O4 0.366979 0.107825 0.377739
O O5 0.338488 0.684712 0.504506
O O6 0.241019 0.599342 0.665886
O O7 0.206760 0.629525 0.390444
O O8 0.521585 0.186663 0.860035
O O9 0.861102 0.750000 0.750000
O O10 0.874197 0.958607 0.822751
O O11 0.750000 0.500000 0.801765
#
# Coordination Sequence:
#
# PCOD9409237 Si02
#       6
#     8   8   4   8   4   8
#     4  12  23  39  59  98 126 162 204 269 306 364
#     4  11  20  41  63  92 118 164 224 249 290 381
#     4  10  24  38  58  94 144 150 184 282 332 340
#     4   9  20  38  62  87 120 168 197 256 303 376
#     4  12  22  34  64  90 124 158 210 260 310 348
#     4  10  19  37  66  89 112 163 225 245 291 371
#
# _framework density 19.468533000000001
#
# number of rings (size 3 to 8) (size 9 to 14) (size 15 to 20)
#    0.600    0.800    6.000    3.000    0.000    0.800 
#    0.000    4.000    0.000    4.800    0.000    0.000 
#    0.000    0.000    0.000    0.000    0.000    0.000 
#
# Total GULP energy -222719.718938 kJ/mol
# GULP energy per Si atom -5567.992973 kJ/mol
# Density = 1.942422 g / cm^3
# Si number density = 19.468533 Si / 1000 Ang^3
#
#
#
# Elastic Constant Matrix: (Units=GPa)
#
#
# Indices 1 2 3 4 5 6 
#
# 1 100.3913 12.2361 20.2512 0.0000 0.0000 0.0000
# 2 12.2361 42.6500 0.6073 0.0000 0.0000 0.0000
# 3 20.2512 0.6073 73.3244 0.0000 0.0000 0.0000
# 4 0.0000 0.0000 0.0000 17.6232 0.0000 0.0000
# 5 0.0000 0.0000 0.0000 0.0000 0.3888 0.0000
# 6 0.0000 0.0000 0.0000 0.0000 0.0000 30.9557
#
#
#
# Elastic Compliance Matrix: (Units=1/GPa)
#
#
# Indices 1 2 3 4 5 6 
#
# 1 0.010943 -0.003097 -0.002997 0.000000 0.000000 0.000000
# 2 -0.003097 0.024326 0.000654 0.000000 0.000000 0.000000
# 3 -0.002997 0.000654 0.014460 0.000000 0.000000 0.000000
# 4 0.000000 0.000000 0.000000 0.056744 0.000000 0.000000
# 5 0.000000 0.000000 0.000000 0.000000 2.572043 0.000000
# 6 0.000000 0.000000 0.000000 0.000000 0.000000 0.032304
#
#
# Mechanical properties :
#
#
# Convention : Reuss Voigt Hill
#
# Bulk Modulus (GPa) = 25.74019 31.39498 28.56759
# Shear Modulus (GPa) = 1.82839 22.01161 11.92000
#
# Velocity S-wave (km/s) = 0.97015 3.36612 2.47709
# Velocity P-wave (km/s) = 3.80855 5.59185 4.78403
#
# Compressibility (1/GPa) = 0.03884975
#
# Stress axis : x y z
#
# Youngs Moduli (GPa) = 91.38295 41.10861 69.15512
#
# Poissons Ratio (x) = 0.12731 0.20723
# Poissons Ratio (y) = 0.28300 -0.04522
# Poissons Ratio (z) = 0.27384 -0.02688
#
# Static dielectric constant tensor:
#      x y z
#    x 1.764930 0.000000 0.000000 
#    y 0.000000 1.704760 0.000000 
#    z 0.000000 0.000000 1.709760 
# 
# From -- ./inp_files/13192.got.cif
#   From: 2010.05.17/outbox.cif.g08.bks.cpg/sg52_7_cif.got.tgz:13192.got - 2010.06.03 12:15:38.
