data_PCOD9409716
_publ_section_title
;
Structure prediction by ZEFSAII (Michael W. Deem and Ramdas Pophale) SiO2 
 PCOD9409716
Probable space group: P N N A
;
_chemical_formula_sum "Si O2"
_cell_formula_units_Z 64
_cell_length_a 12.867456
_cell_length_b 12.060007
_cell_length_c 23.101294
_cell_angle_alpha 90.000000
_cell_angle_beta 90.000000
_cell_angle_gamma 90.000000
_cell_volume 3584.895983
_symmetry_space_group_name_H-M "P N N A"
_symmetry_group_IT_number 52
_symmetry_cell_setting 'orthorhombic'
loop_
_space_group_symop_operation_xyz
x,y,z
1/2-x,-y,z
x,1/2-y,1/2-z
1/2-x,1/2+y,1/2-z
-x,-y,-z
1/2+x,y,-z
-x,1/2+y,1/2+z
1/2+x,1/2-y,1/2+z
loop_
_atom_site_type_symbol
_atom_site_label
_atom_site_fract_x
_atom_site_fract_y
_atom_site_fract_z
Si Si1 0.155772 0.415280 0.789885
Si Si2 0.017047 0.887738 0.076685
Si Si3 0.787459 0.627695 0.736895
Si Si4 0.830837 0.821022 0.159844
Si Si5 0.597154 0.802029 0.154697
Si Si6 0.454530 0.650938 0.448665
Si Si7 0.248407 0.872247 0.101610
Si Si8 0.519966 0.602458 0.230882
O O1 0.250000 0.500000 0.801840
O O2 0.154750 0.310280 0.831142
O O3 0.168988 0.372824 0.724096
O O4 0.056003 0.609704 0.702082
O O5 0.922446 0.868029 0.120570
O O6 0.127648 0.839900 0.098751
O O7 0.989148 0.836112 0.014483
O O8 0.031052 0.019935 0.066920
O O9 0.750000 0.500000 0.750715
O O10 0.735605 0.750000 0.750000
O O11 0.791041 0.628993 0.667089
O O12 0.899477 0.632695 0.767934
O O13 0.713428 0.834716 0.137213
O O14 0.526410 0.790542 0.098668
O O15 0.548481 0.482466 0.207751
O O16 0.585618 0.690173 0.192970
O O17 0.334963 0.685332 0.437902
O O18 0.250000 0.000000 0.081758
#
# Coordination Sequence:
#
# PCOD9409716 Si02
#       8
#     8   8   8   8   8   8   8   8
#     4  11  20  35  53  84 119 149 182 241 295 357
#     4  10  23  35  52  82 117 148 191 240 293 349
#     4  11  22  36  58  84 116 158 196 239 289 354
#     4  11  23  34  54  89 119 148 187 241 307 352
#     4  11  19  33  59  82 110 152 194 233 287 357
#     4  10  20  36  56  78 109 157 189 234 288 357
#     4   9  19  36  51  75 112 146 187 236 284 342
#     4  11  19  35  57  84 114 150 196 232 293 363
#
# _framework density 17.852679999999999
#
# number of rings (size 3 to 8) (size 9 to 14) (size 15 to 20)
#    0.000    1.500    5.000    1.500    5.250    1.000 
#    0.000    0.000    0.000    0.750    0.000    0.875 
#    0.000    0.000    0.000    0.000    0.000    0.000 
#
# Total GULP energy -356473.840370 kJ/mol
# GULP energy per Si atom -5569.903756 kJ/mol
# Density = 1.781205 g / cm^3
# Si number density = 17.852680 Si / 1000 Ang^3
#
#
#
# Elastic Constant Matrix: (Units=GPa)
#
#
# Indices 1 2 3 4 5 6 
#
# 1 98.4600 -0.8554 22.9260 0.0000 0.0000 0.0000
# 2 -0.8554 62.2990 -7.4535 0.0000 0.0000 0.0000
# 3 22.9260 -7.4535 42.4832 0.0000 0.0000 0.0000
# 4 0.0000 0.0000 0.0000 14.3154 0.0000 0.0000
# 5 0.0000 0.0000 0.0000 0.0000 12.4711 0.0000
# 6 0.0000 0.0000 0.0000 0.0000 0.0000 16.4353
#
#
#
# Elastic Compliance Matrix: (Units=1/GPa)
#
#
# Indices 1 2 3 4 5 6 
#
# 1 0.011638 -0.000604 -0.006387 0.000000 0.000000 0.000000
# 2 -0.000604 0.016427 0.003208 0.000000 0.000000 0.000000
# 3 -0.006387 0.003208 0.027548 0.000000 0.000000 0.000000
# 4 0.000000 0.000000 0.000000 0.069855 0.000000 0.000000
# 5 0.000000 0.000000 0.000000 0.000000 0.080185 0.000000
# 6 0.000000 0.000000 0.000000 0.000000 0.000000 0.060845
#
#
# Mechanical properties :
#
#
# Convention : Reuss Voigt Hill
#
# Bulk Modulus (GPa) = 20.81249 25.83071 23.32160
# Shear Modulus (GPa) = 17.23664 21.21936 19.22800
#
# Velocity S-wave (km/s) = 3.11061 3.45132 3.28538
# Velocity P-wave (km/s) = 4.95827 5.51202 5.24246
#
# Compressibility (1/GPa) = 0.04804807
#
# Stress axis : x y z
#
# Youngs Moduli (GPa) = 85.92360 60.87488 36.30014
#
# Poissons Ratio (x) = 0.03679 0.23183
# Poissons Ratio (y) = 0.05192 -0.11646
# Poissons Ratio (z) = 0.54876 -0.19530
#
# Static dielectric constant tensor:
#      x y z
#    x 1.663970 0.000000 0.000000 
#    y 0.000000 1.654200 0.000000 
#    z 0.000000 0.000000 1.581120 
# 
# From -- ./inp_files/40327.got.cif
#   From: 2010.05.17/outbox.cif.g08.bks.cpg/sg52_21_cif.got.tgz:40327.got - 2010.06.03 12:15:38.
