data_PCOD9409123
_publ_section_title
;
Structure prediction by ZEFSAII (Michael W. Deem and Ramdas Pophale) SiO2 
 PCOD9409123
Probable space group: P N N A
;
_chemical_formula_sum "Si O2"
_cell_formula_units_Z 40
_cell_length_a 10.294529
_cell_length_b 20.308281
_cell_length_c 11.239173
_cell_angle_alpha 90.000000
_cell_angle_beta 90.000000
_cell_angle_gamma 90.000000
_cell_volume 2349.708574
_symmetry_space_group_name_H-M "P N N A"
_symmetry_group_IT_number 52
_symmetry_cell_setting 'orthorhombic'
loop_
_space_group_symop_operation_xyz
x,y,z
1/2-x,-y,z
x,1/2-y,1/2-z
1/2-x,1/2+y,1/2-z
-x,-y,-z
1/2+x,y,-z
-x,1/2+y,1/2+z
1/2+x,1/2-y,1/2+z
loop_
_atom_site_type_symbol
_atom_site_label
_atom_site_fract_x
_atom_site_fract_y
_atom_site_fract_z
Si Si1 0.125303 0.545422 0.976898
Si Si2 0.988037 0.357265 0.201403
Si Si3 0.523788 0.280873 0.568920
Si Si4 0.232137 0.577228 0.222830
Si Si5 0.180086 0.701464 0.365221
O O1 0.250000 0.500000 0.957983
O O2 0.108473 0.594312 0.866584
O O3 0.150795 0.582445 0.101271
O O4 0.000000 0.500000 0.000000
O O5 0.968120 0.335145 0.337651
O O6 0.999022 0.290079 0.127552
O O7 0.125940 0.393806 0.197252
O O8 0.443023 0.284209 0.447964
O O9 0.680536 0.289913 0.567670
O O10 0.250000 0.500000 0.253510
O O11 0.173482 0.626049 0.320235
O O12 0.184618 0.750000 0.250000
#
# Coordination Sequence:
#
# PCOD9409123 Si02
#       5
#     8   8   8   8   8
#     4  11  20  34  58  88 114 152 195 242 299 347
#     4  10  19  39  57  83 120 151 191 247 298 345
#     4  10  22  39  63  83 117 161 195 246 300 351
#     4  10  19  36  60  84 116 157 189 244 303 343
#     4  11  21  43  60  87 120 159 201 244 301 357
#
# _framework density 17.023387
#
# number of rings (size 3 to 8) (size 9 to 14) (size 15 to 20)
#    0.000    1.600    8.000    1.200    0.000    0.000 
#    7.200    5.000    0.000    0.000    0.000    0.000 
#    0.000    0.000    0.000    0.000    0.000    0.000 
#
# Total GULP energy -222921.936099 kJ/mol
# GULP energy per Si atom -5573.048402 kJ/mol
# Density = 1.698464 g / cm^3
# Si number density = 17.023387 Si / 1000 Ang^3
#
#
#
# Elastic Constant Matrix: (Units=GPa)
#
#
# Indices 1 2 3 4 5 6 
#
# 1 94.7662 36.2983 58.7345 0.0000 0.0000 0.0000
# 2 36.2983 80.9646 37.9035 0.0000 0.0000 0.0000
# 3 58.7345 37.9035 79.8834 0.0000 0.0000 0.0000
# 4 0.0000 0.0000 0.0000 30.2287 0.0000 0.0000
# 5 0.0000 0.0000 0.0000 0.0000 31.9657 0.0000
# 6 0.0000 0.0000 0.0000 0.0000 0.0000 26.5578
#
#
#
# Elastic Compliance Matrix: (Units=1/GPa)
#
#
# Indices 1 2 3 4 5 6 
#
# 1 0.019820 -0.002653 -0.013314 0.000000 0.000000 0.000000
# 2 -0.002653 0.016233 -0.005752 0.000000 0.000000 0.000000
# 3 -0.013314 -0.005752 0.025037 0.000000 0.000000 0.000000
# 4 0.000000 0.000000 0.000000 0.033081 0.000000 0.000000
# 5 0.000000 0.000000 0.000000 0.000000 0.031284 0.000000
# 6 0.000000 0.000000 0.000000 0.000000 0.000000 0.037654
#
#
# Mechanical properties :
#
#
# Convention : Reuss Voigt Hill
#
# Bulk Modulus (GPa) = 56.64976 57.94299 57.29637
# Shear Modulus (GPa) = 23.53708 25.92896 24.73302
#
# Velocity S-wave (km/s) = 3.72241 3.90697 3.81581
# Velocity P-wave (km/s) = 7.19896 7.37996 7.29002
#
# Compressibility (1/GPa) = 0.01765233
#
# Stress axis : x y z
#
# Youngs Moduli (GPa) = 50.45320 61.60234 39.94129
#
# Poissons Ratio (x) = 0.16342 0.53179
# Poissons Ratio (y) = 0.13385 0.22974
# Poissons Ratio (z) = 0.67175 0.35433
#
# Static dielectric constant tensor:
#      x y z
#    x 1.576710 0.000000 0.000000 
#    y 0.000000 1.593160 0.000000 
#    z 0.000000 0.000000 1.601480 
# 
# From -- ./inp_files/16812.got.cif
#   From: 2010.05.17/outbox.cif.g08.bks.cpg/sg52_9_cif.got.tgz:16812.got - 2010.06.03 12:15:38.
