data_PCOD9409945
_publ_section_title
;
Structure prediction by ZEFSAII (Michael W. Deem and Ramdas Pophale) SiO2 
 PCOD9409945
Probable space group: P N N A
;
_chemical_formula_sum "Si O2"
_cell_formula_units_Z 56
_cell_length_a 21.239562
_cell_length_b 8.112911
_cell_length_c 15.130458
_cell_angle_alpha 90.000000
_cell_angle_beta 90.000000
_cell_angle_gamma 90.000000
_cell_volume 2607.199971
_symmetry_space_group_name_H-M "P N N A"
_symmetry_group_IT_number 52
_symmetry_cell_setting 'orthorhombic'
loop_
_space_group_symop_operation_xyz
x,y,z
1/2-x,-y,z
x,1/2-y,1/2-z
1/2-x,1/2+y,1/2-z
-x,-y,-z
1/2+x,y,-z
-x,1/2+y,1/2+z
1/2+x,1/2-y,1/2+z
loop_
_atom_site_type_symbol
_atom_site_label
_atom_site_fract_x
_atom_site_fract_y
_atom_site_fract_z
Si Si1 0.010886 0.276993 0.484197
Si Si2 0.889769 0.404947 0.967947
Si Si3 0.739169 0.798654 0.563358
Si Si4 0.495549 0.016343 0.161688
Si Si5 0.904806 0.750000 0.250000
Si Si6 0.619886 0.057432 0.723222
Si Si7 0.147818 0.299064 0.939242
Si Si8 0.250000 0.500000 0.304800
O O1 0.998729 0.336191 0.383382
O O2 0.085509 0.262484 0.506152
O O3 0.959057 0.137193 0.500478
O O4 0.990240 0.387423 0.569030
O O5 0.835708 0.269930 0.949766
O O6 0.893385 0.513255 0.878441
O O7 0.857783 0.506571 0.046372
O O8 0.786469 0.749958 0.483620
O O9 0.757910 0.669123 0.639375
O O10 0.750000 0.000000 0.576032
O O11 0.549536 0.096241 0.222984
O O12 0.432755 0.027892 0.217538
O O13 0.863050 0.734425 0.162746
O O14 0.618377 0.250000 0.750000
O O15 0.687351 0.985266 0.747849
#
# Coordination Sequence:
#
# PCOD9409945 Si02
#       8
#     8   8   8   8   4   8   8   4
#     4  10  20  37  63  91 126 171 215 268 333 399
#     4  11  23  39  63  89 131 171 214 273 336 401
#     4  10  23  43  64  92 132 173 219 274 330 405
#     4  10  21  38  59  91 129 162 215 274 328 394
#     4  10  22  40  68  90 118 166 224 282 340 398
#     4  12  25  38  60  97 135 175 220 271 330 406
#     4  10  21  40  64  89 124 170 214 273 339 390
#     4  12  26  38  66  92 132 182 218 260 330 406
#
# _framework density 21.478981000000001
#
# number of rings (size 3 to 8) (size 9 to 14) (size 15 to 20)
#    0.000    1.429    0.000    6.429    5.000    4.571 
#    0.000    0.000   14.143    0.000    0.000    0.000 
#    0.000    0.000    0.000    0.000    0.000    0.000 
#
# Total GULP energy -311993.673545 kJ/mol
# GULP energy per Si atom -5571.315599 kJ/mol
# Density = 2.143009 g / cm^3
# Si number density = 21.478981 Si / 1000 Ang^3
#
#
#
# Elastic Constant Matrix: (Units=GPa)
#
#
# Indices 1 2 3 4 5 6 
#
# 1 110.4872 31.9346 68.6534 0.0000 0.0000 0.0000
# 2 31.9346 28.6545 29.5901 0.0000 0.0000 0.0000
# 3 68.6534 29.5901 131.4350 0.0000 0.0000 0.0000
# 4 0.0000 0.0000 0.0000 29.8511 0.0000 0.0000
# 5 0.0000 0.0000 0.0000 0.0000 15.7260 0.0000
# 6 0.0000 0.0000 0.0000 0.0000 0.0000 28.8214
#
#
#
# Elastic Compliance Matrix: (Units=1/GPa)
#
#
# Indices 1 2 3 4 5 6 
#
# 1 0.016056 -0.012031 -0.005678 0.000000 0.000000 0.000000
# 2 -0.012031 0.054483 -0.005982 0.000000 0.000000 0.000000
# 3 -0.005678 -0.005982 0.011921 0.000000 0.000000 0.000000
# 4 0.000000 0.000000 0.000000 0.033500 0.000000 0.000000
# 5 0.000000 0.000000 0.000000 0.000000 0.063589 0.000000
# 6 0.000000 0.000000 0.000000 0.000000 0.000000 0.034696
#
#
# Mechanical properties :
#
#
# Convention : Reuss Voigt Hill
#
# Bulk Modulus (GPa) = 28.50694 58.99253 43.74974
# Shear Modulus (GPa) = 18.29351 24.23961 21.26656
#
# Velocity S-wave (km/s) = 2.92154 3.36300 3.15002
# Velocity P-wave (km/s) = 4.96804 6.52722 5.80026
#
# Compressibility (1/GPa) = 0.03507918
#
# Stress axis : x y z
#
# Youngs Moduli (GPa) = 62.28011 18.35419 83.88496
#
# Poissons Ratio (x) = 0.22081 0.47634
# Poissons Ratio (y) = 0.74927 0.50179
# Poissons Ratio (z) = 0.35365 0.10979
#
# Static dielectric constant tensor:
#      x y z
#    x 1.839020 0.000000 0.000000 
#    y 0.000000 2.077660 0.000000 
#    z 0.000000 0.000000 1.811220 
# 
# From -- ./inp_files/28816.got.cif
#   From: 2010.05.17/outbox.cif.g08.bks.cpg/sg52_15_cif.got.tgz:28816.got - 2010.06.03 12:15:38.
