data_PCOD9409194
_publ_section_title
;
Structure prediction by ZEFSAII (Michael W. Deem and Ramdas Pophale) SiO2 
 PCOD9409194
Probable space group: P N N A
;
_chemical_formula_sum "Si O2"
_cell_formula_units_Z 56
_cell_length_a 20.563820
_cell_length_b 14.692561
_cell_length_c 9.340606
_cell_angle_alpha 90.000000
_cell_angle_beta 90.000000
_cell_angle_gamma 90.000000
_cell_volume 2822.125673
_symmetry_space_group_name_H-M "P N N A"
_symmetry_group_IT_number 52
_symmetry_cell_setting 'orthorhombic'
loop_
_space_group_symop_operation_xyz
x,y,z
1/2-x,-y,z
x,1/2-y,1/2-z
1/2-x,1/2+y,1/2-z
-x,-y,-z
1/2+x,y,-z
-x,1/2+y,1/2+z
1/2+x,1/2-y,1/2+z
loop_
_atom_site_type_symbol
_atom_site_label
_atom_site_fract_x
_atom_site_fract_y
_atom_site_fract_z
Si Si1 0.579222 0.357349 0.554795
Si Si2 0.416785 0.508387 0.188770
Si Si3 0.272328 0.602426 0.419628
Si Si4 0.617309 0.336239 0.027442
Si Si5 0.234634 0.728537 0.915283
Si Si6 0.288108 0.086200 0.370366
Si Si7 0.988652 0.850584 0.239551
O O1 0.562429 0.418371 0.691388
O O2 0.653850 0.387653 0.528174
O O3 0.587273 0.247821 0.564573
O O4 0.530142 0.373612 0.423612
O O5 0.397924 0.569716 0.052498
O O6 0.349972 0.452420 0.215878
O O7 0.470738 0.430152 0.185323
O O8 0.250000 0.500000 0.442250
O O9 0.231116 0.675611 0.504964
O O10 0.261417 0.625056 0.250564
O O11 0.692242 0.312313 0.060520
O O12 0.578635 0.339387 0.175376
O O13 0.221814 0.750000 0.750000
O O14 0.192791 0.656022 0.005853
O O15 0.250000 0.000000 0.434846
O O16 0.020961 0.750000 0.250000
#
# Coordination Sequence:
#
# PCOD9409194 Si02
#       7
#     8   8   8   8   8   8   8
#     4  10  19  37  61  88 115 151 203 255 296 356
#     4  12  21  37  63  89 118 159 201 255 304 363
#     4  10  19  37  60  88 119 156 203 252 303 363
#     4  10  20  38  61  85 114 154 207 252 300 360
#     4  11  22  37  60  87 121 161 198 254 309 361
#     4  11  21  38  58  92 123 156 203 248 308 376
#     4  10  23  39  57  87 123 160 200 250 314 369
#
# _framework density 19.843197
#
# number of rings (size 3 to 8) (size 9 to 14) (size 15 to 20)
#    0.000    1.429    4.286    3.857    0.000    4.000 
#    2.571    0.000    0.000    0.000    0.000    0.000 
#    0.000    0.000    0.000    0.000    0.000    0.000 
#
# Total GULP energy -312145.061334 kJ/mol
# GULP energy per Si atom -5574.018952 kJ/mol
# Density = 1.979803 g / cm^3
# Si number density = 19.843197 Si / 1000 Ang^3
#
#
#
# Elastic Constant Matrix: (Units=GPa)
#
#
# Indices 1 2 3 4 5 6 
#
# 1 40.2253 10.3483 -4.3152 0.0000 0.0000 0.0000
# 2 10.3483 101.2281 39.5546 0.0000 0.0000 0.0000
# 3 -4.3152 39.5546 90.1468 0.0000 0.0000 0.0000
# 4 0.0000 0.0000 0.0000 24.6196 0.0000 0.0000
# 5 0.0000 0.0000 0.0000 0.0000 16.1308 0.0000
# 6 0.0000 0.0000 0.0000 0.0000 0.0000 20.6074
#
#
#
# Elastic Compliance Matrix: (Units=1/GPa)
#
#
# Indices 1 2 3 4 5 6 
#
# 1 0.026156 -0.003818 0.002927 0.000000 0.000000 0.000000
# 2 -0.003818 0.012480 -0.005659 0.000000 0.000000 0.000000
# 3 0.002927 -0.005659 0.013716 0.000000 0.000000 0.000000
# 4 0.000000 0.000000 0.000000 0.040618 0.000000 0.000000
# 5 0.000000 0.000000 0.000000 0.000000 0.061993 0.000000
# 6 0.000000 0.000000 0.000000 0.000000 0.000000 0.048526
#
#
# Mechanical properties :
#
#
# Convention : Reuss Voigt Hill
#
# Bulk Modulus (GPa) = 25.47524 35.86395 30.66959
# Shear Modulus (GPa) = 21.77010 24.67239 23.22124
#
# Velocity S-wave (km/s) = 3.31585 3.52997 3.42458
# Velocity P-wave (km/s) = 5.24652 5.89297 5.57912
#
# Compressibility (1/GPa) = 0.03925380
#
# Stress axis : x y z
#
# Youngs Moduli (GPa) = 38.23196 80.12756 72.90709
#
# Poissons Ratio (x) = 0.30590 -0.21341
# Poissons Ratio (y) = 0.14596 0.41256
# Poissons Ratio (z) = -0.11191 0.45342
#
# Static dielectric constant tensor:
#      x y z
#    x 1.730620 0.000000 0.000000 
#    y 0.000000 1.740700 0.000000 
#    z 0.000000 0.000000 1.724800 
# 
# From -- ./inp_files/13470.got.cif
#   From: 2010.05.17/outbox.cif.g08.bks.cpg/sg52_7_cif.got.tgz:13470.got - 2010.06.03 12:15:38.
