data_PCOD9409664
_publ_section_title
;
Structure prediction by ZEFSAII (Michael W. Deem and Ramdas Pophale) SiO2 
 PCOD9409664
Probable space group: P N N A
;
_chemical_formula_sum "Si O2"
_cell_formula_units_Z 64
_cell_length_a 10.671918
_cell_length_b 8.963845
_cell_length_c 37.197811
_cell_angle_alpha 90.000000
_cell_angle_beta 90.000000
_cell_angle_gamma 90.000000
_cell_volume 3558.395377
_symmetry_space_group_name_H-M "P N N A"
_symmetry_group_IT_number 52
_symmetry_cell_setting 'orthorhombic'
loop_
_space_group_symop_operation_xyz
x,y,z
1/2-x,-y,z
x,1/2-y,1/2-z
1/2-x,1/2+y,1/2-z
-x,-y,-z
1/2+x,y,-z
-x,1/2+y,1/2+z
1/2+x,1/2-y,1/2+z
loop_
_atom_site_type_symbol
_atom_site_label
_atom_site_fract_x
_atom_site_fract_y
_atom_site_fract_z
Si Si1 0.091975 0.167724 0.713043
Si Si2 0.525297 0.678015 0.647129
Si Si3 0.026963 0.344242 0.355718
Si Si4 0.752082 0.677624 0.894396
Si Si5 0.986189 0.838364 0.017685
Si Si6 0.387556 0.538214 0.590678
Si Si7 0.748106 0.320314 0.978758
Si Si8 0.887767 0.186821 0.289263
O O1 0.057758 0.250000 0.750000
O O2 0.238051 0.208130 0.706308
O O3 0.004482 0.228573 0.681813
O O4 0.085437 0.989310 0.713017
O O5 0.569999 0.510124 0.656332
O O6 0.624109 0.754810 0.621022
O O7 0.396706 0.649117 0.624808
O O8 0.139056 0.244195 0.369781
O O9 0.946643 0.389101 0.391495
O O10 0.954500 0.266087 0.322999
O O11 0.750000 0.500000 0.891795
O O12 0.771877 0.715630 0.936400
O O13 0.962916 0.881143 0.059232
O O14 0.114816 0.746755 0.011947
O O15 0.865336 0.752507 0.001468
O O16 0.000000 0.000000 0.000000
O O17 0.250000 0.500000 0.577797
O O18 0.750000 0.500000 0.983194
O O19 0.923251 0.250000 0.250000
#
# Coordination Sequence:
#
# PCOD9409664 Si02
#       8
#     8   8   8   8   8   8   8   8
#     4  10  20  35  58  87 120 162 202 251 306 364
#     4  10  21  36  60  82 123 149 208 247 308 355
#     4  10  21  35  60  84 120 153 203 245 309 353
#     4  11  22  40  61  86 118 164 206 251 306 376
#     4  12  23  40  65  93 123 163 215 265 315 384
#     4  10  21  36  60  88 120 153 201 254 310 363
#     4  11  24  42  64  91 127 167 210 264 329 384
#     4  10  20  35  57  88 122 158 202 248 307 364
#
# _framework density 17.985634999999998
#
# number of rings (size 3 to 8) (size 9 to 14) (size 15 to 20)
#    0.750    0.750    1.250    4.875    0.000    2.000 
#    0.000    0.625    2.750    0.000    0.000    0.000 
#    0.000    0.000    0.000    0.000    0.000    0.000 
#
# Total GULP energy -356661.901916 kJ/mol
# GULP energy per Si atom -5572.842217 kJ/mol
# Density = 1.794470 g / cm^3
# Si number density = 17.985635 Si / 1000 Ang^3
#
#
#
# Elastic Constant Matrix: (Units=GPa)
#
#
# Indices 1 2 3 4 5 6 
#
# 1 95.2970 50.5423 48.5966 0.0000 0.0000 0.0000
# 2 50.5423 90.1758 59.2407 0.0000 0.0000 0.0000
# 3 48.5966 59.2407 122.2788 0.0000 0.0000 0.0000
# 4 0.0000 0.0000 0.0000 36.0409 0.0000 0.0000
# 5 0.0000 0.0000 0.0000 0.0000 31.1701 0.0000
# 6 0.0000 0.0000 0.0000 0.0000 0.0000 32.8394
#
#
#
# Elastic Compliance Matrix: (Units=1/GPa)
#
#
# Indices 1 2 3 4 5 6 
#
# 1 0.015594 -0.006849 -0.002880 0.000000 0.000000 0.000000
# 2 -0.006849 0.019274 -0.006616 0.000000 0.000000 0.000000
# 3 -0.002880 -0.006616 0.012528 0.000000 0.000000 0.000000
# 4 0.000000 0.000000 0.000000 0.027746 0.000000 0.000000
# 5 0.000000 0.000000 0.000000 0.000000 0.032082 0.000000
# 6 0.000000 0.000000 0.000000 0.000000 0.000000 0.030451
#
#
# Mechanical properties :
#
#
# Convention : Reuss Voigt Hill
#
# Bulk Modulus (GPa) = 67.99106 69.39011 68.69058
# Shear Modulus (GPa) = 28.52787 29.96821 29.24804
#
# Velocity S-wave (km/s) = 3.98697 4.08638 4.03698
# Velocity P-wave (km/s) = 7.68633 7.80572 7.74625
#
# Compressibility (1/GPa) = 0.01470782
#
# Stress axis : x y z
#
# Youngs Moduli (GPa) = 64.12636 51.88215 79.82268
#
# Poissons Ratio (x) = 0.35532 0.22985
# Poissons Ratio (y) = 0.43918 0.52812
# Poissons Ratio (z) = 0.18466 0.34326
#
# Static dielectric constant tensor:
#      x y z
#    x 1.619670 0.000000 0.000000 
#    y 0.000000 1.620940 0.000000 
#    z 0.000000 0.000000 1.671190 
# 
# From -- ./inp_files/44847.got.cif
#   From: 2010.05.17/outbox.cif.g08.bks.cpg/sg52_23_cif.got.tgz:44847.got - 2010.06.03 12:15:38.
