data_PCOD9409040
_publ_section_title
;
Structure prediction by ZEFSAII (Michael W. Deem and Ramdas Pophale) SiO2 
 PCOD9409040
Probable space group: P N N A
;
_chemical_formula_sum "Si O2"
_cell_formula_units_Z 64
_cell_length_a 13.005065
_cell_length_b 24.719693
_cell_length_c 8.920037
_cell_angle_alpha 90.000000
_cell_angle_beta 90.000000
_cell_angle_gamma 90.000000
_cell_volume 2867.624326
_symmetry_space_group_name_H-M "P N N A"
_symmetry_group_IT_number 52
_symmetry_cell_setting 'orthorhombic'
loop_
_space_group_symop_operation_xyz
x,y,z
1/2-x,-y,z
x,1/2-y,1/2-z
1/2-x,1/2+y,1/2-z
-x,-y,-z
1/2+x,y,-z
-x,1/2+y,1/2+z
1/2+x,1/2-y,1/2+z
loop_
_atom_site_type_symbol
_atom_site_label
_atom_site_fract_x
_atom_site_fract_y
_atom_site_fract_z
Si Si1 0.214764 0.629856 0.350423
Si Si2 0.133226 0.909619 0.855227
Si Si3 0.200568 0.320199 0.084031
Si Si4 0.844242 0.620302 0.203327
Si Si5 0.966319 0.974305 0.190735
Si Si6 0.651022 0.031602 0.891221
Si Si7 0.501033 0.806371 0.204944
Si Si8 0.349366 0.792734 0.947634
O O1 0.132960 0.601459 0.463018
O O2 0.205683 0.664361 0.197149
O O3 0.300901 0.584069 0.316282
O O4 0.267671 0.670202 0.466536
O O5 0.248826 0.905427 0.793702
O O6 0.091265 0.967587 0.801876
O O7 0.069270 0.859621 0.787409
O O8 0.099743 0.312412 0.189327
O O9 0.186708 0.367394 0.965185
O O10 0.199088 0.266033 0.982174
O O11 0.933293 0.575546 0.207922
O O12 0.867108 0.677154 0.289608
O O13 0.084119 0.992162 0.211340
O O14 0.928034 0.954505 0.024652
O O15 0.750000 0.000000 0.953428
O O16 0.555214 0.750000 0.250000
O O17 0.455953 0.797956 0.038522
#
# Coordination Sequence:
#
# PCOD9409040 Si02
#       8
#     8   8   8   8   8   8   8   8
#     4  10  19  35  59  90 116 152 209 257 311 369
#     4  11  21  37  64  88 122 163 220 254 312 384
#     4  10  21  39  59  86 129 161 208 268 322 368
#     4  11  22  37  61  93 123 169 212 256 322 381
#     4  11  21  36  63  90 126 156 210 264 303 369
#     4  11  20  36  61  94 119 154 208 259 304 367
#     4   9  20  38  59  86 121 166 210 262 314 370
#     4   9  18  36  61  84 113 167 216 248 307 376
#
# _framework density 22.318127
#
# number of rings (size 3 to 8) (size 9 to 14) (size 15 to 20)
#    0.000    1.750    3.750    3.375    1.750    2.000 
#    0.000    6.250    0.000    6.000    0.000    0.000 
#    0.000    0.000    0.000    0.000    0.000    0.000 
#
# Total GULP energy -356580.310087 kJ/mol
# GULP energy per Si atom -5571.567345 kJ/mol
# Density = 2.226733 g / cm^3
# Si number density = 22.318127 Si / 1000 Ang^3
#
#
#
# Elastic Constant Matrix: (Units=GPa)
#
#
# Indices 1 2 3 4 5 6 
#
# 1 57.2122 18.4423 1.3865 0.0000 0.0000 0.0000
# 2 18.4423 117.7537 30.9993 0.0000 0.0000 0.0000
# 3 1.3865 30.9993 80.2707 0.0000 0.0000 0.0000
# 4 0.0000 0.0000 0.0000 17.1051 0.0000 0.0000
# 5 0.0000 0.0000 0.0000 0.0000 7.5905 0.0000
# 6 0.0000 0.0000 0.0000 0.0000 0.0000 31.0404
#
#
#
# Elastic Compliance Matrix: (Units=1/GPa)
#
#
# Indices 1 2 3 4 5 6 
#
# 1 0.018465 -0.003126 0.000888 0.000000 0.000000 0.000000
# 2 -0.003126 0.009983 -0.003801 0.000000 0.000000 0.000000
# 3 0.000888 -0.003801 0.013910 0.000000 0.000000 0.000000
# 4 0.000000 0.000000 0.000000 0.058462 0.000000 0.000000
# 5 0.000000 0.000000 0.000000 0.000000 0.131744 0.000000
# 6 0.000000 0.000000 0.000000 0.000000 0.000000 0.032216
#
#
# Mechanical properties :
#
#
# Convention : Reuss Voigt Hill
#
# Bulk Modulus (GPa) = 33.02461 39.65475 36.33968
# Shear Modulus (GPa) = 17.42457 24.77442 21.09949
#
# Velocity S-wave (km/s) = 2.79720 3.33537 3.07807
# Velocity P-wave (km/s) = 5.02611 5.71309 5.38058
#
# Compressibility (1/GPa) = 0.03028045
#
# Stress axis : x y z
#
# Youngs Moduli (GPa) = 54.15700 100.17522 71.88849
#
# Poissons Ratio (x) = 0.31312 -0.06385
# Poissons Ratio (y) = 0.16928 0.27326
# Poissons Ratio (z) = -0.04810 0.38078
#
# Static dielectric constant tensor:
#      x y z
#    x 1.882560 0.000000 0.000000 
#    y 0.000000 1.909460 0.000000 
#    z 0.000000 0.000000 1.826360 
# 
# From -- ./inp_files/10996.got.cif
#   From: 2010.05.17/outbox.cif.g08.bks.cpg/sg52_6_cif.got.tgz:10996.got - 2010.06.03 12:15:38.
