data_PCOD9409703
_publ_section_title
;
Structure prediction by ZEFSAII (Michael W. Deem and Ramdas Pophale) SiO2 
 PCOD9409703
Probable space group: P N N A
;
_chemical_formula_sum "Si O2"
_cell_formula_units_Z 36
_cell_length_a 21.035589
_cell_length_b 7.757055
_cell_length_c 10.475823
_cell_angle_alpha 90.000000
_cell_angle_beta 90.000000
_cell_angle_gamma 90.000000
_cell_volume 1709.384256
_symmetry_space_group_name_H-M "P N N A"
_symmetry_group_IT_number 52
_symmetry_cell_setting 'orthorhombic'
loop_
_space_group_symop_operation_xyz
x,y,z
1/2-x,-y,z
x,1/2-y,1/2-z
1/2-x,1/2+y,1/2-z
-x,-y,-z
1/2+x,y,-z
-x,1/2+y,1/2+z
1/2+x,1/2-y,1/2+z
loop_
_atom_site_type_symbol
_atom_site_label
_atom_site_fract_x
_atom_site_fract_y
_atom_site_fract_z
Si Si1 0.406917 0.118043 0.579439
Si Si2 0.880207 0.462801 0.579291
Si Si3 0.750000 0.500000 0.455825
Si Si4 0.463887 0.781798 0.494819
Si Si5 0.952243 0.250000 0.750000
Si Si6 0.694058 0.750000 0.250000
O O1 0.383826 0.280728 0.496181
O O2 0.480701 0.169087 0.606118
O O3 0.356112 0.110233 0.692969
O O4 0.413850 0.936450 0.508957
O O5 0.810445 0.530116 0.547020
O O6 0.930084 0.602569 0.529453
O O7 0.905340 0.409251 0.718510
O O8 0.735236 0.659353 0.359820
O O9 0.501826 0.773103 0.629150
#
# Coordination Sequence:
#
# PCOD9409703 Si02
#       6
#     8   8   4   8   4   4
#     4   9  20  36  54  91 124 144 201 263 311 375
#     4  10  22  41  58  88 124 167 203 258 306 379
#     4  10  24  40  60  88 126 170 214 250 304 386
#     4  10  21  35  61  92 119 156 198 261 327 379
#     4  10  20  35  66  83 122 160 198 262 320 362
#     4  10  22  35  62  87 122 164 210 266 318 366
#
# _framework density 21.060214999999999
#
# number of rings (size 3 to 8) (size 9 to 14) (size 15 to 20)
#    0.000    2.222    0.000    2.667   12.444    0.000 
#    0.000    0.000   14.667    0.000    0.000    0.000 
#    0.000    0.000    0.000    0.000    0.000    0.000 
#
# Total GULP energy -200566.784673 kJ/mol
# GULP energy per Si atom -5571.299574 kJ/mol
# Density = 2.101228 g / cm^3
# Si number density = 21.060215 Si / 1000 Ang^3
#
#
#
# Elastic Constant Matrix: (Units=GPa)
#
#
# Indices 1 2 3 4 5 6 
#
# 1 126.1572 51.2034 50.2183 0.0000 0.0000 0.0000
# 2 51.2034 86.0730 45.2485 0.0000 0.0000 0.0000
# 3 50.2183 45.2485 75.5861 0.0000 0.0000 0.0000
# 4 0.0000 0.0000 0.0000 25.8283 0.0000 0.0000
# 5 0.0000 0.0000 0.0000 0.0000 19.7328 0.0000
# 6 0.0000 0.0000 0.0000 0.0000 0.0000 15.4558
#
#
#
# Elastic Compliance Matrix: (Units=1/GPa)
#
#
# Indices 1 2 3 4 5 6 
#
# 1 0.011735 -0.004206 -0.005279 0.000000 0.000000 0.000000
# 2 -0.004206 0.018461 -0.008257 0.000000 0.000000 0.000000
# 3 -0.005279 -0.008257 0.021680 0.000000 0.000000 0.000000
# 4 0.000000 0.000000 0.000000 0.038717 0.000000 0.000000
# 5 0.000000 0.000000 0.000000 0.000000 0.050677 0.000000
# 6 0.000000 0.000000 0.000000 0.000000 0.000000 0.064701
#
#
# Mechanical properties :
#
#
# Convention : Reuss Voigt Hill
#
# Bulk Modulus (GPa) = 61.00336 64.57295 62.78816
# Shear Modulus (GPa) = 20.24968 21.61313 20.93141
#
# Velocity S-wave (km/s) = 3.10419 3.20700 3.15601
# Velocity P-wave (km/s) = 6.47125 6.66639 6.56954
#
# Compressibility (1/GPa) = 0.01639254
#
# Stress axis : x y z
#
# Youngs Moduli (GPa) = 85.21578 54.16917 46.12566
#
# Poissons Ratio (x) = 0.22783 0.24348
# Poissons Ratio (y) = 0.35841 0.38085
# Poissons Ratio (z) = 0.44983 0.44727
#
# Static dielectric constant tensor:
#      x y z
#    x 1.788390 0.000000 0.000000 
#    y 0.000000 1.790450 0.000000 
#    z 0.000000 0.000000 1.877760 
# 
# From -- ./inp_files/21408.got.cif
#   From: 2010.05.17/outbox.cif.g08.bks.cpg/sg52_11_cif.got.tgz:21408.got - 2010.06.03 12:15:38.
