data_PCOD9409729
_publ_section_title
;
Structure prediction by ZEFSAII (Michael W. Deem and Ramdas Pophale) SiO2 
 PCOD9409729
Probable space group: P N N A
;
_chemical_formula_sum "Si O2"
_cell_formula_units_Z 48
_cell_length_a 7.474111
_cell_length_b 18.566861
_cell_length_c 14.554412
_cell_angle_alpha 90.000000
_cell_angle_beta 90.000000
_cell_angle_gamma 90.000000
_cell_volume 2019.727106
_symmetry_space_group_name_H-M "P N N A"
_symmetry_group_IT_number 52
_symmetry_cell_setting 'orthorhombic'
loop_
_space_group_symop_operation_xyz
x,y,z
1/2-x,-y,z
x,1/2-y,1/2-z
1/2-x,1/2+y,1/2-z
-x,-y,-z
1/2+x,y,-z
-x,1/2+y,1/2+z
1/2+x,1/2-y,1/2+z
loop_
_atom_site_type_symbol
_atom_site_label
_atom_site_fract_x
_atom_site_fract_y
_atom_site_fract_z
Si Si1 0.612838 0.746209 0.022164
Si Si2 0.492834 0.897538 0.399644
Si Si3 0.926321 0.403467 0.419763
Si Si4 0.452691 0.711033 0.848015
Si Si5 0.750000 0.000000 0.925316
Si Si6 0.239172 0.414601 0.758994
Si Si7 0.750000 0.000000 0.521111
O O1 0.496341 0.676664 0.048124
O O2 0.527645 0.822605 0.049896
O O3 0.785204 0.736406 0.088313
O O4 0.619266 0.735236 0.911542
O O5 0.575766 0.884791 0.301162
O O6 0.308840 0.937107 0.410222
O O7 0.619549 0.955482 0.453257
O O8 0.855190 0.444185 0.509668
O O9 0.759551 0.400761 0.348828
O O10 0.092444 0.451234 0.380255
O O11 0.453868 0.750000 0.750000
O O12 0.411428 0.627720 0.817616
O O13 0.250000 0.500000 0.770579
#
# Coordination Sequence:
#
# PCOD9409729 Si02
#       7
#     8   8   8   8   4   8   4
#     4  11  23  41  68  97 136 178 228 287 342 418
#     4  10  21  36  60  90 126 169 219 267 343 394
#     4  11  22  42  66  94 134 177 228 289 346 410
#     4  11  24  44  70 100 132 186 230 281 356 411
#     4  10  24  38  64  96 124 178 224 284 358 392
#     4  11  22  39  65  96 127 173 229 280 339 414
#     4  10  20  36  56  88 124 170 210 272 330 398
#
# _framework density 23.765588999999999
#
# number of rings (size 3 to 8) (size 9 to 14) (size 15 to 20)
#    0.000    1.333    3.333    3.000    2.333    0.667 
#    0.000    0.833   11.000    0.000    0.000    0.000 
#    0.000    0.000    0.000    0.000    0.000    0.000 
#
# Total GULP energy -267570.764789 kJ/mol
# GULP energy per Si atom -5574.390933 kJ/mol
# Density = 2.371150 g / cm^3
# Si number density = 23.765589 Si / 1000 Ang^3
#
#
#
# Elastic Constant Matrix: (Units=GPa)
#
#
# Indices 1 2 3 4 5 6 
#
# 1 43.5244 11.5323 28.4952 0.0000 0.0000 0.0000
# 2 11.5323 178.7269 33.9453 0.0000 0.0000 0.0000
# 3 28.4952 33.9453 82.1168 0.0000 0.0000 0.0000
# 4 0.0000 0.0000 0.0000 34.1917 0.0000 0.0000
# 5 0.0000 0.0000 0.0000 0.0000 29.1445 0.0000
# 6 0.0000 0.0000 0.0000 0.0000 0.0000 25.0340
#
#
#
# Elastic Compliance Matrix: (Units=1/GPa)
#
#
# Indices 1 2 3 4 5 6 
#
# 1 0.029730 0.000045 -0.010335 0.000000 0.000000 0.000000
# 2 0.000045 0.006072 -0.002525 0.000000 0.000000 0.000000
# 3 -0.010335 -0.002525 0.016808 0.000000 0.000000 0.000000
# 4 0.000000 0.000000 0.000000 0.029247 0.000000 0.000000
# 5 0.000000 0.000000 0.000000 0.000000 0.034312 0.000000
# 6 0.000000 0.000000 0.000000 0.000000 0.000000 0.039946
#
#
# Mechanical properties :
#
#
# Convention : Reuss Voigt Hill
#
# Bulk Modulus (GPa) = 37.06686 50.25708 43.66197
# Shear Modulus (GPa) = 26.21383 33.03373 29.62378
#
# Velocity S-wave (km/s) = 3.32477 3.73229 3.53441
# Velocity P-wave (km/s) = 5.51086 6.30605 5.92181
#
# Compressibility (1/GPa) = 0.02697827
#
# Stress axis : x y z
#
# Youngs Moduli (GPa) = 33.63597 164.69290 59.49513
#
# Poissons Ratio (x) = -0.00734 0.61488
# Poissons Ratio (y) = -0.00150 0.15025
# Poissons Ratio (z) = 0.34763 0.41593
#
# Static dielectric constant tensor:
#      x y z
#    x 2.120660 0.000000 0.000000 
#    y 0.000000 1.904850 0.000000 
#    z 0.000000 0.000000 1.991560 
# 
# From -- ./inp_files/24778.got.cif
#   From: 2010.05.17/outbox.cif.g08.bks.cpg/sg52_13_cif.got.tgz:24778.got - 2010.06.03 12:15:38.
