data_PCOD9409648
_publ_section_title
;
Structure prediction by ZEFSAII (Michael W. Deem and Ramdas Pophale) SiO2 
 PCOD9409648
Probable space group: P N N A
;
_chemical_formula_sum "Si O2"
_cell_formula_units_Z 64
_cell_length_a 9.350306
_cell_length_b 13.044288
_cell_length_c 26.467179
_cell_angle_alpha 90.000000
_cell_angle_beta 90.000000
_cell_angle_gamma 90.000000
_cell_volume 3228.151121
_symmetry_space_group_name_H-M "P N N A"
_symmetry_group_IT_number 52
_symmetry_cell_setting 'orthorhombic'
loop_
_space_group_symop_operation_xyz
x,y,z
1/2-x,-y,z
x,1/2-y,1/2-z
1/2-x,1/2+y,1/2-z
-x,-y,-z
1/2+x,y,-z
-x,1/2+y,1/2+z
1/2+x,1/2-y,1/2+z
loop_
_atom_site_type_symbol
_atom_site_label
_atom_site_fract_x
_atom_site_fract_y
_atom_site_fract_z
Si Si1 0.057124 0.712094 0.356563
Si Si2 0.426390 0.117818 0.943688
Si Si3 0.788526 0.881276 0.797559
Si Si4 0.174239 0.158731 0.785723
Si Si5 0.125736 0.940278 0.700421
Si Si6 0.864784 0.416783 0.803959
Si Si7 0.912444 0.622808 0.451045
Si Si8 0.449244 0.223611 0.839944
O O1 0.215891 0.675880 0.344585
O O2 0.065635 0.830823 0.339643
O O3 0.964311 0.637031 0.319195
O O4 0.993112 0.694760 0.411249
O O5 0.257916 0.139317 0.952660
O O6 0.477548 0.185272 0.896416
O O7 0.437006 0.995420 0.933268
O O8 0.518150 0.135641 0.993952
O O9 0.719644 0.862685 0.742196
O O10 0.949554 0.840183 0.801684
O O11 0.750000 0.000000 0.805087
O O12 0.121529 0.250000 0.750000
O O13 0.278264 0.098708 0.747543
O O14 0.285653 0.194648 0.828064
O O15 0.051338 0.844525 0.672511
O O16 0.250000 0.000000 0.669021
O O17 0.999524 0.017229 0.715948
O O18 0.750000 0.500000 0.825327
#
# Coordination Sequence:
#
# PCOD9409648 Si02
#       8
#     8   8   8   8   8   8   8   8
#     4  12  22  39  62  89 119 168 207 253 303 377
#     4  10  22  43  63  94 119 151 196 263 322 388
#     4  11  23  36  57  88 125 167 206 256 300 366
#     4  10  20  35  56  86 119 155 204 249 296 359
#     4  11  23  37  60  89 128 171 207 259 306 368
#     4  11  23  40  56  87 132 174 213 251 300 364
#     4  10  23  40  67  90 121 151 198 257 329 378
#     4  11  22  40  62  88 124 163 212 250 314 372
#
# _framework density 19.825589000000001
#
# number of rings (size 3 to 8) (size 9 to 14) (size 15 to 20)
#    0.000    1.250    1.250    6.375    1.750    4.000 
#    0.000    0.000    0.000    1.500    0.000    0.000 
#    0.000    0.000    0.000    0.000    0.000    0.000 
#
# Total GULP energy -356858.696170 kJ/mol
# GULP energy per Si atom -5575.917128 kJ/mol
# Density = 1.978046 g / cm^3
# Si number density = 19.825589 Si / 1000 Ang^3
#
#
#
# Elastic Constant Matrix: (Units=GPa)
#
#
# Indices 1 2 3 4 5 6 
#
# 1 98.7926 25.7872 32.6981 0.0000 0.0000 0.0000
# 2 25.7872 101.2695 51.6486 0.0000 0.0000 0.0000
# 3 32.6981 51.6486 106.3064 0.0000 0.0000 0.0000
# 4 0.0000 0.0000 0.0000 17.1222 0.0000 0.0000
# 5 0.0000 0.0000 0.0000 0.0000 18.3000 0.0000
# 6 0.0000 0.0000 0.0000 0.0000 0.0000 32.4144
#
#
#
# Elastic Compliance Matrix: (Units=1/GPa)
#
#
# Indices 1 2 3 4 5 6 
#
# 1 0.011435 -0.001486 -0.002795 0.000000 0.000000 0.000000
# 2 -0.001486 0.013321 -0.006015 0.000000 0.000000 0.000000
# 3 -0.002795 -0.006015 0.013189 0.000000 0.000000 0.000000
# 4 0.000000 0.000000 0.000000 0.058404 0.000000 0.000000
# 5 0.000000 0.000000 0.000000 0.000000 0.054645 0.000000
# 6 0.000000 0.000000 0.000000 0.000000 0.000000 0.030851
#
#
# Mechanical properties :
#
#
# Convention : Reuss Voigt Hill
#
# Bulk Modulus (GPa) = 57.62882 58.51513 58.07197
# Shear Modulus (GPa) = 24.01304 26.64961 25.33133
#
# Velocity S-wave (km/s) = 3.48403 3.67031 3.57838
# Velocity P-wave (km/s) = 6.73169 6.89497 6.81382
#
# Compressibility (1/GPa) = 0.01735243
#
# Stress axis : x y z
#
# Youngs Moduli (GPa) = 87.44831 75.07145 75.82235
#
# Poissons Ratio (x) = 0.11158 0.21194
# Poissons Ratio (y) = 0.12997 0.45604
# Poissons Ratio (z) = 0.24444 0.45153
#
# Static dielectric constant tensor:
#      x y z
#    x 1.725060 0.000000 0.000000 
#    y 0.000000 1.820030 0.000000 
#    z 0.000000 0.000000 1.702980 
# 
# From -- ./inp_files/39701.got.cif
#   From: 2010.05.17/outbox.cif.g08.bks.cpg/sg52_20_cif.got.tgz:39701.got - 2010.06.03 12:15:38.
