data_PCOD9409697
_publ_section_title
;
Structure prediction by ZEFSAII (Michael W. Deem and Ramdas Pophale) SiO2 
 PCOD9409697
Probable space group: P N N A
;
_chemical_formula_sum "Si O2"
_cell_formula_units_Z 64
_cell_length_a 22.612192
_cell_length_b 12.532136
_cell_length_c 12.317958
_cell_angle_alpha 90.000000
_cell_angle_beta 90.000000
_cell_angle_gamma 90.000000
_cell_volume 3490.651426
_symmetry_space_group_name_H-M "P N N A"
_symmetry_group_IT_number 52
_symmetry_cell_setting 'orthorhombic'
loop_
_space_group_symop_operation_xyz
x,y,z
1/2-x,-y,z
x,1/2-y,1/2-z
1/2-x,1/2+y,1/2-z
-x,-y,-z
1/2+x,y,-z
-x,1/2+y,1/2+z
1/2+x,1/2-y,1/2+z
loop_
_atom_site_type_symbol
_atom_site_label
_atom_site_fract_x
_atom_site_fract_y
_atom_site_fract_z
Si Si1 0.376766 0.870220 0.740883
Si Si2 0.003606 0.358328 0.192134
Si Si3 0.817372 0.536417 0.030034
Si Si4 0.413331 0.591057 0.515163
Si Si5 0.949816 0.360252 0.556430
Si Si6 0.081715 0.870368 0.493603
Si Si7 0.490173 0.086998 0.279793
Si Si8 0.134132 0.219224 0.371465
O O1 0.354415 0.750000 0.750000
O O2 0.337891 0.930111 0.651651
O O3 0.385525 0.911242 0.863855
O O4 0.444544 0.868850 0.697575
O O5 0.983173 0.250000 0.250000
O O6 0.005230 0.464834 0.264384
O O7 0.069245 0.332735 0.149593
O O8 0.959112 0.390828 0.097665
O O9 0.750000 0.500000 0.026998
O O10 0.858450 0.435829 0.000028
O O11 0.830790 0.634025 0.945907
O O12 0.481173 0.635729 0.518787
O O13 0.418658 0.470423 0.474121
O O14 0.377271 0.672182 0.439041
O O15 0.915717 0.257565 0.513252
O O16 0.957027 0.351135 0.685368
O O17 0.046542 0.910760 0.388812
O O18 0.157078 0.250000 0.250000
#
# Coordination Sequence:
#
# PCOD9409697 Si02
#       8
#     8   8   8   8   8   8   8   8
#     4  11  21  38  64  91 126 164 206 260 317 385
#     4  11  21  32  58  96 130 160 197 253 330 400
#     4  12  27  46  65  89 121 176 236 276 304 354
#     4  10  20  35  62  98 135 165 200 241 321 405
#     4  10  21  33  56  99 139 163 187 247 325 410
#     4  12  22  37  58  90 129 165 210 262 321 377
#     4  11  20  35  58  95 130 164 198 250 330 407
#     4  11  21  40  69  95 127 168 210 262 325 387
#
# _framework density 18.334686000000001
#
# number of rings (size 3 to 8) (size 9 to 14) (size 15 to 20)
#    0.000    1.000    5.000    4.500    3.500    0.000 
#    0.000    3.125    0.000    0.000    0.000    0.000 
#    0.000    0.000    0.000    0.000    0.000    0.000 
#
# Total GULP energy -357393.018056 kJ/mol
# GULP energy per Si atom -5584.265907 kJ/mol
# Density = 1.829296 g / cm^3
# Si number density = 18.334686 Si / 1000 Ang^3
#
#
#
# Elastic Constant Matrix: (Units=GPa)
#
#
# Indices 1 2 3 4 5 6 
#
# 1 83.6282 43.0165 54.1250 0.0000 0.0000 0.0000
# 2 43.0165 146.5651 49.7122 0.0000 0.0000 0.0000
# 3 54.1250 49.7122 119.0228 0.0000 0.0000 0.0000
# 4 0.0000 0.0000 0.0000 34.7022 0.0000 0.0000
# 5 0.0000 0.0000 0.0000 0.0000 9.6010 0.0000
# 6 0.0000 0.0000 0.0000 0.0000 0.0000 17.8518
#
#
#
# Elastic Compliance Matrix: (Units=1/GPa)
#
#
# Indices 1 2 3 4 5 6 
#
# 1 0.017952 -0.002913 -0.006947 0.000000 0.000000 0.000000
# 2 -0.002913 0.008422 -0.002193 0.000000 0.000000 0.000000
# 3 -0.006947 -0.002193 0.012477 0.000000 0.000000 0.000000
# 4 0.000000 0.000000 0.000000 0.028817 0.000000 0.000000
# 5 0.000000 0.000000 0.000000 0.000000 0.104156 0.000000
# 6 0.000000 0.000000 0.000000 0.000000 0.000000 0.056017
#
#
# Mechanical properties :
#
#
# Convention : Reuss Voigt Hill
#
# Bulk Modulus (GPa) = 67.81863 71.43593 69.62728
# Shear Modulus (GPa) = 19.46584 25.92182 22.69383
#
# Velocity S-wave (km/s) = 3.26190 3.76415 3.52199
# Velocity P-wave (km/s) = 7.15934 7.61174 7.38900
#
# Compressibility (1/GPa) = 0.01474521
#
# Stress axis : x y z
#
# Youngs Moduli (GPa) = 55.70378 118.74303 80.14841
#
# Poissons Ratio (x) = 0.34585 0.55680
# Poissons Ratio (y) = 0.16224 0.17576
# Poissons Ratio (z) = 0.38698 0.26040
#
# Static dielectric constant tensor:
#      x y z
#    x 1.578330 0.000000 0.000000 
#    y 0.000000 1.693900 0.000000 
#    z 0.000000 0.000000 1.685110 
# 
# From -- ./inp_files/22486.got.cif
#   From: 2010.05.17/outbox.cif.g08.bks.cpg/sg52_12_cif.got.tgz:22486.got - 2010.06.03 12:15:38.
