data_PCOD9409404
_publ_section_title
;
Structure prediction by ZEFSAII (Michael W. Deem and Ramdas Pophale) SiO2 
 PCOD9409404
Probable space group: P N N A
;
_chemical_formula_sum "Si O2"
_cell_formula_units_Z 48
_cell_length_a 23.939405
_cell_length_b 4.900301
_cell_length_c 24.541360
_cell_angle_alpha 90.000000
_cell_angle_beta 90.000000
_cell_angle_gamma 90.000000
_cell_volume 2878.954065
_symmetry_space_group_name_H-M "P N N A"
_symmetry_group_IT_number 52
_symmetry_cell_setting 'orthorhombic'
loop_
_space_group_symop_operation_xyz
x,y,z
1/2-x,-y,z
x,1/2-y,1/2-z
1/2-x,1/2+y,1/2-z
-x,-y,-z
1/2+x,y,-z
-x,1/2+y,1/2+z
1/2+x,1/2-y,1/2+z
loop_
_atom_site_type_symbol
_atom_site_label
_atom_site_fract_x
_atom_site_fract_y
_atom_site_fract_z
Si Si1 0.501476 0.840706 0.621601
Si Si2 0.313978 0.587194 0.867531
Si Si3 0.143437 0.901709 0.804113
Si Si4 0.487418 0.130661 0.806710
Si Si5 0.057896 0.656363 0.484833
Si Si6 0.398529 0.811295 0.545817
O O1 0.515241 0.642024 0.671357
O O2 0.546342 0.789820 0.573884
O O3 0.442605 0.742067 0.594520
O O4 0.493517 0.141572 0.645921
O O5 0.250000 0.500000 0.868444
O O6 0.349233 0.321814 0.850949
O O7 0.338854 0.675933 0.925425
O O8 0.325920 0.824965 0.823358
O O9 0.165921 0.750000 0.750000
O O10 0.077612 0.947673 0.796077
O O11 0.509033 0.250000 0.750000
O O12 0.100533 0.412849 0.498057
O O13 0.000000 0.500000 0.500000
O O14 0.076246 0.906091 0.523118
#
# Coordination Sequence:
#
# PCOD9409404 Si02
#       6
#     8   8   8   8   8   8
#     4  11  18  32  49  70  96 119 158 197 239 292
#     4  12  24  37  53  70  91 127 166 215 267 298
#     4  11  22  38  52  66  90 126 169 218 262 293
#     4  11  20  31  49  70  95 128 158 197 248 288
#     4  10  20  30  51  73  92 120 151 196 254 289
#     4  11  19  34  48  70  97 118 156 208 245 298
#
# _framework density 16.672720000000002
#
# number of rings (size 3 to 8) (size 9 to 14) (size 15 to 20)
#    0.000    1.000    3.333    7.500    0.000    4.000 
#    0.000    0.000    0.000    0.000    0.000    0.000 
#    0.000    0.000    0.000    0.000    0.000   46.667 
#
# Total GULP energy -267797.966753 kJ/mol
# GULP energy per Si atom -5579.124307 kJ/mol
# Density = 1.663477 g / cm^3
# Si number density = 16.672720 Si / 1000 Ang^3
#
#
#
# Elastic Constant Matrix: (Units=GPa)
#
#
# Indices 1 2 3 4 5 6 
#
# 1 27.7835 16.7180 31.8678 0.0000 0.0000 0.0000
# 2 16.7180 94.2300 25.9829 0.0000 0.0000 0.0000
# 3 31.8678 25.9829 61.5191 0.0000 0.0000 0.0000
# 4 0.0000 0.0000 0.0000 38.9577 0.0000 0.0000
# 5 0.0000 0.0000 0.0000 0.0000 14.7190 0.0000
# 6 0.0000 0.0000 0.0000 0.0000 0.0000 18.1628
#
#
#
# Elastic Compliance Matrix: (Units=1/GPa)
#
#
# Indices 1 2 3 4 5 6 
#
# 1 0.089703 -0.003511 -0.044985 0.000000 0.000000 0.000000
# 2 -0.003511 0.012149 -0.003312 0.000000 0.000000 0.000000
# 3 -0.044985 -0.003312 0.040957 0.000000 0.000000 0.000000
# 4 0.000000 0.000000 0.000000 0.025669 0.000000 0.000000
# 5 0.000000 0.000000 0.000000 0.000000 0.067940 0.000000
# 6 0.000000 0.000000 0.000000 0.000000 0.000000 0.055058
#
#
# Mechanical properties :
#
#
# Convention : Reuss Voigt Hill
#
# Bulk Modulus (GPa) = 25.51499 36.96334 31.23916
# Shear Modulus (GPa) = 12.25028 21.63214 16.94121
#
# Velocity S-wave (km/s) = 2.71357 3.60593 3.19110
# Velocity P-wave (km/s) = 5.01543 6.28928 5.68813
#
# Compressibility (1/GPa) = 0.03919265
#
# Stress axis : x y z
#
# Youngs Moduli (GPa) = 11.14792 82.31430 24.41595
#
# Poissons Ratio (x) = 0.28899 1.09834
# Poissons Ratio (y) = 0.03914 0.08087
# Poissons Ratio (z) = 0.50148 0.27265
#
# Static dielectric constant tensor:
#      x y z
#    x 1.554650 0.000000 0.000000 
#    y 0.000000 1.622960 0.000000 
#    z 0.000000 0.000000 1.641080 
# 
# From -- ./inp_files/38089.got.cif
#   From: 2010.05.17/outbox.cif.g08.bks.cpg/sg52_20_cif.got.tgz:38089.got - 2010.06.03 12:15:38.
