data_PCOD9409870
_publ_section_title
;
Structure prediction by ZEFSAII (Michael W. Deem and Ramdas Pophale) SiO2 
 PCOD9409870
Probable space group: P N N A
;
_chemical_formula_sum "Si O2"
_cell_formula_units_Z 56
_cell_length_a 32.538869
_cell_length_b 5.207606
_cell_length_c 16.825661
_cell_angle_alpha 90.000000
_cell_angle_beta 90.000000
_cell_angle_gamma 90.000000
_cell_volume 2851.101685
_symmetry_space_group_name_H-M "P N N A"
_symmetry_group_IT_number 52
_symmetry_cell_setting 'orthorhombic'
loop_
_space_group_symop_operation_xyz
x,y,z
1/2-x,-y,z
x,1/2-y,1/2-z
1/2-x,1/2+y,1/2-z
-x,-y,-z
1/2+x,y,-z
-x,1/2+y,1/2+z
1/2+x,1/2-y,1/2+z
loop_
_atom_site_type_symbol
_atom_site_label
_atom_site_fract_x
_atom_site_fract_y
_atom_site_fract_z
Si Si1 0.708724 0.158672 0.840523
Si Si2 0.222876 0.263081 0.990635
Si Si3 0.482634 0.201608 0.563538
Si Si4 0.435065 0.915459 0.054390
Si Si5 0.869276 0.694531 0.427398
Si Si6 0.098100 0.679216 0.842342
Si Si7 0.377949 0.494012 0.305205
O O1 0.707417 0.250000 0.750000
O O2 0.666301 0.008420 0.847859
O O3 0.750000 0.000000 0.844725
O O4 0.711658 0.338163 0.917450
O O5 0.250000 0.500000 0.957923
O O6 0.178501 0.210241 0.951508
O O7 0.250000 0.000000 0.987775
O O8 0.458075 0.408540 0.510186
O O9 0.526053 0.288958 0.598842
O O10 0.448775 0.127411 0.628052
O O11 0.500000 0.000000 0.500000
O O12 0.410053 0.043902 0.124510
O O13 0.400908 0.760627 0.002407
O O14 0.881877 0.418116 0.390929
O O15 0.878146 0.919874 0.364751
O O16 0.098820 0.750000 0.750000
O O17 0.383945 0.750000 0.250000
O O18 0.378276 0.250000 0.250000
#
# Coordination Sequence:
#
# PCOD9409870 Si02
#       7
#     8   8   8   8   8   8   8
#     4  10  20  37  57  88 129 169 213 258 312 362
#     4  11  23  39  65  98 126 167 219 264 317 380
#     4  10  21  40  66  92 127 167 207 265 325 379
#     4  10  22  41  60  92 126 170 217 257 322 377
#     4  11  22  43  68  93 131 168 209 271 314 389
#     4  11  24  42  69  98 127 166 216 261 325 390
#     4  11  25  39  58  88 127 174 215 257 310 369
#
# _framework density 19.641531000000001
#
# number of rings (size 3 to 8) (size 9 to 14) (size 15 to 20)
#    0.000    1.429    2.857    2.143    2.000    4.000 
#    0.000    0.000    0.000    8.571    0.000    0.000 
#    0.000    0.000    0.000    0.000    0.000    0.000 
#
# Total GULP energy -311931.851194 kJ/mol
# GULP energy per Si atom -5570.211628 kJ/mol
# Density = 1.959683 g / cm^3
# Si number density = 19.641531 Si / 1000 Ang^3
#
#
#
# Elastic Constant Matrix: (Units=GPa)
#
#
# Indices 1 2 3 4 5 6 
#
# 1 181.6025 32.8434 41.4002 0.0000 0.0000 0.0000
# 2 32.8434 74.3144 0.5414 0.0000 0.0000 0.0000
# 3 41.4002 0.5414 38.8055 0.0000 0.0000 0.0000
# 4 0.0000 0.0000 0.0000 119.3962 0.0000 0.0000
# 5 0.0000 0.0000 0.0000 0.0000 30.0487 0.0000
# 6 0.0000 0.0000 0.0000 0.0000 0.0000 31.8059
#
#
#
# Elastic Compliance Matrix: (Units=1/GPa)
#
#
# Indices 1 2 3 4 5 6 
#
# 1 0.008102 -0.003518 -0.008595 0.000000 0.000000 0.000000
# 2 -0.003518 0.014985 0.003544 0.000000 0.000000 0.000000
# 3 -0.008595 0.003544 0.034890 0.000000 0.000000 0.000000
# 4 0.000000 0.000000 0.000000 0.008375 0.000000 0.000000
# 5 0.000000 0.000000 0.000000 0.000000 0.033279 0.000000
# 6 0.000000 0.000000 0.000000 0.000000 0.000000 0.031441
#
#
# Mechanical properties :
#
#
# Convention : Reuss Voigt Hill
#
# Bulk Modulus (GPa) = 24.48589 49.36583 36.92586
# Shear Modulus (GPa) = 30.89790 50.91266 40.90528
#
# Velocity S-wave (km/s) = 3.97052 5.09678 4.56849
# Velocity P-wave (km/s) = 5.78909 7.73461 6.83146
#
# Compressibility (1/GPa) = 0.04083985
#
# Stress axis : x y z
#
# Youngs Moduli (GPa) = 123.42353 66.73169 28.66180
#
# Poissons Ratio (x) = 0.23477 0.24634
# Poissons Ratio (y) = 0.43422 -0.10159
# Poissons Ratio (z) = 1.06081 -0.23652
#
# Static dielectric constant tensor:
#      x y z
#    x 1.771830 0.000000 0.000000 
#    y 0.000000 1.687500 0.000000 
#    z 0.000000 0.000000 1.697250 
# 
# From -- ./inp_files/29695.got.cif
#   From: 2010.05.17/outbox.cif.g08.bks.cpg/sg52_15_cif.got.tgz:29695.got - 2010.06.03 12:15:38.
