data_PCOD9409784
_publ_section_title
;
Structure prediction by ZEFSAII (Michael W. Deem and Ramdas Pophale) SiO2 
 PCOD9409784
Probable space group: P N N A
;
_chemical_formula_sum "Si O2"
_cell_formula_units_Z 56
_cell_length_a 19.710119
_cell_length_b 9.284928
_cell_length_c 13.357282
_cell_angle_alpha 90.000000
_cell_angle_beta 90.000000
_cell_angle_gamma 90.000000
_cell_volume 2444.476585
_symmetry_space_group_name_H-M "P N N A"
_symmetry_group_IT_number 52
_symmetry_cell_setting 'orthorhombic'
loop_
_space_group_symop_operation_xyz
x,y,z
1/2-x,-y,z
x,1/2-y,1/2-z
1/2-x,1/2+y,1/2-z
-x,-y,-z
1/2+x,y,-z
-x,1/2+y,1/2+z
1/2+x,1/2-y,1/2+z
loop_
_atom_site_type_symbol
_atom_site_label
_atom_site_fract_x
_atom_site_fract_y
_atom_site_fract_z
Si Si1 0.488256 0.671467 0.986673
Si Si2 0.722894 0.841380 0.477859
Si Si3 0.610502 0.833540 0.647080
Si Si4 0.591417 0.415065 0.726542
Si Si5 0.030823 0.927846 0.893239
Si Si6 0.185695 0.568064 0.640382
Si Si7 0.653435 0.332105 0.526187
O O1 0.535253 0.706059 0.890867
O O2 0.500000 0.500000 0.000000
O O3 0.520772 0.760152 0.078812
O O4 0.411961 0.740325 0.984861
O O5 0.659307 0.822600 0.552080
O O6 0.705609 0.731903 0.387271
O O7 0.785768 0.776590 0.539322
O O8 0.750000 0.000000 0.449758
O O9 0.627820 0.750000 0.750000
O O10 0.616131 0.999335 0.679229
O O11 0.582951 0.250000 0.750000
O O12 0.520726 0.478988 0.690577
O O13 0.636529 0.415510 0.627632
O O14 0.104703 0.938310 0.841860
O O15 0.000000 0.000000 0.000000
O O16 0.250000 0.500000 0.700491
O O17 0.180426 0.455693 0.547114
#
# Coordination Sequence:
#
# PCOD9409784 Si02
#       7
#     8   8   8   8   8   8   8
#     4  11  21  37  59  86 118 158 209 261 298 351
#     4  11  22  37  55  88 121 159 201 248 307 355
#     4  12  24  36  58  91 127 160 198 249 315 376
#     4  11  22  36  55  87 120 157 194 241 312 360
#     4  11  19  38  63  82 112 160 207 252 286 362
#     4  10  20  36  60  87 106 152 207 253 284 352
#     4  10  22  39  59  79 123 163 210 238 292 371
#
# _framework density 22.908788999999999
#
# number of rings (size 3 to 8) (size 9 to 14) (size 15 to 20)
#    0.000    1.143    4.286    5.143    0.000    1.714 
#    0.000    0.000    0.000    0.000    7.429    0.000 
#    0.000    0.000    0.000    0.000    0.000    0.000 
#
# Total GULP energy -311778.269667 kJ/mol
# GULP energy per Si atom -5567.469101 kJ/mol
# Density = 2.285665 g / cm^3
# Si number density = 22.908789 Si / 1000 Ang^3
#
#
#
# Elastic Constant Matrix: (Units=GPa)
#
#
# Indices 1 2 3 4 5 6 
#
# 1 101.0288 2.2770 -9.6985 0.0000 0.0000 0.0000
# 2 2.2770 110.4256 3.0170 0.0000 0.0000 0.0000
# 3 -9.6985 3.0170 18.5363 0.0000 0.0000 0.0000
# 4 0.0000 0.0000 0.0000 14.3367 0.0000 0.0000
# 5 0.0000 0.0000 0.0000 0.0000 9.2285 0.0000
# 6 0.0000 0.0000 0.0000 0.0000 0.0000 -35.8185
#
#
#
# Elastic Compliance Matrix: (Units=1/GPa)
#
#
# Indices 1 2 3 4 5 6 
#
# 1 0.010436 -0.000366 0.005520 0.000000 0.000000 0.000000
# 2 -0.000366 0.009109 -0.001674 0.000000 0.000000 0.000000
# 3 0.005520 -0.001674 0.057109 0.000000 0.000000 0.000000
# 4 0.000000 0.000000 0.000000 0.069751 0.000000 0.000000
# 5 0.000000 0.000000 0.000000 0.000000 0.108360 0.000000
# 6 0.000000 0.000000 0.000000 0.000000 0.000000 -0.027919
#
#
# Mechanical properties :
#
#
# Convention : Reuss Voigt Hill
#
# Bulk Modulus (GPa) = 11.95973 24.57576 18.26774
# Shear Modulus (GPa) = 20.18096 13.17569 16.67832
#
# Velocity S-wave (km/s) = 2.97126 2.40080 2.70113
# Velocity P-wave (km/s) = 4.12348 4.29373 4.20946
#
# Compressibility (1/GPa) = 0.08361396
#
# Stress axis : x y z
#
# Youngs Moduli (GPa) = 95.81917 109.77966 17.51046
#
# Poissons Ratio (x) = 0.04018 -0.09666
# Poissons Ratio (y) = 0.03507 0.02932
# Poissons Ratio (z) = -0.52893 0.18379
#
# Static dielectric constant tensor:
#      x y z
#    x 2.532890 0.000000 0.000000 
#    y 0.000000 1.964390 0.000000 
#    z 0.000000 0.000000 1.808250 
# 
# From -- ./inp_files/28754.got.cif
#   From: 2010.05.17/outbox.cif.g08.bks.cpg/sg52_15_cif.got.tgz:28754.got - 2010.06.03 12:15:38.
