data_PCOD9409071
_publ_section_title
;
Structure prediction by ZEFSAII (Michael W. Deem and Ramdas Pophale) SiO2 
 PCOD9409071
Probable space group: P N N A
;
_chemical_formula_sum "Si O2"
_cell_formula_units_Z 40
_cell_length_a 10.700625
_cell_length_b 13.052119
_cell_length_c 13.684000
_cell_angle_alpha 90.000000
_cell_angle_beta 90.000000
_cell_angle_gamma 90.000000
_cell_volume 1911.187230
_symmetry_space_group_name_H-M "P N N A"
_symmetry_group_IT_number 52
_symmetry_cell_setting 'orthorhombic'
loop_
_space_group_symop_operation_xyz
x,y,z
1/2-x,-y,z
x,1/2-y,1/2-z
1/2-x,1/2+y,1/2-z
-x,-y,-z
1/2+x,y,-z
-x,1/2+y,1/2+z
1/2+x,1/2-y,1/2+z
loop_
_atom_site_type_symbol
_atom_site_label
_atom_site_fract_x
_atom_site_fract_y
_atom_site_fract_z
Si Si1 0.366654 0.448503 0.388794
Si Si2 0.977366 0.247079 0.366668
Si Si3 0.231599 0.769468 0.366290
Si Si4 0.872837 0.067033 0.493348
Si Si5 0.884069 0.024510 0.107913
O O1 0.250000 0.500000 0.333685
O O2 0.336789 0.331178 0.406454
O O3 0.501177 0.465744 0.342197
O O4 0.374964 0.507633 0.493184
O O5 0.977061 0.250000 0.250000
O O6 0.899386 0.154756 0.412960
O O7 0.920485 0.357015 0.393034
O O8 0.122738 0.233316 0.397545
O O9 0.227217 0.750000 0.250000
O O10 0.163342 0.869958 0.407583
O O11 0.750000 0.000000 0.470069
O O12 0.000000 0.000000 0.500000
O O13 0.750000 0.000000 0.152466
#
# Coordination Sequence:
#
# PCOD9409071 Si02
#       5
#     8   8   8   8   8
#     4  10  19  35  63  92 120 162 208 266 329 397
#     4  11  24  43  68  99 137 181 232 286 346 423
#     4  11  24  42  70 101 133 180 238 284 336 429
#     4  12  26  46  72 101 144 192 235 288 360 426
#     4  10  21  35  62  94 126 159 205 272 344 393
#
# _framework density 20.929399
#
# number of rings (size 3 to 8) (size 9 to 14) (size 15 to 20)
#    0.000    1.200    6.000    0.000    0.000    4.800 
#    0.000    2.000    0.000    0.000    0.000    0.000 
#    0.000    0.000    0.000    0.000    0.000    0.000 
#
# Total GULP energy -223156.390566 kJ/mol
# GULP energy per Si atom -5578.909764 kJ/mol
# Density = 2.088176 g / cm^3
# Si number density = 20.929399 Si / 1000 Ang^3
#
#
#
# Elastic Constant Matrix: (Units=GPa)
#
#
# Indices 1 2 3 4 5 6 
#
# 1 225.1093 88.7738 33.5156 0.0000 0.0000 0.0000
# 2 88.7738 138.5644 28.3541 0.0000 0.0000 0.0000
# 3 33.5156 28.3541 43.6777 0.0000 0.0000 0.0000
# 4 0.0000 0.0000 0.0000 2.0849 0.0000 0.0000
# 5 0.0000 0.0000 0.0000 0.0000 15.7891 0.0000
# 6 0.0000 0.0000 0.0000 0.0000 0.0000 49.6874
#
#
#
# Elastic Compliance Matrix: (Units=1/GPa)
#
#
# Indices 1 2 3 4 5 6 
#
# 1 0.006172 -0.003443 -0.002501 0.000000 0.000000 0.000000
# 2 -0.003443 0.010242 -0.004007 0.000000 0.000000 0.000000
# 3 -0.002501 -0.004007 0.027416 0.000000 0.000000 0.000000
# 4 0.000000 0.000000 0.000000 0.479630 0.000000 0.000000
# 5 0.000000 0.000000 0.000000 0.000000 0.063335 0.000000
# 6 0.000000 0.000000 0.000000 0.000000 0.000000 0.020126
#
#
# Mechanical properties :
#
#
# Convention : Reuss Voigt Hill
#
# Bulk Modulus (GPa) = 41.79240 78.73760 60.26500
# Shear Modulus (GPa) = 7.87650 30.62615 19.25132
#
# Velocity S-wave (km/s) = 1.94204 3.82947 3.03615
# Velocity P-wave (km/s) = 5.00403 7.56673 6.41466
#
# Compressibility (1/GPa) = 0.02392780
#
# Stress axis : x y z
#
# Youngs Moduli (GPa) = 162.01375 97.63325 36.47508
#
# Poissons Ratio (x) = 0.33611 0.09124
# Poissons Ratio (y) = 0.55774 0.14617
# Poissons Ratio (z) = 0.40528 0.39126
#
# Static dielectric constant tensor:
#      x y z
#    x 1.851230 0.000000 0.000000 
#    y 0.000000 1.757770 0.000000 
#    z 0.000000 0.000000 1.470060 
# 
# From -- ./inp_files/24437.got.cif
#   From: 2010.05.17/outbox.cif.g08.bks.cpg/sg52_13_cif.got.tgz:24437.got - 2010.06.03 12:15:38.
