data_PCOD9409437
_publ_section_title
;
Structure prediction by ZEFSAII (Michael W. Deem and Ramdas Pophale) SiO2 
 PCOD9409437
Probable space group: P N N A
;
_chemical_formula_sum "Si O2"
_cell_formula_units_Z 32
_cell_length_a 9.098559
_cell_length_b 14.255836
_cell_length_c 11.109433
_cell_angle_alpha 90.000000
_cell_angle_beta 90.000000
_cell_angle_gamma 90.000000
_cell_volume 1440.977502
_symmetry_space_group_name_H-M "P N N A"
_symmetry_group_IT_number 52
_symmetry_cell_setting 'orthorhombic'
loop_
_space_group_symop_operation_xyz
x,y,z
1/2-x,-y,z
x,1/2-y,1/2-z
1/2-x,1/2+y,1/2-z
-x,-y,-z
1/2+x,y,-z
-x,1/2+y,1/2+z
1/2+x,1/2-y,1/2+z
loop_
_atom_site_type_symbol
_atom_site_label
_atom_site_fract_x
_atom_site_fract_y
_atom_site_fract_z
Si Si1 0.234596 0.334988 0.373706
Si Si2 0.493120 0.250000 0.250000
Si Si3 0.239079 0.788849 0.587699
Si Si4 0.429780 0.381328 0.725473
Si Si5 0.750000 0.500000 0.435901
O O1 0.388092 0.329836 0.304524
O O2 0.237875 0.237182 0.449133
O O3 0.218991 0.414419 0.474899
O O4 0.099357 0.354970 0.285568
O O5 0.601125 0.210004 0.351586
O O6 0.152348 0.699582 0.646062
O O7 0.142117 0.873528 0.642083
O O8 0.384242 0.474409 0.653056
#
# Coordination Sequence:
#
# PCOD9409437 Si02
#       5
#     8   4   8   8   4
#     4  11  20  34  56  82 110 142 178 223 270 317
#     4  10  20  32  52  80 110 142 182 220 260 322
#     4   9  19  34  49  76 110 142 178 219 266 317
#     4   9  18  32  52  77 105 139 174 214 267 319
#     4  10  20  32  54  84 110 136 178 232 272 310
#
# _framework density 22.207148
#
# number of rings (size 3 to 8) (size 9 to 14) (size 15 to 20)
#    0.000    2.500    0.000    5.250    0.000    4.000 
#    0.000    0.000    0.000    1.500    0.000   43.750 
#    0.000    0.000    0.000    0.000    0.000    0.000 
#
# Total GULP energy -178351.231230 kJ/mol
# GULP energy per Si atom -5573.475976 kJ/mol
# Density = 2.215660 g / cm^3
# Si number density = 22.207148 Si / 1000 Ang^3
#
#
#
# Elastic Constant Matrix: (Units=GPa)
#
#
# Indices 1 2 3 4 5 6 
#
# 1 146.6147 12.7780 36.3623 0.0000 0.0000 0.0000
# 2 12.7780 43.5214 30.1422 0.0000 0.0000 0.0000
# 3 36.3623 30.1422 68.2350 0.0000 0.0000 0.0000
# 4 0.0000 0.0000 0.0000 20.7502 0.0000 0.0000
# 5 0.0000 0.0000 0.0000 0.0000 19.7754 0.0000
# 6 0.0000 0.0000 0.0000 0.0000 0.0000 17.5153
#
#
#
# Elastic Compliance Matrix: (Units=1/GPa)
#
#
# Indices 1 2 3 4 5 6 
#
# 1 0.007881 0.000857 -0.004579 0.000000 0.000000 0.000000
# 2 0.000857 0.033199 -0.015122 0.000000 0.000000 0.000000
# 3 -0.004579 -0.015122 0.023775 0.000000 0.000000 0.000000
# 4 0.000000 0.000000 0.000000 0.048192 0.000000 0.000000
# 5 0.000000 0.000000 0.000000 0.000000 0.050568 0.000000
# 6 0.000000 0.000000 0.000000 0.000000 0.000000 0.057093
#
#
# Mechanical properties :
#
#
# Convention : Reuss Voigt Hill
#
# Bulk Modulus (GPa) = 36.80756 46.32624 41.56690
# Shear Modulus (GPa) = 18.69493 23.54739 21.12116
#
# Velocity S-wave (km/s) = 2.90460 3.25984 3.08733
# Velocity P-wave (km/s) = 5.27822 5.92241 5.60957
#
# Compressibility (1/GPa) = 0.02716833
#
# Stress axis : x y z
#
# Youngs Moduli (GPa) = 126.88018 30.12153 42.06070
#
# Poissons Ratio (x) = -0.02582 0.19258
# Poissons Ratio (y) = -0.10874 0.63604
# Poissons Ratio (z) = 0.58093 0.45550
#
# Static dielectric constant tensor:
#      x y z
#    x 1.825460 0.000000 0.000000 
#    y 0.000000 1.954290 0.000000 
#    z 0.000000 0.000000 1.889580 
# 
# From -- ./inp_files/16525.got.cif
#   From: 2010.05.17/outbox.cif.g08.bks.cpg/sg52_9_cif.got.tgz:16525.got - 2010.06.03 12:15:38.
