data_PCOD9409888
_publ_section_title
;
Structure prediction by ZEFSAII (Michael W. Deem and Ramdas Pophale) SiO2 
 PCOD9409888
Probable space group: P N N A
;
_chemical_formula_sum "Si O2"
_cell_formula_units_Z 48
_cell_length_a 8.804921
_cell_length_b 14.820553
_cell_length_c 18.428282
_cell_angle_alpha 90.000000
_cell_angle_beta 90.000000
_cell_angle_gamma 90.000000
_cell_volume 2404.776515
_symmetry_space_group_name_H-M "P N N A"
_symmetry_group_IT_number 52
_symmetry_cell_setting 'orthorhombic'
loop_
_space_group_symop_operation_xyz
x,y,z
1/2-x,-y,z
x,1/2-y,1/2-z
1/2-x,1/2+y,1/2-z
-x,-y,-z
1/2+x,y,-z
-x,1/2+y,1/2+z
1/2+x,1/2-y,1/2+z
loop_
_atom_site_type_symbol
_atom_site_label
_atom_site_fract_x
_atom_site_fract_y
_atom_site_fract_z
Si Si1 0.312676 0.280998 0.074862
Si Si2 0.347099 0.146344 0.274289
Si Si3 0.318697 0.401724 0.632785
Si Si4 0.175612 0.274469 0.926552
Si Si5 0.320451 0.594086 0.368663
Si Si6 0.810372 0.902187 0.291035
O O1 0.282341 0.344294 0.144652
O O2 0.493902 0.271150 0.069303
O O3 0.243744 0.182454 0.091521
O O4 0.242808 0.315308 0.000127
O O5 0.380669 0.250000 0.250000
O O6 0.234650 0.105917 0.214893
O O7 0.508788 0.096390 0.275053
O O8 0.250000 0.500000 0.617212
O O9 0.245750 0.324638 0.583505
O O10 0.499044 0.405908 0.625762
O O11 0.272128 0.378524 0.715744
O O12 0.216183 0.331805 0.855260
O O13 0.250000 0.500000 0.395883
O O14 0.750000 0.000000 0.312932
#
# Coordination Sequence:
#
# PCOD9409888 Si02
#       6
#     8   8   8   8   8   8
#     4  10  22  38  57  81 114 152 191 230 284 338
#     4   9  19  38  58  80 114 151 187 235 286 336
#     4  11  22  36  59  88 115 148 190 232 283 340
#     4  11  22  39  58  81 117 154 189 236 283 337
#     4  11  21  36  59  86 114 145 187 236 284 340
#     4  10  20  37  59  84 113 150 192 235 283 333
#
# _framework density 19.960273999999998
#
# number of rings (size 3 to 8) (size 9 to 14) (size 15 to 20)
#    0.000    1.667    0.000    7.500    0.000    6.000 
#    0.000    7.500    0.000    0.000    0.000    0.000 
#    0.000    0.000    0.000    0.000    0.000    0.000 
#
# Total GULP energy -268371.224809 kJ/mol
# GULP energy per Si atom -5591.067184 kJ/mol
# Density = 1.991484 g / cm^3
# Si number density = 19.960274 Si / 1000 Ang^3
#
#
#
# Elastic Constant Matrix: (Units=GPa)
#
#
# Indices 1 2 3 4 5 6 
#
# 1 79.3838 23.3989 7.8002 0.0000 0.0000 0.0000
# 2 23.3989 42.2027 -3.9923 0.0000 0.0000 0.0000
# 3 7.8002 -3.9923 62.0270 0.0000 0.0000 0.0000
# 4 0.0000 0.0000 0.0000 10.3471 0.0000 0.0000
# 5 0.0000 0.0000 0.0000 0.0000 32.8200 0.0000
# 6 0.0000 0.0000 0.0000 0.0000 0.0000 35.4956
#
#
#
# Elastic Compliance Matrix: (Units=1/GPa)
#
#
# Indices 1 2 3 4 5 6 
#
# 1 0.015436 -0.008795 -0.002507 0.000000 0.000000 0.000000
# 2 -0.008795 0.028852 0.002963 0.000000 0.000000 0.000000
# 3 -0.002507 0.002963 0.016628 0.000000 0.000000 0.000000
# 4 0.000000 0.000000 0.000000 0.096646 0.000000 0.000000
# 5 0.000000 0.000000 0.000000 0.000000 0.030469 0.000000
# 6 0.000000 0.000000 0.000000 0.000000 0.000000 0.028173
#
#
# Mechanical properties :
#
#
# Convention : Reuss Voigt Hill
#
# Bulk Modulus (GPa) = 22.60564 26.44744 24.52654
# Shear Modulus (GPa) = 20.19157 26.15965 23.17561
#
# Velocity S-wave (km/s) = 3.18400 3.62413 3.41117
# Velocity P-wave (km/s) = 4.98668 5.54898 5.27533
#
# Compressibility (1/GPa) = 0.04423675
#
# Stress axis : x y z
#
# Youngs Moduli (GPa) = 64.78398 34.65957 60.13945
#
# Poissons Ratio (x) = 0.30485 0.15078
# Poissons Ratio (y) = 0.56981 -0.17820
# Poissons Ratio (z) = 0.16243 -0.10270
#
# Static dielectric constant tensor:
#      x y z
#    x 1.659710 0.000000 0.000000 
#    y 0.000000 1.703510 0.000000 
#    z 0.000000 0.000000 1.729890 
# 
# From -- ./inp_files/31248.got.cif
#   From: 2010.05.17/outbox.cif.g08.bks.cpg/sg52_16_cif.got.tgz:31248.got - 2010.06.03 12:15:38.
