data_PCOD9409358
_publ_section_title
;
Structure prediction by ZEFSAII (Michael W. Deem and Ramdas Pophale) SiO2 
 PCOD9409358
Probable space group: P N N A
;
_chemical_formula_sum "Si O2"
_cell_formula_units_Z 60
_cell_length_a 13.205475
_cell_length_b 8.324808
_cell_length_c 24.978167
_cell_angle_alpha 90.000000
_cell_angle_beta 90.000000
_cell_angle_gamma 90.000000
_cell_volume 2745.925930
_symmetry_space_group_name_H-M "P N N A"
_symmetry_group_IT_number 52
_symmetry_cell_setting 'orthorhombic'
loop_
_space_group_symop_operation_xyz
x,y,z
1/2-x,-y,z
x,1/2-y,1/2-z
1/2-x,1/2+y,1/2-z
-x,-y,-z
1/2+x,y,-z
-x,1/2+y,1/2+z
1/2+x,1/2-y,1/2+z
loop_
_atom_site_type_symbol
_atom_site_label
_atom_site_fract_x
_atom_site_fract_y
_atom_site_fract_z
Si Si1 0.145197 0.750423 0.424246
Si Si2 0.361303 0.066367 0.661887
Si Si3 0.010512 0.535428 0.937326
Si Si4 0.858986 0.057034 0.144995
Si Si5 0.250000 0.000000 0.365373
Si Si6 0.065902 0.600200 0.324937
Si Si7 0.427791 0.030765 0.287979
Si Si8 0.932500 0.373287 0.467804
O O1 0.242302 0.844823 0.403749
O O2 0.118915 0.606794 0.383058
O O3 0.139013 0.701318 0.485873
O O4 0.063535 0.895874 0.415806
O O5 0.391102 0.013643 0.600662
O O6 0.364978 0.258359 0.662098
O O7 0.250000 0.000000 0.675775
O O8 0.456441 0.015158 0.698563
O O9 0.001739 0.730253 0.939753
O O10 0.000000 0.500000 0.000000
O O11 0.870993 0.049560 0.080560
O O12 0.750000 0.000000 0.162607
O O13 0.950051 0.949755 0.166735
O O14 0.156634 0.042410 0.326457
O O15 0.077541 0.781231 0.303687
O O16 0.100847 0.497859 0.273766
O O17 0.000000 0.500000 0.500000
#
# Coordination Sequence:
#
# PCOD9409358 Si02
#       8
#     8   8   8   8   4   8   8   8
#     4  10  19  40  66  93 127 174 214 275 325 404
#     4  11  22  40  63  93 129 168 217 267 325 405
#     4   9  19  36  60  92 120 166 212 255 316 388
#     4  11  24  39  60  93 131 172 214 275 339 402
#     4  10  20  40  68  94 132 162 232 268 324 396
#     4  10  20  40  66  87 126 164 215 276 342 385
#     4  10  22  41  69  96 120 172 221 277 329 402
#     4  10  20  38  62  91 129 169 214 272 332 395
#
# _framework density 21.850553000000001
#
# number of rings (size 3 to 8) (size 9 to 14) (size 15 to 20)
#    0.000    1.867    4.000    0.800    0.000    1.067 
#   13.200    5.333    1.467    0.000    0.000    0.000 
#    0.000    0.000    0.000    0.000    0.000    0.000 
#
# Total GULP energy -334057.769326 kJ/mol
# GULP energy per Si atom -5567.629489 kJ/mol
# Density = 2.180082 g / cm^3
# Si number density = 21.850553 Si / 1000 Ang^3
#
#
#
# Elastic Constant Matrix: (Units=GPa)
#
#
# Indices 1 2 3 4 5 6 
#
# 1 36.8875 -2.0642 -0.1756 0.0000 0.0000 0.0000
# 2 -2.0642 21.2741 -7.4216 0.0000 0.0000 0.0000
# 3 -0.1756 -7.4216 97.7581 0.0000 0.0000 0.0000
# 4 0.0000 0.0000 0.0000 -4.7612 0.0000 0.0000
# 5 0.0000 0.0000 0.0000 0.0000 41.9860 0.0000
# 6 0.0000 0.0000 0.0000 0.0000 0.0000 32.1938
#
#
#
# Elastic Compliance Matrix: (Units=1/GPa)
#
#
# Indices 1 2 3 4 5 6 
#
# 1 0.027264 0.002735 0.000257 0.000000 0.000000 0.000000
# 2 0.002735 0.048559 0.003691 0.000000 0.000000 0.000000
# 3 0.000257 0.003691 0.010510 0.000000 0.000000 0.000000
# 4 0.000000 0.000000 0.000000 -0.210033 0.000000 0.000000
# 5 0.000000 0.000000 0.000000 0.000000 0.023817 0.000000
# 6 0.000000 0.000000 0.000000 0.000000 0.000000 0.031062
#
#
# Mechanical properties :
#
#
# Convention : Reuss Voigt Hill
#
# Bulk Modulus (GPa) = 10.03028 15.17744 12.60386
# Shear Modulus (GPa) = -102.13589 24.92247 -38.60671
#
# Velocity S-wave (km/s) = -6.84430 3.38092 -4.20795
# Velocity P-wave (km/s) = 7.60650 4.71189 4.22237
#
# Compressibility (1/GPa) = 0.09969814
#
# Stress axis : x y z
#
# Youngs Moduli (GPa) = 36.67883 20.59361 95.14712
#
# Poissons Ratio (x) = -0.05632 -0.02441
# Poissons Ratio (y) = -0.10031 -0.35123
# Poissons Ratio (z) = -0.00941 -0.07602
#
# Static dielectric constant tensor:
#      x y z
#    x 2.043290 0.000000 0.000000 
#    y 0.000000 1.827450 0.000000 
#    z 0.000000 0.000000 1.803300 
# 
# From -- ./inp_files/44820.got.cif
#   From: 2010.05.17/outbox.cif.g08.bks.cpg/sg52_23_cif.got.tgz:44820.got - 2010.06.03 12:15:38.
