data_PCOD9409841
_publ_section_title
;
Structure prediction by ZEFSAII (Michael W. Deem and Ramdas Pophale) SiO2 
 PCOD9409841
Probable space group: P N N A
;
_chemical_formula_sum "Si O2"
_cell_formula_units_Z 48
_cell_length_a 9.470955
_cell_length_b 8.634287
_cell_length_c 28.921675
_cell_angle_alpha 90.000000
_cell_angle_beta 90.000000
_cell_angle_gamma 90.000000
_cell_volume 2365.068343
_symmetry_space_group_name_H-M "P N N A"
_symmetry_group_IT_number 52
_symmetry_cell_setting 'orthorhombic'
loop_
_space_group_symop_operation_xyz
x,y,z
1/2-x,-y,z
x,1/2-y,1/2-z
1/2-x,1/2+y,1/2-z
-x,-y,-z
1/2+x,y,-z
-x,1/2+y,1/2+z
1/2+x,1/2-y,1/2+z
loop_
_atom_site_type_symbol
_atom_site_label
_atom_site_fract_x
_atom_site_fract_y
_atom_site_fract_z
Si Si1 0.260013 0.687864 0.649724
Si Si2 0.039848 0.819297 0.198357
Si Si3 0.171885 0.332413 0.459612
Si Si4 0.827538 0.168470 0.049306
Si Si5 0.717248 0.320208 0.862657
Si Si6 0.499597 0.812442 0.201808
O O1 0.250000 0.500000 0.647238
O O2 0.415049 0.737218 0.664435
O O3 0.206644 0.742397 0.599384
O O4 0.162796 0.725776 0.693563
O O5 0.033306 0.750000 0.250000
O O6 0.179427 0.772127 0.171436
O O7 0.027073 0.004758 0.200622
O O8 0.250000 0.500000 0.454666
O O9 0.241921 0.260098 0.505946
O O10 0.218778 0.236618 0.414999
O O11 0.998286 0.344344 0.459649
O O12 0.750000 0.000000 0.051613
O O13 0.750000 0.500000 0.859196
O O14 0.568370 0.273711 0.841371
O O15 0.444458 0.750000 0.250000
#
# Coordination Sequence:
#
# PCOD9409841 Si02
#       6
#     8   8   8   8   8   8
#     4   9  20  36  62  94 126 157 204 255 307 373
#     4  11  23  40  64  94 123 165 208 256 315 369
#     4  11  22  38  68  97 125 164 208 262 314 368
#     4  10  20  36  65 101 127 156 209 257 311 373
#     4  12  26  42  60  88 127 168 214 255 307 371
#     4  11  21  40  66  90 125 160 204 260 311 372
#
# _framework density 20.295399
#
# number of rings (size 3 to 8) (size 9 to 14) (size 15 to 20)
#    0.000    1.333    1.667    5.500    7.000    0.000 
#    0.000    3.333    0.000    0.000    0.000    0.000 
#    0.000    0.000    0.000    0.000    0.000    0.000 
#
# Total GULP energy -267565.770549 kJ/mol
# GULP energy per Si atom -5574.286886 kJ/mol
# Density = 2.024921 g / cm^3
# Si number density = 20.295399 Si / 1000 Ang^3
#
#
#
# Elastic Constant Matrix: (Units=GPa)
#
#
# Indices 1 2 3 4 5 6 
#
# 1 92.2629 -2.9154 34.2076 0.0000 0.0000 0.0000
# 2 -2.9154 45.6845 23.4728 0.0000 0.0000 0.0000
# 3 34.2076 23.4728 168.4935 0.0000 0.0000 0.0000
# 4 0.0000 0.0000 0.0000 -79.1350 0.0000 0.0000
# 5 0.0000 0.0000 0.0000 0.0000 64.6281 0.0000
# 6 0.0000 0.0000 0.0000 0.0000 0.0000 -0.6392
#
#
#
# Elastic Compliance Matrix: (Units=1/GPa)
#
#
# Indices 1 2 3 4 5 6 
#
# 1 0.011915 0.002158 -0.002720 0.000000 0.000000 0.000000
# 2 0.002158 0.023968 -0.003777 0.000000 0.000000 0.000000
# 3 -0.002720 -0.003777 0.007013 0.000000 0.000000 0.000000
# 4 0.000000 0.000000 0.000000 -0.012637 0.000000 0.000000
# 5 0.000000 0.000000 0.000000 0.000000 0.015473 0.000000
# 6 0.000000 0.000000 0.000000 0.000000 0.000000 -1.564451
#
#
# Mechanical properties :
#
#
# Convention : Reuss Voigt Hill
#
# Bulk Modulus (GPa) = 29.22423 46.21898 37.72160
# Shear Modulus (GPa) = -3.33637 13.74918 5.20641
#
# Velocity S-wave (km/s) = -1.28354 2.60562 1.60340
# Velocity P-wave (km/s) = 3.49772 5.64578 4.69622
#
# Compressibility (1/GPa) = 0.03421818
#
# Stress axis : x y z
#
# Youngs Moduli (GPa) = 83.92719 41.72306 142.58727
#
# Poissons Ratio (x) = -0.09003 0.38778
# Poissons Ratio (y) = -0.18109 0.53855
# Poissons Ratio (z) = 0.22825 0.15759
#
# Static dielectric constant tensor:
#      x y z
#    x 1.752110 0.000000 0.000000 
#    y 0.000000 1.718660 0.000000 
#    z 0.000000 0.000000 1.727450 
# 
# From -- ./inp_files/44402.got.cif
#   From: 2010.05.17/outbox.cif.g08.bks.cpg/sg52_23_cif.got.tgz:44402.got - 2010.06.03 12:15:38.
