data_PCOD9409647
_publ_section_title
;
Structure prediction by ZEFSAII (Michael W. Deem and Ramdas Pophale) SiO2 
 PCOD9409647
Probable space group: P N N A
;
_chemical_formula_sum "Si O2"
_cell_formula_units_Z 44
_cell_length_a 16.647561
_cell_length_b 7.025749
_cell_length_c 22.199700
_cell_angle_alpha 90.000000
_cell_angle_beta 90.000000
_cell_angle_gamma 90.000000
_cell_volume 2596.512100
_symmetry_space_group_name_H-M "P N N A"
_symmetry_group_IT_number 52
_symmetry_cell_setting 'orthorhombic'
loop_
_space_group_symop_operation_xyz
x,y,z
1/2-x,-y,z
x,1/2-y,1/2-z
1/2-x,1/2+y,1/2-z
-x,-y,-z
1/2+x,y,-z
-x,1/2+y,1/2+z
1/2+x,1/2-y,1/2+z
loop_
_atom_site_type_symbol
_atom_site_label
_atom_site_fract_x
_atom_site_fract_y
_atom_site_fract_z
Si Si1 0.844539 0.032792 0.042891
Si Si2 0.528750 0.750000 0.750000
Si Si3 0.657629 0.438813 0.712133
Si Si4 0.049484 0.226223 0.878448
Si Si5 0.419679 0.932664 0.083557
Si Si6 0.545501 0.890190 0.445511
O O1 0.879221 0.249540 0.041083
O O2 0.750000 0.000000 0.043997
O O3 0.882418 0.920667 0.099802
O O4 0.877761 0.939119 0.981167
O O5 0.591087 0.577746 0.740610
O O6 0.472987 0.753955 0.808788
O O7 0.750000 0.500000 0.718366
O O8 0.648577 0.250000 0.750000
O O9 0.637462 0.418015 0.641274
O O10 0.068446 0.435444 0.902717
O O11 0.970675 0.128106 0.909102
O O12 0.480744 0.755223 0.083121
O O13 0.500000 0.000000 0.500000
#
# Coordination Sequence:
#
# PCOD9409647 Si02
#       6
#     8   4   8   8   8   8
#     4  11  22  36  56  87 120 144 185 252 299 322
#     4  10  22  38  62  80 112 156 194 230 280 346
#     4  11  21  36  53  82 121 154 187 228 278 337
#     4  10  20  38  60  82 111 153 195 230 278 351
#     4  10  20  35  56  83 115 151 187 232 286 340
#     4  11  18  36  61  83 109 151 196 228 279 357
#
# _framework density 16.945810000000002
#
# number of rings (size 3 to 8) (size 9 to 14) (size 15 to 20)
#    0.000    1.455    4.545    2.727    0.000    0.727 
#    0.000    0.000    4.000    0.000    0.000    0.000 
#    0.000    0.000    0.000    0.000    0.000    0.000 
#
# Total GULP energy -245138.946474 kJ/mol
# GULP energy per Si atom -5571.339693 kJ/mol
# Density = 1.690724 g / cm^3
# Si number density = 16.945810 Si / 1000 Ang^3
#
#
#
# Elastic Constant Matrix: (Units=GPa)
#
#
# Indices 1 2 3 4 5 6 
#
# 1 79.7447 25.6810 32.1872 0.0000 0.0000 0.0000
# 2 25.6810 110.2094 27.1565 0.0000 0.0000 0.0000
# 3 32.1872 27.1565 73.2163 0.0000 0.0000 0.0000
# 4 0.0000 0.0000 0.0000 24.8131 0.0000 0.0000
# 5 0.0000 0.0000 0.0000 0.0000 39.8329 0.0000
# 6 0.0000 0.0000 0.0000 0.0000 0.0000 17.8005
#
#
#
# Elastic Compliance Matrix: (Units=1/GPa)
#
#
# Indices 1 2 3 4 5 6 
#
# 1 0.015696 -0.002154 -0.006101 0.000000 0.000000 0.000000
# 2 -0.002154 0.010282 -0.002867 0.000000 0.000000 0.000000
# 3 -0.006101 -0.002867 0.017404 0.000000 0.000000 0.000000
# 4 0.000000 0.000000 0.000000 0.040301 0.000000 0.000000
# 5 0.000000 0.000000 0.000000 0.000000 0.025105 0.000000
# 6 0.000000 0.000000 0.000000 0.000000 0.000000 0.056178
#
#
# Mechanical properties :
#
#
# Convention : Reuss Voigt Hill
#
# Bulk Modulus (GPa) = 47.30897 48.13553 47.72225
# Shear Modulus (GPa) = 25.73914 28.36570 27.05242
#
# Velocity S-wave (km/s) = 3.90155 4.09578 3.99984
# Velocity P-wave (km/s) = 6.94798 7.12983 7.03949
#
# Compressibility (1/GPa) = 0.02113764
#
# Stress axis : x y z
#
# Youngs Moduli (GPa) = 63.70871 97.25770 57.45892
#
# Poissons Ratio (x) = 0.20951 0.35058
# Poissons Ratio (y) = 0.13724 0.16472
# Poissons Ratio (z) = 0.38872 0.27881
#
# Static dielectric constant tensor:
#      x y z
#    x 1.559500 0.000000 0.000000 
#    y 0.000000 1.546650 0.000000 
#    z 0.000000 0.000000 1.576040 
# 
# From -- ./inp_files/40778.got.cif
#   From: 2010.05.17/outbox.cif.g08.bks.cpg/sg52_21_cif.got.tgz:40778.got - 2010.06.03 12:15:38.
