data_PCOD9409355
_publ_section_title
;
Structure prediction by ZEFSAII (Michael W. Deem and Ramdas Pophale) SiO2 
 PCOD9409355
Probable space group: P N N A
;
_chemical_formula_sum "Si O2"
_cell_formula_units_Z 32
_cell_length_a 19.022021
_cell_length_b 11.687087
_cell_length_c 5.145894
_cell_angle_alpha 90.000000
_cell_angle_beta 90.000000
_cell_angle_gamma 90.000000
_cell_volume 1143.994061
_symmetry_space_group_name_H-M "P N N A"
_symmetry_group_IT_number 52
_symmetry_cell_setting 'orthorhombic'
loop_
_space_group_symop_operation_xyz
x,y,z
1/2-x,-y,z
x,1/2-y,1/2-z
1/2-x,1/2+y,1/2-z
-x,-y,-z
1/2+x,y,-z
-x,1/2+y,1/2+z
1/2+x,1/2-y,1/2+z
loop_
_atom_site_type_symbol
_atom_site_label
_atom_site_fract_x
_atom_site_fract_y
_atom_site_fract_z
Si Si1 0.180957 0.750000 0.750000
Si Si2 0.784499 0.610448 0.888376
Si Si3 0.992633 0.135087 0.663972
Si Si4 0.903389 0.750000 0.750000
Si Si5 0.392127 0.483299 0.770274
O O1 0.229659 0.699252 0.982942
O O2 0.135159 0.638370 0.662655
O O3 0.750000 0.500000 0.761713
O O4 0.827324 0.558671 0.134332
O O5 0.844129 0.654619 0.692541
O O6 0.954093 0.250000 0.750000
O O7 0.047041 0.194078 0.461888
O O8 0.935229 0.056676 0.529311
O O9 0.046212 0.064022 0.848342
#
# Coordination Sequence:
#
# PCOD9409355 Si02
#       5
#     4   8   8   4   8
#     4  10  19  40  66  84 125 170 202 256 318 366
#     4   9  20  39  59  87 129 163 203 266 306 371
#     4  10  21  41  67  91 130 165 201 270 320 371
#     4  10  21  38  62  92 121 158 212 248 314 386
#     4   9  20  39  64  92 123 162 211 258 316 374
#
# _framework density 27.972173000000002
#
# number of rings (size 3 to 8) (size 9 to 14) (size 15 to 20)
#    0.000    2.500    0.000    0.750    7.000    0.000 
#   13.500   17.500    0.000    0.000    0.000    0.000 
#    0.000    0.000    0.000    0.000    0.000    0.000 
#
# Total GULP energy -178650.503072 kJ/mol
# GULP energy per Si atom -5582.828221 kJ/mol
# Density = 2.790851 g / cm^3
# Si number density = 27.972173 Si / 1000 Ang^3
#
#
#
# Elastic Constant Matrix: (Units=GPa)
#
#
# Indices 1 2 3 4 5 6 
#
# 1 117.8455 63.3283 42.4415 0.0000 0.0000 0.0000
# 2 63.3283 169.6043 35.6379 0.0000 0.0000 0.0000
# 3 42.4415 35.6379 57.9651 0.0000 0.0000 0.0000
# 4 0.0000 0.0000 0.0000 30.2555 0.0000 0.0000
# 5 0.0000 0.0000 0.0000 0.0000 -10.8797 0.0000
# 6 0.0000 0.0000 0.0000 0.0000 0.0000 86.3905
#
#
#
# Elastic Compliance Matrix: (Units=1/GPa)
#
#
# Indices 1 2 3 4 5 6 
#
# 1 0.012923 -0.003258 -0.007459 0.000000 0.000000 0.000000
# 2 -0.003258 0.007592 -0.002282 0.000000 0.000000 0.000000
# 3 -0.007459 -0.002282 0.024116 0.000000 0.000000 0.000000
# 4 0.000000 0.000000 0.000000 0.033052 0.000000 0.000000
# 5 0.000000 0.000000 0.000000 0.000000 -0.091914 0.000000
# 6 0.000000 0.000000 0.000000 0.000000 0.000000 0.011575
#
#
# Mechanical properties :
#
#
# Convention : Reuss Voigt Hill
#
# Bulk Modulus (GPa) = 53.66861 69.80338 61.73600
# Shear Modulus (GPa) = 169.18658 34.75375 101.97017
#
# Velocity S-wave (km/s) = 7.78558 3.52865 6.04428
# Velocity P-wave (km/s) = 10.00242 6.45063 8.41602
#
# Compressibility (1/GPa) = 0.01863287
#
# Stress axis : x y z
#
# Youngs Moduli (GPa) = 77.38311 131.71557 41.46573
#
# Poissons Ratio (x) = 0.42912 0.30929
# Poissons Ratio (y) = 0.25211 0.09464
# Poissons Ratio (z) = 0.57719 0.30062
#
# Static dielectric constant tensor:
#      x y z
#    x 2.127770 0.000000 0.000000 
#    y 0.000000 2.633490 0.000000 
#    z 0.000000 0.000000 2.234140 
# 
# From -- ./inp_files/3937.got.cif
#   From: 2010.05.17/outbox.cif.g08.bks.cpg/sg52_2_cif.got.tgz:3937.got - 2010.06.03 12:15:38.
