data_PCOD9409812
_publ_section_title
;
Structure prediction by ZEFSAII (Michael W. Deem and Ramdas Pophale) SiO2 
 PCOD9409812
Probable space group: P N N A
;
_chemical_formula_sum "Si O2"
_cell_formula_units_Z 40
_cell_length_a 7.779115
_cell_length_b 18.134135
_cell_length_c 14.409559
_cell_angle_alpha 90.000000
_cell_angle_beta 90.000000
_cell_angle_gamma 90.000000
_cell_volume 2032.720775
_symmetry_space_group_name_H-M "P N N A"
_symmetry_group_IT_number 52
_symmetry_cell_setting 'orthorhombic'
loop_
_space_group_symop_operation_xyz
x,y,z
1/2-x,-y,z
x,1/2-y,1/2-z
1/2-x,1/2+y,1/2-z
-x,-y,-z
1/2+x,y,-z
-x,1/2+y,1/2+z
1/2+x,1/2-y,1/2+z
loop_
_atom_site_type_symbol
_atom_site_label
_atom_site_fract_x
_atom_site_fract_y
_atom_site_fract_z
Si Si1 0.612528 0.373672 0.868804
Si Si2 0.014090 0.291850 0.590304
Si Si3 0.770098 0.250000 0.750000
Si Si4 0.750000 0.500000 0.734432
Si Si5 0.565065 0.037321 0.094912
Si Si6 0.199181 0.687106 0.953733
O O1 0.652578 0.300998 0.811094
O O2 0.679088 0.438116 0.804278
O O3 0.414126 0.368870 0.894713
O O4 0.713470 0.361144 0.965191
O O5 0.080611 0.374659 0.575220
O O6 0.164320 0.232409 0.606225
O O7 0.889477 0.293893 0.678455
O O8 0.912336 0.251985 0.505029
O O9 0.587807 0.524166 0.670084
O O10 0.750000 0.000000 0.119842
O O11 0.500000 0.000000 0.000000
#
# Coordination Sequence:
#
# PCOD9409812 Si02
#       6
#     8   8   4   4   8   8
#     4  10  22  42  63  99 127 174 219 272 334 390
#     4  10  20  39  60  92 121 165 216 273 319 389
#     4  10  20  36  62  84 128 154 222 270 308 384
#     4  12  26  44  66  98 140 174 224 282 334 412
#     4  12  25  41  65  97 139 180 216 272 351 411
#     4   9  21  39  67  88 125 171 219 272 330 382
#
# _framework density 19.678059000000001
#
# number of rings (size 3 to 8) (size 9 to 14) (size 15 to 20)
#    0.000    1.600    3.000    1.200    0.000    6.400 
#    3.600    0.000    0.000    0.000    0.000    0.000 
#    0.000    0.000    0.000    0.000    0.000    0.000 
#
# Total GULP energy -223069.284884 kJ/mol
# GULP energy per Si atom -5576.732122 kJ/mol
# Density = 1.963327 g / cm^3
# Si number density = 19.678059 Si / 1000 Ang^3
#
#
#
# Elastic Constant Matrix: (Units=GPa)
#
#
# Indices 1 2 3 4 5 6 
#
# 1 81.2180 11.9486 26.3189 0.0000 0.0000 0.0000
# 2 11.9486 62.5972 21.4170 0.0000 0.0000 0.0000
# 3 26.3189 21.4170 75.4508 0.0000 0.0000 0.0000
# 4 0.0000 0.0000 0.0000 -7.7081 0.0000 0.0000
# 5 0.0000 0.0000 0.0000 0.0000 54.3916 0.0000
# 6 0.0000 0.0000 0.0000 0.0000 0.0000 20.7960
#
#
#
# Elastic Compliance Matrix: (Units=1/GPa)
#
#
# Indices 1 2 3 4 5 6 
#
# 1 0.013950 -0.001105 -0.004552 0.000000 0.000000 0.000000
# 2 -0.001105 0.017781 -0.004662 0.000000 0.000000 0.000000
# 3 -0.004552 -0.004662 0.016165 0.000000 0.000000 0.000000
# 4 0.000000 0.000000 0.000000 -0.129733 0.000000 0.000000
# 5 0.000000 0.000000 0.000000 0.000000 0.018385 0.000000
# 6 0.000000 0.000000 0.000000 0.000000 0.000000 0.048086
#
#
# Mechanical properties :
#
#
# Convention : Reuss Voigt Hill
#
# Bulk Modulus (GPa) = 36.68711 37.62609 37.15660
# Shear Modulus (GPa) = 348.20892 24.13467 186.17179
#
# Velocity S-wave (km/s) = 13.31679 3.50591 9.73726
# Velocity P-wave (km/s) = 15.97290 5.96245 12.05579
#
# Compressibility (1/GPa) = 0.02725753
#
# Stress axis : x y z
#
# Youngs Moduli (GPa) = 71.68262 56.23956 61.86250
#
# Poissons Ratio (x) = 0.06216 0.28163
# Poissons Ratio (y) = 0.07923 0.28838
# Poissons Ratio (z) = 0.32633 0.26217
#
# Static dielectric constant tensor:
#      x y z
#    x 1.714540 0.000000 0.000000 
#    y 0.000000 1.713810 0.000000 
#    z 0.000000 0.000000 1.663910 
# 
# From -- ./inp_files/16696.got.cif
#   From: 2010.05.17/outbox.cif.g08.bks.cpg/sg52_9_cif.got.tgz:16696.got - 2010.06.03 12:15:38.
