data_PCOD9409030
_publ_section_title
;
Structure prediction by ZEFSAII (Michael W. Deem and Ramdas Pophale) SiO2 
 PCOD9409030
Probable space group: P N N A
;
_chemical_formula_sum "Si O2"
_cell_formula_units_Z 32
_cell_length_a 8.142612
_cell_length_b 9.890215
_cell_length_c 19.267925
_cell_angle_alpha 90.000000
_cell_angle_beta 90.000000
_cell_angle_gamma 90.000000
_cell_volume 1551.688069
_symmetry_space_group_name_H-M "P N N A"
_symmetry_group_IT_number 52
_symmetry_cell_setting 'orthorhombic'
loop_
_space_group_symop_operation_xyz
x,y,z
1/2-x,-y,z
x,1/2-y,1/2-z
1/2-x,1/2+y,1/2-z
-x,-y,-z
1/2+x,y,-z
-x,1/2+y,1/2+z
1/2+x,1/2-y,1/2+z
loop_
_atom_site_type_symbol
_atom_site_label
_atom_site_fract_x
_atom_site_fract_y
_atom_site_fract_z
Si Si1 0.885834 0.118497 0.571955
Si Si2 0.194892 0.634032 0.604091
Si Si3 0.894985 0.716333 0.527727
Si Si4 0.342356 0.640053 0.809356
O O1 0.760423 0.244323 0.574190
O O2 0.996750 0.157097 0.503913
O O3 0.006539 0.108099 0.637720
O O4 0.750000 0.000000 0.565469
O O5 0.250000 0.500000 0.643092
O O6 0.321879 0.648446 0.540557
O O7 0.211860 0.770202 0.647325
O O8 0.016205 0.626565 0.571930
O O9 0.250000 0.500000 0.791457
O O10 0.393270 0.750000 0.750000
#
# Coordination Sequence:
#
# PCOD9409030 Si02
#       4
#     8   8   8   8
#     4  10  19  35  58  88 121 153 191 237 293 352
#     4  10  19  35  59  87 119 153 188 232 286 345
#     4   9  19  32  56  91 123 152 183 230 290 354
#     4  11  24  42  60  80 109 152 201 245 291 345
#
# _framework density 20.622703000000001
#
# number of rings (size 3 to 8) (size 9 to 14) (size 15 to 20)
#    0.000    2.000    0.000    3.750    0.000    7.000 
#    0.000    7.500    0.000    0.000    0.000    0.000 
#    0.000    0.000    0.000    0.000    0.000    0.000 
#
# Total GULP energy -178161.364956 kJ/mol
# GULP energy per Si atom -5567.542655 kJ/mol
# Density = 2.057576 g / cm^3
# Si number density = 20.622703 Si / 1000 Ang^3
#
#
#
# Elastic Constant Matrix: (Units=GPa)
#
#
# Indices 1 2 3 4 5 6 
#
# 1 111.3367 34.6505 38.4961 0.0000 0.0000 0.0000
# 2 34.6505 115.6099 28.8337 0.0000 0.0000 0.0000
# 3 38.4961 28.8337 68.9566 0.0000 0.0000 0.0000
# 4 0.0000 0.0000 0.0000 -8.0329 0.0000 0.0000
# 5 0.0000 0.0000 0.0000 0.0000 -38.0618 0.0000
# 6 0.0000 0.0000 0.0000 0.0000 0.0000 8.8653
#
#
#
# Elastic Compliance Matrix: (Units=1/GPa)
#
#
# Indices 1 2 3 4 5 6 
#
# 1 0.011558 -0.002071 -0.005586 0.000000 0.000000 0.000000
# 2 -0.002071 0.010028 -0.003037 0.000000 0.000000 0.000000
# 3 -0.005586 -0.003037 0.018891 0.000000 0.000000 0.000000
# 4 0.000000 0.000000 0.000000 -0.124489 0.000000 0.000000
# 5 0.000000 0.000000 0.000000 0.000000 -0.026273 0.000000
# 6 0.000000 0.000000 0.000000 0.000000 0.000000 0.112799
#
#
# Mechanical properties :
#
#
# Convention : Reuss Voigt Hill
#
# Bulk Modulus (GPa) = 52.38987 55.54043 53.96515
# Shear Modulus (GPa) = 165.20935 5.48232 85.34583
#
# Velocity S-wave (km/s) = 8.96015 1.63223 6.44005
# Velocity P-wave (km/s) = 11.51108 5.52652 9.02904
#
# Compressibility (1/GPa) = 0.01908766
#
# Stress axis : x y z
#
# Youngs Moduli (GPa) = 86.52132 99.72187 52.93664
#
# Poissons Ratio (x) = 0.20651 0.29573
# Poissons Ratio (y) = 0.17917 0.16077
# Poissons Ratio (z) = 0.48335 0.30286
#
# Static dielectric constant tensor:
#      x y z
#    x 1.711160 0.000000 0.000000 
#    y 0.000000 1.867240 0.000000 
#    z 0.000000 0.000000 1.748390 
# 
# From -- ./inp_files/39122.got.cif
#   From: 2010.05.17/outbox.cif.g08.bks.cpg/sg52_20_cif.got.tgz:39122.got - 2010.06.03 12:15:38.
