data_PCOD9409704
_publ_section_title
;
Structure prediction by ZEFSAII (Michael W. Deem and Ramdas Pophale) SiO2 
 PCOD9409704
Probable space group: P N N A
;
_chemical_formula_sum "Si O2"
_cell_formula_units_Z 64
_cell_length_a 13.267492
_cell_length_b 9.166149
_cell_length_c 24.354697
_cell_angle_alpha 90.000000
_cell_angle_beta 90.000000
_cell_angle_gamma 90.000000
_cell_volume 2961.818748
_symmetry_space_group_name_H-M "P N N A"
_symmetry_group_IT_number 52
_symmetry_cell_setting 'orthorhombic'
loop_
_space_group_symop_operation_xyz
x,y,z
1/2-x,-y,z
x,1/2-y,1/2-z
1/2-x,1/2+y,1/2-z
-x,-y,-z
1/2+x,y,-z
-x,1/2+y,1/2+z
1/2+x,1/2-y,1/2+z
loop_
_atom_site_type_symbol
_atom_site_label
_atom_site_fract_x
_atom_site_fract_y
_atom_site_fract_z
Si Si1 0.163317 0.880060 0.014595
Si Si2 0.277450 0.826746 0.808401
Si Si3 0.390403 0.266712 0.604823
Si Si4 0.678872 0.622972 0.792096
Si Si5 0.498475 0.230083 0.345044
Si Si6 0.019904 0.005139 0.434522
Si Si7 0.069962 0.022425 0.114565
Si Si8 0.789988 0.794462 0.596834
O O1 0.079078 0.955753 0.052897
O O2 0.214690 0.748282 0.048163
O O3 0.250000 0.000000 0.006252
O O4 0.130427 0.824365 0.956156
O O5 0.257371 0.750000 0.750000
O O6 0.205092 0.765157 0.856032
O O7 0.391766 0.783088 0.825916
O O8 0.250000 0.000000 0.805047
O O9 0.440172 0.110134 0.595987
O O10 0.471251 0.383528 0.627132
O O11 0.750000 0.500000 0.767757
O O12 0.690157 0.750000 0.750000
O O13 0.559272 0.615396 0.805207
O O14 0.729209 0.652179 0.850999
O O15 0.431926 0.378699 0.348139
O O16 0.494870 0.149968 0.404283
O O17 0.126062 0.089039 0.422716
O O18 0.000000 0.000000 0.500000
O O19 0.158173 0.141800 0.115459
#
# Coordination Sequence:
#
# PCOD9409704 Si02
#       8
#     8   8   8   8   8   8   8   8
#     4  10  20  35  70 102 140 180 228 289 361 440
#     4  12  29  52  75 104 140 191 257 315 363 433
#     4  11  24  45  69 102 140 191 243 294 360 432
#     4  12  27  47  74 104 144 187 237 297 363 436
#     4  12  25  47  73 102 144 186 240 297 365 432
#     4  11  26  44  69 110 150 190 232 297 364 439
#     4  10  21  40  69 100 141 179 228 291 355 429
#     4  10  23  44  65 106 144 180 231 292 363 434
#
# _framework density 21.608346000000001
#
# number of rings (size 3 to 8) (size 9 to 14) (size 15 to 20)
#    0.000    1.000    3.750    1.875    5.250    1.000 
#    0.000    2.500    0.000    0.000    0.000    0.000 
#    0.000    0.000    0.000    0.000    0.000    0.000 
#
# Total GULP energy -357483.088375 kJ/mol
# GULP energy per Si atom -5585.673256 kJ/mol
# Density = 2.155916 g / cm^3
# Si number density = 21.608346 Si / 1000 Ang^3
#
#
#
# Elastic Constant Matrix: (Units=GPa)
#
#
# Indices 1 2 3 4 5 6 
#
# 1 114.8733 46.6222 25.2775 0.0000 0.0000 0.0000
# 2 46.6222 110.0804 36.0031 0.0000 0.0000 0.0000
# 3 25.2775 36.0031 53.5762 0.0000 0.0000 0.0000
# 4 0.0000 0.0000 0.0000 39.6426 0.0000 0.0000
# 5 0.0000 0.0000 0.0000 0.0000 -42.6523 0.0000
# 6 0.0000 0.0000 0.0000 0.0000 0.0000 27.7234
#
#
#
# Elastic Compliance Matrix: (Units=1/GPa)
#
#
# Indices 1 2 3 4 5 6 
#
# 1 0.010785 -0.003721 -0.002588 0.000000 0.000000 0.000000
# 2 -0.003721 0.012927 -0.006931 0.000000 0.000000 0.000000
# 3 -0.002588 -0.006931 0.024544 0.000000 0.000000 0.000000
# 4 0.000000 0.000000 0.000000 0.025225 0.000000 0.000000
# 5 0.000000 0.000000 0.000000 0.000000 -0.023445 0.000000
# 6 0.000000 0.000000 0.000000 0.000000 0.000000 0.036071
#
#
# Mechanical properties :
#
#
# Convention : Reuss Voigt Hill
#
# Bulk Modulus (GPa) = 45.92370 54.92616 50.42493
# Shear Modulus (GPa) = 41.72018 16.31789 29.01903
#
# Velocity S-wave (km/s) = 4.39879 2.75101 3.66861
# Velocity P-wave (km/s) = 6.86280 5.96363 6.42895
#
# Compressibility (1/GPa) = 0.02177525
#
# Stress axis : x y z
#
# Youngs Moduli (GPa) = 92.72115 77.35510 40.74356
#
# Poissons Ratio (x) = 0.28787 0.10543
# Poissons Ratio (y) = 0.34506 0.28241
# Poissons Ratio (z) = 0.23993 0.53618
#
# Static dielectric constant tensor:
#      x y z
#    x 1.911250 0.000000 0.000000 
#    y 0.000000 1.965810 0.000000 
#    z 0.000000 0.000000 1.758500 
# 
# From -- ./inp_files/40679.got.cif
#   From: 2010.05.17/outbox.cif.g08.bks.cpg/sg52_21_cif.got.tgz:40679.got - 2010.06.03 12:15:38.
