data_PCOD9409989
_publ_section_title
;
Structure prediction by ZEFSAII (Michael W. Deem and Ramdas Pophale) SiO2 
 PCOD9409989
Probable space group: P N N A
;
_chemical_formula_sum "Si O2"
_cell_formula_units_Z 48
_cell_length_a 12.053500
_cell_length_b 9.686733
_cell_length_c 22.901311
_cell_angle_alpha 90.000000
_cell_angle_beta 90.000000
_cell_angle_gamma 90.000000
_cell_volume 2673.935000
_symmetry_space_group_name_H-M "P N N A"
_symmetry_group_IT_number 52
_symmetry_cell_setting 'orthorhombic'
loop_
_space_group_symop_operation_xyz
x,y,z
1/2-x,-y,z
x,1/2-y,1/2-z
1/2-x,1/2+y,1/2-z
-x,-y,-z
1/2+x,y,-z
-x,1/2+y,1/2+z
1/2+x,1/2-y,1/2+z
loop_
_atom_site_type_symbol
_atom_site_label
_atom_site_fract_x
_atom_site_fract_y
_atom_site_fract_z
Si Si1 0.863164 0.579622 0.045456
Si Si2 0.476576 0.750000 0.750000
Si Si3 0.054778 0.370772 0.075241
Si Si4 0.638641 0.327099 0.369736
Si Si5 0.620211 0.001448 0.696779
Si Si6 0.599189 0.640233 0.370442
Si Si7 0.517628 0.750000 0.250000
O O1 0.750000 0.500000 0.060341
O O2 0.898050 0.700698 0.089716
O O3 0.952920 0.460359 0.052005
O O4 0.862758 0.640446 0.979701
O O5 0.397477 0.699095 0.697265
O O6 0.555710 0.633854 0.779747
O O7 0.106518 0.458399 0.128498
O O8 0.995604 0.229925 0.097193
O O9 0.587225 0.477482 0.382747
O O10 0.771013 0.330187 0.382067
O O11 0.559366 0.128088 0.727550
O O12 0.750000 0.000000 0.711214
O O13 0.586646 0.684877 0.302823
#
# Coordination Sequence:
#
# PCOD9409989 Si02
#       7
#     8   4   8   8   8   8   4
#     4  11  21  39  62  89 114 155 200 251 298 352
#     4  12  22  38  58  90 120 156 198 250 300 356
#     4  10  22  38  62  84 119 154 202 248 294 355
#     4  11  22  37  60  89 123 153 198 245 304 362
#     4  11  22  38  59  85 117 160 199 245 298 360
#     4  10  21  38  58  89 121 159 192 245 306 360
#     4  10  20  38  56  84 124 156 196 244 300 362
#
# _framework density 17.951072
#
# number of rings (size 3 to 8) (size 9 to 14) (size 15 to 20)
#    0.000    1.333    5.000    1.500    0.000    0.667 
#    3.000    0.000    0.000    0.000    0.000    0.000 
#    0.000    0.000    0.000    0.000    0.000    0.000 
#
# Total GULP energy -267335.524001 kJ/mol
# GULP energy per Si atom -5569.490083 kJ/mol
# Density = 1.791021 g / cm^3
# Si number density = 17.951072 Si / 1000 Ang^3
#
#
#
# Elastic Constant Matrix: (Units=GPa)
#
#
# Indices 1 2 3 4 5 6 
#
# 1 28.9529 16.1943 -18.4602 0.0000 0.0000 0.0000
# 2 16.1943 103.1701 33.2810 0.0000 0.0000 0.0000
# 3 -18.4602 33.2810 69.8989 0.0000 0.0000 0.0000
# 4 0.0000 0.0000 0.0000 16.3031 0.0000 0.0000
# 5 0.0000 0.0000 0.0000 0.0000 24.4333 0.0000
# 6 0.0000 0.0000 0.0000 0.0000 0.0000 -134.7124
#
#
#
# Elastic Compliance Matrix: (Units=1/GPa)
#
#
# Indices 1 2 3 4 5 6 
#
# 1 0.059068 -0.016900 0.023646 0.000000 0.000000 0.000000
# 2 -0.016900 0.016287 -0.012218 0.000000 0.000000 0.000000
# 3 0.023646 -0.012218 0.026369 0.000000 0.000000 0.000000
# 4 0.000000 0.000000 0.000000 0.061338 0.000000 0.000000
# 5 0.000000 0.000000 0.000000 0.000000 0.040928 0.000000
# 6 0.000000 0.000000 0.000000 0.000000 0.000000 -0.007423
#
#
# Mechanical properties :
#
#
# Convention : Reuss Voigt Hill
#
# Bulk Modulus (GPa) = 11.01550 29.33911 20.17731
# Shear Modulus (GPa) = 21.02886 -7.39475 6.81706
#
# Velocity S-wave (km/s) = 3.42636 -2.03183 1.95085
# Velocity P-wave (km/s) = 4.66937 3.29772 4.04215
#
# Compressibility (1/GPa) = 0.09078114
#
# Stress axis : x y z
#
# Youngs Moduli (GPa) = 16.92960 61.39997 37.92394
#
# Poissons Ratio (x) = 1.03764 -0.89676
# Poissons Ratio (y) = 0.28610 0.46335
# Poissons Ratio (z) = -0.40032 0.75017
#
# Static dielectric constant tensor:
#      x y z
#    x 1.610570 0.000000 0.000000 
#    y 0.000000 1.609700 0.000000 
#    z 0.000000 0.000000 1.862790 
# 
# From -- ./inp_files/40186.got.cif
#   From: 2010.05.17/outbox.cif.g08.bks.cpg/sg52_21_cif.got.tgz:40186.got - 2010.06.03 12:15:38.
