data_PCOD9409638
_publ_section_title
;
Structure prediction by ZEFSAII (Michael W. Deem and Ramdas Pophale) SiO2 
 PCOD9409638
Probable space group: P N N A
;
_chemical_formula_sum "Si O2"
_cell_formula_units_Z 36
_cell_length_a 9.062874
_cell_length_b 13.001534
_cell_length_c 18.218789
_cell_angle_alpha 90.000000
_cell_angle_beta 90.000000
_cell_angle_gamma 90.000000
_cell_volume 2146.742945
_symmetry_space_group_name_H-M "P N N A"
_symmetry_group_IT_number 52
_symmetry_cell_setting 'orthorhombic'
loop_
_space_group_symop_operation_xyz
x,y,z
1/2-x,-y,z
x,1/2-y,1/2-z
1/2-x,1/2+y,1/2-z
-x,-y,-z
1/2+x,y,-z
-x,1/2+y,1/2+z
1/2+x,1/2-y,1/2+z
loop_
_atom_site_type_symbol
_atom_site_label
_atom_site_fract_x
_atom_site_fract_y
_atom_site_fract_z
Si Si1 0.938043 0.702448 0.148466
Si Si2 0.734198 0.120418 0.653990
Si Si3 0.230244 0.381233 0.712579
Si Si4 0.496017 0.750000 0.250000
Si Si5 0.134235 0.422707 0.988780
O O1 0.836993 0.637402 0.205695
O O2 0.886058 0.818694 0.162756
O O3 0.905436 0.667240 0.066247
O O4 0.108565 0.676553 0.164165
O O5 0.607829 0.180927 0.697970
O O6 0.693112 0.115380 0.567370
O O7 0.750000 0.000000 0.676832
O O8 0.250000 0.500000 0.696592
O O9 0.389125 0.325212 0.708288
O O10 0.250000 0.500000 0.952059
O O11 0.000000 0.500000 0.000000
#
# Coordination Sequence:
#
# PCOD9409638 Si02
#       5
#     8   8   8   4   8
#     4  10  20  35  55  81 114 145 181 228 282 333
#     4  11  21  35  55  85 114 144 177 231 286 328
#     4  10  22  36  56  78 111 152 188 229 268 326
#     4  10  22  34  56  80 110 148 190 226 270 338
#     4  11  21  33  57  87 115 141 177 237 288 332
#
# _framework density 16.769590000000001
#
# number of rings (size 3 to 8) (size 9 to 14) (size 15 to 20)
#    0.000    1.778    4.444    3.333    6.222    0.000 
#    0.000    0.000    0.000    6.667    0.000    0.000 
#    0.000    0.000    0.000    0.000    0.000    0.000 
#
# Total GULP energy -200626.903845 kJ/mol
# GULP energy per Si atom -5572.969551 kJ/mol
# Density = 1.673142 g / cm^3
# Si number density = 16.769590 Si / 1000 Ang^3
#
#
#
# Elastic Constant Matrix: (Units=GPa)
#
#
# Indices 1 2 3 4 5 6 
#
# 1 135.1656 65.5644 28.0825 0.0000 0.0000 0.0000
# 2 65.5644 155.6721 40.6147 0.0000 0.0000 0.0000
# 3 28.0825 40.6147 67.5625 0.0000 0.0000 0.0000
# 4 0.0000 0.0000 0.0000 22.9712 0.0000 0.0000
# 5 0.0000 0.0000 0.0000 0.0000 24.5631 0.0000
# 6 0.0000 0.0000 0.0000 0.0000 0.0000 32.1682
#
#
#
# Elastic Compliance Matrix: (Units=1/GPa)
#
#
# Indices 1 2 3 4 5 6 
#
# 1 0.009484 -0.003518 -0.001828 0.000000 0.000000 0.000000
# 2 -0.003518 0.008923 -0.003902 0.000000 0.000000 0.000000
# 3 -0.001828 -0.003902 0.017906 0.000000 0.000000 0.000000
# 4 0.000000 0.000000 0.000000 0.043533 0.000000 0.000000
# 5 0.000000 0.000000 0.000000 0.000000 0.040712 0.000000
# 6 0.000000 0.000000 0.000000 0.000000 0.000000 0.031087
#
#
# Mechanical properties :
#
#
# Convention : Reuss Voigt Hill
#
# Bulk Modulus (GPa) = 56.11834 69.65819 62.88826
# Shear Modulus (GPa) = 28.39628 30.88308 29.63968
#
# Velocity S-wave (km/s) = 4.11946 4.29606 4.20869
# Velocity P-wave (km/s) = 7.49424 8.13859 7.82305
#
# Compressibility (1/GPa) = 0.01781949
#
# Stress axis : x y z
#
# Youngs Moduli (GPa) = 105.43672 112.06536 55.84585
#
# Poissons Ratio (x) = 0.39421 0.10206
# Poissons Ratio (y) = 0.37090 0.21791
# Poissons Ratio (z) = 0.19269 0.43729
#
# Static dielectric constant tensor:
#      x y z
#    x 1.576670 0.000000 0.000000 
#    y 0.000000 1.568150 0.000000 
#    z 0.000000 0.000000 1.564850 
# 
# From -- ./inp_files/31012.got.cif
#   From: 2010.05.17/outbox.cif.g08.bks.cpg/sg52_16_cif.got.tgz:31012.got - 2010.06.03 12:15:38.
