data_PCOD9409334
_publ_section_title
;
Structure prediction by ZEFSAII (Michael W. Deem and Ramdas Pophale) SiO2 
 PCOD9409334
Probable space group: P N N A
;
_chemical_formula_sum "Si O2"
_cell_formula_units_Z 56
_cell_length_a 12.256272
_cell_length_b 13.779757
_cell_length_c 13.391427
_cell_angle_alpha 90.000000
_cell_angle_beta 90.000000
_cell_angle_gamma 90.000000
_cell_volume 2261.657348
_symmetry_space_group_name_H-M "P N N A"
_symmetry_group_IT_number 52
_symmetry_cell_setting 'orthorhombic'
loop_
_space_group_symop_operation_xyz
x,y,z
1/2-x,-y,z
x,1/2-y,1/2-z
1/2-x,1/2+y,1/2-z
-x,-y,-z
1/2+x,y,-z
-x,1/2+y,1/2+z
1/2+x,1/2-y,1/2+z
loop_
_atom_site_type_symbol
_atom_site_label
_atom_site_fract_x
_atom_site_fract_y
_atom_site_fract_z
Si Si1 0.032471 0.365525 0.085954
Si Si2 0.957456 0.202908 0.630023
Si Si3 0.175358 0.721218 0.850600
Si Si4 0.620978 0.510851 0.774697
Si Si5 0.593337 0.382186 0.424395
Si Si6 0.769460 0.757863 0.951995
Si Si7 0.541582 0.580744 0.381074
O O1 0.093923 0.461181 0.118944
O O2 0.923372 0.355494 0.152414
O O3 0.124004 0.282114 0.103429
O O4 0.994068 0.350330 0.972827
O O5 0.840032 0.253789 0.610267
O O6 0.048536 0.288343 0.635654
O O7 0.928165 0.119254 0.710690
O O8 0.237613 0.750000 0.750000
O O9 0.244741 0.694504 0.947698
O O10 0.107363 0.820989 0.864653
O O11 0.750000 0.500000 0.757916
O O12 0.560528 0.447001 0.690038
O O13 0.696446 0.356325 0.493488
O O14 0.611628 0.482435 0.368680
O O15 0.498822 0.403265 0.505399
#
# Coordination Sequence:
#
# PCOD9409334 Si02
#       7
#     8   8   8   8   8   8   8
#     4  10  20  40  66  92 129 172 214 262 327 395
#     4  10  21  40  66  93 126 172 209 270 323 389
#     4  11  21  41  68  93 131 169 217 275 331 389
#     4  12  24  38  64 102 132 160 219 277 331 390
#     4  10  23  44  64  86 129 176 223 262 322 400
#     4  10  19  39  68  92 120 175 219 256 323 401
#     4  11  23  42  62  94 127 172 212 270 333 382
#
# _framework density 24.760603
#
# number of rings (size 3 to 8) (size 9 to 14) (size 15 to 20)
#    0.000    1.429    7.143    0.429    0.000    2.286 
#    5.143    1.429    0.000    0.000    0.000    0.000 
#    0.000    0.000    0.000    0.000    0.000    0.000 
#
# Total GULP energy -312218.585752 kJ/mol
# GULP energy per Si atom -5575.331888 kJ/mol
# Density = 2.470425 g / cm^3
# Si number density = 24.760603 Si / 1000 Ang^3
#
#
#
# Elastic Constant Matrix: (Units=GPa)
#
#
# Indices 1 2 3 4 5 6 
#
# 1 88.1305 27.1840 7.4226 0.0000 0.0000 0.0000
# 2 27.1840 88.0459 6.0780 0.0000 0.0000 0.0000
# 3 7.4226 6.0780 58.2234 0.0000 0.0000 0.0000
# 4 0.0000 0.0000 0.0000 13.4513 0.0000 0.0000
# 5 0.0000 0.0000 0.0000 0.0000 28.8443 0.0000
# 6 0.0000 0.0000 0.0000 0.0000 0.0000 24.4992
#
#
#
# Elastic Compliance Matrix: (Units=1/GPa)
#
#
# Indices 1 2 3 4 5 6 
#
# 1 0.012625 -0.003814 -0.001211 0.000000 0.000000 0.000000
# 2 -0.003814 0.012593 -0.000828 0.000000 0.000000 0.000000
# 3 -0.001211 -0.000828 0.017416 0.000000 0.000000 0.000000
# 4 0.000000 0.000000 0.000000 0.074342 0.000000 0.000000
# 5 0.000000 0.000000 0.000000 0.000000 0.034669 0.000000
# 6 0.000000 0.000000 0.000000 0.000000 0.000000 0.040818
#
#
# Mechanical properties :
#
#
# Convention : Reuss Voigt Hill
#
# Bulk Modulus (GPa) = 32.33526 35.08544 33.71035
# Shear Modulus (GPa) = 23.31223 26.27331 24.79277
#
# Velocity S-wave (km/s) = 3.07172 3.26098 3.16776
# Velocity P-wave (km/s) = 5.06638 5.32722 5.19843
#
# Compressibility (1/GPa) = 0.03092599
#
# Stress axis : x y z
#
# Youngs Moduli (GPa) = 79.20538 79.41177 57.41805
#
# Poissons Ratio (x) = 0.30291 0.06955
# Poissons Ratio (y) = 0.30212 0.04756
# Poissons Ratio (z) = 0.09595 0.06577
#
# Static dielectric constant tensor:
#      x y z
#    x 1.988280 0.000000 0.000000 
#    y 0.000000 2.026100 0.000000 
#    z 0.000000 0.000000 2.071550 
# 
# From -- ./inp_files/26175.got.cif
#   From: 2010.05.17/outbox.cif.g08.bks.cpg/sg52_14_cif.got.tgz:26175.got - 2010.06.03 12:15:38.
