data_PCOD9409510
_publ_section_title
;
Structure prediction by ZEFSAII (Michael W. Deem and Ramdas Pophale) SiO2 
 PCOD9409510
Probable space group: P N N A
;
_chemical_formula_sum "Si O2"
_cell_formula_units_Z 48
_cell_length_a 15.077912
_cell_length_b 8.955611
_cell_length_c 17.350966
_cell_angle_alpha 90.000000
_cell_angle_beta 90.000000
_cell_angle_gamma 90.000000
_cell_volume 2342.934159
_symmetry_space_group_name_H-M "P N N A"
_symmetry_group_IT_number 52
_symmetry_cell_setting 'orthorhombic'
loop_
_space_group_symop_operation_xyz
x,y,z
1/2-x,-y,z
x,1/2-y,1/2-z
1/2-x,1/2+y,1/2-z
-x,-y,-z
1/2+x,y,-z
-x,1/2+y,1/2+z
1/2+x,1/2-y,1/2+z
loop_
_atom_site_type_symbol
_atom_site_label
_atom_site_fract_x
_atom_site_fract_y
_atom_site_fract_z
Si Si1 0.014569 0.850243 0.549373
Si Si2 0.481013 0.852133 0.816049
Si Si3 0.810723 0.201822 0.992210
Si Si4 0.570110 0.096704 0.710947
Si Si5 0.833809 0.318599 0.830719
Si Si6 0.878084 0.877792 0.028035
O O1 0.994059 0.876927 0.638664
O O2 0.945594 0.723421 0.520625
O O3 0.114425 0.800176 0.532253
O O4 0.000000 0.000000 0.500000
O O5 0.435418 0.750000 0.750000
O O6 0.565889 0.751261 0.841191
O O7 0.422581 0.894815 0.888615
O O8 0.521025 0.997102 0.775067
O O9 0.787089 0.263719 0.907436
O O10 0.718277 0.196501 0.036781
O O11 0.854691 0.036393 0.988685
O O12 0.597563 0.250000 0.750000
O O13 0.650243 0.994349 0.679478
O O14 0.801977 0.250000 0.750000
#
# Coordination Sequence:
#
# PCOD9409510 Si02
#       6
#     8   8   8   8   8   8
#     4  12  22  40  64  93 132 170 214 281 333 392
#     4   9  18  39  62  90 121 169 213 267 329 385
#     4  11  23  41  61  96 128 173 223 265 337 396
#     4  10  20  33  61  97 120 163 218 264 332 391
#     4   9  19  37  63  85 121 167 206 260 327 386
#     4  11  24  39  67  94 126 173 227 269 321 413
#
# _framework density 20.487133
#
# number of rings (size 3 to 8) (size 9 to 14) (size 15 to 20)
#    0.000    2.000    3.333    2.500    4.667    0.667 
#    0.000    5.000    0.000    0.000    0.000    0.000 
#    0.000    0.000    0.000    0.000    0.000    0.000 
#
# Total GULP energy -268322.225369 kJ/mol
# GULP energy per Si atom -5590.046362 kJ/mol
# Density = 2.044050 g / cm^3
# Si number density = 20.487133 Si / 1000 Ang^3
#
#
#
# Elastic Constant Matrix: (Units=GPa)
#
#
# Indices 1 2 3 4 5 6 
#
# 1 100.9017 30.1949 30.5942 0.0000 0.0000 0.0000
# 2 30.1949 108.2926 42.4391 0.0000 0.0000 0.0000
# 3 30.5942 42.4391 84.8546 0.0000 0.0000 0.0000
# 4 0.0000 0.0000 0.0000 32.2695 0.0000 0.0000
# 5 0.0000 0.0000 0.0000 0.0000 11.1110 0.0000
# 6 0.0000 0.0000 0.0000 0.0000 0.0000 14.9415
#
#
#
# Elastic Compliance Matrix: (Units=1/GPa)
#
#
# Indices 1 2 3 4 5 6 
#
# 1 0.011452 -0.001959 -0.003149 0.000000 0.000000 0.000000
# 2 -0.001959 0.011820 -0.005206 0.000000 0.000000 0.000000
# 3 -0.003149 -0.005206 0.015524 0.000000 0.000000 0.000000
# 4 0.000000 0.000000 0.000000 0.030989 0.000000 0.000000
# 5 0.000000 0.000000 0.000000 0.000000 0.090001 0.000000
# 6 0.000000 0.000000 0.000000 0.000000 0.000000 0.066928
#
#
# Mechanical properties :
#
#
# Convention : Reuss Voigt Hill
#
# Bulk Modulus (GPa) = 55.03990 55.61171 55.32580
# Shear Modulus (GPa) = 19.73188 24.38577 22.05882
#
# Velocity S-wave (km/s) = 3.10681 3.45381 3.28489
# Velocity P-wave (km/s) = 6.30822 6.56572 6.43826
#
# Compressibility (1/GPa) = 0.01816864
#
# Stress axis : x y z
#
# Youngs Moduli (GPa) = 87.32336 84.59896 64.41711
#
# Poissons Ratio (x) = 0.16572 0.20286
# Poissons Ratio (y) = 0.17106 0.33533
# Poissons Ratio (z) = 0.27500 0.44039
#
# Static dielectric constant tensor:
#      x y z
#    x 1.716820 0.000000 0.000000 
#    y 0.000000 1.782410 0.000000 
#    z 0.000000 0.000000 1.733310 
# 
# From -- ./inp_files/33052.got.cif
#   From: 2010.05.17/outbox.cif.g08.bks.cpg/sg52_17_cif.got.tgz:33052.got - 2010.06.03 12:15:38.
