data_PCOD9409629
_publ_section_title
;
Structure prediction by ZEFSAII (Michael W. Deem and Ramdas Pophale) SiO2 
 PCOD9409629
Probable space group: P N N A
;
_chemical_formula_sum "Si O2"
_cell_formula_units_Z 24
_cell_length_a 4.791354
_cell_length_b 20.315590
_cell_length_c 11.871185
_cell_angle_alpha 90.000000
_cell_angle_beta 90.000000
_cell_angle_gamma 90.000000
_cell_volume 1155.531454
_symmetry_space_group_name_H-M "P N N A"
_symmetry_group_IT_number 52
_symmetry_cell_setting 'orthorhombic'
loop_
_space_group_symop_operation_xyz
x,y,z
1/2-x,-y,z
x,1/2-y,1/2-z
1/2-x,1/2+y,1/2-z
-x,-y,-z
1/2+x,y,-z
-x,1/2+y,1/2+z
1/2+x,1/2-y,1/2+z
loop_
_atom_site_type_symbol
_atom_site_label
_atom_site_fract_x
_atom_site_fract_y
_atom_site_fract_z
Si Si1 0.502149 0.315501 0.794144
Si Si2 0.188283 0.426875 0.922867
Si Si3 0.783838 0.294555 0.576289
O O1 0.336930 0.250000 0.750000
O O2 0.303944 0.370150 0.843433
O O3 0.685358 0.335296 0.685528
O O4 0.706454 0.280304 0.885330
O O5 0.250000 0.500000 0.877242
O O6 0.369345 0.422237 0.038762
O O7 0.091111 0.306437 0.532599
#
# Coordination Sequence:
#
# PCOD9409629 Si02
#       3
#     8   8   8
#     4   8  20  30  52  75  98 137 161 215 243 302
#     4  10  20  35  54  76 104 133 167 212 256 301
#     4   9  18  30  45  69  97 124 159 200 244 287
#
# _framework density 20.769663999999999
#
# number of rings (size 3 to 8) (size 9 to 14) (size 15 to 20)
#    2.000    0.667    0.000    2.000    0.000    8.000 
#    0.000    0.000    0.000    2.000    0.000    0.000 
#    0.000    0.000    0.000    0.000    0.000    0.000 
#
# Total GULP energy -133780.216577 kJ/mol
# GULP energy per Si atom -5574.175691 kJ/mol
# Density = 2.072239 g / cm^3
# Si number density = 20.769664 Si / 1000 Ang^3
#
#
#
# Elastic Constant Matrix: (Units=GPa)
#
#
# Indices 1 2 3 4 5 6 
#
# 1 55.1859 -0.8092 0.4824 0.0000 0.0000 0.0000
# 2 -0.8092 93.3765 2.7205 0.0000 0.0000 0.0000
# 3 0.4824 2.7205 67.6952 0.0000 0.0000 0.0000
# 4 0.0000 0.0000 0.0000 35.2911 0.0000 0.0000
# 5 0.0000 0.0000 0.0000 0.0000 13.9028 0.0000
# 6 0.0000 0.0000 0.0000 0.0000 0.0000 20.1748
#
#
#
# Elastic Compliance Matrix: (Units=1/GPa)
#
#
# Indices 1 2 3 4 5 6 
#
# 1 0.018124 0.000161 -0.000136 0.000000 0.000000 0.000000
# 2 0.000161 0.010723 -0.000432 0.000000 0.000000 0.000000
# 3 -0.000136 -0.000432 0.014790 0.000000 0.000000 0.000000
# 4 0.000000 0.000000 0.000000 0.028336 0.000000 0.000000
# 5 0.000000 0.000000 0.000000 0.000000 0.071928 0.000000
# 6 0.000000 0.000000 0.000000 0.000000 0.000000 0.049567
#
#
# Mechanical properties :
#
#
# Convention : Reuss Voigt Hill
#
# Bulk Modulus (GPa) = 23.35114 24.56055 23.95584
# Shear Modulus (GPa) = 23.97433 28.13134 26.05284
#
# Velocity S-wave (km/s) = 3.40118 3.68427 3.54555
# Velocity P-wave (km/s) = 5.16637 5.47260 5.32168
#
# Compressibility (1/GPa) = 0.04282446
#
# Stress axis : x y z
#
# Youngs Moduli (GPa) = 55.17513 93.25471 67.61126
#
# Poissons Ratio (x) = -0.01502 0.00917
# Poissons Ratio (y) = -0.00888 0.02921
# Poissons Ratio (z) = 0.00748 0.04029
#
# Static dielectric constant tensor:
#      x y z
#    x 1.775210 0.000000 0.000000 
#    y 0.000000 1.771840 0.000000 
#    z 0.000000 0.000000 1.794610 
# 
# From -- ./inp_files/6647.got.cif
#   From: 2010.05.17/outbox.cif.g08.bks.cpg/sg52_4_cif.got.tgz:6647.got - 2010.06.03 12:15:38.
