data_PCOD9409061
_publ_section_title
;
Structure prediction by ZEFSAII (Michael W. Deem and Ramdas Pophale) SiO2 
 PCOD9409061
Probable space group: P N N A
;
_chemical_formula_sum "Si O2"
_cell_formula_units_Z 52
_cell_length_a 18.884505
_cell_length_b 14.765752
_cell_length_c 8.055614
_cell_angle_alpha 90.000000
_cell_angle_beta 90.000000
_cell_angle_gamma 90.000000
_cell_volume 2246.258965
_symmetry_space_group_name_H-M "P N N A"
_symmetry_group_IT_number 52
_symmetry_cell_setting 'orthorhombic'
loop_
_space_group_symop_operation_xyz
x,y,z
1/2-x,-y,z
x,1/2-y,1/2-z
1/2-x,1/2+y,1/2-z
-x,-y,-z
1/2+x,y,-z
-x,1/2+y,1/2+z
1/2+x,1/2-y,1/2+z
loop_
_atom_site_type_symbol
_atom_site_label
_atom_site_fract_x
_atom_site_fract_y
_atom_site_fract_z
Si Si1 0.830875 0.965950 0.031792
Si Si2 0.541786 0.895949 0.665113
Si Si3 0.213116 0.100247 0.658491
Si Si4 0.951659 0.218114 0.011187
Si Si5 0.824318 0.250000 0.250000
Si Si6 0.832321 0.971464 0.660389
Si Si7 0.033920 0.952772 0.840336
O O1 0.831777 0.889307 0.172259
O O2 0.750000 0.000000 0.016735
O O3 0.882805 0.038670 0.117439
O O4 0.854126 0.941377 0.846139
O O5 0.549749 0.840431 0.839785
O O6 0.521363 0.818119 0.535001
O O7 0.616941 0.943149 0.622865
O O8 0.489275 0.981344 0.692314
O O9 0.274250 0.171956 0.679402
O O10 0.167655 0.099580 0.490429
O O11 0.250000 0.000000 0.659502
O O12 0.874877 0.230416 0.093401
O O13 0.987980 0.151714 0.146397
O O14 0.750000 0.000000 0.673680
O O15 0.000000 0.000000 0.000000
#
# Coordination Sequence:
#
# PCOD9409061 Si02
#       7
#     8   8   8   8   4   8   8
#     4  10  19  36  64  90 127 178 218 275 357 414
#     4  10  21  38  65  99 130 184 238 289 364 437
#     4  10  22  38  60  95 132 166 219 282 340 405
#     4  10  20  37  62  93 133 174 236 294 344 437
#     4  12  24  42  64 104 138 174 238 296 350 428
#     4  10  19  35  61  93 127 173 223 276 344 427
#     4  10  19  38  65  95 131 182 230 290 367 426
#
# _framework density 23.149601000000001
#
# number of rings (size 3 to 8) (size 9 to 14) (size 15 to 20)
#    0.000    1.846    3.077    3.692    2.154    0.000 
#    0.000    6.154    0.000    0.000    0.000    0.000 
#    0.000    0.000    0.000    0.000    0.000    0.000 
#
# Total GULP energy -289705.871551 kJ/mol
# GULP energy per Si atom -5571.266761 kJ/mol
# Density = 2.309691 g / cm^3
# Si number density = 23.149601 Si / 1000 Ang^3
#
#
#
# Elastic Constant Matrix: (Units=GPa)
#
#
# Indices 1 2 3 4 5 6 
#
# 1 63.2714 51.2571 9.5615 0.0000 0.0000 0.0000
# 2 51.2571 158.3132 56.7216 0.0000 0.0000 0.0000
# 3 9.5615 56.7216 168.0485 0.0000 0.0000 0.0000
# 4 0.0000 0.0000 0.0000 20.3891 0.0000 0.0000
# 5 0.0000 0.0000 0.0000 0.0000 -23.0896 0.0000
# 6 0.0000 0.0000 0.0000 0.0000 0.0000 44.7010
#
#
#
# Elastic Compliance Matrix: (Units=1/GPa)
#
#
# Indices 1 2 3 4 5 6 
#
# 1 0.021668 -0.007478 0.001291 0.000000 0.000000 0.000000
# 2 -0.007478 0.009766 -0.002871 0.000000 0.000000 0.000000
# 3 0.001291 -0.002871 0.006846 0.000000 0.000000 0.000000
# 4 0.000000 0.000000 0.000000 0.049046 0.000000 0.000000
# 5 0.000000 0.000000 0.000000 0.000000 -0.043310 0.000000
# 6 0.000000 0.000000 0.000000 0.000000 0.000000 0.022371
#
#
# Mechanical properties :
#
#
# Convention : Reuss Voigt Hill
#
# Bulk Modulus (GPa) = 49.59105 69.41259 59.50182
# Shear Modulus (GPa) = 54.80969 26.53964 40.67467
#
# Velocity S-wave (km/s) = 4.87111 3.38959 4.19625
# Velocity P-wave (km/s) = 7.28735 6.73561 7.01691
#
# Compressibility (1/GPa) = 0.02016493
#
# Stress axis : x y z
#
# Youngs Moduli (GPa) = 46.15126 102.39194 146.06560
#
# Poissons Ratio (x) = 0.76569 -0.18860
# Poissons Ratio (y) = 0.34512 0.41935
# Poissons Ratio (z) = -0.05959 0.29397
#
# Static dielectric constant tensor:
#      x y z
#    x 1.978420 0.000000 0.000000 
#    y 0.000000 1.946160 0.000000 
#    z 0.000000 0.000000 1.996580 
# 
# From -- ./inp_files/13371.got.cif
#   From: 2010.05.17/outbox.cif.g08.bks.cpg/sg52_7_cif.got.tgz:13371.got - 2010.06.03 12:15:38.
