data_PCOD9409952
_publ_section_title
;
Structure prediction by ZEFSAII (Michael W. Deem and Ramdas Pophale) SiO2 
 PCOD9409952
Probable space group: P N N A
;
_chemical_formula_sum "Si O2"
_cell_formula_units_Z 32
_cell_length_a 5.316901
_cell_length_b 18.154940
_cell_length_c 17.015640
_cell_angle_alpha 90.000000
_cell_angle_beta 90.000000
_cell_angle_gamma 90.000000
_cell_volume 1642.486015
_symmetry_space_group_name_H-M "P N N A"
_symmetry_group_IT_number 52
_symmetry_cell_setting 'orthorhombic'
loop_
_space_group_symop_operation_xyz
x,y,z
1/2-x,-y,z
x,1/2-y,1/2-z
1/2-x,1/2+y,1/2-z
-x,-y,-z
1/2+x,y,-z
-x,1/2+y,1/2+z
1/2+x,1/2-y,1/2+z
loop_
_atom_site_type_symbol
_atom_site_label
_atom_site_fract_x
_atom_site_fract_y
_atom_site_fract_z
Si Si1 0.304128 0.106246 0.789617
Si Si2 0.181615 0.891461 0.305103
Si Si3 0.948463 0.750000 0.250000
Si Si4 0.775601 0.416719 0.469685
Si Si5 0.750000 0.500000 0.946846
O O1 0.566627 0.098148 0.745398
O O2 0.227121 0.192619 0.795756
O O3 0.321596 0.077833 0.877532
O O4 0.065446 0.075365 0.739752
O O5 0.225394 0.930144 0.388050
O O6 0.114828 0.804224 0.304153
O O7 0.750000 0.500000 0.503693
O O8 0.510608 0.379773 0.488162
O O9 0.500000 0.500000 0.000000
#
# Coordination Sequence:
#
# PCOD9409952 Si02
#       5
#     8   8   4   8   4
#     4  10  20  37  64  85 117 159 213 252 300 374
#     4  10  22  39  66  90 119 168 212 265 308 376
#     4   8  22  38  64  90 116 158 232 262 292 372
#     4  10  21  35  53  86 123 149 183 239 302 358
#     4  12  26  44  64 100 138 164 212 274 342 392
#
# _framework density 19.482661
#
# number of rings (size 3 to 8) (size 9 to 14) (size 15 to 20)
#    1.500    0.500    0.000    3.750    3.500    0.000 
#    0.000    2.500    0.000    0.000    0.000    0.000 
#    0.000    0.000    0.000    0.000    0.000    0.000 
#
# Total GULP energy -178154.595184 kJ/mol
# GULP energy per Si atom -5567.331099 kJ/mol
# Density = 1.943832 g / cm^3
# Si number density = 19.482661 Si / 1000 Ang^3
#
#
#
# Elastic Constant Matrix: (Units=GPa)
#
#
# Indices 1 2 3 4 5 6 
#
# 1 192.7320 -0.2667 67.0513 0.0000 0.0000 0.0000
# 2 -0.2667 67.9010 8.6059 0.0000 0.0000 0.0000
# 3 67.0513 8.6059 116.3076 0.0000 0.0000 0.0000
# 4 0.0000 0.0000 0.0000 -121.8538 0.0000 0.0000
# 5 0.0000 0.0000 0.0000 0.0000 42.6089 0.0000
# 6 0.0000 0.0000 0.0000 0.0000 0.0000 9.0417
#
#
#
# Elastic Compliance Matrix: (Units=1/GPa)
#
#
# Indices 1 2 3 4 5 6 
#
# 1 0.006507 0.000506 -0.003789 0.000000 0.000000 0.000000
# 2 0.000506 0.014906 -0.001395 0.000000 0.000000 0.000000
# 3 -0.003789 -0.001395 0.010885 0.000000 0.000000 0.000000
# 4 0.000000 0.000000 0.000000 -0.008207 0.000000 0.000000
# 5 0.000000 0.000000 0.000000 0.000000 0.023469 0.000000
# 6 0.000000 0.000000 0.000000 0.000000 0.000000 0.110599
#
#
# Mechanical properties :
#
#
# Convention : Reuss Voigt Hill
#
# Bulk Modulus (GPa) = 43.58532 58.63573 51.11052
# Shear Modulus (GPa) = 28.54475 6.06269 17.30372
#
# Velocity S-wave (km/s) = 3.83186 1.76595 2.98343
# Velocity P-wave (km/s) = 6.48054 5.85831 6.17727
#
# Compressibility (1/GPa) = 0.02294351
#
# Stress axis : x y z
#
# Youngs Moduli (GPa) = 153.67055 67.08683 91.86609
#
# Poissons Ratio (x) = -0.03393 0.34808
# Poissons Ratio (y) = -0.07772 0.12811
# Poissons Ratio (z) = 0.58225 0.09355
#
# Static dielectric constant tensor:
#      x y z
#    x 1.784680 0.000000 0.000000 
#    y 0.000000 1.729040 0.000000 
#    z 0.000000 0.000000 1.626210 
# 
# From -- ./inp_files/23549.got.cif
#   From: 2010.05.17/outbox.cif.g08.bks.cpg/sg52_12_cif.got.tgz:23549.got - 2010.06.03 12:15:38.
