data_PCOD9409406
_publ_section_title
;
Structure prediction by ZEFSAII (Michael W. Deem and Ramdas Pophale) SiO2 
 PCOD9409406
Probable space group: P N N A
;
_chemical_formula_sum "Si O2"
_cell_formula_units_Z 44
_cell_length_a 15.250520
_cell_length_b 5.152621
_cell_length_c 32.035524
_cell_angle_alpha 90.000000
_cell_angle_beta 90.000000
_cell_angle_gamma 90.000000
_cell_volume 2517.356269
_symmetry_space_group_name_H-M "P N N A"
_symmetry_group_IT_number 52
_symmetry_cell_setting 'orthorhombic'
loop_
_space_group_symop_operation_xyz
x,y,z
1/2-x,-y,z
x,1/2-y,1/2-z
1/2-x,1/2+y,1/2-z
-x,-y,-z
1/2+x,y,-z
-x,1/2+y,1/2+z
1/2+x,1/2-y,1/2+z
loop_
_atom_site_type_symbol
_atom_site_label
_atom_site_fract_x
_atom_site_fract_y
_atom_site_fract_z
Si Si1 0.854501 0.515391 0.962444
Si Si2 0.893740 0.351023 0.047746
Si Si3 0.750000 0.500000 0.424377
Si Si4 0.048488 0.005655 0.067402
Si Si5 0.811576 0.752224 0.298577
Si Si6 0.585702 0.244913 0.378814
O O1 0.750000 0.500000 0.961585
O O2 0.886518 0.750189 0.933376
O O3 0.900248 0.244240 0.949692
O O4 0.890139 0.552877 0.009873
O O5 0.915753 0.488754 0.091812
O O6 0.965407 0.125295 0.042064
O O7 0.798593 0.218801 0.049247
O O8 0.672730 0.385670 0.396479
O O9 0.000380 0.908292 0.109563
O O10 0.750000 0.500000 0.305537
O O11 0.838384 0.750000 0.250000
O O12 0.892593 0.778528 0.330293
O O13 0.750000 0.000000 0.306199
#
# Coordination Sequence:
#
# PCOD9409406 Si02
#       6
#     8   8   4   8   8   8
#     4  12  25  40  56  77 108 147 196 238 292 330
#     4  11  23  36  55  80 111 148 196 235 280 326
#     4  10  20  30  52  80 106 150 188 232 268 322
#     4  11  25  39  56  79 109 148 187 243 281 329
#     4  10  21  36  56  84 118 155 188 221 267 328
#     4  11  21  36  55  80 116 147 195 226 276 323
#
# _framework density 17.478655
#
# number of rings (size 3 to 8) (size 9 to 14) (size 15 to 20)
#    0.000    1.091    2.727    4.364   10.182    0.000 
#    0.000    0.000    0.000    0.000    0.000    0.000 
#    0.000    2.909    0.364    0.000    0.000    0.000 
#
# Total GULP energy -245571.376458 kJ/mol
# GULP energy per Si atom -5581.167647 kJ/mol
# Density = 1.743887 g / cm^3
# Si number density = 17.478655 Si / 1000 Ang^3
#
#
#
# Elastic Constant Matrix: (Units=GPa)
#
#
# Indices 1 2 3 4 5 6 
#
# 1 95.9527 41.0506 51.4450 0.0000 0.0000 0.0000
# 2 41.0506 123.1130 42.2984 0.0000 0.0000 0.0000
# 3 51.4450 42.2984 102.7074 0.0000 0.0000 0.0000
# 4 0.0000 0.0000 0.0000 -26.8954 0.0000 0.0000
# 5 0.0000 0.0000 0.0000 0.0000 21.8200 0.0000
# 6 0.0000 0.0000 0.0000 0.0000 0.0000 34.5430
#
#
#
# Elastic Compliance Matrix: (Units=1/GPa)
#
#
# Indices 1 2 3 4 5 6 
#
# 1 0.015049 -0.002828 -0.006373 0.000000 0.000000 0.000000
# 2 -0.002828 0.009993 -0.002699 0.000000 0.000000 0.000000
# 3 -0.006373 -0.002699 0.014040 0.000000 0.000000 0.000000
# 4 0.000000 0.000000 0.000000 -0.037181 0.000000 0.000000
# 5 0.000000 0.000000 0.000000 0.000000 0.045829 0.000000
# 6 0.000000 0.000000 0.000000 0.000000 0.000000 0.028949
#
#
# Mechanical properties :
#
#
# Convention : Reuss Voigt Hill
#
# Bulk Modulus (GPa) = 65.43810 65.70678 65.57244
# Shear Modulus (GPa) = 47.36057 18.35880 32.85968
#
# Velocity S-wave (km/s) = 5.21105 3.24443 4.34059
# Velocity P-wave (km/s) = 8.58644 7.19092 7.91948
#
# Compressibility (1/GPa) = 0.01528162
#
# Stress axis : x y z
#
# Youngs Moduli (GPa) = 66.45122 100.07117 71.22513
#
# Poissons Ratio (x) = 0.28302 0.45391
# Poissons Ratio (y) = 0.18794 0.19222
# Poissons Ratio (z) = 0.42349 0.27007
#
# Static dielectric constant tensor:
#      x y z
#    x 1.591620 0.000000 0.000000 
#    y 0.000000 1.686530 0.000000 
#    z 0.000000 0.000000 1.636060 
# 
# From -- ./inp_files/42933.got.cif
#   From: 2010.05.17/outbox.cif.g08.bks.cpg/sg52_22_cif.got.tgz:42933.got - 2010.06.03 12:15:38.
