data_PCOD9409663
_publ_section_title
;
Structure prediction by ZEFSAII (Michael W. Deem and Ramdas Pophale) SiO2 
 PCOD9409663
Probable space group: P N N A
;
_chemical_formula_sum "Si O2"
_cell_formula_units_Z 40
_cell_length_a 8.528637
_cell_length_b 20.388961
_cell_length_c 11.438098
_cell_angle_alpha 90.000000
_cell_angle_beta 90.000000
_cell_angle_gamma 90.000000
_cell_volume 1988.971401
_symmetry_space_group_name_H-M "P N N A"
_symmetry_group_IT_number 52
_symmetry_cell_setting 'orthorhombic'
loop_
_space_group_symop_operation_xyz
x,y,z
1/2-x,-y,z
x,1/2-y,1/2-z
1/2-x,1/2+y,1/2-z
-x,-y,-z
1/2+x,y,-z
-x,1/2+y,1/2+z
1/2+x,1/2-y,1/2+z
loop_
_atom_site_type_symbol
_atom_site_label
_atom_site_fract_x
_atom_site_fract_y
_atom_site_fract_z
Si Si1 0.223041 0.275438 0.529935
Si Si2 0.929323 0.292273 0.854591
Si Si3 0.550002 0.927192 0.358629
Si Si4 0.009870 0.317469 0.324406
Si Si5 0.424335 0.577080 0.877939
O O1 0.317811 0.216646 0.466127
O O2 0.344014 0.316409 0.606975
O O3 0.089603 0.243652 0.608652
O O4 0.139617 0.315372 0.426164
O O5 0.859682 0.250000 0.750000
O O6 0.974704 0.365359 0.819843
O O7 0.479038 0.877868 0.264067
O O8 0.470128 0.917629 0.484999
O O9 0.737532 0.914529 0.365283
O O10 0.532183 0.004681 0.333359
O O11 0.011840 0.250000 0.250000
#
# Coordination Sequence:
#
# PCOD9409663 Si02
#       5
#     8   8   8   8   8
#     4  10  22  34  55  86 112 146 194 230 281 353
#     4  11  20  34  56  80 109 143 183 234 279 328
#     4  10  21  36  58  85 120 152 183 240 296 342
#     4  11  21  37  58  83 118 153 189 240 291 340
#     4  10  20  35  57  88 116 147 192 234 293 354
#
# _framework density 20.110896
#
# number of rings (size 3 to 8) (size 9 to 14) (size 15 to 20)
#    0.000    1.600    0.000    7.200    0.000    1.600 
#    0.000    0.000    0.000   21.600    0.000    0.000 
#    0.000    0.000    0.000    0.000    0.000    0.000 
#
# Total GULP energy -223640.192518 kJ/mol
# GULP energy per Si atom -5591.004813 kJ/mol
# Density = 2.006512 g / cm^3
# Si number density = 20.110896 Si / 1000 Ang^3
#
#
#
# Elastic Constant Matrix: (Units=GPa)
#
#
# Indices 1 2 3 4 5 6 
#
# 1 63.1535 15.8111 21.0301 0.0000 0.0000 0.0000
# 2 15.8111 130.3932 57.2532 0.0000 0.0000 0.0000
# 3 21.0301 57.2532 85.0611 0.0000 0.0000 0.0000
# 4 0.0000 0.0000 0.0000 36.9102 0.0000 0.0000
# 5 0.0000 0.0000 0.0000 0.0000 -24.6490 0.0000
# 6 0.0000 0.0000 0.0000 0.0000 0.0000 9.4682
#
#
#
# Elastic Compliance Matrix: (Units=1/GPa)
#
#
# Indices 1 2 3 4 5 6 
#
# 1 0.017264 -0.000311 -0.004059 0.000000 0.000000 0.000000
# 2 -0.000311 0.010892 -0.007254 0.000000 0.000000 0.000000
# 3 -0.004059 -0.007254 0.017643 0.000000 0.000000 0.000000
# 4 0.000000 0.000000 0.000000 0.027093 0.000000 0.000000
# 5 0.000000 0.000000 0.000000 0.000000 -0.040570 0.000000
# 6 0.000000 0.000000 0.000000 0.000000 0.000000 0.105617
#
#
# Mechanical properties :
#
#
# Convention : Reuss Voigt Hill
#
# Bulk Modulus (GPa) = 44.34623 51.86630 48.10627
# Shear Modulus (GPa) = 29.63768 16.64676 23.14222
#
# Velocity S-wave (km/s) = 3.84306 2.88018 3.39592
# Velocity P-wave (km/s) = 6.46459 6.07509 6.27286
#
# Compressibility (1/GPa) = 0.02254983
#
# Stress axis : x y z
#
# Youngs Moduli (GPa) = 57.92424 91.80961 56.68131
#
# Poissons Ratio (x) = 0.02858 0.23006
# Poissons Ratio (y) = 0.01803 0.41119
# Poissons Ratio (z) = 0.23510 0.66602
#
# Static dielectric constant tensor:
#      x y z
#    x 1.738010 0.000000 0.000000 
#    y 0.000000 1.713700 0.000000 
#    z 0.000000 0.000000 1.754850 
# 
# From -- ./inp_files/16640.got.cif
#   From: 2010.05.17/outbox.cif.g08.bks.cpg/sg52_9_cif.got.tgz:16640.got - 2010.06.03 12:15:38.
