data_PCOD9409951
_publ_section_title
;
Structure prediction by ZEFSAII (Michael W. Deem and Ramdas Pophale) SiO2 
 PCOD9409951
Probable space group: P N N A
;
_chemical_formula_sum "Si O2"
_cell_formula_units_Z 32
_cell_length_a 10.559954
_cell_length_b 22.400314
_cell_length_c 5.724517
_cell_angle_alpha 90.000000
_cell_angle_beta 90.000000
_cell_angle_gamma 90.000000
_cell_volume 1354.113232
_symmetry_space_group_name_H-M "P N N A"
_symmetry_group_IT_number 52
_symmetry_cell_setting 'orthorhombic'
loop_
_space_group_symop_operation_xyz
x,y,z
1/2-x,-y,z
x,1/2-y,1/2-z
1/2-x,1/2+y,1/2-z
-x,-y,-z
1/2+x,y,-z
-x,1/2+y,1/2+z
1/2+x,1/2-y,1/2+z
loop_
_atom_site_type_symbol
_atom_site_label
_atom_site_fract_x
_atom_site_fract_y
_atom_site_fract_z
Si Si1 0.623344 0.986066 0.248594
Si Si2 0.166012 0.628182 0.464881
Si Si3 0.515191 0.097594 0.404132
Si Si4 0.917562 0.820308 0.783997
O O1 0.523852 0.947197 0.389657
O O2 0.750000 0.000000 0.397375
O O3 0.567629 0.051774 0.208103
O O4 0.670826 0.941057 0.048761
O O5 0.106709 0.628288 0.206145
O O6 0.303991 0.657637 0.452601
O O7 0.057108 0.661479 0.617275
O O8 0.599263 0.146246 0.534063
O O9 0.910911 0.750000 0.750000
#
# Coordination Sequence:
#
# PCOD9409951 Si02
#       4
#     8   8   8   8
#     4  10  20  37  64 102 137 176 223 285 348 415
#     4  11  24  45  68 100 137 182 231 288 349 410
#     4  10  22  40  66 100 137 180 229 285 351 406
#     4  11  27  45  68 101 137 188 239 285 347 419
#
# _framework density 23.631702000000001
#
# number of rings (size 3 to 8) (size 9 to 14) (size 15 to 20)
#    0.000    1.500    0.000    3.750    3.500    7.000 
#    0.000    0.000    0.000    0.000    0.000    0.000 
#    0.000    0.000    0.000    0.000    0.000    0.000 
#
# Total GULP energy -178464.707775 kJ/mol
# GULP energy per Si atom -5577.022118 kJ/mol
# Density = 2.357792 g / cm^3
# Si number density = 23.631702 Si / 1000 Ang^3
#
#
#
# Elastic Constant Matrix: (Units=GPa)
#
#
# Indices 1 2 3 4 5 6 
#
# 1 122.8380 67.0907 23.2941 0.0000 0.0000 0.0000
# 2 67.0907 195.2070 48.1034 0.0000 0.0000 0.0000
# 3 23.2941 48.1034 60.5520 0.0000 0.0000 0.0000
# 4 0.0000 0.0000 0.0000 24.7889 0.0000 0.0000
# 5 0.0000 0.0000 0.0000 0.0000 38.9798 0.0000
# 6 0.0000 0.0000 0.0000 0.0000 0.0000 20.1668
#
#
#
# Elastic Compliance Matrix: (Units=1/GPa)
#
#
# Indices 1 2 3 4 5 6 
#
# 1 0.010117 -0.003131 -0.001405 0.000000 0.000000 0.000000
# 2 -0.003131 0.007339 -0.004625 0.000000 0.000000 0.000000
# 3 -0.001405 -0.004625 0.020730 0.000000 0.000000 0.000000
# 4 0.000000 0.000000 0.000000 0.040341 0.000000 0.000000
# 5 0.000000 0.000000 0.000000 0.000000 0.025654 0.000000
# 6 0.000000 0.000000 0.000000 0.000000 0.000000 0.049587
#
#
# Mechanical properties :
#
#
# Convention : Reuss Voigt Hill
#
# Bulk Modulus (GPa) = 50.34444 72.84149 61.59296
# Shear Modulus (GPa) = 27.97819 32.79435 30.38627
#
# Velocity S-wave (km/s) = 3.44456 3.72926 3.58973
# Velocity P-wave (km/s) = 6.09672 7.03091 6.58041
#
# Compressibility (1/GPa) = 0.01986317
#
# Stress axis : x y z
#
# Youngs Moduli (GPa) = 98.84082 136.26388 48.24002
#
# Poissons Ratio (x) = 0.42665 0.06776
# Poissons Ratio (y) = 0.30948 0.22313
# Poissons Ratio (z) = 0.13884 0.63029
#
# Static dielectric constant tensor:
#      x y z
#    x 2.010400 0.000000 0.000000 
#    y 0.000000 1.866840 0.000000 
#    z 0.000000 0.000000 1.962700 
# 
# From -- ./inp_files/1030.got.cif
#   From: 2010.05.17/outbox.cif.g08.bks.cpg/sg52_1_cif.got.tgz:1030.got - 2010.06.03 12:15:38.
