data_PCOD9409809
_publ_section_title
;
Structure prediction by ZEFSAII (Michael W. Deem and Ramdas Pophale) SiO2 
 PCOD9409809
Probable space group: P N N A
;
_chemical_formula_sum "Si O2"
_cell_formula_units_Z 56
_cell_length_a 14.899782
_cell_length_b 11.975190
_cell_length_c 16.005184
_cell_angle_alpha 90.000000
_cell_angle_beta 90.000000
_cell_angle_gamma 90.000000
_cell_volume 2855.768496
_symmetry_space_group_name_H-M "P N N A"
_symmetry_group_IT_number 52
_symmetry_cell_setting 'orthorhombic'
loop_
_space_group_symop_operation_xyz
x,y,z
1/2-x,-y,z
x,1/2-y,1/2-z
1/2-x,1/2+y,1/2-z
-x,-y,-z
1/2+x,y,-z
-x,1/2+y,1/2+z
1/2+x,1/2-y,1/2+z
loop_
_atom_site_type_symbol
_atom_site_label
_atom_site_fract_x
_atom_site_fract_y
_atom_site_fract_z
Si Si1 0.165504 0.218056 0.009163
Si Si2 0.666881 0.341357 0.315005
Si Si3 0.988132 0.618482 0.955129
Si Si4 0.131748 0.592020 0.667779
Si Si5 0.357696 0.990919 0.127078
Si Si6 0.042280 0.367353 0.238575
Si Si7 0.373490 0.189155 0.012916
O O1 0.108878 0.327452 0.028224
O O2 0.127509 0.114301 0.064002
O O3 0.271469 0.230472 0.027203
O O4 0.155466 0.193412 0.910958
O O5 0.633232 0.250000 0.250000
O O6 0.773757 0.359980 0.301084
O O7 0.625200 0.463391 0.306201
O O8 0.990167 0.607348 0.854654
O O9 0.000000 0.500000 0.000000
O O10 0.060064 0.709549 0.990323
O O11 0.132405 0.609039 0.568480
O O12 0.045051 0.649693 0.703995
O O13 0.399955 0.961999 0.216095
O O14 0.250000 0.000000 0.131794
O O15 0.397321 0.104762 0.087894
O O16 0.094502 0.250000 0.250000
#
# Coordination Sequence:
#
# PCOD9409809 Si02
#       7
#     8   8   8   8   8   8   8
#     4  10  21  40  66  93 128 167 216 269 326 383
#     4  10  21  34  57  95 135 163 202 264 318 381
#     4  12  28  45  61  95 137 174 220 265 338 403
#     4  10  20  36  61  94 125 164 217 250 315 389
#     4  10  21  42  69  99 119 165 233 277 320 382
#     4  12  23  41  67  93 128 167 216 269 321 391
#     4  10  21  42  70  94 125 169 222 273 319 390
#
# _framework density 19.609432999999999
#
# number of rings (size 3 to 8) (size 9 to 14) (size 15 to 20)
#    0.000    1.429    4.286    0.429    6.000    1.714 
#    2.571    0.714    0.000    0.000    0.000    0.000 
#    0.000    0.000    0.000    0.000    0.000    0.000 
#
# Total GULP energy -312637.992457 kJ/mol
# GULP energy per Si atom -5582.821294 kJ/mol
# Density = 1.956480 g / cm^3
# Si number density = 19.609433 Si / 1000 Ang^3
#
#
#
# Elastic Constant Matrix: (Units=GPa)
#
#
# Indices 1 2 3 4 5 6 
#
# 1 52.3153 37.4134 29.2107 0.0000 0.0000 0.0000
# 2 37.4134 121.2058 46.7112 0.0000 0.0000 0.0000
# 3 29.2107 46.7112 79.9558 0.0000 0.0000 0.0000
# 4 0.0000 0.0000 0.0000 33.9123 0.0000 0.0000
# 5 0.0000 0.0000 0.0000 0.0000 17.1700 0.0000
# 6 0.0000 0.0000 0.0000 0.0000 0.0000 18.9408
#
#
#
# Elastic Compliance Matrix: (Units=1/GPa)
#
#
# Indices 1 2 3 4 5 6 
#
# 1 0.026857 -0.005819 -0.006412 0.000000 0.000000 0.000000
# 2 -0.005819 0.011908 -0.004831 0.000000 0.000000 0.000000
# 3 -0.006412 -0.004831 0.017672 0.000000 0.000000 0.000000
# 4 0.000000 0.000000 0.000000 0.029488 0.000000 0.000000
# 5 0.000000 0.000000 0.000000 0.000000 0.058241 0.000000
# 6 0.000000 0.000000 0.000000 0.000000 0.000000 0.052796
#
#
# Mechanical properties :
#
#
# Convention : Reuss Voigt Hill
#
# Bulk Modulus (GPa) = 44.81806 53.34973 49.08389
# Shear Modulus (GPa) = 20.96224 23.34739 22.15481
#
# Velocity S-wave (km/s) = 3.27308 3.45428 3.36490
# Velocity P-wave (km/s) = 6.09829 6.57074 6.33892
#
# Compressibility (1/GPa) = 0.02231244
#
# Stress axis : x y z
#
# Youngs Moduli (GPa) = 37.23487 83.97379 56.58667
#
# Poissons Ratio (x) = 0.48863 0.36285
# Poissons Ratio (y) = 0.21666 0.27339
# Poissons Ratio (z) = 0.23876 0.40570
#
# Static dielectric constant tensor:
#      x y z
#    x 1.689430 0.000000 0.000000 
#    y 0.000000 1.728870 0.000000 
#    z 0.000000 0.000000 1.698220 
# 
# From -- ./inp_files/27254.got.cif
#   From: 2010.05.17/outbox.cif.g08.bks.cpg/sg52_14_cif.got.tgz:27254.got - 2010.06.03 12:15:38.
