data_PCOD9409188
_publ_section_title
;
Structure prediction by ZEFSAII (Michael W. Deem and Ramdas Pophale) SiO2 
 PCOD9409188
Probable space group: P N N A
;
_chemical_formula_sum "Si O2"
_cell_formula_units_Z 48
_cell_length_a 8.500896
_cell_length_b 30.510323
_cell_length_c 9.287965
_cell_angle_alpha 90.000000
_cell_angle_beta 90.000000
_cell_angle_gamma 90.000000
_cell_volume 2408.973811
_symmetry_space_group_name_H-M "P N N A"
_symmetry_group_IT_number 52
_symmetry_cell_setting 'orthorhombic'
loop_
_space_group_symop_operation_xyz
x,y,z
1/2-x,-y,z
x,1/2-y,1/2-z
1/2-x,1/2+y,1/2-z
-x,-y,-z
1/2+x,y,-z
-x,1/2+y,1/2+z
1/2+x,1/2-y,1/2+z
loop_
_atom_site_type_symbol
_atom_site_label
_atom_site_fract_x
_atom_site_fract_y
_atom_site_fract_z
Si Si1 0.128648 0.031739 0.430352
Si Si2 0.305089 0.333468 0.154051
Si Si3 0.783196 0.331187 0.292340
Si Si4 0.394596 0.715778 0.945754
Si Si5 0.363120 0.094150 0.573233
Si Si6 0.381224 0.686264 0.434350
O O1 0.238304 0.055704 0.546779
O O2 0.025084 0.072126 0.372405
O O3 0.250000 0.000000 0.344575
O O4 0.000000 0.000000 0.500000
O O5 0.434701 0.296185 0.117021
O O6 0.249782 0.329241 0.318444
O O7 0.148540 0.320313 0.065676
O O8 0.369732 0.378125 0.078601
O O9 0.726775 0.293279 0.183440
O O10 0.802439 0.372921 0.192242
O O11 0.653309 0.337679 0.415371
O O12 0.947496 0.321012 0.368471
O O13 0.374319 0.762546 0.020088
#
# Coordination Sequence:
#
# PCOD9409188 Si02
#       6
#     8   8   8   8   8   8
#     4   9  18  33  60  93 116 140 175 226 282 344
#     4  11  22  37  60  82 113 158 196 249 297 333
#     4  11  24  39  58  82 116 159 197 251 299 334
#     4  11  23  39  54  78 114 156 208 258 291 325
#     4  10  19  37  58  89 121 142 183 234 289 351
#     4  12  24  39  56  82 113 159 213 246 290 347
#
# _framework density 19.925498000000001
#
# number of rings (size 3 to 8) (size 9 to 14) (size 15 to 20)
#    0.000    1.333    0.000    8.000    0.000    4.000 
#    0.000    1.667    0.000    0.000    0.000   73.500 
#    0.000    0.000    0.000    0.000    0.000    0.000 
#
# Total GULP energy -267807.057599 kJ/mol
# GULP energy per Si atom -5579.313700 kJ/mol
# Density = 1.988015 g / cm^3
# Si number density = 19.925498 Si / 1000 Ang^3
#
#
#
# Elastic Constant Matrix: (Units=GPa)
#
#
# Indices 1 2 3 4 5 6 
#
# 1 96.0475 35.5665 23.3735 0.0000 0.0000 0.0000
# 2 35.5665 98.4611 34.6411 0.0000 0.0000 0.0000
# 3 23.3735 34.6411 101.9469 0.0000 0.0000 0.0000
# 4 0.0000 0.0000 0.0000 4.2235 0.0000 0.0000
# 5 0.0000 0.0000 0.0000 0.0000 33.7049 0.0000
# 6 0.0000 0.0000 0.0000 0.0000 0.0000 37.7956
#
#
#
# Elastic Compliance Matrix: (Units=1/GPa)
#
#
# Indices 1 2 3 4 5 6 
#
# 1 0.012212 -0.003891 -0.001478 0.000000 0.000000 0.000000
# 2 -0.003891 0.012775 -0.003449 0.000000 0.000000 0.000000
# 3 -0.001478 -0.003449 0.011320 0.000000 0.000000 0.000000
# 4 0.000000 0.000000 0.000000 0.236771 0.000000 0.000000
# 5 0.000000 0.000000 0.000000 0.000000 0.029669 0.000000
# 6 0.000000 0.000000 0.000000 0.000000 0.000000 0.026458
#
#
# Mechanical properties :
#
#
# Convention : Reuss Voigt Hill
#
# Bulk Modulus (GPa) = 53.55771 53.73531 53.64651
# Shear Modulus (GPa) = 14.16170 28.66976 21.41573
#
# Velocity S-wave (km/s) = 2.66885 3.79733 3.28196
# Velocity P-wave (km/s) = 6.03609 6.80095 6.42990
#
# Compressibility (1/GPa) = 0.01867145
#
# Stress axis : x y z
#
# Youngs Moduli (GPa) = 81.88607 78.27570 88.34161
#
# Poissons Ratio (x) = 0.30461 0.13053
# Poissons Ratio (y) = 0.31865 0.30467
# Poissons Ratio (z) = 0.12099 0.26996
#
# Static dielectric constant tensor:
#      x y z
#    x 1.792330 0.000000 0.000000 
#    y 0.000000 1.757500 0.000000 
#    z 0.000000 0.000000 1.707680 
# 
# From -- ./inp_files/7714.got.cif
#   From: 2010.05.17/outbox.cif.g08.bks.cpg/sg52_4_cif.got.tgz:7714.got - 2010.06.03 12:15:38.
