data_PCOD9409335
_publ_section_title
;
Structure prediction by ZEFSAII (Michael W. Deem and Ramdas Pophale) SiO2 
 PCOD9409335
Probable space group: P N N A
;
_chemical_formula_sum "Si O2"
_cell_formula_units_Z 60
_cell_length_a 19.524230
_cell_length_b 15.794056
_cell_length_c 8.036826
_cell_angle_alpha 90.000000
_cell_angle_beta 90.000000
_cell_angle_gamma 90.000000
_cell_volume 2478.290171
_symmetry_space_group_name_H-M "P N N A"
_symmetry_group_IT_number 52
_symmetry_cell_setting 'orthorhombic'
loop_
_space_group_symop_operation_xyz
x,y,z
1/2-x,-y,z
x,1/2-y,1/2-z
1/2-x,1/2+y,1/2-z
-x,-y,-z
1/2+x,y,-z
-x,1/2+y,1/2+z
1/2+x,1/2-y,1/2+z
loop_
_atom_site_type_symbol
_atom_site_label
_atom_site_fract_x
_atom_site_fract_y
_atom_site_fract_z
Si Si1 0.423013 0.896997 0.036828
Si Si2 0.495443 0.649721 0.789717
Si Si3 0.643054 0.915322 0.606543
Si Si4 0.105421 0.250000 0.250000
Si Si5 0.326852 0.458138 0.448376
Si Si6 0.637929 0.108687 0.501635
Si Si7 0.656061 0.839954 0.242910
Si Si8 0.305680 0.834683 0.815756
O O1 0.473623 0.897283 0.881533
O O2 0.349943 0.865326 0.964674
O O3 0.441245 0.821523 0.161198
O O4 0.393386 0.984264 0.103385
O O5 0.496620 0.750000 0.750000
O O6 0.567536 0.620135 0.858724
O O7 0.437042 0.625766 0.923280
O O8 0.683944 0.902105 0.780827
O O9 0.664450 0.872396 0.431320
O O10 0.644387 0.015989 0.575398
O O11 0.148807 0.188453 0.374021
O O12 0.250000 0.500000 0.483630
O O13 0.360032 0.415471 0.614733
O O14 0.688035 0.105943 0.342918
O O15 0.616798 0.750000 0.250000
O O16 0.727875 0.816636 0.150481
O O17 0.340796 0.750000 0.750000
#
# Coordination Sequence:
#
# PCOD9409335 Si02
#       8
#     8   8   8   4   8   8   8   8
#     4  11  21  43  72 103 144 180 242 306 363 424
#     4  11  24  47  71  96 144 194 240 305 357 434
#     4  12  29  45  73 106 147 193 241 302 367 438
#     4  12  20  38  66 114 132 174 246 298 364 424
#     4  12  27  46  72 111 149 187 240 308 366 438
#     4  11  22  41  71 104 132 180 241 293 364 417
#     4  11  27  48  70 102 147 202 245 288 367 442
#     4  10  19  39  68  94 134 182 230 296 346 416
#
# _framework density 24.210239999999999
#
# number of rings (size 3 to 8) (size 9 to 14) (size 15 to 20)
#    0.000    0.800    5.333    2.800    3.733    0.533 
#    3.600    0.000    0.000    0.000    0.000    0.000 
#    0.000    0.000    0.000    0.000    0.000    0.000 
#
# Total GULP energy -334317.945850 kJ/mol
# GULP energy per Si atom -5571.965764 kJ/mol
# Density = 2.415514 g / cm^3
# Si number density = 24.210240 Si / 1000 Ang^3
#
#
#
# Elastic Constant Matrix: (Units=GPa)
#
#
# Indices 1 2 3 4 5 6 
#
# 1 69.3041 7.3722 -0.6790 0.0000 0.0000 0.0000
# 2 7.3722 65.2946 23.4754 0.0000 0.0000 0.0000
# 3 -0.6790 23.4754 125.7160 0.0000 0.0000 0.0000
# 4 0.0000 0.0000 0.0000 31.5203 0.0000 0.0000
# 5 0.0000 0.0000 0.0000 0.0000 26.2891 0.0000
# 6 0.0000 0.0000 0.0000 0.0000 0.0000 15.3742
#
#
#
# Elastic Compliance Matrix: (Units=1/GPa)
#
#
# Indices 1 2 3 4 5 6 
#
# 1 0.014625 -0.001801 0.000415 0.000000 0.000000 0.000000
# 2 -0.001801 0.016639 -0.003117 0.000000 0.000000 0.000000
# 3 0.000415 -0.003117 0.008539 0.000000 0.000000 0.000000
# 4 0.000000 0.000000 0.000000 0.031726 0.000000 0.000000
# 5 0.000000 0.000000 0.000000 0.000000 0.038039 0.000000
# 6 0.000000 0.000000 0.000000 0.000000 0.000000 0.065044
#
#
# Mechanical properties :
#
#
# Convention : Reuss Voigt Hill
#
# Bulk Modulus (GPa) = 32.46931 35.62798 34.04865
# Shear Modulus (GPa) = 25.78899 29.97978 27.88439
#
# Velocity S-wave (km/s) = 3.26730 3.52278 3.39744
# Velocity P-wave (km/s) = 5.26062 5.59416 5.42995
#
# Compressibility (1/GPa) = 0.03079832
#
# Stress axis : x y z
#
# Youngs Moduli (GPa) = 68.37720 60.09952 117.11396
#
# Poissons Ratio (x) = 0.10821 -0.04863
# Poissons Ratio (y) = 0.12311 0.36502
# Poissons Ratio (z) = -0.02839 0.18732
#
# Static dielectric constant tensor:
#      x y z
#    x 1.935890 0.000000 0.000000 
#    y 0.000000 1.784590 0.000000 
#    z 0.000000 0.000000 2.086430 
# 
# From -- ./inp_files/14455.got.cif
#   From: 2010.05.17/outbox.cif.g08.bks.cpg/sg52_8_cif.got.tgz:14455.got - 2010.06.03 12:15:38.
