data_PCOD9409201
_publ_section_title
;
Structure prediction by ZEFSAII (Michael W. Deem and Ramdas Pophale) SiO2 
 PCOD9409201
Probable space group: P N N A
;
_chemical_formula_sum "Si O2"
_cell_formula_units_Z 52
_cell_length_a 26.071711
_cell_length_b 9.398227
_cell_length_c 9.169090
_cell_angle_alpha 90.000000
_cell_angle_beta 90.000000
_cell_angle_gamma 90.000000
_cell_volume 2246.682485
_symmetry_space_group_name_H-M "P N N A"
_symmetry_group_IT_number 52
_symmetry_cell_setting 'orthorhombic'
loop_
_space_group_symop_operation_xyz
x,y,z
1/2-x,-y,z
x,1/2-y,1/2-z
1/2-x,1/2+y,1/2-z
-x,-y,-z
1/2+x,y,-z
-x,1/2+y,1/2+z
1/2+x,1/2-y,1/2+z
loop_
_atom_site_type_symbol
_atom_site_label
_atom_site_fract_x
_atom_site_fract_y
_atom_site_fract_z
Si Si1 0.061023 0.514648 0.000329
Si Si2 0.808602 0.250000 0.750000
Si Si3 0.330639 0.886880 0.960800
Si Si4 0.561401 0.433460 0.325150
Si Si5 0.121246 0.023836 0.232801
Si Si6 0.542527 0.837572 0.954128
Si Si7 0.721728 0.697308 0.414330
O O1 0.074314 0.462511 0.841331
O O2 0.092354 0.428523 0.121833
O O3 0.067996 0.683039 0.035099
O O4 0.000000 0.500000 0.000000
O O5 0.841249 0.106780 0.738662
O O6 0.785091 0.249848 0.584444
O O7 0.385602 0.875430 0.887309
O O8 0.283584 0.794060 0.907895
O O9 0.307365 0.045239 0.929530
O O10 0.345193 0.874054 0.131440
O O11 0.543495 0.587358 0.389039
O O12 0.513726 0.336844 0.381039
O O13 0.076091 0.948992 0.138363
O O14 0.704368 0.750000 0.250000
#
# Coordination Sequence:
#
# PCOD9409201 Si02
#       7
#     8   4   8   8   8   8   8
#     4  12  22  34  58  95 123 164 218 255 306 390
#     4  10  20  38  68  90 118 172 208 262 330 368
#     4   9  22  43  61  89 128 157 207 269 325 376
#     4  10  22  37  61  85 124 173 208 258 328 376
#     4  10  19  37  61  86 124 162 205 258 308 376
#     4  10  20  39  57  85 130 164 207 266 309 378
#     4  10  22  43  66  93 124 161 213 274 325 390
#
# _framework density 23.145237999999999
#
# number of rings (size 3 to 8) (size 9 to 14) (size 15 to 20)
#    0.000    1.846    3.077    0.462    2.154    0.000 
#    5.538    1.538    0.000    0.000    0.000    0.000 
#    0.000    0.000    0.000    0.000    0.000    0.000 
#
# Total GULP energy -289610.409424 kJ/mol
# GULP energy per Si atom -5569.430950 kJ/mol
# Density = 2.309256 g / cm^3
# Si number density = 23.145238 Si / 1000 Ang^3
#
#
#
# Elastic Constant Matrix: (Units=GPa)
#
#
# Indices 1 2 3 4 5 6 
#
# 1 105.2482 4.0489 49.1896 0.0000 0.0000 0.0000
# 2 4.0489 24.2697 18.0159 0.0000 0.0000 0.0000
# 3 49.1896 18.0159 204.7924 0.0000 0.0000 0.0000
# 4 0.0000 0.0000 0.0000 24.2232 0.0000 0.0000
# 5 0.0000 0.0000 0.0000 0.0000 38.7936 0.0000
# 6 0.0000 0.0000 0.0000 0.0000 0.0000 16.1364
#
#
#
# Elastic Compliance Matrix: (Units=1/GPa)
#
#
# Indices 1 2 3 4 5 6 
#
# 1 0.010703 0.000131 -0.002582 0.000000 0.000000 0.000000
# 2 0.000131 0.044084 -0.003910 0.000000 0.000000 0.000000
# 3 -0.002582 -0.003910 0.005847 0.000000 0.000000 0.000000
# 4 0.000000 0.000000 0.000000 0.041283 0.000000 0.000000
# 5 0.000000 0.000000 0.000000 0.000000 0.025777 0.000000
# 6 0.000000 0.000000 0.000000 0.000000 0.000000 0.061972
#
#
# Mechanical properties :
#
#
# Convention : Reuss Voigt Hill
#
# Bulk Modulus (GPa) = 20.87122 52.97992 36.92557
# Shear Modulus (GPa) = 22.89812 33.36770 28.13291
#
# Velocity S-wave (km/s) = 3.14876 3.80105 3.49018
# Velocity P-wave (km/s) = 4.71770 6.49645 5.67717
#
# Compressibility (1/GPa) = 0.04791286
#
# Stress axis : x y z
#
# Youngs Moduli (GPa) = 93.42985 22.68402 171.02186
#
# Poissons Ratio (x) = -0.00298 0.44164
# Poissons Ratio (y) = -0.01227 0.66864
# Poissons Ratio (z) = 0.24127 0.08869
#
# Static dielectric constant tensor:
#      x y z
#    x 1.915730 0.000000 0.000000 
#    y 0.000000 1.897370 0.000000 
#    z 0.000000 0.000000 2.028180 
# 
# From -- ./inp_files/15015.got.cif
#   From: 2010.05.17/outbox.cif.g08.bks.cpg/sg52_8_cif.got.tgz:15015.got - 2010.06.03 12:15:38.
