data_PCOD9409246
_publ_section_title
;
Structure prediction by ZEFSAII (Michael W. Deem and Ramdas Pophale) SiO2 
 PCOD9409246
Probable space group: P N N A
;
_chemical_formula_sum "Si O2"
_cell_formula_units_Z 32
_cell_length_a 11.778521
_cell_length_b 4.912905
_cell_length_c 24.009592
_cell_angle_alpha 90.000000
_cell_angle_beta 90.000000
_cell_angle_gamma 90.000000
_cell_volume 1389.357171
_symmetry_space_group_name_H-M "P N N A"
_symmetry_group_IT_number 52
_symmetry_cell_setting 'orthorhombic'
loop_
_space_group_symop_operation_xyz
x,y,z
1/2-x,-y,z
x,1/2-y,1/2-z
1/2-x,1/2+y,1/2-z
-x,-y,-z
1/2+x,y,-z
-x,1/2+y,1/2+z
1/2+x,1/2-y,1/2+z
loop_
_atom_site_type_symbol
_atom_site_label
_atom_site_fract_x
_atom_site_fract_y
_atom_site_fract_z
Si Si1 0.750000 0.000000 0.427305
Si Si2 0.250000 0.500000 0.498749
Si Si3 0.463086 0.723547 0.628814
Si Si4 0.394890 0.768521 0.403771
Si Si5 0.250000 0.500000 0.186160
Si Si6 0.450033 0.250000 0.250000
O O1 0.701620 0.751561 0.465046
O O2 0.844749 0.845656 0.391138
O O3 0.340823 0.656707 0.460183
O O4 0.500474 0.425795 0.610254
O O5 0.474685 0.706292 0.695579
O O6 0.556894 0.925808 0.601088
O O7 0.296203 0.771004 0.356603
O O8 0.357978 0.461201 0.225737
#
# Coordination Sequence:
#
# PCOD9409246 Si02
#       6
#     4   4   8   8   4   4
#     4  12  27  44  63  92 133 180 239 266 304 390
#     4  12  24  43  69  96 131 175 212 282 344 388
#     4  11  25  43  64  97 131 175 224 272 323 401
#     4  11  23  41  68 100 133 163 214 274 347 407
#     4  10  19  37  70 112 138 159 209 276 352 432
#     4  10  20  38  68  94 132 168 202 268 344 384
#
# _framework density 23.032233000000002
#
# number of rings (size 3 to 8) (size 9 to 14) (size 15 to 20)
#    0.000    1.000    0.000    8.250    0.000    9.000 
#    0.000    3.750    0.000    0.000    0.000    0.000 
#    0.000    0.000    0.000    0.000    0.000    0.000 
#
# Total GULP energy -178602.645379 kJ/mol
# GULP energy per Si atom -5581.332668 kJ/mol
# Density = 2.297981 g / cm^3
# Si number density = 23.032233 Si / 1000 Ang^3
#
#
#
# Elastic Constant Matrix: (Units=GPa)
#
#
# Indices 1 2 3 4 5 6 
#
# 1 88.1193 16.7801 65.9901 0.0000 0.0000 0.0000
# 2 16.7801 109.2835 40.6532 0.0000 0.0000 0.0000
# 3 65.9901 40.6532 151.1026 0.0000 0.0000 0.0000
# 4 0.0000 0.0000 0.0000 0.9517 0.0000 0.0000
# 5 0.0000 0.0000 0.0000 0.0000 156.3246 0.0000
# 6 0.0000 0.0000 0.0000 0.0000 0.0000 39.7663
#
#
#
# Elastic Compliance Matrix: (Units=1/GPa)
#
#
# Indices 1 2 3 4 5 6 
#
# 1 0.016866 0.000167 -0.007411 0.000000 0.000000 0.000000
# 2 0.000167 0.010170 -0.002809 0.000000 0.000000 0.000000
# 3 -0.007411 -0.002809 0.010610 0.000000 0.000000 0.000000
# 4 0.000000 0.000000 0.000000 1.050773 0.000000 0.000000
# 5 0.000000 0.000000 0.000000 0.000000 0.006397 0.000000
# 6 0.000000 0.000000 0.000000 0.000000 0.000000 0.025147
#
#
# Mechanical properties :
#
#
# Convention : Reuss Voigt Hill
#
# Bulk Modulus (GPa) = 57.01056 66.15024 61.58040
# Shear Modulus (GPa) = 4.36332 54.41396 29.38864
#
# Velocity S-wave (km/s) = 1.37788 4.86584 3.57596
# Velocity P-wave (km/s) = 5.22854 7.76863 6.62153
#
# Compressibility (1/GPa) = 0.01754061
#
# Stress axis : x y z
#
# Youngs Moduli (GPa) = 59.29026 98.32995 94.24834
#
# Poissons Ratio (x) = -0.01643 0.69846
# Poissons Ratio (y) = -0.00991 0.26475
# Poissons Ratio (z) = 0.43939 0.27622
#
# Static dielectric constant tensor:
#      x y z
#    x 1.891440 0.000000 0.000000 
#    y 0.000000 1.861200 0.000000 
#    z 0.000000 0.000000 1.906480 
# 
# From -- ./inp_files/36524.got.cif
#   From: 2010.05.17/outbox.cif.g08.bks.cpg/sg52_19_cif.got.tgz:36524.got - 2010.06.03 12:15:38.
