data_PCOD9409317
_publ_section_title
;
Structure prediction by ZEFSAII (Michael W. Deem and Ramdas Pophale) SiO2 
 PCOD9409317
Probable space group: P N N A
;
_chemical_formula_sum "Si O2"
_cell_formula_units_Z 64
_cell_length_a 18.526685
_cell_length_b 16.444198
_cell_length_c 11.173994
_cell_angle_alpha 90.000000
_cell_angle_beta 90.000000
_cell_angle_gamma 90.000000
_cell_volume 3404.229640
_symmetry_space_group_name_H-M "P N N A"
_symmetry_group_IT_number 52
_symmetry_cell_setting 'orthorhombic'
loop_
_space_group_symop_operation_xyz
x,y,z
1/2-x,-y,z
x,1/2-y,1/2-z
1/2-x,1/2+y,1/2-z
-x,-y,-z
1/2+x,y,-z
-x,1/2+y,1/2+z
1/2+x,1/2-y,1/2+z
loop_
_atom_site_type_symbol
_atom_site_label
_atom_site_fract_x
_atom_site_fract_y
_atom_site_fract_z
Si Si1 0.829080 0.018455 0.101305
Si Si2 0.767647 0.904505 0.516479
Si Si3 0.073096 0.888632 0.072821
Si Si4 0.594459 0.190878 0.437263
Si Si5 0.840114 0.160168 0.698733
Si Si6 0.323101 0.162021 0.704985
Si Si7 0.436456 0.208143 0.523552
Si Si8 0.912156 0.863596 0.164549
O O1 0.822421 0.092414 0.195438
O O2 0.750000 0.000000 0.048004
O O3 0.855542 0.936243 0.163422
O O4 0.891073 0.042681 0.007881
O O5 0.847884 0.868869 0.498609
O O6 0.731820 0.876032 0.640897
O O7 0.726273 0.863795 0.405407
O O8 0.750000 0.000000 0.506662
O O9 0.121224 0.885133 0.192600
O O10 0.079952 0.803537 0.999500
O O11 0.989375 0.891359 0.110785
O O12 0.520982 0.193408 0.512320
O O13 0.576797 0.161038 0.302556
O O14 0.615686 0.285490 0.411672
O O15 0.826097 0.250000 0.750000
O O16 0.896706 0.165783 0.588995
O O17 0.297747 0.250000 0.750000
O O18 0.401656 0.176545 0.645654
#
# Coordination Sequence:
#
# PCOD9409317 Si02
#       8
#     8   8   8   8   8   8   8   8
#     4  12  25  37  58  95 128 159 203 260 321 375
#     4  11  24  40  60  94 130 161 205 261 309 376
#     4  10  19  39  63  88 121 161 209 255 308 375
#     4  10  20  38  65  89 120 162 211 252 312 370
#     4   9  19  38  64  85 114 161 207 241 302 372
#     4  11  22  39  61  86 123 164 207 252 318 372
#     4   9  18  38  64  88 109 164 214 249 299 374
#     4  10  21  37  63  92 123 160 208 260 310 375
#
# _framework density 18.800141
#
# number of rings (size 3 to 8) (size 9 to 14) (size 15 to 20)
#    0.000    1.750    2.500    2.250    3.500    0.500 
#    2.250    2.500    2.750    0.000    0.000    0.000 
#    0.000    0.000    0.000    0.000    0.000    0.000 
#
# Total GULP energy -357006.644429 kJ/mol
# GULP energy per Si atom -5578.228819 kJ/mol
# Density = 1.875735 g / cm^3
# Si number density = 18.800141 Si / 1000 Ang^3
#
#
#
# Elastic Constant Matrix: (Units=GPa)
#
#
# Indices 1 2 3 4 5 6 
#
# 1 91.7612 39.8383 23.5264 0.0000 0.0000 0.0000
# 2 39.8383 86.0030 34.3707 0.0000 0.0000 0.0000
# 3 23.5264 34.3707 45.4608 0.0000 0.0000 0.0000
# 4 0.0000 0.0000 0.0000 21.7661 0.0000 0.0000
# 5 0.0000 0.0000 0.0000 0.0000 23.5016 0.0000
# 6 0.0000 0.0000 0.0000 0.0000 0.0000 26.2996
#
#
#
# Elastic Compliance Matrix: (Units=1/GPa)
#
#
# Indices 1 2 3 4 5 6 
#
# 1 0.013989 -0.005140 -0.003354 0.000000 0.000000 0.000000
# 2 -0.005140 0.018550 -0.011365 0.000000 0.000000 0.000000
# 3 -0.003354 -0.011365 0.032325 0.000000 0.000000 0.000000
# 4 0.000000 0.000000 0.000000 0.045943 0.000000 0.000000
# 5 0.000000 0.000000 0.000000 0.000000 0.042550 0.000000
# 6 0.000000 0.000000 0.000000 0.000000 0.000000 0.038023
#
#
# Mechanical properties :
#
#
# Convention : Reuss Voigt Hill
#
# Bulk Modulus (GPa) = 39.76519 46.52174 43.14347
# Shear Modulus (GPa) = 20.87850 22.67944 21.77897
#
# Velocity S-wave (km/s) = 3.33611 3.47701 3.40729
# Velocity P-wave (km/s) = 6.00308 6.39677 6.20305
#
# Compressibility (1/GPa) = 0.02514762
#
# Stress axis : x y z
#
# Youngs Moduli (GPa) = 71.48417 53.90728 30.93571
#
# Poissons Ratio (x) = 0.27707 0.10374
# Poissons Ratio (y) = 0.36741 0.35159
# Poissons Ratio (z) = 0.23973 0.61266
#
# Static dielectric constant tensor:
#      x y z
#    x 1.659020 0.000000 0.000000 
#    y 0.000000 1.698440 0.000000 
#    z 0.000000 0.000000 1.628000 
# 
# From -- ./inp_files/20885.got.cif
#   From: 2010.05.17/outbox.cif.g08.bks.cpg/sg52_11_cif.got.tgz:20885.got - 2010.06.03 12:15:38.
