data_PCOD9409631
_publ_section_title
;
Structure prediction by ZEFSAII (Michael W. Deem and Ramdas Pophale) SiO2 
 PCOD9409631
Probable space group: P N N A
;
_chemical_formula_sum "Si O2"
_cell_formula_units_Z 44
_cell_length_a 11.770078
_cell_length_b 8.666507
_cell_length_c 23.983687
_cell_angle_alpha 90.000000
_cell_angle_beta 90.000000
_cell_angle_gamma 90.000000
_cell_volume 2446.467106
_symmetry_space_group_name_H-M "P N N A"
_symmetry_group_IT_number 52
_symmetry_cell_setting 'orthorhombic'
loop_
_space_group_symop_operation_xyz
x,y,z
1/2-x,-y,z
x,1/2-y,1/2-z
1/2-x,1/2+y,1/2-z
-x,-y,-z
1/2+x,y,-z
-x,1/2+y,1/2+z
1/2+x,1/2-y,1/2+z
loop_
_atom_site_type_symbol
_atom_site_label
_atom_site_fract_x
_atom_site_fract_y
_atom_site_fract_z
Si Si1 0.315726 0.663832 0.808803
Si Si2 0.322010 0.844935 0.922612
Si Si3 0.415810 0.221268 0.312761
Si Si4 0.701309 0.262423 0.543559
Si Si5 0.583278 0.568606 0.587360
Si Si6 0.750000 0.500000 0.879617
O O1 0.250000 0.500000 0.809950
O O2 0.288352 0.750000 0.750000
O O3 0.288229 0.762465 0.864698
O O4 0.454101 0.658452 0.811684
O O5 0.452912 0.896896 0.923883
O O6 0.250000 0.000000 0.930156
O O7 0.309123 0.741677 0.977709
O O8 0.380179 0.250000 0.250000
O O9 0.405284 0.380496 0.347979
O O10 0.334325 0.099955 0.342419
O O11 0.622654 0.400008 0.567956
O O12 0.830400 0.318291 0.555188
O O13 0.680179 0.112190 0.579803
#
# Coordination Sequence:
#
# PCOD9409631 Si02
#       6
#     8   8   8   8   8   4
#     4  10  22  41  59  82 115 147 185 237 277 327
#     4  11  21  34  59  84 107 150 190 224 278 341
#     4   9  20  39  58  80 112 146 186 231 280 326
#     4  10  20  35  54  78 117 145 183 226 283 332
#     4   9  19  37  53  79 112 146 180 230 275 328
#     4  10  22  36  54  86 112 144 184 238 278 332
#
# _framework density 17.985118
#
# number of rings (size 3 to 8) (size 9 to 14) (size 15 to 20)
#    0.000    2.182    1.818    1.091    1.273    4.364 
#    0.000    3.636    0.000    0.000    0.000    0.000 
#    0.000    0.000    0.000    0.000    0.000    0.000 
#
# Total GULP energy -245181.511467 kJ/mol
# GULP energy per Si atom -5572.307079 kJ/mol
# Density = 1.794418 g / cm^3
# Si number density = 17.985118 Si / 1000 Ang^3
#
#
#
# Elastic Constant Matrix: (Units=GPa)
#
#
# Indices 1 2 3 4 5 6 
#
# 1 48.6533 13.8172 36.9011 0.0000 0.0000 0.0000
# 2 13.8172 68.9429 53.2168 0.0000 0.0000 0.0000
# 3 36.9011 53.2168 171.9971 0.0000 0.0000 0.0000
# 4 0.0000 0.0000 0.0000 20.3456 0.0000 0.0000
# 5 0.0000 0.0000 0.0000 0.0000 19.8319 0.0000
# 6 0.0000 0.0000 0.0000 0.0000 0.0000 10.1927
#
#
#
# Elastic Compliance Matrix: (Units=1/GPa)
#
#
# Indices 1 2 3 4 5 6 
#
# 1 0.024614 -0.001126 -0.004933 0.000000 0.000000 0.000000
# 2 -0.001126 0.019107 -0.005670 0.000000 0.000000 0.000000
# 3 -0.004933 -0.005670 0.008627 0.000000 0.000000 0.000000
# 4 0.000000 0.000000 0.000000 0.049151 0.000000 0.000000
# 5 0.000000 0.000000 0.000000 0.000000 0.050424 0.000000
# 6 0.000000 0.000000 0.000000 0.000000 0.000000 0.098109
#
#
# Mechanical properties :
#
#
# Convention : Reuss Voigt Hill
#
# Bulk Modulus (GPa) = 34.61263 55.27374 44.94319
# Shear Modulus (GPa) = 17.66035 22.45126 20.05580
#
# Velocity S-wave (km/s) = 3.13700 3.53700 3.34298
# Velocity P-wave (km/s) = 5.69280 6.89059 6.32013
#
# Compressibility (1/GPa) = 0.02889119
#
# Stress axis : x y z
#
# Youngs Moduli (GPa) = 40.62662 52.33595 115.91816
#
# Poissons Ratio (x) = 0.05891 0.57178
# Poissons Ratio (y) = 0.04573 0.65730
# Poissons Ratio (z) = 0.20040 0.29677
#
# Static dielectric constant tensor:
#      x y z
#    x 1.606950 0.000000 0.000000 
#    y 0.000000 1.608790 0.000000 
#    z 0.000000 0.000000 1.636340 
# 
# From -- ./inp_files/40069.got.cif
#   From: 2010.05.17/outbox.cif.g08.bks.cpg/sg52_21_cif.got.tgz:40069.got - 2010.06.03 12:15:38.
