data_PCOD9409892
_publ_section_title
;
Structure prediction by ZEFSAII (Michael W. Deem and Ramdas Pophale) SiO2 
 PCOD9409892
Probable space group: P N N A
;
_chemical_formula_sum "Si O2"
_cell_formula_units_Z 52
_cell_length_a 8.520668
_cell_length_b 26.297874
_cell_length_c 11.693425
_cell_angle_alpha 90.000000
_cell_angle_beta 90.000000
_cell_angle_gamma 90.000000
_cell_volume 2620.209509
_symmetry_space_group_name_H-M "P N N A"
_symmetry_group_IT_number 52
_symmetry_cell_setting 'orthorhombic'
loop_
_space_group_symop_operation_xyz
x,y,z
1/2-x,-y,z
x,1/2-y,1/2-z
1/2-x,1/2+y,1/2-z
-x,-y,-z
1/2+x,y,-z
-x,1/2+y,1/2+z
1/2+x,1/2-y,1/2+z
loop_
_atom_site_type_symbol
_atom_site_label
_atom_site_fract_x
_atom_site_fract_y
_atom_site_fract_z
Si Si1 0.988514 0.951635 0.850112
Si Si2 0.419606 0.473697 0.889399
Si Si3 0.250000 0.500000 0.526043
Si Si4 0.047147 0.331936 0.354805
Si Si5 0.906795 0.796041 0.430684
Si Si6 0.341534 0.278161 0.444986
Si Si7 0.389581 0.350669 0.876549
O O1 0.978984 0.978991 0.727181
O O2 0.876353 0.976274 0.942468
O O3 0.950604 0.892677 0.853197
O O4 0.166320 0.959156 0.893396
O O5 0.250000 0.500000 0.876741
O O6 0.399963 0.411942 0.890149
O O7 0.500000 0.500000 0.000000
O O8 0.224314 0.312134 0.370404
O O9 0.936547 0.309271 0.456094
O O10 0.972815 0.322605 0.230628
O O11 0.779233 0.760997 0.495634
O O12 0.792772 0.834549 0.365215
O O13 0.028408 0.755293 0.379508
O O14 0.015147 0.828703 0.515689
#
# Coordination Sequence:
#
# PCOD9409892 Si02
#       7
#     8   8   4   8   8   8   8
#     4  10  21  37  61  88 121 161 202 252 309 360
#     4  11  23  39  61  89 122 162 211 253 307 363
#     4  10  20  38  60  86 122 158 202 254 302 372
#     4  10  20  37  59  87 118 158 194 248 304 354
#     4   9  19  37  57  86 115 153 200 241 305 350
#     4   9  19  35  59  86 118 149 196 246 292 370
#     4  10  21  39  61  83 121 160 197 253 300 361
#
# _framework density 19.845741
#
# number of rings (size 3 to 8) (size 9 to 14) (size 15 to 20)
#    0.000    2.154    0.769    1.846    1.077    5.538 
#    0.000   10.769    0.000    0.000    0.000    0.000 
#    0.000    0.000    0.000    0.000    0.000    0.000 
#
# Total GULP energy -289503.971798 kJ/mol
# GULP energy per Si atom -5567.384073 kJ/mol
# Density = 1.980057 g / cm^3
# Si number density = 19.845741 Si / 1000 Ang^3
#
#
#
# Elastic Constant Matrix: (Units=GPa)
#
#
# Indices 1 2 3 4 5 6 
#
# 1 117.2676 28.8712 35.6330 0.0000 0.0000 0.0000
# 2 28.8712 58.3015 29.3348 0.0000 0.0000 0.0000
# 3 35.6330 29.3348 93.7735 0.0000 0.0000 0.0000
# 4 0.0000 0.0000 0.0000 4.2057 0.0000 0.0000
# 5 0.0000 0.0000 0.0000 0.0000 30.5558 0.0000
# 6 0.0000 0.0000 0.0000 0.0000 0.0000 30.0291
#
#
#
# Elastic Compliance Matrix: (Units=1/GPa)
#
#
# Indices 1 2 3 4 5 6 
#
# 1 0.010274 -0.003707 -0.002744 0.000000 0.000000 0.000000
# 2 -0.003707 0.021694 -0.005378 0.000000 0.000000 0.000000
# 3 -0.002744 -0.005378 0.013389 0.000000 0.000000 0.000000
# 4 0.000000 0.000000 0.000000 0.237773 0.000000 0.000000
# 5 0.000000 0.000000 0.000000 0.000000 0.032727 0.000000
# 6 0.000000 0.000000 0.000000 0.000000 0.000000 0.033301
#
#
# Mechanical properties :
#
#
# Convention : Reuss Voigt Hill
#
# Bulk Modulus (GPa) = 46.08559 50.78008 48.43283
# Shear Modulus (GPa) = 13.15618 24.65836 18.90727
#
# Velocity S-wave (km/s) = 2.57752 3.52874 3.08995
# Velocity P-wave (km/s) = 5.66837 6.49966 6.09820
#
# Compressibility (1/GPa) = 0.02169876
#
# Stress axis : x y z
#
# Youngs Moduli (GPa) = 97.33248 46.09617 74.68721
#
# Poissons Ratio (x) = 0.17087 0.20497
# Poissons Ratio (y) = 0.36080 0.40165
# Poissons Ratio (z) = 0.26712 0.24790
#
# Static dielectric constant tensor:
#      x y z
#    x 1.727810 0.000000 0.000000 
#    y 0.000000 1.718700 0.000000 
#    z 0.000000 0.000000 1.732860 
# 
# From -- ./inp_files/17099.got.cif
#   From: 2010.05.17/outbox.cif.g08.bks.cpg/sg52_9_cif.got.tgz:17099.got - 2010.06.03 12:15:38.
