data_PCOD9409773
_publ_section_title
;
Structure prediction by ZEFSAII (Michael W. Deem and Ramdas Pophale) SiO2 
 PCOD9409773
Probable space group: P N N A
;
_chemical_formula_sum "Si O2"
_cell_formula_units_Z 48
_cell_length_a 14.396967
_cell_length_b 26.943817
_cell_length_c 5.892664
_cell_angle_alpha 90.000000
_cell_angle_beta 90.000000
_cell_angle_gamma 90.000000
_cell_volume 2285.818839
_symmetry_space_group_name_H-M "P N N A"
_symmetry_group_IT_number 52
_symmetry_cell_setting 'orthorhombic'
loop_
_space_group_symop_operation_xyz
x,y,z
1/2-x,-y,z
x,1/2-y,1/2-z
1/2-x,1/2+y,1/2-z
-x,-y,-z
1/2+x,y,-z
-x,1/2+y,1/2+z
1/2+x,1/2-y,1/2+z
loop_
_atom_site_type_symbol
_atom_site_label
_atom_site_fract_x
_atom_site_fract_y
_atom_site_fract_z
Si Si1 0.457667 0.397841 0.490264
Si Si2 0.701613 0.552662 0.738117
Si Si3 0.840319 0.882638 0.039204
Si Si4 0.376398 0.303789 0.264770
Si Si5 0.689409 0.275147 0.502587
Si Si6 0.172648 0.625329 0.883451
O O1 0.386519 0.441820 0.426990
O O2 0.563801 0.412225 0.457811
O O3 0.437592 0.350986 0.326135
O O4 0.418676 0.376607 0.726897
O O5 0.750000 0.500000 0.743800
O O6 0.776267 0.593284 0.653070
O O7 0.667594 0.574680 0.973624
O O8 0.868189 0.825970 0.995261
O O9 0.770345 0.879581 0.251445
O O10 0.424189 0.250000 0.250000
O O11 0.296181 0.293720 0.452471
O O12 0.327965 0.324457 0.034693
O O13 0.667876 0.250000 0.750000
O O14 0.680910 0.250000 0.250000
#
# Coordination Sequence:
#
# PCOD9409773 Si02
#       6
#     8   8   8   8   8   8
#     4  10  23  39  62  94 123 163 213 268 327 391
#     4  10  23  43  64  90 120 165 216 268 341 398
#     4  11  22  41  64  92 130 166 212 274 325 393
#     4  10  20  36  59  90 126 176 215 259 315 385
#     4  11  22  38  66  98 134 183 225 266 328 393
#     4  10  20  42  61  86 127 169 210 268 329 389
#
# _framework density 20.999039
#
# number of rings (size 3 to 8) (size 9 to 14) (size 15 to 20)
#    0.000    1.667    5.000    2.000    0.000    6.667 
#    3.000    1.667    0.000    0.000    0.000    0.000 
#    0.000    0.000    0.000    0.000    0.000    0.000 
#
# Total GULP energy -267208.126091 kJ/mol
# GULP energy per Si atom -5566.835960 kJ/mol
# Density = 2.095124 g / cm^3
# Si number density = 20.999039 Si / 1000 Ang^3
#
#
#
# Elastic Constant Matrix: (Units=GPa)
#
#
# Indices 1 2 3 4 5 6 
#
# 1 73.8055 -17.7923 16.6947 0.0000 0.0000 0.0000
# 2 -17.7923 48.9183 24.0197 0.0000 0.0000 0.0000
# 3 16.6947 24.0197 100.9741 0.0000 0.0000 0.0000
# 4 0.0000 0.0000 0.0000 17.4060 0.0000 0.0000
# 5 0.0000 0.0000 0.0000 0.0000 -0.3449 0.0000
# 6 0.0000 0.0000 0.0000 0.0000 0.0000 5.9809
#
#
#
# Elastic Compliance Matrix: (Units=1/GPa)
#
#
# Indices 1 2 3 4 5 6 
#
# 1 0.016644 0.008384 -0.004746 0.000000 0.000000 0.000000
# 2 0.008384 0.027369 -0.007897 0.000000 0.000000 0.000000
# 3 -0.004746 -0.007897 0.012567 0.000000 0.000000 0.000000
# 4 0.000000 0.000000 0.000000 0.057452 0.000000 0.000000
# 5 0.000000 0.000000 0.000000 0.000000 -2.899358 0.000000
# 6 0.000000 0.000000 0.000000 0.000000 0.000000 0.167198
#
#
# Mechanical properties :
#
#
# Convention : Reuss Voigt Hill
#
# Bulk Modulus (GPa) = 20.80648 29.94912 25.37780
# Shear Modulus (GPa) = -1.92783 17.99345 8.03281
#
# Velocity S-wave (km/s) = -0.95919 2.93041 1.95797
# Velocity P-wave (km/s) = 2.95010 5.07374 4.15006
#
# Compressibility (1/GPa) = 0.04806194
#
# Stress axis : x y z
#
# Youngs Moduli (GPa) = 60.08209 36.53753 79.57508
#
# Poissons Ratio (x) = -0.30634 0.37768
# Poissons Ratio (y) = -0.50374 0.62839
# Poissons Ratio (z) = 0.28517 0.28853
#
# Static dielectric constant tensor:
#      x y z
#    x 1.774200 0.000000 0.000000 
#    y 0.000000 1.783080 0.000000 
#    z 0.000000 0.000000 1.849870 
# 
# From -- ./inp_files/2445.got.cif
#   From: 2010.05.17/outbox.cif.g08.bks.cpg/sg52_2_cif.got.tgz:2445.got - 2010.06.03 12:15:38.
