data_PCOD9409626
_publ_section_title
;
Structure prediction by ZEFSAII (Michael W. Deem and Ramdas Pophale) SiO2 
 PCOD9409626
Probable space group: P N N A
;
_chemical_formula_sum "Si O2"
_cell_formula_units_Z 64
_cell_length_a 9.147613
_cell_length_b 17.269655
_cell_length_c 20.431913
_cell_angle_alpha 90.000000
_cell_angle_beta 90.000000
_cell_angle_gamma 90.000000
_cell_volume 3227.754352
_symmetry_space_group_name_H-M "P N N A"
_symmetry_group_IT_number 52
_symmetry_cell_setting 'orthorhombic'
loop_
_space_group_symop_operation_xyz
x,y,z
1/2-x,-y,z
x,1/2-y,1/2-z
1/2-x,1/2+y,1/2-z
-x,-y,-z
1/2+x,y,-z
-x,1/2+y,1/2+z
1/2+x,1/2-y,1/2+z
loop_
_atom_site_type_symbol
_atom_site_label
_atom_site_fract_x
_atom_site_fract_y
_atom_site_fract_z
Si Si1 0.529717 0.424428 0.282507
Si Si2 0.035442 0.158962 0.486452
Si Si3 0.733388 0.590747 0.090819
Si Si4 0.710027 0.916932 0.886254
Si Si5 0.715880 0.837569 0.264973
Si Si6 0.083245 0.407578 0.257543
Si Si7 0.305498 0.248973 0.066456
Si Si8 0.320260 0.181814 0.296848
O O1 0.449984 0.420236 0.352558
O O2 0.696663 0.400348 0.278728
O O3 0.486280 0.507358 0.252748
O O4 0.455701 0.358957 0.237400
O O5 0.922299 0.105353 0.445995
O O6 0.926837 0.223274 0.516067
O O7 0.132601 0.116715 0.542891
O O8 0.156309 0.203992 0.444551
O O9 0.750000 0.500000 0.105717
O O10 0.733532 0.638615 0.158783
O O11 0.820384 0.906528 0.824044
O O12 0.720306 0.842432 0.931496
O O13 0.750000 0.000000 0.916117
O O14 0.763189 0.750000 0.250000
O O15 0.547596 0.847440 0.244727
O O16 0.196119 0.384094 0.200641
O O17 0.361334 0.277476 0.136695
O O18 0.262918 0.250000 0.250000
#
# Coordination Sequence:
#
# PCOD9409626 Si02
#       8
#     8   8   8   8   8   8   8   8
#     4  10  20  35  53  87 122 152 188 230 299 367
#     4  10  25  40  63  90 112 168 212 252 291 350
#     4  11  23  44  64  87 126 164 208 257 301 352
#     4   9  20  37  62  83 113 154 195 245 294 357
#     4  12  25  34  57  92 128 159 191 241 316 374
#     4  10  20  35  53  87 122 152 188 230 299 367
#     4  11  21  40  60  83 123 147 205 251 296 351
#     4  11  18  32  61  86 110 149 195 242 295 357
#
# _framework density 19.828028
#
# number of rings (size 3 to 8) (size 9 to 14) (size 15 to 20)
#    0.000    1.500    2.500    4.875    3.500    0.000 
#    0.000    6.875    0.000    0.000    0.000    0.000 
#    0.000    0.000    0.000    0.000    0.000    0.000 
#
# Total GULP energy -357174.382542 kJ/mol
# GULP energy per Si atom -5580.849727 kJ/mol
# Density = 1.978290 g / cm^3
# Si number density = 19.828028 Si / 1000 Ang^3
#
#
#
# Elastic Constant Matrix: (Units=GPa)
#
#
# Indices 1 2 3 4 5 6 
#
# 1 77.8244 4.3771 5.8059 0.0000 0.0000 0.0000
# 2 4.3771 125.3206 25.6242 0.0000 0.0000 0.0000
# 3 5.8059 25.6242 40.7385 0.0000 0.0000 0.0000
# 4 0.0000 0.0000 0.0000 22.7502 0.0000 0.0000
# 5 0.0000 0.0000 0.0000 0.0000 9.4209 0.0000
# 6 0.0000 0.0000 0.0000 0.0000 0.0000 27.3385
#
#
#
# Elastic Compliance Matrix: (Units=1/GPa)
#
#
# Indices 1 2 3 4 5 6 
#
# 1 0.012988 -0.000086 -0.001797 0.000000 0.000000 0.000000
# 2 -0.000086 0.009158 -0.005748 0.000000 0.000000 0.000000
# 3 -0.001797 -0.005748 0.028418 0.000000 0.000000 0.000000
# 4 0.000000 0.000000 0.000000 0.043956 0.000000 0.000000
# 5 0.000000 0.000000 0.000000 0.000000 0.106147 0.000000
# 6 0.000000 0.000000 0.000000 0.000000 0.000000 0.036578
#
#
# Mechanical properties :
#
#
# Convention : Reuss Voigt Hill
#
# Bulk Modulus (GPa) = 28.32662 35.05533 31.69098
# Shear Modulus (GPa) = 18.91967 25.77366 22.34667
#
# Velocity S-wave (km/s) = 3.09235 3.60927 3.36076
# Velocity P-wave (km/s) = 5.20262 5.92344 5.57470
#
# Compressibility (1/GPa) = 0.03530249
#
# Stress axis : x y z
#
# Youngs Moduli (GPa) = 76.99216 109.19629 35.18864
#
# Poissons Ratio (x) = 0.00942 0.06323
# Poissons Ratio (y) = 0.00664 0.20226
# Poissons Ratio (z) = 0.13834 0.62765
#
# Static dielectric constant tensor:
#      x y z
#    x 1.727540 0.000000 0.000000 
#    y 0.000000 1.722160 0.000000 
#    z 0.000000 0.000000 1.689270 
# 
# From -- ./inp_files/36198.got.cif
#   From: 2010.05.17/outbox.cif.g08.bks.cpg/sg52_19_cif.got.tgz:36198.got - 2010.06.03 12:15:38.
