data_PCOD9409154
_publ_section_title
;
Structure prediction by ZEFSAII (Michael W. Deem and Ramdas Pophale) SiO2 
 PCOD9409154
Probable space group: P N N A
;
_chemical_formula_sum "Si O2"
_cell_formula_units_Z 40
_cell_length_a 9.315130
_cell_length_b 8.685164
_cell_length_c 22.966917
_cell_angle_alpha 90.000000
_cell_angle_beta 90.000000
_cell_angle_gamma 90.000000
_cell_volume 1858.102402
_symmetry_space_group_name_H-M "P N N A"
_symmetry_group_IT_number 52
_symmetry_cell_setting 'orthorhombic'
loop_
_space_group_symop_operation_xyz
x,y,z
1/2-x,-y,z
x,1/2-y,1/2-z
1/2-x,1/2+y,1/2-z
-x,-y,-z
1/2+x,y,-z
-x,1/2+y,1/2+z
1/2+x,1/2-y,1/2+z
loop_
_atom_site_type_symbol
_atom_site_label
_atom_site_fract_x
_atom_site_fract_y
_atom_site_fract_z
Si Si1 0.909223 0.259958 0.528772
Si Si2 0.752389 0.183731 0.309225
Si Si3 0.750000 0.000000 0.604982
Si Si4 0.250000 0.000000 0.106655
Si Si5 0.287569 0.681568 0.935085
Si Si6 0.910706 0.755566 0.682202
O O1 0.836613 0.116652 0.563449
O O2 0.859428 0.406790 0.565344
O O3 0.846795 0.265238 0.463945
O O4 0.076497 0.225145 0.526518
O O5 0.689041 0.250000 0.250000
O O6 0.676165 0.227473 0.369203
O O7 0.916309 0.241120 0.316454
O O8 0.750000 0.000000 0.304094
O O9 0.643670 0.094570 0.647073
O O10 0.340594 0.885144 0.147298
O O11 0.250000 0.500000 0.934830
O O12 0.863967 0.750000 0.750000
#
# Coordination Sequence:
#
# PCOD9409154 Si02
#       6
#     8   8   4   4   8   8
#     4  11  24  40  64  95 132 170 216 271 325 391
#     4  10  23  42  65  94 129 170 220 269 325 386
#     4  10  19  36  64  90 125 172 222 266 316 382
#     4  10  25  42  60  98 137 166 216 264 340 386
#     4  11  23  40  67  96 127 173 222 270 318 388
#     4  10  21  40  64  92 130 174 218 267 320 388
#
# _framework density 21.527338
#
# number of rings (size 3 to 8) (size 9 to 14) (size 15 to 20)
#    0.000    1.600    1.000    3.600    5.600    4.000 
#    1.800    5.000    0.000    0.000    0.000    0.000 
#    0.000    0.000    0.000    0.000    0.000    0.000 
#
# Total GULP energy -223734.742149 kJ/mol
# GULP energy per Si atom -5593.368554 kJ/mol
# Density = 2.147834 g / cm^3
# Si number density = 21.527338 Si / 1000 Ang^3
#
#
#
# Elastic Constant Matrix: (Units=GPa)
#
#
# Indices 1 2 3 4 5 6 
#
# 1 62.1007 4.6633 -2.8431 0.0000 0.0000 0.0000
# 2 4.6633 69.7763 22.6934 0.0000 0.0000 0.0000
# 3 -2.8431 22.6934 122.1628 0.0000 0.0000 0.0000
# 4 0.0000 0.0000 0.0000 -24.5781 0.0000 0.0000
# 5 0.0000 0.0000 0.0000 0.0000 32.4207 0.0000
# 6 0.0000 0.0000 0.0000 0.0000 0.0000 21.4947
#
#
#
# Elastic Compliance Matrix: (Units=1/GPa)
#
#
# Indices 1 2 3 4 5 6 
#
# 1 0.016228 -0.001285 0.000616 0.000000 0.000000 0.000000
# 2 -0.001285 0.015355 -0.002882 0.000000 0.000000 0.000000
# 3 0.000616 -0.002882 0.008736 0.000000 0.000000 0.000000
# 4 0.000000 0.000000 0.000000 -0.040687 0.000000 0.000000
# 5 0.000000 0.000000 0.000000 0.000000 0.030844 0.000000
# 6 0.000000 0.000000 0.000000 0.000000 0.000000 0.046523
#
#
# Mechanical properties :
#
#
# Convention : Reuss Voigt Hill
#
# Bulk Modulus (GPa) = 30.10583 33.67413 31.88998
# Shear Modulus (GPa) = 52.53615 21.16923 36.85269
#
# Velocity S-wave (km/s) = 4.94544 3.13927 4.14200
# Velocity P-wave (km/s) = 6.82826 5.36810 6.14172
#
# Compressibility (1/GPa) = 0.03321616
#
# Stress axis : x y z
#
# Youngs Moduli (GPa) = 61.62347 65.12620 114.47461
#
# Poissons Ratio (x) = 0.08369 -0.07056
# Poissons Ratio (y) = 0.07919 0.32995
# Poissons Ratio (z) = -0.03798 0.18771
#
# Static dielectric constant tensor:
#      x y z
#    x 1.745000 0.000000 0.000000 
#    y 0.000000 1.770380 0.000000 
#    z 0.000000 0.000000 1.800240 
# 
# From -- ./inp_files/39279.got.cif
#   From: 2010.05.17/outbox.cif.g08.bks.cpg/sg52_20_cif.got.tgz:39279.got - 2010.06.03 12:15:38.
