data_PCOD9409400
_publ_section_title
;
Structure prediction by ZEFSAII (Michael W. Deem and Ramdas Pophale) SiO2 
 PCOD9409400
Probable space group: P N N A
;
_chemical_formula_sum "Si O2"
_cell_formula_units_Z 64
_cell_length_a 19.714250
_cell_length_b 14.138465
_cell_length_c 12.377866
_cell_angle_alpha 90.000000
_cell_angle_beta 90.000000
_cell_angle_gamma 90.000000
_cell_volume 3450.073104
_symmetry_space_group_name_H-M "P N N A"
_symmetry_group_IT_number 52
_symmetry_cell_setting 'orthorhombic'
loop_
_space_group_symop_operation_xyz
x,y,z
1/2-x,-y,z
x,1/2-y,1/2-z
1/2-x,1/2+y,1/2-z
-x,-y,-z
1/2+x,y,-z
-x,1/2+y,1/2+z
1/2+x,1/2-y,1/2+z
loop_
_atom_site_type_symbol
_atom_site_label
_atom_site_fract_x
_atom_site_fract_y
_atom_site_fract_z
Si Si1 0.650402 0.918837 0.313462
Si Si2 0.200273 0.129761 0.704549
Si Si3 0.682216 0.704590 0.546693
Si Si4 0.425913 0.101032 0.901990
Si Si5 0.678663 0.212725 0.064208
Si Si6 0.917040 0.581240 0.550316
Si Si7 0.172852 0.537424 0.288457
Si Si8 0.184789 0.928372 0.451795
O O1 0.718372 0.856422 0.298914
O O2 0.595427 0.893244 0.223581
O O3 0.637652 0.924464 0.441670
O O4 0.677354 0.023052 0.288218
O O5 0.173017 0.172836 0.815041
O O6 0.176662 0.176433 0.592020
O O7 0.618872 0.677447 0.468885
O O8 0.750652 0.674953 0.483926
O O9 0.671963 0.639887 0.652734
O O10 0.696663 0.815495 0.567614
O O11 0.506036 0.106759 0.921513
O O12 0.410237 0.997404 0.954384
O O13 0.620784 0.174721 0.988110
O O14 0.877805 0.531260 0.648204
O O15 0.250000 0.500000 0.297694
O O16 0.154984 0.538957 0.162237
O O17 0.250000 0.000000 0.472759
#
# Coordination Sequence:
#
# PCOD9409400 Si02
#       8
#     8   8   8   8   8   8   8   8
#     4  11  18  35  54  85 125 152 192 245 310 369
#     4  10  20  29  54  94 120 148 190 250 314 363
#     4  11  20  35  61  88 116 154 203 261 308 364
#     4  10  22  35  59  86 120 160 195 246 315 373
#     4  11  18  32  58  93 120 146 200 258 305 358
#     4  10  21  39  57  86 123 156 199 252 308 368
#     4  10  21  36  60  86 114 156 206 260 308 366
#     4  11  22  36  56  88 121 156 206 260 312 363
#
# _framework density 18.550332000000001
#
# number of rings (size 3 to 8) (size 9 to 14) (size 15 to 20)
#    0.000    1.500    6.250    0.375    0.000    0.500 
#    0.000    1.875    2.750    7.500    0.000    0.000 
#    0.000    0.000    0.000    0.000    0.000    0.000 
#
# Total GULP energy -356325.135939 kJ/mol
# GULP energy per Si atom -5567.580249 kJ/mol
# Density = 1.850811 g / cm^3
# Si number density = 18.550332 Si / 1000 Ang^3
#
#
#
# Elastic Constant Matrix: (Units=GPa)
#
#
# Indices 1 2 3 4 5 6 
#
# 1 86.2384 26.7042 39.9489 0.0000 0.0000 0.0000
# 2 26.7042 70.8385 20.4120 0.0000 0.0000 0.0000
# 3 39.9489 20.4120 139.6074 0.0000 0.0000 0.0000
# 4 0.0000 0.0000 0.0000 23.4003 0.0000 0.0000
# 5 0.0000 0.0000 0.0000 0.0000 14.7930 0.0000
# 6 0.0000 0.0000 0.0000 0.0000 0.0000 8.2357
#
#
#
# Elastic Compliance Matrix: (Units=1/GPa)
#
#
# Indices 1 2 3 4 5 6 
#
# 1 0.014622 -0.004496 -0.003527 0.000000 0.000000 0.000000
# 2 -0.004496 0.016120 -0.001070 0.000000 0.000000 0.000000
# 3 -0.003527 -0.001070 0.008329 0.000000 0.000000 0.000000
# 4 0.000000 0.000000 0.000000 0.042735 0.000000 0.000000
# 5 0.000000 0.000000 0.000000 0.000000 0.067599 0.000000
# 6 0.000000 0.000000 0.000000 0.000000 0.000000 0.121423
#
#
# Mechanical properties :
#
#
# Convention : Reuss Voigt Hill
#
# Bulk Modulus (GPa) = 47.88271 52.31273 50.09772
# Shear Modulus (GPa) = 16.89339 23.26040 20.07690
#
# Velocity S-wave (km/s) = 3.02102 3.54490 3.29339
# Velocity P-wave (km/s) = 6.16742 6.70945 6.44414
#
# Compressibility (1/GPa) = 0.02088437
#
# Stress axis : x y z
#
# Youngs Moduli (GPa) = 68.39201 62.03543 120.06794
#
# Poissons Ratio (x) = 0.27889 0.42344
# Poissons Ratio (y) = 0.30747 0.12852
# Poissons Ratio (z) = 0.24120 0.06640
#
# Static dielectric constant tensor:
#      x y z
#    x 1.615070 0.000000 0.000000 
#    y 0.000000 1.752340 0.000000 
#    z 0.000000 0.000000 1.663970 
# 
# From -- ./inp_files/20895.got.cif
#   From: 2010.05.17/outbox.cif.g08.bks.cpg/sg52_11_cif.got.tgz:20895.got - 2010.06.03 12:15:38.
