data_PCOD9409325
_publ_section_title
;
Structure prediction by ZEFSAII (Michael W. Deem and Ramdas Pophale) SiO2 
 PCOD9409325
Probable space group: P N N A
;
_chemical_formula_sum "Si O2"
_cell_formula_units_Z 48
_cell_length_a 10.983999
_cell_length_b 8.629265
_cell_length_c 22.728256
_cell_angle_alpha 90.000000
_cell_angle_beta 90.000000
_cell_angle_gamma 90.000000
_cell_volume 2154.271338
_symmetry_space_group_name_H-M "P N N A"
_symmetry_group_IT_number 52
_symmetry_cell_setting 'orthorhombic'
loop_
_space_group_symop_operation_xyz
x,y,z
1/2-x,-y,z
x,1/2-y,1/2-z
1/2-x,1/2+y,1/2-z
-x,-y,-z
1/2+x,y,-z
-x,1/2+y,1/2+z
1/2+x,1/2-y,1/2+z
loop_
_atom_site_type_symbol
_atom_site_label
_atom_site_fract_x
_atom_site_fract_y
_atom_site_fract_z
Si Si1 0.406190 0.728994 0.103204
Si Si2 0.195716 0.149833 0.798350
Si Si3 0.193538 0.168044 0.988920
Si Si4 0.000894 0.417785 0.603753
Si Si5 0.208602 0.679696 0.312644
Si Si6 0.831983 0.152120 0.388012
O O1 0.321977 0.725274 0.160418
O O2 0.524648 0.622470 0.106859
O O3 0.457256 0.905904 0.098214
O O4 0.327395 0.719681 0.043994
O O5 0.128004 0.250000 0.750000
O O6 0.299811 0.252332 0.829081
O O7 0.110467 0.090647 0.849834
O O8 0.250000 0.000000 0.767942
O O9 0.285979 0.243164 0.942388
O O10 0.063563 0.142871 0.955858
O O11 0.250000 0.000000 0.006263
O O12 0.893267 0.324003 0.635838
O O13 0.250000 0.500000 0.305011
O O14 0.171471 0.750000 0.250000
O O15 0.750000 0.000000 0.388221
#
# Coordination Sequence:
#
# PCOD9409325 Si02
#       6
#     8   8   8   8   8   8
#     4  11  22  39  67  92 126 169 216 269 332 396
#     4  11  21  39  63  92 121 166 213 273 327 387
#     4  11  21  38  70  96 122 164 218 278 334 393
#     4  10  19  39  64  94 125 158 216 272 323 400
#     4  10  23  42  61  93 128 172 218 267 329 405
#     4  11  24  42  58  91 132 164 214 267 329 398
#
# _framework density 22.281316
#
# number of rings (size 3 to 8) (size 9 to 14) (size 15 to 20)
#    0.000    1.333    3.333    4.000    2.333    1.333 
#   12.000    0.833    0.000    0.000    0.000    0.000 
#    0.000    0.000    0.000    0.000    0.000    0.000 
#
# Total GULP energy -268282.960982 kJ/mol
# GULP energy per Si atom -5589.228354 kJ/mol
# Density = 2.223060 g / cm^3
# Si number density = 22.281316 Si / 1000 Ang^3
#
#
#
# Elastic Constant Matrix: (Units=GPa)
#
#
# Indices 1 2 3 4 5 6 
#
# 1 107.5476 18.3280 24.7944 0.0000 0.0000 0.0000
# 2 18.3280 44.1487 9.7770 0.0000 0.0000 0.0000
# 3 24.7944 9.7770 89.9079 0.0000 0.0000 0.0000
# 4 0.0000 0.0000 0.0000 18.9261 0.0000 0.0000
# 5 0.0000 0.0000 0.0000 0.0000 19.3412 0.0000
# 6 0.0000 0.0000 0.0000 0.0000 0.0000 33.7006
#
#
#
# Elastic Compliance Matrix: (Units=1/GPa)
#
#
# Indices 1 2 3 4 5 6 
#
# 1 0.010522 -0.003817 -0.002487 0.000000 0.000000 0.000000
# 2 -0.003817 0.024595 -0.001622 0.000000 0.000000 0.000000
# 3 -0.002487 -0.001622 0.011985 0.000000 0.000000 0.000000
# 4 0.000000 0.000000 0.000000 0.052837 0.000000 0.000000
# 5 0.000000 0.000000 0.000000 0.000000 0.051703 0.000000
# 6 0.000000 0.000000 0.000000 0.000000 0.000000 0.029673
#
#
# Mechanical properties :
#
#
# Convention : Reuss Voigt Hill
#
# Bulk Modulus (GPa) = 32.00040 38.60035 35.30037
# Shear Modulus (GPa) = 24.08676 26.97389 25.53033
#
# Velocity S-wave (km/s) = 3.29147 3.48315 3.38867
# Velocity P-wave (km/s) = 5.37012 5.79121 5.58464
#
# Compressibility (1/GPa) = 0.03124961
#
# Stress axis : x y z
#
# Youngs Moduli (GPa) = 95.03853 40.65924 83.44044
#
# Poissons Ratio (x) = 0.15522 0.20748
# Poissons Ratio (y) = 0.36281 0.13532
# Poissons Ratio (z) = 0.23632 0.06594
#
# Static dielectric constant tensor:
#      x y z
#    x 1.851680 0.000000 0.000000 
#    y 0.000000 1.838040 0.000000 
#    z 0.000000 0.000000 1.781910 
# 
# From -- ./inp_files/40125.got.cif
#   From: 2010.05.17/outbox.cif.g08.bks.cpg/sg52_21_cif.got.tgz:40125.got - 2010.06.03 12:15:38.
