data_PCOD9409683
_publ_section_title
;
Structure prediction by ZEFSAII (Michael W. Deem and Ramdas Pophale) SiO2 
 PCOD9409683
Probable space group: P N N A
;
_chemical_formula_sum "Si O2"
_cell_formula_units_Z 52
_cell_length_a 5.074110
_cell_length_b 15.454691
_cell_length_c 25.707277
_cell_angle_alpha 90.000000
_cell_angle_beta 90.000000
_cell_angle_gamma 90.000000
_cell_volume 2015.933869
_symmetry_space_group_name_H-M "P N N A"
_symmetry_group_IT_number 52
_symmetry_cell_setting 'orthorhombic'
loop_
_space_group_symop_operation_xyz
x,y,z
1/2-x,-y,z
x,1/2-y,1/2-z
1/2-x,1/2+y,1/2-z
-x,-y,-z
1/2+x,y,-z
-x,1/2+y,1/2+z
1/2+x,1/2-y,1/2+z
loop_
_atom_site_type_symbol
_atom_site_label
_atom_site_fract_x
_atom_site_fract_y
_atom_site_fract_z
Si Si1 0.435165 0.606783 0.033277
Si Si2 0.567939 0.416192 0.749372
Si Si3 0.926084 0.130378 0.360405
Si Si4 0.940532 0.250000 0.750000
Si Si5 0.482145 0.817098 0.032559
Si Si6 0.380002 0.908286 0.131752
Si Si7 0.040379 0.756646 0.357390
O O1 0.493353 0.570474 0.090855
O O2 0.456308 0.712845 0.038736
O O3 0.652127 0.586089 0.990111
O O4 0.750000 0.500000 0.755807
O O5 0.392347 0.409722 0.802141
O O6 0.757358 0.333242 0.748928
O O7 0.477753 0.416630 0.688494
O O8 0.182988 0.192065 0.353971
O O9 0.670184 0.180999 0.383377
O O10 0.105271 0.250699 0.698329
O O11 0.551405 0.867227 0.085547
O O12 0.697516 0.840736 0.989790
O O13 0.139137 0.838779 0.131240
O O14 0.250000 0.000000 0.119939
#
# Coordination Sequence:
#
# PCOD9409683 Si02
#       7
#     8   8   8   4   8   8   8
#     4  10  20  35  60  89 121 158 212 272 325 390
#     4   9  20  40  67  99 135 173 219 279 343 411
#     4  11  21  39  65  90 123 163 210 267 328 394
#     4   8  18  36  58  90 128 168 210 256 320 398
#     4  10  22  38  59  85 125 169 221 276 326 396
#     4  10  21  40  63  92 133 176 222 278 340 406
#     4  10  21  36  59  89 120 165 214 260 320 389
#
# _framework density 25.794498000000001
#
# number of rings (size 3 to 8) (size 9 to 14) (size 15 to 20)
#    0.000    2.154    1.538    0.923    4.308    4.308 
#    0.000    6.923    0.000   24.923    0.000    0.000 
#    0.000    0.000    0.000    0.000    0.000    0.000 
#
# Total GULP energy -290270.522166 kJ/mol
# GULP energy per Si atom -5582.125426 kJ/mol
# Density = 2.573579 g / cm^3
# Si number density = 25.794498 Si / 1000 Ang^3
#
#
#
# Elastic Constant Matrix: (Units=GPa)
#
#
# Indices 1 2 3 4 5 6 
#
# 1 92.8056 23.3908 8.1714 0.0000 0.0000 0.0000
# 2 23.3908 123.8998 11.8508 0.0000 0.0000 0.0000
# 3 8.1714 11.8508 165.2782 0.0000 0.0000 0.0000
# 4 0.0000 0.0000 0.0000 24.2575 0.0000 0.0000
# 5 0.0000 0.0000 0.0000 0.0000 2.0646 0.0000
# 6 0.0000 0.0000 0.0000 0.0000 0.0000 31.3892
#
#
#
# Elastic Compliance Matrix: (Units=1/GPa)
#
#
# Indices 1 2 3 4 5 6 
#
# 1 0.011341 -0.002102 -0.000410 0.000000 0.000000 0.000000
# 2 -0.002102 0.008516 -0.000507 0.000000 0.000000 0.000000
# 3 -0.000410 -0.000507 0.006107 0.000000 0.000000 0.000000
# 4 0.000000 0.000000 0.000000 0.041224 0.000000 0.000000
# 5 0.000000 0.000000 0.000000 0.000000 0.484354 0.000000
# 6 0.000000 0.000000 0.000000 0.000000 0.000000 0.031858
#
#
# Mechanical properties :
#
#
# Convention : Reuss Voigt Hill
#
# Bulk Modulus (GPa) = 50.18252 52.08995 51.13624
# Shear Modulus (GPa) = 8.38812 34.11363 21.25088
#
# Velocity S-wave (km/s) = 1.80526 3.64059 2.87340
# Velocity P-wave (km/s) = 4.88285 6.15710 5.55662
#
# Compressibility (1/GPa) = 0.01992726
#
# Stress axis : x y z
#
# Youngs Moduli (GPa) = 88.17518 117.42177 163.74633
#
# Poissons Ratio (x) = 0.24680 0.06714
# Poissons Ratio (y) = 0.18533 0.08297
# Poissons Ratio (z) = 0.03615 0.05950
#
# Static dielectric constant tensor:
#      x y z
#    x 1.963510 0.000000 0.000000 
#    y 0.000000 2.033320 0.000000 
#    z 0.000000 0.000000 2.190110 
# 
# From -- ./inp_files/41784.got.cif
#   From: 2010.05.17/outbox.cif.g08.bks.cpg/sg52_21_cif.got.tgz:41784.got - 2010.06.03 12:15:38.
