data_PCOD9409345
_publ_section_title
;
Structure prediction by ZEFSAII (Michael W. Deem and Ramdas Pophale) SiO2 
 PCOD9409345
Probable space group: P N N A
;
_chemical_formula_sum "Si O2"
_cell_formula_units_Z 32
_cell_length_a 13.374493
_cell_length_b 10.891236
_cell_length_c 10.296437
_cell_angle_alpha 90.000000
_cell_angle_beta 90.000000
_cell_angle_gamma 90.000000
_cell_volume 1499.828021
_symmetry_space_group_name_H-M "P N N A"
_symmetry_group_IT_number 52
_symmetry_cell_setting 'orthorhombic'
loop_
_space_group_symop_operation_xyz
x,y,z
1/2-x,-y,z
x,1/2-y,1/2-z
1/2-x,1/2+y,1/2-z
-x,-y,-z
1/2+x,y,-z
-x,1/2+y,1/2+z
1/2+x,1/2-y,1/2+z
loop_
_atom_site_type_symbol
_atom_site_label
_atom_site_fract_x
_atom_site_fract_y
_atom_site_fract_z
Si Si1 0.409642 0.929621 0.129109
Si Si2 0.070872 0.750000 0.750000
Si Si3 0.538235 0.173061 0.128621
Si Si4 0.916741 0.109091 0.497836
Si Si5 0.750000 0.000000 0.680736
O O1 0.497500 0.840843 0.173926
O O2 0.457171 0.064598 0.153539
O O3 0.315223 0.916418 0.222285
O O4 0.390263 0.892223 0.978845
O O5 0.120123 0.839537 0.642577
O O6 0.584157 0.250000 0.250000
O O7 0.474464 0.220769 0.437537
O O8 0.825096 0.070245 0.586673
O O9 0.000000 0.000000 0.500000
#
# Coordination Sequence:
#
# PCOD9409345 Si02
#       5
#     8   4   8   8   4
#     4  10  22  35  66 102 132 180 236 286 347 435
#     4  10  20  42  66  94 140 188 224 282 374 416
#     4  10  19  40  63  94 139 185 221 286 364 414
#     4  11  22  40  68  98 139 186 232 299 359 427
#     4  12  22  40  68 110 138 182 256 282 362 428
#
# _framework density 21.335781000000001
#
# number of rings (size 3 to 8) (size 9 to 14) (size 15 to 20)
#    0.000    1.500    5.000    0.000    0.000    2.000 
#    0.000    0.000    8.250    4.500    0.000    0.000 
#    0.000    0.000    0.000    0.000    0.000    0.000 
#
# Total GULP energy -178217.683794 kJ/mol
# GULP energy per Si atom -5569.302619 kJ/mol
# Density = 2.128722 g / cm^3
# Si number density = 21.335781 Si / 1000 Ang^3
#
#
#
# Elastic Constant Matrix: (Units=GPa)
#
#
# Indices 1 2 3 4 5 6 
#
# 1 71.5739 28.2291 60.0079 0.0000 0.0000 0.0000
# 2 28.2291 146.7783 44.1568 0.0000 0.0000 0.0000
# 3 60.0079 44.1568 178.5361 0.0000 0.0000 0.0000
# 4 0.0000 0.0000 0.0000 49.1838 0.0000 0.0000
# 5 0.0000 0.0000 0.0000 0.0000 42.4695 0.0000
# 6 0.0000 0.0000 0.0000 0.0000 0.0000 -6.8193
#
#
#
# Elastic Compliance Matrix: (Units=1/GPa)
#
#
# Indices 1 2 3 4 5 6 
#
# 1 0.019966 -0.001967 -0.006224 0.000000 0.000000 0.000000
# 2 -0.001967 0.007555 -0.001207 0.000000 0.000000 0.000000
# 3 -0.006224 -0.001207 0.007992 0.000000 0.000000 0.000000
# 4 0.000000 0.000000 0.000000 0.020332 0.000000 0.000000
# 5 0.000000 0.000000 0.000000 0.000000 0.023546 0.000000
# 6 0.000000 0.000000 0.000000 0.000000 0.000000 -0.146643
#
#
# Mechanical properties :
#
#
# Convention : Reuss Voigt Hill
#
# Bulk Modulus (GPa) = 59.82798 73.51954 66.67376
# Shear Modulus (GPa) = -116.59534 34.59977 -40.99779
#
# Velocity S-wave (km/s) = -7.40043 4.03138 -4.38831
# Velocity P-wave (km/s) = 6.70223 7.49683 2.37514
#
# Compressibility (1/GPa) = 0.01671459
#
# Stress axis : x y z
#
# Youngs Moduli (GPa) = 50.08539 132.37059 125.13021
#
# Poissons Ratio (x) = 0.26043 0.77883
# Poissons Ratio (y) = 0.09854 0.15105
# Poissons Ratio (z) = 0.31174 0.15979
#
# Static dielectric constant tensor:
#      x y z
#    x 1.784550 0.000000 0.000000 
#    y 0.000000 2.286460 0.000000 
#    z 0.000000 0.000000 1.965930 
# 
# From -- ./inp_files/9610.got.cif
#   From: 2010.05.17/outbox.cif.g08.bks.cpg/sg52_5_cif.got.tgz:9610.got - 2010.06.03 12:15:38.
