data_PCOD9409572
_publ_section_title
;
Structure prediction by ZEFSAII (Michael W. Deem and Ramdas Pophale) SiO2 
 PCOD9409572
Probable space group: P N N A
;
_chemical_formula_sum "Si O2"
_cell_formula_units_Z 40
_cell_length_a 15.256028
_cell_length_b 5.130091
_cell_length_c 26.143629
_cell_angle_alpha 90.000000
_cell_angle_beta 90.000000
_cell_angle_gamma 90.000000
_cell_volume 2046.126207
_symmetry_space_group_name_H-M "P N N A"
_symmetry_group_IT_number 52
_symmetry_cell_setting 'orthorhombic'
loop_
_space_group_symop_operation_xyz
x,y,z
1/2-x,-y,z
x,1/2-y,1/2-z
1/2-x,1/2+y,1/2-z
-x,-y,-z
1/2+x,y,-z
-x,1/2+y,1/2+z
1/2+x,1/2-y,1/2+z
loop_
_atom_site_type_symbol
_atom_site_label
_atom_site_fract_x
_atom_site_fract_y
_atom_site_fract_z
Si Si1 0.406419 0.767221 0.644764
Si Si2 0.546324 0.486697 0.587051
Si Si3 0.104602 0.846404 0.552274
Si Si4 0.812880 0.750000 0.250000
Si Si5 0.145330 0.007104 0.447475
Si Si6 0.750000 0.500000 0.415470
O O1 0.493292 0.593769 0.636514
O O2 0.375265 0.819145 0.701997
O O3 0.324463 0.617252 0.620024
O O4 0.413679 0.013031 0.606413
O O5 0.467371 0.381347 0.550832
O O6 0.602453 0.730330 0.567312
O O7 0.609407 0.236697 0.588665
O O8 0.107482 0.044845 0.505191
O O9 0.200124 0.715547 0.552074
O O10 0.750000 0.500000 0.260045
O O11 0.250000 0.000000 0.446330
#
# Coordination Sequence:
#
# PCOD9409572 Si02
#       6
#     8   8   8   4   8   4
#     4  11  23  41  61  90 132 168 214 255 313 373
#     4  11  25  41  61  91 127 170 210 263 316 375
#     4  11  23  38  61  89 133 170 218 252 316 371
#     4  12  26  42  66  98 132 170 214 256 312 378
#     4  12  25  40  62  92 125 170 217 264 312 372
#     4  10  20  34  56  90 122 174 206 260 294 368
#
# _framework density 19.549137999999999
#
# number of rings (size 3 to 8) (size 9 to 14) (size 15 to 20)
#    0.000    0.800    3.000    4.800   11.200    0.000 
#    0.000    0.000    0.000    0.000    0.000    2.800 
#    0.000    0.000    0.000    0.000    0.000    0.000 
#
# Total GULP energy -223343.587272 kJ/mol
# GULP energy per Si atom -5583.589682 kJ/mol
# Density = 1.950464 g / cm^3
# Si number density = 19.549138 Si / 1000 Ang^3
#
#
#
# Elastic Constant Matrix: (Units=GPa)
#
#
# Indices 1 2 3 4 5 6 
#
# 1 132.5436 50.0187 40.0598 0.0000 0.0000 0.0000
# 2 50.0187 123.3246 28.8226 0.0000 0.0000 0.0000
# 3 40.0598 28.8226 73.5078 0.0000 0.0000 0.0000
# 4 0.0000 0.0000 0.0000 11.6884 0.0000 0.0000
# 5 0.0000 0.0000 0.0000 0.0000 22.4044 0.0000
# 6 0.0000 0.0000 0.0000 0.0000 0.0000 43.9394
#
#
#
# Elastic Compliance Matrix: (Units=1/GPa)
#
#
# Indices 1 2 3 4 5 6 
#
# 1 0.009980 -0.003057 -0.004240 0.000000 0.000000 0.000000
# 2 -0.003057 0.009863 -0.002201 0.000000 0.000000 0.000000
# 3 -0.004240 -0.002201 0.016778 0.000000 0.000000 0.000000
# 4 0.000000 0.000000 0.000000 0.085555 0.000000 0.000000
# 5 0.000000 0.000000 0.000000 0.000000 0.044634 0.000000
# 6 0.000000 0.000000 0.000000 0.000000 0.000000 0.022759
#
#
# Mechanical properties :
#
#
# Convention : Reuss Voigt Hill
#
# Bulk Modulus (GPa) = 56.74067 63.01980 59.88023
# Shear Modulus (GPa) = 23.31663 29.63811 26.47737
#
# Velocity S-wave (km/s) = 3.45732 3.89791 3.68421
# Velocity P-wave (km/s) = 6.71007 7.25017 6.98534
#
# Compressibility (1/GPa) = 0.01762404
#
# Stress axis : x y z
#
# Youngs Moduli (GPa) = 100.20304 101.38965 59.60187
#
# Poissons Ratio (x) = 0.30991 0.25272
# Poissons Ratio (y) = 0.30629 0.13121
# Poissons Ratio (z) = 0.42488 0.22321
#
# Static dielectric constant tensor:
#      x y z
#    x 1.706900 0.000000 0.000000 
#    y 0.000000 1.815350 0.000000 
#    z 0.000000 0.000000 1.718410 
# 
# From -- ./inp_files/40508.got.cif
#   From: 2010.05.17/outbox.cif.g08.bks.cpg/sg52_21_cif.got.tgz:40508.got - 2010.06.03 12:15:38.
