data_PCOD9409653
_publ_section_title
;
Structure prediction by ZEFSAII (Michael W. Deem and Ramdas Pophale) SiO2 
 PCOD9409653
Probable space group: P N N A
;
_chemical_formula_sum "Si O2"
_cell_formula_units_Z 48
_cell_length_a 9.095975
_cell_length_b 15.834186
_cell_length_c 18.534802
_cell_angle_alpha 90.000000
_cell_angle_beta 90.000000
_cell_angle_gamma 90.000000
_cell_volume 2669.518600
_symmetry_space_group_name_H-M "P N N A"
_symmetry_group_IT_number 52
_symmetry_cell_setting 'orthorhombic'
loop_
_space_group_symop_operation_xyz
x,y,z
1/2-x,-y,z
x,1/2-y,1/2-z
1/2-x,1/2+y,1/2-z
-x,-y,-z
1/2+x,y,-z
-x,1/2+y,1/2+z
1/2+x,1/2-y,1/2+z
loop_
_atom_site_type_symbol
_atom_site_label
_atom_site_fract_x
_atom_site_fract_y
_atom_site_fract_z
Si Si1 0.494130 0.207130 0.094664
Si Si2 0.362946 0.061820 0.505300
Si Si3 0.680840 0.637713 0.850470
Si Si4 0.687359 0.909438 0.811862
Si Si5 0.563502 0.266994 0.670525
Si Si6 0.329976 0.254795 0.550598
O O1 0.442435 0.289416 0.139901
O O2 0.451727 0.126150 0.143155
O O3 0.661152 0.221639 0.068003
O O4 0.387386 0.206825 0.024728
O O5 0.323574 0.082674 0.422227
O O6 0.359042 0.153666 0.542009
O O7 0.250000 0.000000 0.544035
O O8 0.500000 0.000000 0.500000
O O9 0.657670 0.592300 0.774219
O O10 0.837571 0.685729 0.849927
O O11 0.817672 0.841759 0.824574
O O12 0.750000 0.000000 0.833770
O O13 0.501292 0.250000 0.750000
O O14 0.437245 0.284557 0.613802
#
# Coordination Sequence:
#
# PCOD9409653 Si02
#       6
#     8   8   8   8   8   8
#     4  10  20  35  57  79 107 149 187 221 276 339
#     4  11  20  31  52  84 113 141 174 217 272 327
#     4   9  18  35  56  79 112 147 178 217 274 343
#     4  10  20  36  58  82 106 140 189 238 276 318
#     4   9  19  36  57  78 106 149 187 222 280 342
#     4  11  21  37  55  78 113 148 185 225 270 341
#
# _framework density 17.980771000000001
#
# number of rings (size 3 to 8) (size 9 to 14) (size 15 to 20)
#    0.000    2.000    0.000    8.000    0.000    2.667 
#    0.000    4.167    0.000    0.000    0.000    0.000 
#    0.000    0.000    0.000    0.000    0.000    0.000 
#
# Total GULP energy -267466.145913 kJ/mol
# GULP energy per Si atom -5572.211373 kJ/mol
# Density = 1.793985 g / cm^3
# Si number density = 17.980771 Si / 1000 Ang^3
#
#
#
# Elastic Constant Matrix: (Units=GPa)
#
#
# Indices 1 2 3 4 5 6 
#
# 1 79.3341 1.6012 18.8450 0.0000 0.0000 0.0000
# 2 1.6012 63.1786 23.7395 0.0000 0.0000 0.0000
# 3 18.8450 23.7395 80.7399 0.0000 0.0000 0.0000
# 4 0.0000 0.0000 0.0000 17.2569 0.0000 0.0000
# 5 0.0000 0.0000 0.0000 0.0000 30.6375 0.0000
# 6 0.0000 0.0000 0.0000 0.0000 0.0000 19.5030
#
#
#
# Elastic Compliance Matrix: (Units=1/GPa)
#
#
# Indices 1 2 3 4 5 6 
#
# 1 0.013394 0.000939 -0.003402 0.000000 0.000000 0.000000
# 2 0.000939 0.017860 -0.005470 0.000000 0.000000 0.000000
# 3 -0.003402 -0.005470 0.014788 0.000000 0.000000 0.000000
# 4 0.000000 0.000000 0.000000 0.057948 0.000000 0.000000
# 5 0.000000 0.000000 0.000000 0.000000 0.032640 0.000000
# 6 0.000000 0.000000 0.000000 0.000000 0.000000 0.051274
#
#
# Mechanical properties :
#
#
# Convention : Reuss Voigt Hill
#
# Bulk Modulus (GPa) = 33.14056 34.62489 33.88272
# Shear Modulus (GPa) = 23.38313 25.41727 24.40020
#
# Velocity S-wave (km/s) = 3.61009 3.76384 3.68777
# Velocity P-wave (km/s) = 5.98733 6.17957 6.08421
#
# Compressibility (1/GPa) = 0.03017451
#
# Stress axis : x y z
#
# Youngs Moduli (GPa) = 74.65943 55.99148 67.62243
#
# Poissons Ratio (x) = -0.05257 0.23007
# Poissons Ratio (y) = -0.07010 0.36992
# Poissons Ratio (z) = 0.25402 0.30630
#
# Static dielectric constant tensor:
#      x y z
#    x 1.640340 0.000000 0.000000 
#    y 0.000000 1.603910 0.000000 
#    z 0.000000 0.000000 1.632190 
# 
# From -- ./inp_files/31247.got.cif
#   From: 2010.05.17/outbox.cif.g08.bks.cpg/sg52_16_cif.got.tgz:31247.got - 2010.06.03 12:15:38.
