data_PCOD9409829
_publ_section_title
;
Structure prediction by ZEFSAII (Michael W. Deem and Ramdas Pophale) SiO2 
 PCOD9409829
Probable space group: P N N A
;
_chemical_formula_sum "Si O2"
_cell_formula_units_Z 60
_cell_length_a 17.446693
_cell_length_b 27.822868
_cell_length_c 6.493811
_cell_angle_alpha 90.000000
_cell_angle_beta 90.000000
_cell_angle_gamma 90.000000
_cell_volume 3152.206490
_symmetry_space_group_name_H-M "P N N A"
_symmetry_group_IT_number 52
_symmetry_cell_setting 'orthorhombic'
loop_
_space_group_symop_operation_xyz
x,y,z
1/2-x,-y,z
x,1/2-y,1/2-z
1/2-x,1/2+y,1/2-z
-x,-y,-z
1/2+x,y,-z
-x,1/2+y,1/2+z
1/2+x,1/2-y,1/2+z
loop_
_atom_site_type_symbol
_atom_site_label
_atom_site_fract_x
_atom_site_fract_y
_atom_site_fract_z
Si Si1 0.336790 0.505933 0.303512
Si Si2 0.423580 0.558398 0.628787
Si Si3 0.910256 0.200220 0.137935
Si Si4 0.072076 0.575503 0.086284
Si Si5 0.345913 0.250000 0.250000
Si Si6 0.837004 0.902648 0.501633
Si Si7 0.524559 0.117950 0.749072
Si Si8 0.685016 0.839955 0.493481
O O1 0.250000 0.500000 0.380038
O O2 0.394792 0.512498 0.496735
O O3 0.365075 0.463812 0.150610
O O4 0.334635 0.553709 0.163766
O O5 0.500939 0.560944 0.765199
O O6 0.437600 0.596728 0.450816
O O7 0.356562 0.574626 0.781655
O O8 0.927042 0.250000 0.250000
O O9 0.978388 0.163792 0.177439
O O10 0.840099 0.175014 0.261923
O O11 0.893127 0.216427 0.907068
O O12 0.115896 0.627320 0.092444
O O13 0.032601 0.579008 0.860241
O O14 0.302837 0.210238 0.386935
O O15 0.760331 0.872109 0.498445
O O16 0.910583 0.871978 0.578418
#
# Coordination Sequence:
#
# PCOD9409829 Si02
#       8
#     8   8   8   8   4   8   8   8
#     4  11  22  38  57  90 122 159 200 242 292 347
#     4  10  22  37  58  87 118 158 202 239 291 351
#     4   9  19  36  61  89 112 146 197 241 292 358
#     4  10  20  38  62  85 119 155 197 244 292 346
#     4  10  20  36  64  86 116 148 198 250 290 346
#     4  10  22  39  57  81 126 158 192 247 292 343
#     4   9  20  38  59  84 115 156 194 240 295 353
#     4  10  20  38  61  87 116 157 197 242 297 351
#
# _framework density 19.034286999999999
#
# number of rings (size 3 to 8) (size 9 to 14) (size 15 to 20)
#    0.000    2.133    1.333    1.200    0.000    9.600 
#    6.000    0.000    0.000    0.000    0.000    0.000 
#    0.000    0.000    0.000    0.000    0.000    0.000 
#
# Total GULP energy -334055.320294 kJ/mol
# GULP energy per Si atom -5567.588672 kJ/mol
# Density = 1.899096 g / cm^3
# Si number density = 19.034287 Si / 1000 Ang^3
#
#
#
# Elastic Constant Matrix: (Units=GPa)
#
#
# Indices 1 2 3 4 5 6 
#
# 1 71.2319 37.1151 25.5408 0.0000 0.0000 0.0000
# 2 37.1151 84.2485 38.3656 0.0000 0.0000 0.0000
# 3 25.5408 38.3656 91.7012 0.0000 0.0000 0.0000
# 4 0.0000 0.0000 0.0000 26.9121 0.0000 0.0000
# 5 0.0000 0.0000 0.0000 0.0000 6.1256 0.0000
# 6 0.0000 0.0000 0.0000 0.0000 0.0000 26.7034
#
#
#
# Elastic Compliance Matrix: (Units=1/GPa)
#
#
# Indices 1 2 3 4 5 6 
#
# 1 0.018561 -0.007193 -0.002160 0.000000 0.000000 0.000000
# 2 -0.007193 0.017451 -0.005298 0.000000 0.000000 0.000000
# 3 -0.002160 -0.005298 0.013723 0.000000 0.000000 0.000000
# 4 0.000000 0.000000 0.000000 0.037158 0.000000 0.000000
# 5 0.000000 0.000000 0.000000 0.000000 0.163250 0.000000
# 6 0.000000 0.000000 0.000000 0.000000 0.000000 0.037448
#
#
# Mechanical properties :
#
#
# Convention : Reuss Voigt Hill
#
# Bulk Modulus (GPa) = 48.94019 49.91385 49.42702
# Shear Modulus (GPa) = 15.44615 21.69223 18.56919
#
# Velocity S-wave (km/s) = 2.85176 3.37952 3.12679
# Velocity P-wave (km/s) = 6.05068 6.44269 6.24976
#
# Compressibility (1/GPa) = 0.02043310
#
# Stress axis : x y z
#
# Youngs Moduli (GPa) = 53.87567 57.30312 72.87008
#
# Poissons Ratio (x) = 0.41220 0.15742
# Poissons Ratio (y) = 0.38754 0.38604
# Poissons Ratio (z) = 0.11638 0.30357
#
# Static dielectric constant tensor:
#      x y z
#    x 1.698200 0.000000 0.000000 
#    y 0.000000 1.653510 0.000000 
#    z 0.000000 0.000000 1.689440 
# 
# From -- ./inp_files/3604.got.cif
#   From: 2010.05.17/outbox.cif.g08.bks.cpg/sg52_2_cif.got.tgz:3604.got - 2010.06.03 12:15:38.
