data_PCOD9409259
_publ_section_title
;
Structure prediction by ZEFSAII (Michael W. Deem and Ramdas Pophale) SiO2 
 PCOD9409259
Probable space group: P N N A
;
_chemical_formula_sum "Si O2"
_cell_formula_units_Z 32
_cell_length_a 9.923845
_cell_length_b 12.494956
_cell_length_c 12.053817
_cell_angle_alpha 90.000000
_cell_angle_beta 90.000000
_cell_angle_gamma 90.000000
_cell_volume 1494.649280
_symmetry_space_group_name_H-M "P N N A"
_symmetry_group_IT_number 52
_symmetry_cell_setting 'orthorhombic'
loop_
_space_group_symop_operation_xyz
x,y,z
1/2-x,-y,z
x,1/2-y,1/2-z
1/2-x,1/2+y,1/2-z
-x,-y,-z
1/2+x,y,-z
-x,1/2+y,1/2+z
1/2+x,1/2-y,1/2+z
loop_
_atom_site_type_symbol
_atom_site_label
_atom_site_fract_x
_atom_site_fract_y
_atom_site_fract_z
Si Si1 0.997293 0.874480 0.719302
Si Si2 0.350684 0.284281 0.123820
Si Si3 0.250000 0.000000 0.294388
Si Si4 0.114136 0.179882 0.517410
Si Si5 0.250000 0.000000 0.671632
O O1 0.006810 0.750000 0.750000
O O2 0.867067 0.935507 0.769099
O O3 0.964361 0.872216 0.587188
O O4 0.133366 0.939174 0.738909
O O5 0.328803 0.250000 0.250000
O O6 0.329048 0.412760 0.131956
O O7 0.234612 0.251810 0.037686
O O8 0.499493 0.257225 0.083976
O O9 0.178371 0.090463 0.596476
#
# Coordination Sequence:
#
# PCOD9409259 Si02
#       5
#     8   8   4   8   4
#     4  11  23  38  61  97 130 163 210 277 334 393
#     4  11  23  37  62  95 126 167 212 275 338 387
#     4  10  19  38  60  87 124 162 213 264 330 387
#     4  11  20  38  61  90 129 156 219 277 323 385
#     4  12  21  38  66  97 124 164 219 284 328 383
#
# _framework density 21.409704999999999
#
# number of rings (size 3 to 8) (size 9 to 14) (size 15 to 20)
#    0.000    1.000    5.000    6.750    0.000    1.000 
#    0.000    0.000    0.000    7.500    0.000    0.000 
#    0.000    0.000    0.000    0.000    0.000    0.000 
#
# Total GULP energy -178579.448677 kJ/mol
# GULP energy per Si atom -5580.607771 kJ/mol
# Density = 2.136098 g / cm^3
# Si number density = 21.409705 Si / 1000 Ang^3
#
#
#
# Elastic Constant Matrix: (Units=GPa)
#
#
# Indices 1 2 3 4 5 6 
#
# 1 207.5684 65.6224 46.1962 0.0000 0.0000 0.0000
# 2 65.6224 77.4523 27.6995 0.0000 0.0000 0.0000
# 3 46.1962 27.6995 43.0181 0.0000 0.0000 0.0000
# 4 0.0000 0.0000 0.0000 33.2205 0.0000 0.0000
# 5 0.0000 0.0000 0.0000 0.0000 19.3092 0.0000
# 6 0.0000 0.0000 0.0000 0.0000 0.0000 21.6280
#
#
#
# Elastic Compliance Matrix: (Units=1/GPa)
#
#
# Indices 1 2 3 4 5 6 
#
# 1 0.007333 -0.004413 -0.005033 0.000000 0.000000 0.000000
# 2 -0.004413 0.019430 -0.007772 0.000000 0.000000 0.000000
# 3 -0.005033 -0.007772 0.033655 0.000000 0.000000 0.000000
# 4 0.000000 0.000000 0.000000 0.030102 0.000000 0.000000
# 5 0.000000 0.000000 0.000000 0.000000 0.051789 0.000000
# 6 0.000000 0.000000 0.000000 0.000000 0.000000 0.046236
#
#
# Mechanical properties :
#
#
# Convention : Reuss Voigt Hill
#
# Bulk Modulus (GPa) = 38.48819 67.45279 52.97049
# Shear Modulus (GPa) = 21.58506 27.39958 24.49232
#
# Velocity S-wave (km/s) = 3.17865 3.58127 3.38595
# Velocity P-wave (km/s) = 5.61139 6.97673 6.33098
#
# Compressibility (1/GPa) = 0.02598200
#
# Stress axis : x y z
#
# Youngs Moduli (GPa) = 136.36921 51.46807 29.71291
#
# Poissons Ratio (x) = 0.22713 0.14955
# Poissons Ratio (y) = 0.60179 0.23092
# Poissons Ratio (z) = 0.68639 0.40000
#
# Static dielectric constant tensor:
#      x y z
#    x 1.875810 0.000000 0.000000 
#    y 0.000000 1.807120 0.000000 
#    z 0.000000 0.000000 1.794150 
# 
# From -- ./inp_files/24189.got.cif
#   From: 2010.05.17/outbox.cif.g08.bks.cpg/sg52_13_cif.got.tgz:24189.got - 2010.06.03 12:15:38.
