data_PCOD9409926
_publ_section_title
;
Structure prediction by ZEFSAII (Michael W. Deem and Ramdas Pophale) SiO2 
 PCOD9409926
Probable space group: P N N A
;
_chemical_formula_sum "Si O2"
_cell_formula_units_Z 40
_cell_length_a 16.723766
_cell_length_b 10.307377
_cell_length_c 12.160328
_cell_angle_alpha 90.000000
_cell_angle_beta 90.000000
_cell_angle_gamma 90.000000
_cell_volume 2096.174978
_symmetry_space_group_name_H-M "P N N A"
_symmetry_group_IT_number 52
_symmetry_cell_setting 'orthorhombic'
loop_
_space_group_symop_operation_xyz
x,y,z
1/2-x,-y,z
x,1/2-y,1/2-z
1/2-x,1/2+y,1/2-z
-x,-y,-z
1/2+x,y,-z
-x,1/2+y,1/2+z
1/2+x,1/2-y,1/2+z
loop_
_atom_site_type_symbol
_atom_site_label
_atom_site_fract_x
_atom_site_fract_y
_atom_site_fract_z
Si Si1 0.344614 0.512044 0.022300
Si Si2 0.902920 0.754424 0.376099
Si Si3 0.595462 0.752932 0.881401
Si Si4 0.820716 0.894954 0.758706
Si Si5 0.407471 0.974180 0.031981
O O1 0.250000 0.500000 0.003990
O O2 0.377884 0.368780 0.045285
O O3 0.358293 0.577152 0.140768
O O4 0.379558 0.609711 0.932557
O O5 0.876426 0.750000 0.250000
O O6 0.873316 0.626759 0.442546
O O7 0.999183 0.745946 0.379875
O O8 0.616889 0.750000 0.750000
O O9 0.626312 0.882037 0.943455
O O10 0.787895 0.750000 0.750000
O O11 0.750000 0.000000 0.776159
O O12 0.888090 0.905858 0.851842
O O13 0.500000 0.000000 0.000000
#
# Coordination Sequence:
#
# PCOD9409926 Si02
#       5
#     8   8   8   8   8
#     4  11  23  37  60  93 125 153 204 254 311 365
#     4  10  22  42  61  83 120 168 209 245 298 366
#     4  10  20  37  62  90 120 155 198 255 309 363
#     4  11  23  37  63  96 128 159 202 265 324 371
#     4  10  21  38  59  90 123 160 204 251 311 374
#
# _framework density 19.082377000000001
#
# number of rings (size 3 to 8) (size 9 to 14) (size 15 to 20)
#    0.000    1.600    4.000    0.600    5.600    0.000 
#    0.000    4.000    0.000    0.000    0.000    0.000 
#    0.000    0.000    0.000    0.000    0.000    0.000 
#
# Total GULP energy -222840.726614 kJ/mol
# GULP energy per Si atom -5571.018165 kJ/mol
# Density = 1.903894 g / cm^3
# Si number density = 19.082377 Si / 1000 Ang^3
#
#
#
# Elastic Constant Matrix: (Units=GPa)
#
#
# Indices 1 2 3 4 5 6 
#
# 1 34.5650 21.0352 33.2817 0.0000 0.0000 0.0000
# 2 21.0352 199.0848 77.4973 0.0000 0.0000 0.0000
# 3 33.2817 77.4973 130.3470 0.0000 0.0000 0.0000
# 4 0.0000 0.0000 0.0000 15.1689 0.0000 0.0000
# 5 0.0000 0.0000 0.0000 0.0000 -46.7381 0.0000
# 6 0.0000 0.0000 0.0000 0.0000 0.0000 5.1614
#
#
#
# Elastic Compliance Matrix: (Units=1/GPa)
#
#
# Indices 1 2 3 4 5 6 
#
# 1 0.038377 -0.000313 -0.009613 0.000000 0.000000 0.000000
# 2 -0.000313 0.006538 -0.003807 0.000000 0.000000 0.000000
# 3 -0.009613 -0.003807 0.012390 0.000000 0.000000 0.000000
# 4 0.000000 0.000000 0.000000 0.065924 0.000000 0.000000
# 5 0.000000 0.000000 0.000000 0.000000 -0.021396 0.000000
# 6 0.000000 0.000000 0.000000 0.000000 0.000000 0.193745
#
#
# Mechanical properties :
#
#
# Convention : Reuss Voigt Hill
#
# Bulk Modulus (GPa) = 33.51300 69.73613 51.62456
# Shear Modulus (GPa) = 15.01538 10.19729 12.60633
#
# Velocity S-wave (km/s) = 2.80817 2.31418 2.57305
# Velocity P-wave (km/s) = 5.30234 6.61549 5.99498
#
# Compressibility (1/GPa) = 0.02983917
#
# Stress axis : x y z
#
# Youngs Moduli (GPa) = 26.05698 152.94941 80.71074
#
# Poissons Ratio (x) = 0.04786 0.77587
# Poissons Ratio (y) = 0.00815 0.30729
# Poissons Ratio (z) = 0.25048 0.58233
#
# Static dielectric constant tensor:
#      x y z
#    x 1.667510 0.000000 0.000000 
#    y 0.000000 1.065130 0.000000 
#    z 0.000000 0.000000 1.669010 
# 
# From -- ./inp_files/20269.got.cif
#   From: 2010.05.17/outbox.cif.g08.bks.cpg/sg52_11_cif.got.tgz:20269.got - 2010.06.03 12:15:38.
