data_PCOD9409971
_publ_section_title
;
Structure prediction by ZEFSAII (Michael W. Deem and Ramdas Pophale) SiO2 
 PCOD9409971
Probable space group: P N N A
;
_chemical_formula_sum "Si O2"
_cell_formula_units_Z 32
_cell_length_a 8.538590
_cell_length_b 12.199988
_cell_length_c 14.703121
_cell_angle_alpha 90.000000
_cell_angle_beta 90.000000
_cell_angle_gamma 90.000000
_cell_volume 1531.634341
_symmetry_space_group_name_H-M "P N N A"
_symmetry_group_IT_number 52
_symmetry_cell_setting 'orthorhombic'
loop_
_space_group_symop_operation_xyz
x,y,z
1/2-x,-y,z
x,1/2-y,1/2-z
1/2-x,1/2+y,1/2-z
-x,-y,-z
1/2+x,y,-z
-x,1/2+y,1/2+z
1/2+x,1/2-y,1/2+z
loop_
_atom_site_type_symbol
_atom_site_label
_atom_site_fract_x
_atom_site_fract_y
_atom_site_fract_z
Si Si1 0.858247 0.396333 0.558775
Si Si2 0.566962 0.468453 0.901951
Si Si3 0.547400 0.210361 0.891781
Si Si4 0.934522 0.010722 0.212684
O O1 0.750000 0.500000 0.527916
O O2 0.731773 0.312662 0.597809
O O3 0.955635 0.341670 0.478212
O O4 0.971485 0.440108 0.637874
O O5 0.750000 0.500000 0.898432
O O6 0.530745 0.339588 0.890907
O O7 0.484781 0.522593 0.814210
O O8 0.500000 0.500000 0.000000
O O9 0.485965 0.135901 0.809087
O O10 0.750000 0.000000 0.201562
#
# Coordination Sequence:
#
# PCOD9409971 Si02
#       4
#     8   8   8   8
#     4  10  20  37  66  96 124 155 203 261 308 361
#     4  12  26  44  62  88 127 168 207 251 304 367
#     4  11  21  40  65  93 124 164 204 251 308 367
#     4  11  23  41  65  93 124 159 206 259 309 363
#
# _framework density 20.892716
#
# number of rings (size 3 to 8) (size 9 to 14) (size 15 to 20)
#    0.000    1.000    0.000   10.500    0.000    0.000 
#    0.000   11.250    0.000    0.000    0.000    0.000 
#    0.000    0.000    0.000    0.000    0.000    0.000 
#
# Total GULP energy -178940.735444 kJ/mol
# GULP energy per Si atom -5591.897983 kJ/mol
# Density = 2.084516 g / cm^3
# Si number density = 20.892716 Si / 1000 Ang^3
#
#
#
# Elastic Constant Matrix: (Units=GPa)
#
#
# Indices 1 2 3 4 5 6 
#
# 1 160.5862 6.2776 79.9694 0.0000 0.0000 0.0000
# 2 6.2776 43.8946 43.4422 0.0000 0.0000 0.0000
# 3 79.9694 43.4422 173.5535 0.0000 0.0000 0.0000
# 4 0.0000 0.0000 0.0000 9.0180 0.0000 0.0000
# 5 0.0000 0.0000 0.0000 0.0000 4.9644 0.0000
# 6 0.0000 0.0000 0.0000 0.0000 0.0000 18.1532
#
#
#
# Elastic Compliance Matrix: (Units=1/GPa)
#
#
# Indices 1 2 3 4 5 6 
#
# 1 0.008473 0.003526 -0.004787 0.000000 0.000000 0.000000
# 2 0.003526 0.031751 -0.009572 0.000000 0.000000 0.000000
# 3 -0.004787 -0.009572 0.010364 0.000000 0.000000 0.000000
# 4 0.000000 0.000000 0.000000 0.110889 0.000000 0.000000
# 5 0.000000 0.000000 0.000000 0.000000 0.201436 0.000000
# 6 0.000000 0.000000 0.000000 0.000000 0.000000 0.055087
#
#
# Mechanical properties :
#
#
# Convention : Reuss Voigt Hill
#
# Bulk Modulus (GPa) = 34.57670 70.82365 52.70017
# Shear Modulus (GPa) = 11.12826 22.98344 17.05585
#
# Velocity S-wave (km/s) = 2.31040 3.32033 2.86029
# Velocity P-wave (km/s) = 4.86855 6.97651 6.01559
#
# Compressibility (1/GPa) = 0.02892121
#
# Stress axis : x y z
#
# Youngs Moduli (GPa) = 118.02124 31.49492 96.49245
#
# Poissons Ratio (x) = -0.11104 0.46188
# Poissons Ratio (y) = -0.41609 0.92364
# Poissons Ratio (z) = 0.56493 0.30147
#
# Static dielectric constant tensor:
#      x y z
#    x 1.716250 0.000000 0.000000 
#    y 0.000000 1.777170 0.000000 
#    z 0.000000 0.000000 1.762450 
# 
# From -- ./inp_files/24085.got.cif
#   From: 2010.05.17/outbox.cif.g08.bks.cpg/sg52_13_cif.got.tgz:24085.got - 2010.06.03 12:15:38.
