data_PCOD9409872
_publ_section_title
;
Structure prediction by ZEFSAII (Michael W. Deem and Ramdas Pophale) SiO2 
 PCOD9409872
Probable space group: P N N A
;
_chemical_formula_sum "Si O2"
_cell_formula_units_Z 40
_cell_length_a 9.553709
_cell_length_b 11.676791
_cell_length_c 15.171802
_cell_angle_alpha 90.000000
_cell_angle_beta 90.000000
_cell_angle_gamma 90.000000
_cell_volume 1692.515607
_symmetry_space_group_name_H-M "P N N A"
_symmetry_group_IT_number 52
_symmetry_cell_setting 'orthorhombic'
loop_
_space_group_symop_operation_xyz
x,y,z
1/2-x,-y,z
x,1/2-y,1/2-z
1/2-x,1/2+y,1/2-z
-x,-y,-z
1/2+x,y,-z
-x,1/2+y,1/2+z
1/2+x,1/2-y,1/2+z
loop_
_atom_site_type_symbol
_atom_site_label
_atom_site_fract_x
_atom_site_fract_y
_atom_site_fract_z
Si Si1 0.502825 0.912057 0.580704
Si Si2 0.664633 0.652436 0.384838
Si Si3 0.597042 0.175587 0.996153
Si Si4 0.272255 0.807734 0.340042
Si Si5 0.590120 0.604434 0.185791
O O1 0.454338 0.791501 0.543436
O O2 0.655188 0.891455 0.621947
O O3 0.500000 0.000000 0.500000
O O4 0.403207 0.975434 0.650418
O O5 0.809313 0.617093 0.429572
O O6 0.536637 0.620848 0.449352
O O7 0.639495 0.611998 0.285835
O O8 0.657114 0.792984 0.372728
O O9 0.697512 0.213828 0.915552
O O10 0.220450 0.750000 0.250000
O O11 0.423303 0.863554 0.318804
#
# Coordination Sequence:
#
# PCOD9409872 Si02
#       5
#     8   8   8   8   8
#     4  12  22  34  65 102 125 154 214 275 310 366
#     4  10  20  37  59  87 126 172 199 255 318 384
#     4  11  20  36  60  90 125 163 210 250 314 379
#     4  11  20  36  60  91 127 172 209 250 324 393
#     4  10  20  37  57  90 132 164 204 264 328 368
#
# _framework density 23.633459999999999
#
# number of rings (size 3 to 8) (size 9 to 14) (size 15 to 20)
#    0.000    1.200   10.000    0.600    0.000    2.400 
#    3.600    0.000    0.000    1.200    5.200    0.000 
#    0.000    0.200    0.000    0.000    0.000    0.000 
#
# Total GULP energy -223872.417843 kJ/mol
# GULP energy per Si atom -5596.810446 kJ/mol
# Density = 2.357967 g / cm^3
# Si number density = 23.633460 Si / 1000 Ang^3
#
#
#
# Elastic Constant Matrix: (Units=GPa)
#
#
# Indices 1 2 3 4 5 6 
#
# 1 113.1336 28.0206 62.6268 0.0000 0.0000 0.0000
# 2 28.0206 72.8350 28.1848 0.0000 0.0000 0.0000
# 3 62.6268 28.1848 145.3223 0.0000 0.0000 0.0000
# 4 0.0000 0.0000 0.0000 32.1933 0.0000 0.0000
# 5 0.0000 0.0000 0.0000 0.0000 43.9453 0.0000
# 6 0.0000 0.0000 0.0000 0.0000 0.0000 33.7026
#
#
#
# Elastic Compliance Matrix: (Units=1/GPa)
#
#
# Indices 1 2 3 4 5 6 
#
# 1 0.012135 -0.002859 -0.004675 0.000000 0.000000 0.000000
# 2 -0.002859 0.015517 -0.001777 0.000000 0.000000 0.000000
# 3 -0.004675 -0.001777 0.009241 0.000000 0.000000 0.000000
# 4 0.000000 0.000000 0.000000 0.031062 0.000000 0.000000
# 5 0.000000 0.000000 0.000000 0.000000 0.022756 0.000000
# 6 0.000000 0.000000 0.000000 0.000000 0.000000 0.029671
#
#
# Mechanical properties :
#
#
# Convention : Reuss Voigt Hill
#
# Bulk Modulus (GPa) = 54.73536 63.21726 58.97631
# Shear Modulus (GPa) = 34.45982 36.13215 35.29599
#
# Velocity S-wave (km/s) = 3.82264 3.91430 3.86874
# Velocity P-wave (km/s) = 6.53405 6.87285 6.70559
#
# Compressibility (1/GPa) = 0.01826973
#
# Stress axis : x y z
#
# Youngs Moduli (GPa) = 82.40402 64.44343 108.21675
#
# Poissons Ratio (x) = 0.18427 0.50593
# Poissons Ratio (y) = 0.23563 0.19233
# Poissons Ratio (z) = 0.38525 0.11453
#
# Static dielectric constant tensor:
#      x y z
#    x 1.920550 0.000000 0.000000 
#    y 0.000000 1.994430 0.000000 
#    z 0.000000 0.000000 1.857260 
# 
# From -- ./inp_files/24404.got.cif
#   From: 2010.05.17/outbox.cif.g08.bks.cpg/sg52_13_cif.got.tgz:24404.got - 2010.06.03 12:15:38.
