data_PCOD9409026
_publ_section_title
;
Structure prediction by ZEFSAII (Michael W. Deem and Ramdas Pophale) SiO2 
 PCOD9409026
Probable space group: P N N A
;
_chemical_formula_sum "Si O2"
_cell_formula_units_Z 48
_cell_length_a 16.604562
_cell_length_b 16.812045
_cell_length_c 9.062854
_cell_angle_alpha 90.000000
_cell_angle_beta 90.000000
_cell_angle_gamma 90.000000
_cell_volume 2529.955904
_symmetry_space_group_name_H-M "P N N A"
_symmetry_group_IT_number 52
_symmetry_cell_setting 'orthorhombic'
loop_
_space_group_symop_operation_xyz
x,y,z
1/2-x,-y,z
x,1/2-y,1/2-z
1/2-x,1/2+y,1/2-z
-x,-y,-z
1/2+x,y,-z
-x,1/2+y,1/2+z
1/2+x,1/2-y,1/2+z
loop_
_atom_site_type_symbol
_atom_site_label
_atom_site_fract_x
_atom_site_fract_y
_atom_site_fract_z
Si Si1 0.053806 0.159068 0.701100
Si Si2 0.788885 0.415098 0.876190
Si Si3 0.225459 0.406686 0.828933
Si Si4 0.883633 0.337870 0.309472
Si Si5 0.606754 0.666761 0.659111
Si Si6 0.538834 0.584031 0.043403
O O1 0.069782 0.250000 0.750000
O O2 0.134776 0.108955 0.719970
O O3 0.978340 0.127042 0.796148
O O4 0.018428 0.149460 0.534994
O O5 0.750000 0.500000 0.844955
O O6 0.813730 0.373905 0.725250
O O7 0.732145 0.376175 0.000797
O O8 0.873882 0.416998 0.964331
O O9 0.250000 0.500000 0.830228
O O10 0.292450 0.362650 0.732691
O O11 0.899241 0.250000 0.250000
O O12 0.891513 0.332480 0.484354
O O13 0.941899 0.396057 0.213714
O O14 0.603648 0.750000 0.750000
O O15 0.500000 0.500000 0.000000
#
# Coordination Sequence:
#
# PCOD9409026 Si02
#       6
#     8   8   8   8   8   8
#     4  10  19  35  58  84 116 150 192 250 299 346
#     4   9  18  34  56  79 110 148 187 233 286 345
#     4  10  20  36  58  85 115 153 196 240 293 354
#     4  11  21  37  61  85 113 155 199 242 301 366
#     4  10  21  37  57  84 118 153 193 244 298 352
#     4  10  20  37  60  83 113 153 197 243 293 355
#
# _framework density 18.972662
#
# number of rings (size 3 to 8) (size 9 to 14) (size 15 to 20)
#    0.000    2.000    0.000    7.500    0.000    0.667 
#    0.000   10.833    0.000    9.000    0.000    0.000 
#    0.000    0.000    0.000    0.000    0.000    0.000 
#
# Total GULP energy -267342.878306 kJ/mol
# GULP energy per Si atom -5569.643298 kJ/mol
# Density = 1.892948 g / cm^3
# Si number density = 18.972662 Si / 1000 Ang^3
#
#
#
# Elastic Constant Matrix: (Units=GPa)
#
#
# Indices 1 2 3 4 5 6 
#
# 1 92.3278 35.6949 42.2163 0.0000 0.0000 0.0000
# 2 35.6949 69.8902 41.7363 0.0000 0.0000 0.0000
# 3 42.2163 41.7363 175.5740 0.0000 0.0000 0.0000
# 4 0.0000 0.0000 0.0000 23.5712 0.0000 0.0000
# 5 0.0000 0.0000 0.0000 0.0000 20.3252 0.0000
# 6 0.0000 0.0000 0.0000 0.0000 0.0000 38.1837
#
#
#
# Elastic Compliance Matrix: (Units=1/GPa)
#
#
# Indices 1 2 3 4 5 6 
#
# 1 0.014045 -0.006010 -0.001949 0.000000 0.000000 0.000000
# 2 -0.006010 0.019247 -0.003130 0.000000 0.000000 0.000000
# 3 -0.001949 -0.003130 0.006908 0.000000 0.000000 0.000000
# 4 0.000000 0.000000 0.000000 0.042425 0.000000 0.000000
# 5 0.000000 0.000000 0.000000 0.000000 0.049200 0.000000
# 6 0.000000 0.000000 0.000000 0.000000 0.000000 0.026189
#
#
# Mechanical properties :
#
#
# Convention : Reuss Voigt Hill
#
# Bulk Modulus (GPa) = 55.48358 64.12078 59.80218
# Shear Modulus (GPa) = 26.85299 30.95898 28.90599
#
# Velocity S-wave (km/s) = 3.76620 4.04390 3.90752
# Velocity P-wave (km/s) = 6.94405 7.46150 7.20742
#
# Compressibility (1/GPa) = 0.01802335
#
# Stress axis : x y z
#
# Youngs Moduli (GPa) = 71.19774 51.95676 144.75508
#
# Poissons Ratio (x) = 0.31225 0.28207
# Poissons Ratio (y) = 0.42788 0.45311
# Poissons Ratio (z) = 0.13873 0.16263
#
# Static dielectric constant tensor:
#      x y z
#    x 1.675020 0.000000 0.000000 
#    y 0.000000 1.726660 0.000000 
#    z 0.000000 0.000000 1.711830 
# 
# From -- ./inp_files/10489.got.cif
#   From: 2010.05.17/outbox.cif.g08.bks.cpg/sg52_6_cif.got.tgz:10489.got - 2010.06.03 12:15:38.
