data_PCOD9409158
_publ_section_title
;
Structure prediction by ZEFSAII (Michael W. Deem and Ramdas Pophale) SiO2 
 PCOD9409158
Probable space group: P N N A
;
_chemical_formula_sum "Si O2"
_cell_formula_units_Z 60
_cell_length_a 19.342779
_cell_length_b 8.549191
_cell_length_c 15.523431
_cell_angle_alpha 90.000000
_cell_angle_beta 90.000000
_cell_angle_gamma 90.000000
_cell_volume 2567.033908
_symmetry_space_group_name_H-M "P N N A"
_symmetry_group_IT_number 52
_symmetry_cell_setting 'orthorhombic'
loop_
_space_group_symop_operation_xyz
x,y,z
1/2-x,-y,z
x,1/2-y,1/2-z
1/2-x,1/2+y,1/2-z
-x,-y,-z
1/2+x,y,-z
-x,1/2+y,1/2+z
1/2+x,1/2-y,1/2+z
loop_
_atom_site_type_symbol
_atom_site_label
_atom_site_fract_x
_atom_site_fract_y
_atom_site_fract_z
Si Si1 0.917772 0.991714 0.615908
Si Si2 0.456100 0.401371 0.802596
Si Si3 0.347325 0.271894 0.433720
Si Si4 0.433161 0.750000 0.750000
Si Si5 0.823597 0.657632 0.377981
Si Si6 0.830143 0.297289 0.366808
Si Si7 0.171823 0.468515 0.287400
Si Si8 0.308925 0.769470 0.435038
O O1 0.864116 0.905268 0.553583
O O2 0.993072 0.919623 0.616571
O O3 0.913342 0.170931 0.591060
O O4 0.882788 0.981236 0.711106
O O5 0.483842 0.250000 0.750000
O O6 0.464320 0.572184 0.756072
O O7 0.380178 0.335423 0.828058
O O8 0.351043 0.311728 0.533365
O O9 0.341597 0.404286 0.361909
O O10 0.271678 0.188148 0.428929
O O11 0.385928 0.750057 0.664312
O O12 0.832241 0.481540 0.341034
O O13 0.750658 0.738571 0.354274
O O14 0.818890 0.657686 0.482055
O O15 0.250000 0.500000 0.254399
O O16 0.172745 0.311848 0.344325
#
# Coordination Sequence:
#
# PCOD9409158 Si02
#       8
#     8   8   8   4   8   8   8   8
#     4  12  25  39  62  95 141 193 228 280 343 410
#     4  12  28  49  67 100 147 183 236 291 351 434
#     4  10  21  38  66  99 135 175 235 294 336 411
#     4  12  28  46  74 106 130 178 238 292 360 424
#     4  10  22  44  76 102 131 174 231 297 360 421
#     4  10  22  45  72 100 137 176 221 297 367 415
#     4  10  19  36  64  95 130 179 235 282 337 401
#     4  10  20  40  64 101 135 175 234 286 351 406
#
# _framework density 23.373279
#
# number of rings (size 3 to 8) (size 9 to 14) (size 15 to 20)
#    0.000    1.333    2.667    2.800    4.667    3.200 
#    0.000    0.667    0.000    0.000    0.000    0.000 
#    0.000    0.000    0.000    0.000    0.000    0.000 
#
# Total GULP energy -334572.381184 kJ/mol
# GULP energy per Si atom -5576.206353 kJ/mol
# Density = 2.332008 g / cm^3
# Si number density = 23.373279 Si / 1000 Ang^3
#
#
#
# Elastic Constant Matrix: (Units=GPa)
#
#
# Indices 1 2 3 4 5 6 
#
# 1 76.8044 41.2628 8.0874 0.0000 0.0000 0.0000
# 2 41.2628 111.3746 10.5924 0.0000 0.0000 0.0000
# 3 8.0874 10.5924 77.9541 0.0000 0.0000 0.0000
# 4 0.0000 0.0000 0.0000 34.4528 0.0000 0.0000
# 5 0.0000 0.0000 0.0000 0.0000 17.0461 0.0000
# 6 0.0000 0.0000 0.0000 0.0000 0.0000 25.1922
#
#
#
# Elastic Compliance Matrix: (Units=1/GPa)
#
#
# Indices 1 2 3 4 5 6 
#
# 1 0.016315 -0.005961 -0.000883 0.000000 0.000000 0.000000
# 2 -0.005961 0.011274 -0.000914 0.000000 0.000000 0.000000
# 3 -0.000883 -0.000914 0.013044 0.000000 0.000000 0.000000
# 4 0.000000 0.000000 0.000000 0.029025 0.000000 0.000000
# 5 0.000000 0.000000 0.000000 0.000000 0.058664 0.000000
# 6 0.000000 0.000000 0.000000 0.000000 0.000000 0.039695
#
#
# Mechanical properties :
#
#
# Convention : Reuss Voigt Hill
#
# Bulk Modulus (GPa) = 39.81003 42.89091 41.35047
# Shear Modulus (GPa) = 26.05463 29.08425 27.56944
#
# Velocity S-wave (km/s) = 3.34236 3.53134 3.43815
# Velocity P-wave (km/s) = 5.65371 5.91755 5.78713
#
# Compressibility (1/GPa) = 0.02511930
#
# Stress axis : x y z
#
# Youngs Moduli (GPa) = 61.29189 88.70022 76.66502
#
# Poissons Ratio (x) = 0.52871 0.06767
# Poissons Ratio (y) = 0.36534 0.07003
# Poissons Ratio (z) = 0.05410 0.08103
#
# Static dielectric constant tensor:
#      x y z
#    x 1.870420 0.000000 0.000000 
#    y 0.000000 1.937940 0.000000 
#    z 0.000000 0.000000 1.914210 
# 
# From -- ./inp_files/33761.got.cif
#   From: 2010.05.17/outbox.cif.g08.bks.cpg/sg52_17_cif.got.tgz:33761.got - 2010.06.03 12:15:38.
