data_PCOD9409974
_publ_section_title
;
Structure prediction by ZEFSAII (Michael W. Deem and Ramdas Pophale) SiO2 
 PCOD9409974
Probable space group: P N N A
;
_chemical_formula_sum "Si O2"
_cell_formula_units_Z 36
_cell_length_a 15.701690
_cell_length_b 8.374745
_cell_length_c 15.104604
_cell_angle_alpha 90.000000
_cell_angle_beta 90.000000
_cell_angle_gamma 90.000000
_cell_volume 1986.219927
_symmetry_space_group_name_H-M "P N N A"
_symmetry_group_IT_number 52
_symmetry_cell_setting 'orthorhombic'
loop_
_space_group_symop_operation_xyz
x,y,z
1/2-x,-y,z
x,1/2-y,1/2-z
1/2-x,1/2+y,1/2-z
-x,-y,-z
1/2+x,y,-z
-x,1/2+y,1/2+z
1/2+x,1/2-y,1/2+z
loop_
_atom_site_type_symbol
_atom_site_label
_atom_site_fract_x
_atom_site_fract_y
_atom_site_fract_z
Si Si1 0.929203 0.446690 0.071679
Si Si2 0.837347 0.689043 0.843681
Si Si3 0.750000 0.000000 0.518995
Si Si4 0.472810 0.431208 0.230080
Si Si5 0.007617 0.106578 0.088371
O O1 0.835323 0.479687 0.036536
O O2 0.951870 0.546963 0.159056
O O3 0.944363 0.258008 0.086060
O O4 0.000000 0.500000 0.000000
O O5 0.803134 0.750000 0.750000
O O6 0.897189 0.538856 0.813302
O O7 0.900118 0.812204 0.893351
O O8 0.765582 0.644429 0.912956
O O9 0.447695 0.250000 0.250000
O O10 0.503642 0.504690 0.322796
O O11 0.000000 0.000000 0.000000
#
# Coordination Sequence:
#
# PCOD9409974 Si02
#       5
#     8   8   4   8   8
#     4  11  21  40  61  88 127 162 200 250 306 365
#     4   9  21  39  57  92 123 154 204 257 306 358
#     4  12  22  38  66  88 130 158 204 250 314 366
#     4  10  20  37  67  89 118 165 203 249 309 357
#     4  10  20  38  66  89 118 160 206 250 304 365
#
# _framework density 18.124880000000001
#
# number of rings (size 3 to 8) (size 9 to 14) (size 15 to 20)
#    0.000    1.778    4.444    3.333    0.000    0.889 
#    4.000    2.222    0.000    0.000    0.000    0.000 
#    0.000    0.000    0.000    0.000    0.000    0.000 
#
# Total GULP energy -200738.335530 kJ/mol
# GULP energy per Si atom -5576.064876 kJ/mol
# Density = 1.808363 g / cm^3
# Si number density = 18.124880 Si / 1000 Ang^3
#
#
#
# Elastic Constant Matrix: (Units=GPa)
#
#
# Indices 1 2 3 4 5 6 
#
# 1 72.2023 0.0130 37.9158 0.0000 0.0000 0.0000
# 2 0.0130 80.0560 35.9542 0.0000 0.0000 0.0000
# 3 37.9158 35.9542 131.8521 0.0000 0.0000 0.0000
# 4 0.0000 0.0000 0.0000 41.0507 0.0000 0.0000
# 5 0.0000 0.0000 0.0000 0.0000 22.0803 0.0000
# 6 0.0000 0.0000 0.0000 0.0000 0.0000 7.1242
#
#
#
# Elastic Compliance Matrix: (Units=1/GPa)
#
#
# Indices 1 2 3 4 5 6 
#
# 1 0.016728 0.002459 -0.005481 0.000000 0.000000 0.000000
# 2 0.002459 0.014596 -0.004687 0.000000 0.000000 0.000000
# 3 -0.005481 -0.004687 0.010438 0.000000 0.000000 0.000000
# 4 0.000000 0.000000 0.000000 0.024360 0.000000 0.000000
# 5 0.000000 0.000000 0.000000 0.000000 0.045289 0.000000
# 6 0.000000 0.000000 0.000000 0.000000 0.000000 0.140367
#
#
# Mechanical properties :
#
#
# Convention : Reuss Voigt Hill
#
# Bulk Modulus (GPa) = 37.95966 47.98626 42.97296
# Shear Modulus (GPa) = 18.11739 28.06620 23.09179
#
# Velocity S-wave (km/s) = 3.16505 3.93935 3.57324
# Velocity P-wave (km/s) = 5.86051 6.87199 6.38631
#
# Compressibility (1/GPa) = 0.02634376
#
# Stress axis : x y z
#
# Youngs Moduli (GPa) = 59.78132 68.51229 95.79987
#
# Poissons Ratio (x) = -0.16846 0.52505
# Poissons Ratio (y) = -0.14699 0.44903
# Poissons Ratio (z) = 0.32764 0.32113
#
# Static dielectric constant tensor:
#      x y z
#    x 1.597060 0.000000 0.000000 
#    y 0.000000 1.681970 0.000000 
#    z 0.000000 0.000000 1.626690 
# 
# From -- ./inp_files/26804.got.cif
#   From: 2010.05.17/outbox.cif.g08.bks.cpg/sg52_14_cif.got.tgz:26804.got - 2010.06.03 12:15:38.
