data_PCOD9409580
_publ_section_title
;
Structure prediction by ZEFSAII (Michael W. Deem and Ramdas Pophale) SiO2 
 PCOD9409580
Probable space group: P N N A
;
_chemical_formula_sum "Si O2"
_cell_formula_units_Z 56
_cell_length_a 16.860863
_cell_length_b 13.889604
_cell_length_c 11.833769
_cell_angle_alpha 90.000000
_cell_angle_beta 90.000000
_cell_angle_gamma 90.000000
_cell_volume 2771.358766
_symmetry_space_group_name_H-M "P N N A"
_symmetry_group_IT_number 52
_symmetry_cell_setting 'orthorhombic'
loop_
_space_group_symop_operation_xyz
x,y,z
1/2-x,-y,z
x,1/2-y,1/2-z
1/2-x,1/2+y,1/2-z
-x,-y,-z
1/2+x,y,-z
-x,1/2+y,1/2+z
1/2+x,1/2-y,1/2+z
loop_
_atom_site_type_symbol
_atom_site_label
_atom_site_fract_x
_atom_site_fract_y
_atom_site_fract_z
Si Si1 0.226805 0.892932 0.544585
Si Si2 0.329392 0.263242 0.379538
Si Si3 0.139168 0.249813 0.619471
Si Si4 0.803927 0.588944 0.545874
Si Si5 0.472513 0.563668 0.391483
Si Si6 0.580999 0.639720 0.199878
Si Si7 0.485698 0.256951 0.999397
O O1 0.188850 0.838927 0.437819
O O2 0.304424 0.830475 0.567783
O O3 0.167292 0.890104 0.652788
O O4 0.250000 0.000000 0.518134
O O5 0.349831 0.250000 0.250000
O O6 0.255360 0.335517 0.393088
O O7 0.406446 0.292681 0.451968
O O8 0.155914 0.250000 0.750000
O O9 0.161264 0.351403 0.560456
O O10 0.048108 0.222627 0.596686
O O11 0.750000 0.500000 0.508461
O O12 0.877546 0.548171 0.620997
O O13 0.500000 0.500000 0.500000
O O14 0.534854 0.567815 0.286081
O O15 0.473576 0.676051 0.423734
O O16 0.588796 0.750000 0.250000
O O17 0.531920 0.655057 0.083775
#
# Coordination Sequence:
#
# PCOD9409580 Si02
#       7
#     8   8   8   8   8   8   8
#     4  10  22  38  56  85 118 154 198 240 294 357
#     4  10  21  39  61  83 115 154 193 242 293 350
#     4  10  21  36  58  86 117 153 194 241 292 350
#     4  10  22  38  58  87 118 149 192 242 293 350
#     4  10  20  34  57  88 116 148 195 242 290 348
#     4   9  19  38  60  80 114 158 192 235 290 346
#     4   9  19  37  57  81 114 152 193 236 290 351
#
# _framework density 20.206693999999999
#
# number of rings (size 3 to 8) (size 9 to 14) (size 15 to 20)
#    0.000    2.286    0.000    1.714    0.000   10.857 
#    0.000    5.714    0.000    0.000    0.000    0.000 
#    0.000    0.000    0.000    0.000    0.000    0.000 
#
# Total GULP energy -311833.837162 kJ/mol
# GULP energy per Si atom -5568.461378 kJ/mol
# Density = 2.016070 g / cm^3
# Si number density = 20.206694 Si / 1000 Ang^3
#
#
#
# Elastic Constant Matrix: (Units=GPa)
#
#
# Indices 1 2 3 4 5 6 
#
# 1 97.2544 23.2096 1.7705 0.0000 0.0000 0.0000
# 2 23.2096 73.3010 7.7507 0.0000 0.0000 0.0000
# 3 1.7705 7.7507 50.7575 0.0000 0.0000 0.0000
# 4 0.0000 0.0000 0.0000 1.0485 0.0000 0.0000
# 5 0.0000 0.0000 0.0000 0.0000 7.4221 0.0000
# 6 0.0000 0.0000 0.0000 0.0000 0.0000 -38.1155
#
#
#
# Elastic Compliance Matrix: (Units=1/GPa)
#
#
# Indices 1 2 3 4 5 6 
#
# 1 0.011124 -0.003538 0.000152 0.000000 0.000000 0.000000
# 2 -0.003538 0.014992 -0.002166 0.000000 0.000000 0.000000
# 3 0.000152 -0.002166 0.020027 0.000000 0.000000 0.000000
# 4 0.000000 0.000000 0.000000 0.953770 0.000000 0.000000
# 5 0.000000 0.000000 0.000000 0.000000 0.134734 0.000000
# 6 0.000000 0.000000 0.000000 0.000000 0.000000 -0.026236
#
#
# Mechanical properties :
#
#
# Convention : Reuss Voigt Hill
#
# Bulk Modulus (GPa) = 28.53970 31.86382 30.20176
# Shear Modulus (GPa) = 4.42011 6.64315 5.53163
#
# Velocity S-wave (km/s) = 1.48061 1.81514 1.65634
# Velocity P-wave (km/s) = 4.13249 4.49401 4.31704
#
# Compressibility (1/GPa) = 0.03503891
#
# Stress axis : x y z
#
# Youngs Moduli (GPa) = 89.89612 66.70338 49.93277
#
# Poissons Ratio (x) = 0.23602 -0.00760
# Poissons Ratio (y) = 0.31808 0.10814
# Poissons Ratio (z) = -0.01369 0.14447
#
# Static dielectric constant tensor:
#      x y z
#    x 1.786780 0.000000 0.000000 
#    y 0.000000 1.683740 0.000000 
#    z 0.000000 0.000000 4.120980 
# 
# From -- ./inp_files/19615.got.cif
#   From: 2010.05.17/outbox.cif.g08.bks.cpg/sg52_10_cif.got.tgz:19615.got - 2010.06.03 12:15:38.
