data_PCOD9409540
_publ_section_title
;
Structure prediction by ZEFSAII (Michael W. Deem and Ramdas Pophale) SiO2 
 PCOD9409540
Probable space group: P N N A
;
_chemical_formula_sum "Si O2"
_cell_formula_units_Z 40
_cell_length_a 27.794986
_cell_length_b 8.823141
_cell_length_c 7.296080
_cell_angle_alpha 90.000000
_cell_angle_beta 90.000000
_cell_angle_gamma 90.000000
_cell_volume 1789.283951
_symmetry_space_group_name_H-M "P N N A"
_symmetry_group_IT_number 52
_symmetry_cell_setting 'orthorhombic'
loop_
_space_group_symop_operation_xyz
x,y,z
1/2-x,-y,z
x,1/2-y,1/2-z
1/2-x,1/2+y,1/2-z
-x,-y,-z
1/2+x,y,-z
-x,1/2+y,1/2+z
1/2+x,1/2-y,1/2+z
loop_
_atom_site_type_symbol
_atom_site_label
_atom_site_fract_x
_atom_site_fract_y
_atom_site_fract_z
Si Si1 0.200888 0.427561 0.780890
Si Si2 0.497921 0.567232 0.211054
Si Si3 0.897258 0.070389 0.279847
Si Si4 0.601360 0.928410 0.716866
Si Si5 0.200412 0.071393 0.282625
O O1 0.250000 0.500000 0.707366
O O2 0.202576 0.250000 0.750000
O O3 0.150672 0.492119 0.706393
O O4 0.200387 0.457563 0.998912
O O5 0.495754 0.750000 0.250000
O O6 0.550173 0.519374 0.289632
O O7 0.448615 0.497988 0.287686
O O8 0.500000 0.500000 0.000000
O O9 0.893013 0.250000 0.250000
O O10 0.898426 0.043976 0.498306
O O11 0.601511 0.750000 0.750000
O O12 0.650822 0.999994 0.789553
O O13 0.200479 0.250000 0.250000
O O14 0.250000 0.000000 0.210497
#
# Coordination Sequence:
#
# PCOD9409540 Si02
#       5
#     8   8   8   8   8
#     4  10  21  35  53  76 102 133 171 214 259 310
#     4   9  18  35  55  76 108 145 178 222 272 320
#     4   9  19  36  53  74 106 138 172 216 262 311
#     4  10  20  34  54  80 107 139 178 220 266 319
#     4  10  21  36  53  76 106 137 173 218 266 318
#
# _framework density 22.355309999999999
#
# number of rings (size 3 to 8) (size 9 to 14) (size 15 to 20)
#    0.000    2.400    0.000    1.800    0.000    3.200 
#    0.000    9.000    0.000    0.000    0.000    0.000 
#    0.000    0.000    0.000    0.000    0.000    0.000 
#
# Total GULP energy -223188.796302 kJ/mol
# GULP energy per Si atom -5579.719908 kJ/mol
# Density = 2.230443 g / cm^3
# Si number density = 22.355310 Si / 1000 Ang^3
#
#
#
# Elastic Constant Matrix: (Units=GPa)
#
#
# Indices 1 2 3 4 5 6 
#
# 1 335.2795 136.3059 20.8395 0.0000 0.0000 0.0000
# 2 136.3059 139.7380 -5.9083 0.0000 0.0000 0.0000
# 3 20.8395 -5.9083 106.6415 0.0000 0.0000 0.0000
# 4 0.0000 0.0000 0.0000 28.5203 0.0000 0.0000
# 5 0.0000 0.0000 0.0000 0.0000 -33.9326 0.0000
# 6 0.0000 0.0000 0.0000 0.0000 0.0000 47.3007
#
#
#
# Elastic Compliance Matrix: (Units=1/GPa)
#
#
# Indices 1 2 3 4 5 6 
#
# 1 0.005111 -0.005039 -0.001278 0.000000 0.000000 0.000000
# 2 -0.005039 0.012142 0.001657 0.000000 0.000000 0.000000
# 3 -0.001278 0.001657 0.009719 0.000000 0.000000 0.000000
# 4 0.000000 0.000000 0.000000 0.035063 0.000000 0.000000
# 5 0.000000 0.000000 0.000000 0.000000 -0.029470 0.000000
# 6 0.000000 0.000000 0.000000 0.000000 0.000000 0.021141
#
#
# Mechanical properties :
#
#
# Convention : Reuss Voigt Hill
#
# Bulk Modulus (GPa) = 56.65117 98.23702 77.44409
# Shear Modulus (GPa) = 72.56028 37.07249 54.81638
#
# Velocity S-wave (km/s) = 5.70335 4.07668 4.95719
# Velocity P-wave (km/s) = 8.29260 8.13621 8.21478
#
# Compressibility (1/GPa) = 0.01765189
#
# Stress axis : x y z
#
# Youngs Moduli (GPa) = 195.66964 82.36065 102.89379
#
# Poissons Ratio (x) = 0.41503 0.13149
# Poissons Ratio (y) = 0.98601 -0.17054
# Poissons Ratio (z) = 0.25005 -0.13651
#
# Static dielectric constant tensor:
#      x y z
#    x 1.853550 0.000000 0.000000 
#    y 0.000000 1.746780 0.000000 
#    z 0.000000 0.000000 1.817960 
# 
# From -- ./inp_files/13940.got.cif
#   From: 2010.05.17/outbox.cif.g08.bks.cpg/sg52_7_cif.got.tgz:13940.got - 2010.06.03 12:15:38.
