data_PCOD9409023
_publ_section_title
;
Structure prediction by ZEFSAII (Michael W. Deem and Ramdas Pophale) SiO2 
 PCOD9409023
Probable space group: P N N A
;
_chemical_formula_sum "Si O2"
_cell_formula_units_Z 64
_cell_length_a 14.994447
_cell_length_b 11.916708
_cell_length_c 16.861612
_cell_angle_alpha 90.000000
_cell_angle_beta 90.000000
_cell_angle_gamma 90.000000
_cell_volume 3012.907808
_symmetry_space_group_name_H-M "P N N A"
_symmetry_group_IT_number 52
_symmetry_cell_setting 'orthorhombic'
loop_
_space_group_symop_operation_xyz
x,y,z
1/2-x,-y,z
x,1/2-y,1/2-z
1/2-x,1/2+y,1/2-z
-x,-y,-z
1/2+x,y,-z
-x,1/2+y,1/2+z
1/2+x,1/2-y,1/2+z
loop_
_atom_site_type_symbol
_atom_site_label
_atom_site_fract_x
_atom_site_fract_y
_atom_site_fract_z
Si Si1 0.201582 0.121808 0.950231
Si Si2 0.712030 0.378312 0.641689
Si Si3 0.974890 0.699380 0.671421
Si Si4 0.946023 0.120155 0.548151
Si Si5 0.403604 0.195233 0.167244
Si Si6 0.103239 0.105850 0.435454
Si Si7 0.522517 0.481393 0.407356
Si Si8 0.766738 0.372351 0.042075
O O1 0.107432 0.099937 0.907981
O O2 0.241692 0.245328 0.926354
O O3 0.250000 0.000000 0.936674
O O4 0.191255 0.126135 0.046776
O O5 0.750000 0.500000 0.660497
O O6 0.623156 0.351967 0.689899
O O7 0.796690 0.300759 0.659740
O O8 0.017025 0.750000 0.750000
O O9 0.944423 0.798435 0.613411
O O10 0.034090 0.605195 0.629307
O O11 0.942829 0.231481 0.596908
O O12 0.870794 0.129895 0.480140
O O13 0.044796 0.100688 0.516068
O O14 0.913300 0.015808 0.601513
O O15 0.430655 0.250000 0.250000
O O16 0.444144 0.074808 0.144365
O O17 0.204172 0.121744 0.462898
O O18 0.500000 0.500000 0.500000
O O19 0.750000 0.500000 0.078896
#
# Coordination Sequence:
#
# PCOD9409023 Si02
#       8
#     8   8   8   8   8   8   8   8
#     4  11  21  36  65  97 121 168 239 289 333 394
#     4  11  20  38  58  92 132 174 225 266 334 427
#     4  12  24  37  60  89 132 173 219 283 344 410
#     4  10  21  36  60  84 122 165 214 265 328 424
#     4  12  24  37  61  95 137 173 213 275 356 412
#     4  10  21  37  57  86 119 167 213 264 335 400
#     4  12  23  42  68  92 132 181 238 289 325 413
#     4  10  19  35  57  89 127 158 212 274 331 398
#
# _framework density 21.241937
#
# number of rings (size 3 to 8) (size 9 to 14) (size 15 to 20)
#    0.000    1.000    5.000    2.625    3.500    0.000 
#    0.000    1.250    0.000    0.750    0.000    0.000 
#    0.000    0.000    0.000    0.000    0.000    0.000 
#
# Total GULP energy -356602.220015 kJ/mol
# GULP energy per Si atom -5571.909688 kJ/mol
# Density = 2.119359 g / cm^3
# Si number density = 21.241937 Si / 1000 Ang^3
#
#
#
# Elastic Constant Matrix: (Units=GPa)
#
#
# Indices 1 2 3 4 5 6 
#
# 1 77.2212 22.4892 11.6435 0.0000 0.0000 0.0000
# 2 22.4892 156.2448 12.5042 0.0000 0.0000 0.0000
# 3 11.6435 12.5042 38.4620 0.0000 0.0000 0.0000
# 4 0.0000 0.0000 0.0000 26.6011 0.0000 0.0000
# 5 0.0000 0.0000 0.0000 0.0000 109.3064 0.0000
# 6 0.0000 0.0000 0.0000 0.0000 0.0000 35.2188
#
#
#
# Elastic Compliance Matrix: (Units=1/GPa)
#
#
# Indices 1 2 3 4 5 6 
#
# 1 0.014006 -0.001721 -0.003680 0.000000 0.000000 0.000000
# 2 -0.001721 0.006783 -0.001684 0.000000 0.000000 0.000000
# 3 -0.003680 -0.001684 0.027661 0.000000 0.000000 0.000000
# 4 0.000000 0.000000 0.000000 0.037593 0.000000 0.000000
# 5 0.000000 0.000000 0.000000 0.000000 0.009149 0.000000
# 6 0.000000 0.000000 0.000000 0.000000 0.000000 0.028394
#
#
# Mechanical properties :
#
#
# Convention : Reuss Voigt Hill
#
# Bulk Modulus (GPa) = 29.17277 40.57798 34.87537
# Shear Modulus (GPa) = 33.51589 49.24465 41.38027
#
# Velocity S-wave (km/s) = 3.97648 4.82007 4.41846
# Velocity P-wave (km/s) = 5.90310 7.07967 6.51799
#
# Compressibility (1/GPa) = 0.03427854
#
# Stress axis : x y z
#
# Youngs Moduli (GPa) = 71.39751 147.43263 36.15159
#
# Poissons Ratio (x) = 0.25380 0.13305
# Poissons Ratio (y) = 0.12291 0.06088
# Poissons Ratio (z) = 0.26277 0.24827
#
# Static dielectric constant tensor:
#      x y z
#    x 1.752190 0.000000 0.000000 
#    y 0.000000 1.861020 0.000000 
#    z 0.000000 0.000000 1.722190 
# 
# From -- ./inp_files/33309.got.cif
#   From: 2010.05.17/outbox.cif.g08.bks.cpg/sg52_17_cif.got.tgz:33309.got - 2010.06.03 12:15:38.
