data_PCOD9409013
_publ_section_title
;
Structure prediction by ZEFSAII (Michael W. Deem and Ramdas Pophale) SiO2 
 PCOD9409013
Probable space group: P N N A
;
_chemical_formula_sum "Si O2"
_cell_formula_units_Z 52
_cell_length_a 22.578329
_cell_length_b 10.575022
_cell_length_c 12.560753
_cell_angle_alpha 90.000000
_cell_angle_beta 90.000000
_cell_angle_gamma 90.000000
_cell_volume 2999.084844
_symmetry_space_group_name_H-M "P N N A"
_symmetry_group_IT_number 52
_symmetry_cell_setting 'orthorhombic'
loop_
_space_group_symop_operation_xyz
x,y,z
1/2-x,-y,z
x,1/2-y,1/2-z
1/2-x,1/2+y,1/2-z
-x,-y,-z
1/2+x,y,-z
-x,1/2+y,1/2+z
1/2+x,1/2-y,1/2+z
loop_
_atom_site_type_symbol
_atom_site_label
_atom_site_fract_x
_atom_site_fract_y
_atom_site_fract_z
Si Si1 0.057303 0.987291 0.805396
Si Si2 0.992690 0.750000 0.750000
Si Si3 0.750000 0.000000 0.870607
Si Si4 0.286420 0.750000 0.250000
Si Si5 0.624351 0.499891 0.516849
Si Si6 0.892642 0.780839 0.595342
Si Si7 0.957858 0.915327 0.426552
Si Si8 0.456158 0.188516 0.141718
O O1 0.109032 0.007636 0.891361
O O2 0.033867 0.845085 0.813253
O O3 0.065768 0.018995 0.680898
O O4 0.002125 0.076350 0.834219
O O5 0.947096 0.820007 0.671695
O O6 0.752989 0.872118 0.798296
O O7 0.692057 0.995800 0.945153
O O8 0.331490 0.797561 0.342437
O O9 0.600513 0.368193 0.568366
O O10 0.591490 0.622560 0.565745
O O11 0.901732 0.862648 0.490934
O O12 0.001030 0.797367 0.402239
O O13 0.000000 0.000000 0.500000
O O14 0.429831 0.250000 0.250000
#
# Coordination Sequence:
#
# PCOD9409013 Si02
#       8
#     8   4   4   4   8   8   8   8
#     4  11  21  32  54  82 120 150 184 230 289 359
#     4  11  18  30  52  84 114 148 175 222 290 358
#     4  10  24  42  62  86 110 154 208 252 290 348
#     4   9  22  40  62  84 108 152 201 250 300 340
#     4  11  21  38  59  79 113 159 196 241 290 349
#     4  10  19  35  57  79 116 151 183 232 298 352
#     4  11  21  33  51  90 120 150 188 230 294 358
#     4  10  21  33  53  86 118 149 182 232 294 360
#
# _framework density 17.338622000000001
#
# number of rings (size 3 to 8) (size 9 to 14) (size 15 to 20)
#    0.000    1.538    4.615    1.385    1.077    0.000 
#    0.000    0.000    0.000    4.615    0.000    0.000 
#    0.000    0.000    0.000    0.000    0.000    0.000 
#
# Total GULP energy -289726.302355 kJ/mol
# GULP energy per Si atom -5571.659661 kJ/mol
# Density = 1.729916 g / cm^3
# Si number density = 17.338622 Si / 1000 Ang^3
#
#
#
# Elastic Constant Matrix: (Units=GPa)
#
#
# Indices 1 2 3 4 5 6 
#
# 1 63.7880 26.2941 48.5280 0.0000 0.0000 0.0000
# 2 26.2941 61.0966 28.0605 0.0000 0.0000 0.0000
# 3 48.5280 28.0605 112.5203 0.0000 0.0000 0.0000
# 4 0.0000 0.0000 0.0000 32.4182 0.0000 0.0000
# 5 0.0000 0.0000 0.0000 0.0000 24.7243 0.0000
# 6 0.0000 0.0000 0.0000 0.0000 0.0000 20.4315
#
#
#
# Elastic Compliance Matrix: (Units=1/GPa)
#
#
# Indices 1 2 3 4 5 6 
#
# 1 0.025552 -0.006703 -0.009349 0.000000 0.000000 0.000000
# 2 -0.006703 0.020243 -0.002157 0.000000 0.000000 0.000000
# 3 -0.009349 -0.002157 0.013457 0.000000 0.000000 0.000000
# 4 0.000000 0.000000 0.000000 0.030847 0.000000 0.000000
# 5 0.000000 0.000000 0.000000 0.000000 0.040446 0.000000
# 6 0.000000 0.000000 0.000000 0.000000 0.000000 0.048944
#
#
# Mechanical properties :
#
#
# Convention : Reuss Voigt Hill
#
# Bulk Modulus (GPa) = 43.79367 49.24111 46.51739
# Shear Modulus (GPa) = 22.36946 24.48296 23.42621
#
# Velocity S-wave (km/s) = 3.59577 3.76180 3.67972
# Velocity P-wave (km/s) = 6.52320 6.87964 6.70379
#
# Compressibility (1/GPa) = 0.02283435
#
# Stress axis : x y z
#
# Youngs Moduli (GPa) = 39.13560 49.39929 74.31006
#
# Poissons Ratio (x) = 0.33114 0.69469
# Poissons Ratio (y) = 0.26234 0.16031
# Poissons Ratio (z) = 0.36586 0.10657
#
# Static dielectric constant tensor:
#      x y z
#    x 1.556650 0.000000 0.000000 
#    y 0.000000 1.537240 0.000000 
#    z 0.000000 0.000000 1.680530 
# 
# From -- ./inp_files/22872.got.cif
#   From: 2010.05.17/outbox.cif.g08.bks.cpg/sg52_12_cif.got.tgz:22872.got - 2010.06.03 12:15:38.
