data_PCOD9409301
_publ_section_title
;
Structure prediction by ZEFSAII (Michael W. Deem and Ramdas Pophale) SiO2 
 PCOD9409301
Probable space group: P N N A
;
_chemical_formula_sum "Si O2"
_cell_formula_units_Z 32
_cell_length_a 8.547469
_cell_length_b 7.678644
_cell_length_c 22.414632
_cell_angle_alpha 90.000000
_cell_angle_beta 90.000000
_cell_angle_gamma 90.000000
_cell_volume 1471.138904
_symmetry_space_group_name_H-M "P N N A"
_symmetry_group_IT_number 52
_symmetry_cell_setting 'orthorhombic'
loop_
_space_group_symop_operation_xyz
x,y,z
1/2-x,-y,z
x,1/2-y,1/2-z
1/2-x,1/2+y,1/2-z
-x,-y,-z
1/2+x,y,-z
-x,1/2+y,1/2+z
1/2+x,1/2-y,1/2+z
loop_
_atom_site_type_symbol
_atom_site_label
_atom_site_fract_x
_atom_site_fract_y
_atom_site_fract_z
Si Si1 0.940668 0.806038 0.521211
Si Si2 0.889508 0.234423 0.586071
Si Si3 0.519404 0.250000 0.750000
Si Si4 0.915565 0.087255 0.369471
Si Si5 0.250000 0.000000 0.179544
O O1 0.764265 0.796856 0.544730
O O2 0.979965 0.701752 0.461368
O O3 0.043703 0.770721 0.579983
O O4 0.000000 0.000000 0.500000
O O5 0.842714 0.370055 0.636223
O O6 0.952072 0.061711 0.620037
O O7 0.422587 0.164965 0.696253
O O8 0.630621 0.106476 0.779835
O O9 0.750000 0.000000 0.382013
#
# Coordination Sequence:
#
# PCOD9409301 Si02
#       5
#     8   8   4   8   4
#     4  10  19  38  69  98 128 171 218 270 337 396
#     4  11  23  42  69 104 132 180 224 279 340 401
#     4  12  26  44  68  96 136 184 230 280 330 400
#     4  11  23  43  69  98 133 180 227 275 340 405
#     4  12  26  44  70  98 138 180 232 280 332 406
#
# _framework density 21.751854999999999
#
# number of rings (size 3 to 8) (size 9 to 14) (size 15 to 20)
#    0.000    1.000    2.500    7.500    0.000    3.000 
#    0.000    0.000    0.000    0.000    0.000    0.000 
#    0.000    0.000    0.000    0.000    0.000    0.000 
#
# Total GULP energy -178756.924453 kJ/mol
# GULP energy per Si atom -5586.153889 kJ/mol
# Density = 2.170235 g / cm^3
# Si number density = 21.751855 Si / 1000 Ang^3
#
#
#
# Elastic Constant Matrix: (Units=GPa)
#
#
# Indices 1 2 3 4 5 6 
#
# 1 89.0306 -10.8837 4.7437 0.0000 0.0000 0.0000
# 2 -10.8837 17.6521 -1.0714 0.0000 0.0000 0.0000
# 3 4.7437 -1.0714 118.2284 0.0000 0.0000 0.0000
# 4 0.0000 0.0000 0.0000 52.6002 0.0000 0.0000
# 5 0.0000 0.0000 0.0000 0.0000 48.8463 0.0000
# 6 0.0000 0.0000 0.0000 0.0000 0.0000 8.7563
#
#
#
# Elastic Compliance Matrix: (Units=1/GPa)
#
#
# Indices 1 2 3 4 5 6 
#
# 1 0.012169 0.007477 -0.000420 0.000000 0.000000 0.000000
# 2 0.007477 0.061276 0.000255 0.000000 0.000000 0.000000
# 3 -0.000420 0.000255 0.008477 0.000000 0.000000 0.000000
# 4 0.000000 0.000000 0.000000 0.019011 0.000000 0.000000
# 5 0.000000 0.000000 0.000000 0.000000 0.020472 0.000000
# 6 0.000000 0.000000 0.000000 0.000000 0.000000 0.114204
#
#
# Mechanical properties :
#
#
# Convention : Reuss Voigt Hill
#
# Bulk Modulus (GPa) = 10.35775 23.38760 16.87267
# Shear Modulus (GPa) = 19.74975 37.51537 28.63256
#
# Velocity S-wave (km/s) = 3.01650 4.15745 3.63206
# Velocity P-wave (km/s) = 4.11151 5.81560 5.03616
#
# Compressibility (1/GPa) = 0.09654610
#
# Stress axis : x y z
#
# Youngs Moduli (GPa) = 82.17902 16.31956 117.96087
#
# Poissons Ratio (x) = -0.12202 0.04960
# Poissons Ratio (y) = -0.61447 -0.03012
# Poissons Ratio (z) = 0.03455 -0.00417
#
# Static dielectric constant tensor:
#      x y z
#    x 1.800090 0.000000 0.000000 
#    y 0.000000 1.899280 0.000000 
#    z 0.000000 0.000000 1.826730 
# 
# From -- ./inp_files/35495.got.cif
#   From: 2010.05.17/outbox.cif.g08.bks.cpg/sg52_18_cif.got.tgz:35495.got - 2010.06.03 12:15:38.
