data_PCOD9409679
_publ_section_title
;
Structure prediction by ZEFSAII (Michael W. Deem and Ramdas Pophale) SiO2 
 PCOD9409679
Probable space group: P N N A
;
_chemical_formula_sum "Si O2"
_cell_formula_units_Z 40
_cell_length_a 26.300808
_cell_length_b 11.960288
_cell_length_c 6.303663
_cell_angle_alpha 90.000000
_cell_angle_beta 90.000000
_cell_angle_gamma 90.000000
_cell_volume 1982.913254
_symmetry_space_group_name_H-M "P N N A"
_symmetry_group_IT_number 52
_symmetry_cell_setting 'orthorhombic'
loop_
_space_group_symop_operation_xyz
x,y,z
1/2-x,-y,z
x,1/2-y,1/2-z
1/2-x,1/2+y,1/2-z
-x,-y,-z
1/2+x,y,-z
-x,1/2+y,1/2+z
1/2+x,1/2-y,1/2+z
loop_
_atom_site_type_symbol
_atom_site_label
_atom_site_fract_x
_atom_site_fract_y
_atom_site_fract_z
Si Si1 0.962092 0.394348 0.481449
Si Si2 0.306223 0.454661 0.494579
Si Si3 0.605623 0.462686 0.757309
Si Si4 0.967207 0.750000 0.750000
Si Si5 0.343073 0.250000 0.250000
Si Si6 0.124379 0.894638 0.630485
O O1 0.924702 0.425979 0.673846
O O2 0.926531 0.396464 0.272322
O O3 0.000000 0.500000 0.500000
O O4 0.996565 0.284388 0.449075
O O5 0.250000 0.500000 0.515361
O O6 0.347604 0.545289 0.407227
O O7 0.309893 0.355827 0.321465
O O8 0.328257 0.403893 0.711608
O O9 0.568656 0.357567 0.773993
O O10 0.624790 0.494786 0.987659
O O11 0.371660 0.208887 0.465854
#
# Coordination Sequence:
#
# PCOD9409679 Si02
#       6
#     8   8   8   4   4   8
#     4   9  20  36  56  85 123 163 210 250 303 371
#     4  10  22  41  64  90 120 154 205 268 317 379
#     4   9  21  40  56  88 125 162 207 259 306 380
#     4  10  20  35  60  84 128 168 201 248 314 364
#     4  10  22  39  66  88 116 162 207 248 322 368
#     4  10  21  38  63  87 126 158 212 262 302 376
#
# _framework density 20.172340999999999
#
# number of rings (size 3 to 8) (size 9 to 14) (size 15 to 20)
#    0.000    2.400    0.000    0.600    8.400    7.200 
#    0.000   17.000    0.000    0.000    0.000    0.000 
#    0.000    0.000    0.000    0.000    0.000    0.000 
#
# Total GULP energy -222782.837111 kJ/mol
# GULP energy per Si atom -5569.570928 kJ/mol
# Density = 2.012643 g / cm^3
# Si number density = 20.172341 Si / 1000 Ang^3
#
#
#
# Elastic Constant Matrix: (Units=GPa)
#
#
# Indices 1 2 3 4 5 6 
#
# 1 135.6567 53.3441 51.0118 0.0000 0.0000 0.0000
# 2 53.3441 101.2894 46.2045 0.0000 0.0000 0.0000
# 3 51.0118 46.2045 100.1677 0.0000 0.0000 0.0000
# 4 0.0000 0.0000 0.0000 26.1438 0.0000 0.0000
# 5 0.0000 0.0000 0.0000 0.0000 -6.3426 0.0000
# 6 0.0000 0.0000 0.0000 0.0000 0.0000 35.1999
#
#
#
# Elastic Compliance Matrix: (Units=1/GPa)
#
#
# Indices 1 2 3 4 5 6 
#
# 1 0.010146 -0.003782 -0.003422 0.000000 0.000000 0.000000
# 2 -0.003782 0.013914 -0.004492 0.000000 0.000000 0.000000
# 3 -0.003422 -0.004492 0.013798 0.000000 0.000000 0.000000
# 4 0.000000 0.000000 0.000000 0.038250 0.000000 0.000000
# 5 0.000000 0.000000 0.000000 0.000000 -0.157665 0.000000
# 6 0.000000 0.000000 0.000000 0.000000 0.000000 0.028409
#
#
# Mechanical properties :
#
#
# Convention : Reuss Voigt Hill
#
# Bulk Modulus (GPa) = 69.13294 70.91495 70.02395
# Shear Modulus (GPa) = -200.52610 23.43713 -88.54449
#
# Velocity S-wave (km/s) = -9.98110 3.41228 -6.63244
# Velocity P-wave (km/s) = 9.92392 7.12431 4.88510
#
# Compressibility (1/GPa) = 0.01446488
#
# Stress axis : x y z
#
# Youngs Moduli (GPa) = 98.56422 71.87224 72.47406
#
# Poissons Ratio (x) = 0.27183 0.24802
# Poissons Ratio (y) = 0.37278 0.32554
# Poissons Ratio (z) = 0.33731 0.32284
#
# Static dielectric constant tensor:
#      x y z
#    x 1.744600 0.000000 0.000000 
#    y 0.000000 1.741470 0.000000 
#    z 0.000000 0.000000 1.743660 
# 
# From -- ./inp_files/5619.got.cif
#   From: 2010.05.17/outbox.cif.g08.bks.cpg/sg52_3_cif.got.tgz:5619.got - 2010.06.03 12:15:38.
