data_PCOD9409036
_publ_section_title
;
Structure prediction by ZEFSAII (Michael W. Deem and Ramdas Pophale) SiO2 
 PCOD9409036
Probable space group: P N N A
;
_chemical_formula_sum "Si O2"
_cell_formula_units_Z 28
_cell_length_a 8.088455
_cell_length_b 5.007355
_cell_length_c 34.452518
_cell_angle_alpha 90.000000
_cell_angle_beta 90.000000
_cell_angle_gamma 90.000000
_cell_volume 1395.387808
_symmetry_space_group_name_H-M "P N N A"
_symmetry_group_IT_number 52
_symmetry_cell_setting 'orthorhombic'
loop_
_space_group_symop_operation_xyz
x,y,z
1/2-x,-y,z
x,1/2-y,1/2-z
1/2-x,1/2+y,1/2-z
-x,-y,-z
1/2+x,y,-z
-x,1/2+y,1/2+z
1/2+x,1/2-y,1/2+z
loop_
_atom_site_type_symbol
_atom_site_label
_atom_site_fract_x
_atom_site_fract_y
_atom_site_fract_z
Si Si1 0.370766 0.254076 0.333538
Si Si2 0.626649 0.750000 0.750000
Si Si3 0.557121 0.421958 0.956593
Si Si4 0.063507 0.093987 0.910987
O O1 0.250000 0.500000 0.327556
O O2 0.463018 0.227604 0.291790
O O3 0.480285 0.346708 0.369607
O O4 0.250000 0.000000 0.341781
O O5 0.750000 0.500000 0.751184
O O6 0.750000 0.500000 0.952555
O O7 0.448329 0.621335 0.931272
O O8 0.526809 0.125222 0.939126
O O9 0.500000 0.500000 0.000000
O O10 0.250000 0.000000 0.906367
#
# Coordination Sequence:
#
# PCOD9409036 Si02
#       4
#     8   4   8   8
#     4  10  19  35  59  86 115 152 197 241 288 345
#     4   8  16  30  54  84 112 146 192 240 284 340
#     4  12  25  43  63  86 116 154 196 242 293 350
#     4  12  24  39  60  89 121 155 194 242 293 349
#
# _framework density 20.066106000000001
#
# number of rings (size 3 to 8) (size 9 to 14) (size 15 to 20)
#    0.000    1.143    0.000    8.571    0.000    0.000 
#    0.000    0.000    0.000   13.714    0.000    0.000 
#    0.000    0.000    0.000    0.000    0.000    0.000 
#
# Total GULP energy -156045.003539 kJ/mol
# GULP energy per Si atom -5573.035841 kJ/mol
# Density = 2.002043 g / cm^3
# Si number density = 20.066106 Si / 1000 Ang^3
#
#
#
# Elastic Constant Matrix: (Units=GPa)
#
#
# Indices 1 2 3 4 5 6 
#
# 1 78.5141 0.9924 24.9174 0.0000 0.0000 0.0000
# 2 0.9924 103.0933 -9.5235 0.0000 0.0000 0.0000
# 3 24.9174 -9.5235 165.7762 0.0000 0.0000 0.0000
# 4 0.0000 0.0000 0.0000 31.0225 0.0000 0.0000
# 5 0.0000 0.0000 0.0000 0.0000 -28.7390 0.0000
# 6 0.0000 0.0000 0.0000 0.0000 0.0000 26.3730
#
#
#
# Elastic Compliance Matrix: (Units=1/GPa)
#
#
# Indices 1 2 3 4 5 6 
#
# 1 0.013385 -0.000316 -0.002030 0.000000 0.000000 0.000000
# 2 -0.000316 0.009759 0.000608 0.000000 0.000000 0.000000
# 3 -0.002030 0.000608 0.006372 0.000000 0.000000 0.000000
# 4 0.000000 0.000000 0.000000 0.032235 0.000000 0.000000
# 5 0.000000 0.000000 0.000000 0.000000 -0.034796 0.000000
# 6 0.000000 0.000000 0.000000 0.000000 0.000000 0.037918
#
#
# Mechanical properties :
#
#
# Convention : Reuss Voigt Hill
#
# Bulk Modulus (GPa) = 38.40258 42.23957 40.32107
# Shear Modulus (GPa) = 64.91060 27.79778 46.35419
#
# Velocity S-wave (km/s) = 5.69373 3.72601 4.81154
# Velocity P-wave (km/s) = 7.89964 6.29339 7.14182
#
# Compressibility (1/GPa) = 0.02603992
#
# Stress axis : x y z
#
# Youngs Moduli (GPa) = 74.71153 102.46760 156.92929
#
# Poissons Ratio (x) = 0.03242 0.31857
# Poissons Ratio (y) = 0.02364 -0.09544
# Poissons Ratio (z) = 0.15167 -0.06232
#
# Static dielectric constant tensor:
#      x y z
#    x 1.665380 0.000000 0.000000 
#    y 0.000000 1.695240 0.000000 
#    z 0.000000 0.000000 1.962580 
# 
# From -- ./inp_files/43969.got.cif
#   From: 2010.05.17/outbox.cif.g08.bks.cpg/sg52_22_cif.got.tgz:43969.got - 2010.06.03 12:15:38.
