data_PCOD9409139
_publ_section_title
;
Structure prediction by ZEFSAII (Michael W. Deem and Ramdas Pophale) SiO2 
 PCOD9409139
Probable space group: P N N A
;
_chemical_formula_sum "Si O2"
_cell_formula_units_Z 60
_cell_length_a 8.978437
_cell_length_b 15.249816
_cell_length_c 22.120922
_cell_angle_alpha 90.000000
_cell_angle_beta 90.000000
_cell_angle_gamma 90.000000
_cell_volume 3028.785850
_symmetry_space_group_name_H-M "P N N A"
_symmetry_group_IT_number 52
_symmetry_cell_setting 'orthorhombic'
loop_
_space_group_symop_operation_xyz
x,y,z
1/2-x,-y,z
x,1/2-y,1/2-z
1/2-x,1/2+y,1/2-z
-x,-y,-z
1/2+x,y,-z
-x,1/2+y,1/2+z
1/2+x,1/2-y,1/2+z
loop_
_atom_site_type_symbol
_atom_site_label
_atom_site_fract_x
_atom_site_fract_y
_atom_site_fract_z
Si Si1 0.491415 0.430670 0.945474
Si Si2 0.551148 0.742757 0.583249
Si Si3 0.750000 0.000000 0.002174
Si Si4 0.774040 0.813540 0.491007
Si Si5 0.769707 0.758696 0.681339
Si Si6 0.895942 0.937454 0.819854
Si Si7 0.513141 0.444293 0.414900
Si Si8 0.904455 0.945063 0.682120
O O1 0.341808 0.375448 0.956026
O O2 0.503035 0.469066 0.877982
O O3 0.500000 0.500000 0.000000
O O4 0.633764 0.368654 0.959021
O O5 0.671843 0.744709 0.528171
O O6 0.400028 0.778865 0.554482
O O7 0.637173 0.789193 0.637396
O O8 0.519192 0.648961 0.613110
O O9 0.838189 0.935746 0.046228
O O10 0.623403 0.959420 0.960773
O O11 0.714845 0.750000 0.750000
O O12 0.845920 0.663507 0.668017
O O13 0.882845 0.839672 0.678474
O O14 0.955232 0.954665 0.751929
O O15 0.750000 0.000000 0.826551
O O16 0.010037 0.974675 0.869344
O O17 0.750000 0.000000 0.678321
#
# Coordination Sequence:
#
# PCOD9409139 Si02
#       8
#     8   8   4   8   8   8   8   8
#     4  11  21  39  59  85 120 156 201 259 304 358
#     4  11  20  37  58  87 122 152 194 246 298 358
#     4  10  22  34  58  84 120 154 196 226 302 350
#     4  10  23  35  57  91 118 155 196 243 308 363
#     4  10  20  36  60  87 116 158 206 255 298 354
#     4  10  19  36  61  89 118 154 206 249 296 367
#     4  11  20  38  58  90 118 159 190 245 294 366
#     4  10  21  36  61  89 114 159 207 254 303 355
#
# _framework density 19.809920000000002
#
# number of rings (size 3 to 8) (size 9 to 14) (size 15 to 20)
#    0.000    1.600    3.333    2.000    1.867    1.067 
#    2.400    0.000    5.867    0.000    0.000    0.000 
#    0.000    0.000    0.000    0.000    0.000    0.000 
#
# Total GULP energy -334231.303750 kJ/mol
# GULP energy per Si atom -5570.521729 kJ/mol
# Density = 1.976483 g / cm^3
# Si number density = 19.809920 Si / 1000 Ang^3
#
#
#
# Elastic Constant Matrix: (Units=GPa)
#
#
# Indices 1 2 3 4 5 6 
#
# 1 76.5195 11.2056 42.6202 0.0000 0.0000 0.0000
# 2 11.2056 79.5472 20.2265 0.0000 0.0000 0.0000
# 3 42.6202 20.2265 129.7123 0.0000 0.0000 0.0000
# 4 0.0000 0.0000 0.0000 27.2244 0.0000 0.0000
# 5 0.0000 0.0000 0.0000 0.0000 21.4921 0.0000
# 6 0.0000 0.0000 0.0000 0.0000 0.0000 7.5784
#
#
#
# Elastic Compliance Matrix: (Units=1/GPa)
#
#
# Indices 1 2 3 4 5 6 
#
# 1 0.016066 -0.000959 -0.005129 0.000000 0.000000 0.000000
# 2 -0.000959 0.013147 -0.001735 0.000000 0.000000 0.000000
# 3 -0.005129 -0.001735 0.009665 0.000000 0.000000 0.000000
# 4 0.000000 0.000000 0.000000 0.036732 0.000000 0.000000
# 5 0.000000 0.000000 0.000000 0.000000 0.046529 0.000000
# 6 0.000000 0.000000 0.000000 0.000000 0.000000 0.131954
#
#
# Mechanical properties :
#
#
# Convention : Reuss Voigt Hill
#
# Bulk Modulus (GPa) = 43.04404 48.20930 45.62667
# Shear Modulus (GPa) = 18.01910 25.37411 21.69660
#
# Velocity S-wave (km/s) = 3.01923 3.58282 3.31303
# Velocity P-wave (km/s) = 5.82495 6.44238 6.14143
#
# Compressibility (1/GPa) = 0.02323202
#
# Stress axis : x y z
#
# Youngs Moduli (GPa) = 62.24345 76.06066 103.46296
#
# Poissons Ratio (x) = 0.07294 0.53070
# Poissons Ratio (y) = 0.05969 0.17951
# Poissons Ratio (z) = 0.31927 0.13197
#
# Static dielectric constant tensor:
#      x y z
#    x 1.702480 0.000000 0.000000 
#    y 0.000000 1.797850 0.000000 
#    z 0.000000 0.000000 1.730530 
# 
# From -- ./inp_files/39635.got.cif
#   From: 2010.05.17/outbox.cif.g08.bks.cpg/sg52_20_cif.got.tgz:39635.got - 2010.06.03 12:15:38.
