data_PCOD9409229
_publ_section_title
;
Structure prediction by ZEFSAII (Michael W. Deem and Ramdas Pophale) SiO2 
 PCOD9409229
Probable space group: P N N A
;
_chemical_formula_sum "Si O2"
_cell_formula_units_Z 32
_cell_length_a 16.388651
_cell_length_b 12.409670
_cell_length_c 7.461952
_cell_angle_alpha 90.000000
_cell_angle_beta 90.000000
_cell_angle_gamma 90.000000
_cell_volume 1517.595013
_symmetry_space_group_name_H-M "P N N A"
_symmetry_group_IT_number 52
_symmetry_cell_setting 'orthorhombic'
loop_
_space_group_symop_operation_xyz
x,y,z
1/2-x,-y,z
x,1/2-y,1/2-z
1/2-x,1/2+y,1/2-z
-x,-y,-z
1/2+x,y,-z
-x,1/2+y,1/2+z
1/2+x,1/2-y,1/2+z
loop_
_atom_site_type_symbol
_atom_site_label
_atom_site_fract_x
_atom_site_fract_y
_atom_site_fract_z
Si Si1 0.221893 0.378289 0.554820
Si Si2 0.997285 0.902978 0.743014
Si Si3 0.860424 0.250000 0.250000
Si Si4 0.539968 0.134426 0.170064
Si Si5 0.137545 0.250000 0.250000
O O1 0.250000 0.500000 0.529439
O O2 0.298970 0.311209 0.620487
O O3 0.139105 0.376158 0.674929
O O4 0.192008 0.320084 0.377841
O O5 0.921990 0.838222 0.657059
O O6 0.078845 0.842882 0.679828
O O7 0.986441 0.878479 0.959437
O O8 0.002021 0.031090 0.728992
O O9 0.516411 0.250000 0.250000
#
# Coordination Sequence:
#
# PCOD9409229 Si02
#       5
#     8   8   4   8   4
#     4  11  21  39  62  89 126 158 198 252 309 355
#     4   9  20  39  59  86 123 156 201 250 294 361
#     4  11  20  38  62  89 118 160 200 247 308 356
#     4  10  19  37  64  88 117 163 201 246 304 354
#     4   9  22  42  62  85 124 162 196 249 302 358
#
# _framework density 21.085993999999999
#
# number of rings (size 3 to 8) (size 9 to 14) (size 15 to 20)
#    0.000    2.000    3.750    0.000    0.000    0.000 
#    2.250   20.000    0.000    0.000    0.000    0.000 
#    0.000    0.000    0.000    0.000    0.000    0.000 
#
# Total GULP energy -178563.516113 kJ/mol
# GULP energy per Si atom -5580.109879 kJ/mol
# Density = 2.103800 g / cm^3
# Si number density = 21.085994 Si / 1000 Ang^3
#
#
#
# Elastic Constant Matrix: (Units=GPa)
#
#
# Indices 1 2 3 4 5 6 
#
# 1 123.6316 64.8047 26.8144 0.0000 0.0000 0.0000
# 2 64.8047 238.3787 42.3812 0.0000 0.0000 0.0000
# 3 26.8144 42.3812 24.3774 0.0000 0.0000 0.0000
# 4 0.0000 0.0000 0.0000 35.7643 0.0000 0.0000
# 5 0.0000 0.0000 0.0000 0.0000 9.1846 0.0000
# 6 0.0000 0.0000 0.0000 0.0000 0.0000 39.7107
#
#
#
# Elastic Compliance Matrix: (Units=1/GPa)
#
#
# Indices 1 2 3 4 5 6 
#
# 1 0.010854 -0.001199 -0.009856 0.000000 0.000000 0.000000
# 2 -0.001199 0.006204 -0.009468 0.000000 0.000000 0.000000
# 3 -0.009856 -0.009468 0.068322 0.000000 0.000000 0.000000
# 4 0.000000 0.000000 0.000000 0.027961 0.000000 0.000000
# 5 0.000000 0.000000 0.000000 0.000000 0.108877 0.000000
# 6 0.000000 0.000000 0.000000 0.000000 0.000000 0.025182
#
#
# Mechanical properties :
#
#
# Convention : Reuss Voigt Hill
#
# Bulk Modulus (GPa) = 22.55450 72.70982 47.63216
# Shear Modulus (GPa) = 16.48944 33.75776 25.12360
#
# Velocity S-wave (km/s) = 2.79948 4.00554 3.45553
# Velocity P-wave (km/s) = 4.60099 7.47996 6.20963
#
# Compressibility (1/GPa) = 0.04433706
#
# Stress axis : x y z
#
# Youngs Moduli (GPa) = 92.12839 161.18343 14.63647
#
# Poissons Ratio (x) = 0.19319 0.14425
# Poissons Ratio (y) = 0.11043 0.13857
# Poissons Ratio (z) = 0.90799 1.52604
#
# Static dielectric constant tensor:
#      x y z
#    x 1.779910 0.000000 0.000000 
#    y 0.000000 1.761430 0.000000 
#    z 0.000000 0.000000 1.860510 
# 
# From -- ./inp_files/9598.got.cif
#   From: 2010.05.17/outbox.cif.g08.bks.cpg/sg52_5_cif.got.tgz:9598.got - 2010.06.03 12:15:38.
