data_PCOD9409519
_publ_section_title
;
Structure prediction by ZEFSAII (Michael W. Deem and Ramdas Pophale) SiO2 
 PCOD9409519
Probable space group: P N N A
;
_chemical_formula_sum "Si O2"
_cell_formula_units_Z 32
_cell_length_a 12.692046
_cell_length_b 5.088506
_cell_length_c 27.052498
_cell_angle_alpha 90.000000
_cell_angle_beta 90.000000
_cell_angle_gamma 90.000000
_cell_volume 1747.146417
_symmetry_space_group_name_H-M "P N N A"
_symmetry_group_IT_number 52
_symmetry_cell_setting 'orthorhombic'
loop_
_space_group_symop_operation_xyz
x,y,z
1/2-x,-y,z
x,1/2-y,1/2-z
1/2-x,1/2+y,1/2-z
-x,-y,-z
1/2+x,y,-z
-x,1/2+y,1/2+z
1/2+x,1/2-y,1/2+z
loop_
_atom_site_type_symbol
_atom_site_label
_atom_site_fract_x
_atom_site_fract_y
_atom_site_fract_z
Si Si1 0.173707 0.747230 0.695093
Si Si2 0.316782 0.752223 0.429819
Si Si3 0.442151 0.151413 0.905349
Si Si4 0.902510 0.620678 0.032445
O O1 0.250000 0.500000 0.695653
O O2 0.123825 0.750000 0.750000
O O3 0.094365 0.688759 0.650645
O O4 0.250000 0.000000 0.687447
O O5 0.250000 0.500000 0.416771
O O6 0.435288 0.730544 0.409968
O O7 0.327428 0.774240 0.489457
O O8 0.250000 0.000000 0.412368
O O9 0.372946 0.366688 0.935458
O O10 0.429832 0.865175 0.931333
O O11 0.000000 0.500000 0.000000
#
# Coordination Sequence:
#
# PCOD9409519 Si02
#       4
#     8   8   8   8
#     4  10  22  39  59  83 107 135 179 235 289 332
#     4  11  21  33  50  76 111 145 176 212 256 315
#     4  11  21  36  56  78 108 144 182 221 270 327
#     4  10  20  34  50  75 108 144 182 218 255 310
#
# _framework density 18.315581000000002
#
# number of rings (size 3 to 8) (size 9 to 14) (size 15 to 20)
#    0.000    1.500    0.000    9.000    0.000    6.000 
#    0.000    0.000    0.000    1.500    0.000    0.000 
#    0.000    0.000    0.000    0.000    0.000    0.000 
#
# Total GULP energy -178459.489955 kJ/mol
# GULP energy per Si atom -5576.859061 kJ/mol
# Density = 1.827389 g / cm^3
# Si number density = 18.315581 Si / 1000 Ang^3
#
#
#
# Elastic Constant Matrix: (Units=GPa)
#
#
# Indices 1 2 3 4 5 6 
#
# 1 57.7926 27.0159 49.2516 0.0000 0.0000 0.0000
# 2 27.0159 157.4732 42.6355 0.0000 0.0000 0.0000
# 3 49.2516 42.6355 150.4678 0.0000 0.0000 0.0000
# 4 0.0000 0.0000 0.0000 21.6423 0.0000 0.0000
# 5 0.0000 0.0000 0.0000 0.0000 40.1600 0.0000
# 6 0.0000 0.0000 0.0000 0.0000 0.0000 18.1872
#
#
#
# Elastic Compliance Matrix: (Units=1/GPa)
#
#
# Indices 1 2 3 4 5 6 
#
# 1 0.024692 -0.002218 -0.007454 0.000000 0.000000 0.000000
# 2 -0.002218 0.007077 -0.001279 0.000000 0.000000 0.000000
# 3 -0.007454 -0.001279 0.009448 0.000000 0.000000 0.000000
# 4 0.000000 0.000000 0.000000 0.046206 0.000000 0.000000
# 5 0.000000 0.000000 0.000000 0.000000 0.024900 0.000000
# 6 0.000000 0.000000 0.000000 0.000000 0.000000 0.054984
#
#
# Mechanical properties :
#
#
# Convention : Reuss Voigt Hill
#
# Bulk Modulus (GPa) = 51.77239 67.05996 59.41618
# Shear Modulus (GPa) = 25.55596 32.45325 29.00461
#
# Velocity S-wave (km/s) = 3.73944 4.21395 3.98377
# Velocity P-wave (km/s) = 6.85367 7.76979 7.32606
#
# Compressibility (1/GPa) = 0.01931531
#
# Stress axis : x y z
#
# Youngs Moduli (GPa) = 40.49821 141.29902 105.83945
#
# Poissons Ratio (x) = 0.31341 0.78892
# Poissons Ratio (y) = 0.08983 0.13540
# Poissons Ratio (z) = 0.30187 0.18077
#
# Static dielectric constant tensor:
#      x y z
#    x 1.598740 0.000000 0.000000 
#    y 0.000000 1.655250 0.000000 
#    z 0.000000 0.000000 1.700940 
# 
# From -- ./inp_files/39824.got.cif
#   From: 2010.05.17/outbox.cif.g08.bks.cpg/sg52_20_cif.got.tgz:39824.got - 2010.06.03 12:15:38.
