data_PCOD9409554
_publ_section_title
;
Structure prediction by ZEFSAII (Michael W. Deem and Ramdas Pophale) SiO2 
 PCOD9409554
Probable space group: P N N A
;
_chemical_formula_sum "Si O2"
_cell_formula_units_Z 40
_cell_length_a 9.515751
_cell_length_b 14.368625
_cell_length_c 14.185577
_cell_angle_alpha 90.000000
_cell_angle_beta 90.000000
_cell_angle_gamma 90.000000
_cell_volume 1939.569228
_symmetry_space_group_name_H-M "P N N A"
_symmetry_group_IT_number 52
_symmetry_cell_setting 'orthorhombic'
loop_
_space_group_symop_operation_xyz
x,y,z
1/2-x,-y,z
x,1/2-y,1/2-z
1/2-x,1/2+y,1/2-z
-x,-y,-z
1/2+x,y,-z
-x,1/2+y,1/2+z
1/2+x,1/2-y,1/2+z
loop_
_atom_site_type_symbol
_atom_site_label
_atom_site_fract_x
_atom_site_fract_y
_atom_site_fract_z
Si Si1 0.190807 0.353849 0.709761
Si Si2 0.977325 0.579482 0.126142
Si Si3 0.252991 0.309070 0.160873
Si Si4 0.057913 0.875421 0.655784
Si Si5 0.277513 0.759578 0.543723
O O1 0.165271 0.250000 0.750000
O O2 0.078924 0.414326 0.765606
O O3 0.341859 0.381307 0.752498
O O4 0.183614 0.334604 0.599364
O O5 0.945864 0.473256 0.100270
O O6 0.137757 0.610897 0.130902
O O7 0.887653 0.655963 0.067334
O O8 0.305388 0.250000 0.250000
O O9 0.237052 0.247745 0.066817
O O10 0.366772 0.298173 0.909494
O O11 0.900784 0.848845 0.682693
#
# Coordination Sequence:
#
# PCOD9409554 Si02
#       5
#     8   8   8   8   8
#     4   8  16  35  55  74  99 133 174 205 244 306
#     4  10  20  34  55  81 104 129 166 215 264 301
#     4  12  23  34  50  76 110 140 168 208 255 303
#     4  10  20  34  55  81 104 129 166 215 264 301
#     4  10  20  35  56  76 100 139 176 205 246 307
#
# _framework density 20.623138000000001
#
# number of rings (size 3 to 8) (size 9 to 14) (size 15 to 20)
#    0.000    2.400    0.000    7.800    0.000    4.800 
#    0.000    0.000    0.000    7.200    0.000    0.000 
#    0.000    0.000    0.000    0.000    0.000    0.000 
#
# Total GULP energy -223137.604200 kJ/mol
# GULP energy per Si atom -5578.440105 kJ/mol
# Density = 2.057620 g / cm^3
# Si number density = 20.623138 Si / 1000 Ang^3
#
#
#
# Elastic Constant Matrix: (Units=GPa)
#
#
# Indices 1 2 3 4 5 6 
#
# 1 89.8692 -16.5876 -19.2741 0.0000 0.0000 0.0000
# 2 -16.5876 17.7459 -5.8504 0.0000 0.0000 0.0000
# 3 -19.2741 -5.8504 103.9150 0.0000 0.0000 0.0000
# 4 0.0000 0.0000 0.0000 13.3130 0.0000 0.0000
# 5 0.0000 0.0000 0.0000 0.0000 15.2250 0.0000
# 6 0.0000 0.0000 0.0000 0.0000 0.0000 29.9714
#
#
#
# Elastic Compliance Matrix: (Units=1/GPa)
#
#
# Indices 1 2 3 4 5 6 
#
# 1 0.014628 0.014843 0.003549 0.000000 0.000000 0.000000
# 2 0.014843 0.072478 0.006834 0.000000 0.000000 0.000000
# 3 0.003549 0.006834 0.010666 0.000000 0.000000 0.000000
# 4 0.000000 0.000000 0.000000 0.075115 0.000000 0.000000
# 5 0.000000 0.000000 0.000000 0.000000 0.065681 0.000000
# 6 0.000000 0.000000 0.000000 0.000000 0.000000 0.033365
#
#
# Mechanical properties :
#
#
# Convention : Reuss Voigt Hill
#
# Bulk Modulus (GPa) = 6.74653 14.23399 10.49026
# Shear Modulus (GPa) = 18.45767 28.58471 23.52119
#
# Velocity S-wave (km/s) = 2.99490 3.72701 3.38083
# Velocity P-wave (km/s) = 3.90354 5.04358 4.50973
#
# Compressibility (1/GPa) = 0.14822434
#
# Stress axis : x y z
#
# Youngs Moduli (GPa) = 68.36157 13.79723 93.75383
#
# Poissons Ratio (x) = -0.20480 -0.33272
# Poissons Ratio (y) = -1.01471 -0.64068
# Poissons Ratio (z) = -0.24261 -0.09429
#
# Static dielectric constant tensor:
#      x y z
#    x 1.760160 0.000000 0.000000 
#    y 0.000000 1.775330 0.000000 
#    z 0.000000 0.000000 1.847810 
# 
# From -- ./inp_files/17997.got.cif
#   From: 2010.05.17/outbox.cif.g08.bks.cpg/sg52_9_cif.got.tgz:17997.got - 2010.06.03 12:15:38.
