data_PCOD9409774
_publ_section_title
;
Structure prediction by ZEFSAII (Michael W. Deem and Ramdas Pophale) SiO2 
 PCOD9409774
Probable space group: P N N A
;
_chemical_formula_sum "Si O2"
_cell_formula_units_Z 56
_cell_length_a 14.369539
_cell_length_b 31.501162
_cell_length_c 5.791206
_cell_angle_alpha 90.000000
_cell_angle_beta 90.000000
_cell_angle_gamma 90.000000
_cell_volume 2621.430953
_symmetry_space_group_name_H-M "P N N A"
_symmetry_group_IT_number 52
_symmetry_cell_setting 'orthorhombic'
loop_
_space_group_symop_operation_xyz
x,y,z
1/2-x,-y,z
x,1/2-y,1/2-z
1/2-x,1/2+y,1/2-z
-x,-y,-z
1/2+x,y,-z
-x,1/2+y,1/2+z
1/2+x,1/2-y,1/2+z
loop_
_atom_site_type_symbol
_atom_site_label
_atom_site_fract_x
_atom_site_fract_y
_atom_site_fract_z
Si Si1 0.615853 0.075330 0.610508
Si Si2 0.509984 0.206518 0.655103
Si Si3 0.191137 0.727217 0.001058
Si Si4 0.348452 0.992599 0.050804
Si Si5 0.669011 0.156757 0.381319
Si Si6 0.991240 0.441943 0.727265
Si Si7 0.544852 0.140003 0.994728
O O1 0.671226 0.037862 0.730208
O O2 0.670664 0.106490 0.437773
O O3 0.523360 0.056103 0.491975
O O4 0.581057 0.107726 0.803156
O O5 0.553002 0.250000 0.750000
O O6 0.419220 0.219059 0.513023
O O7 0.582889 0.180126 0.507641
O O8 0.485888 0.176718 0.874385
O O9 0.214069 0.750000 0.750000
O O10 0.243089 0.682254 0.971887
O O11 0.212234 0.750000 0.250000
O O12 0.250000 0.000000 0.929789
O O13 0.399292 0.034676 0.143002
O O14 0.423665 0.966869 0.899241
O O15 0.636266 0.159568 0.116299
O O16 0.991283 0.391802 0.666348
#
# Coordination Sequence:
#
# PCOD9409774 Si02
#       7
#     8   8   8   8   8   8   8
#     4   9  19  39  58  86 120 157 213 261 325 387
#     4  10  23  40  63  92 128 168 220 267 328 397
#     4  11  27  43  65 101 135 173 225 281 334 399
#     4  10  20  36  59  91 118 161 210 260 331 399
#     4  10  22  40  67  88 129 172 216 265 338 391
#     4   9  19  39  60  82 126 161 206 273 319 395
#     4   9  20  39  61  89 117 170 213 267 323 393
#
# _framework density 21.362379000000001
#
# number of rings (size 3 to 8) (size 9 to 14) (size 15 to 20)
#    0.000    2.286    0.000    0.857   10.000    0.571 
#   15.429    0.000    0.000    0.000    0.000    0.000 
#    0.000    0.000    0.000    0.000    0.000    0.000 
#
# Total GULP energy -311997.251386 kJ/mol
# GULP energy per Si atom -5571.379489 kJ/mol
# Density = 2.131376 g / cm^3
# Si number density = 21.362379 Si / 1000 Ang^3
#
#
#
# Elastic Constant Matrix: (Units=GPa)
#
#
# Indices 1 2 3 4 5 6 
#
# 1 56.4945 8.2976 7.6688 0.0000 0.0000 0.0000
# 2 8.2976 86.6594 15.4443 0.0000 0.0000 0.0000
# 3 7.6688 15.4443 73.7820 0.0000 0.0000 0.0000
# 4 0.0000 0.0000 0.0000 23.2962 0.0000 0.0000
# 5 0.0000 0.0000 0.0000 0.0000 18.1532 0.0000
# 6 0.0000 0.0000 0.0000 0.0000 0.0000 -7.9632
#
#
#
# Elastic Compliance Matrix: (Units=1/GPa)
#
#
# Indices 1 2 3 4 5 6 
#
# 1 0.018129 -0.001454 -0.001580 0.000000 0.000000 0.000000
# 2 -0.001454 0.012103 -0.002382 0.000000 0.000000 0.000000
# 3 -0.001580 -0.002382 0.014216 0.000000 0.000000 0.000000
# 4 0.000000 0.000000 0.000000 0.042925 0.000000 0.000000
# 5 0.000000 0.000000 0.000000 0.000000 0.055087 0.000000
# 6 0.000000 0.000000 0.000000 0.000000 0.000000 -0.125578
#
#
# Mechanical properties :
#
#
# Convention : Reuss Voigt Hill
#
# Bulk Modulus (GPa) = 29.74818 31.08414 30.41616
# Shear Modulus (GPa) = 128.46632 19.06560 73.76596
#
# Velocity S-wave (km/s) = 7.76320 2.99069 5.88266
# Velocity P-wave (km/s) = 9.71144 5.14860 7.77239
#
# Compressibility (1/GPa) = 0.03361551
#
# Stress axis : x y z
#
# Youngs Moduli (GPa) = 55.16052 82.62244 70.34165
#
# Poissons Ratio (x) = 0.12015 0.11113
# Poissons Ratio (y) = 0.08022 0.16758
# Poissons Ratio (z) = 0.08715 0.19683
#
# Static dielectric constant tensor:
#      x y z
#    x 1.772720 0.000000 0.000000 
#    y 0.000000 1.796650 0.000000 
#    z 0.000000 0.000000 1.897070 
# 
# From -- ./inp_files/2641.got.cif
#   From: 2010.05.17/outbox.cif.g08.bks.cpg/sg52_2_cif.got.tgz:2641.got - 2010.06.03 12:15:38.
