data_PCOD9409482
_publ_section_title
;
Structure prediction by ZEFSAII (Michael W. Deem and Ramdas Pophale) SiO2 
 PCOD9409482
Probable space group: P N N A
;
_chemical_formula_sum "Si O2"
_cell_formula_units_Z 64
_cell_length_a 20.257904
_cell_length_b 17.978195
_cell_length_c 8.672687
_cell_angle_alpha 90.000000
_cell_angle_beta 90.000000
_cell_angle_gamma 90.000000
_cell_volume 3158.597362
_symmetry_space_group_name_H-M "P N N A"
_symmetry_group_IT_number 52
_symmetry_cell_setting 'orthorhombic'
loop_
_space_group_symop_operation_xyz
x,y,z
1/2-x,-y,z
x,1/2-y,1/2-z
1/2-x,1/2+y,1/2-z
-x,-y,-z
1/2+x,y,-z
-x,1/2+y,1/2+z
1/2+x,1/2-y,1/2+z
loop_
_atom_site_type_symbol
_atom_site_label
_atom_site_fract_x
_atom_site_fract_y
_atom_site_fract_z
Si Si1 0.414491 0.652369 0.120468
Si Si2 0.058435 0.210145 0.908876
Si Si3 0.078599 0.493021 0.975165
Si Si4 0.913630 0.271722 0.495531
Si Si5 0.937824 0.369932 0.201322
Si Si6 0.845945 0.609715 0.572021
Si Si7 0.320186 0.470372 0.240910
Si Si8 0.277761 0.187161 0.138867
O O1 0.405394 0.594557 0.978604
O O2 0.482618 0.628574 0.204975
O O3 0.361574 0.639368 0.253558
O O4 0.423127 0.733516 0.049493
O O5 0.078593 0.250000 0.750000
O O6 0.096831 0.134928 0.955081
O O7 0.978679 0.204215 0.908863
O O8 0.120209 0.521424 0.121684
O O9 0.091540 0.549245 0.834797
O O10 0.000000 0.500000 0.000000
O O11 0.913171 0.328525 0.352025
O O12 0.924635 0.187503 0.438190
O O13 0.842088 0.275601 0.567149
O O14 0.835107 0.522331 0.608629
O O15 0.778785 0.653096 0.528903
O O16 0.250000 0.500000 0.176153
O O17 0.306859 0.385358 0.277910
O O18 0.248685 0.250000 0.250000
#
# Coordination Sequence:
#
# PCOD9409482 Si02
#       8
#     8   8   8   8   8   8   8   8
#     4   9  17  34  59  80 104 144 191 230 282 338
#     4  11  21  35  55  84 114 143 186 243 290 334
#     4   9  17  30  56  83 106 137 192 239 273 328
#     4  10  20  33  53  78 114 149 183 227 291 338
#     4   9  17  33  53  78 109 150 183 228 282 343
#     4  10  20  39  62  80 109 153 195 233 283 351
#     4   9  20  37  58  82 114 150 189 242 289 342
#     4  11  21  35  58  86 108 146 195 236 281 345
#
# _framework density 20.262159
#
# number of rings (size 3 to 8) (size 9 to 14) (size 15 to 20)
#    0.000    2.250    1.250    2.250    0.000    2.000 
#    4.500    0.625    0.000    0.000    0.000    0.000 
#    0.000    0.000    0.000    0.000    0.000    0.000 
#
# Total GULP energy -356578.007860 kJ/mol
# GULP energy per Si atom -5571.531373 kJ/mol
# Density = 2.021604 g / cm^3
# Si number density = 20.262159 Si / 1000 Ang^3
#
#
#
# Elastic Constant Matrix: (Units=GPa)
#
#
# Indices 1 2 3 4 5 6 
#
# 1 78.1198 6.0884 11.0058 0.0000 0.0000 0.0000
# 2 6.0884 80.3672 5.1940 0.0000 0.0000 0.0000
# 3 11.0058 5.1940 31.1570 0.0000 0.0000 0.0000
# 4 0.0000 0.0000 0.0000 23.2289 0.0000 0.0000
# 5 0.0000 0.0000 0.0000 0.0000 17.9707 0.0000
# 6 0.0000 0.0000 0.0000 0.0000 0.0000 23.3973
#
#
#
# Elastic Compliance Matrix: (Units=1/GPa)
#
#
# Indices 1 2 3 4 5 6 
#
# 1 0.013513 -0.000723 -0.004653 0.000000 0.000000 0.000000
# 2 -0.000723 0.012617 -0.001848 0.000000 0.000000 0.000000
# 3 -0.004653 -0.001848 0.034047 0.000000 0.000000 0.000000
# 4 0.000000 0.000000 0.000000 0.043050 0.000000 0.000000
# 5 0.000000 0.000000 0.000000 0.000000 0.055646 0.000000
# 6 0.000000 0.000000 0.000000 0.000000 0.000000 0.042740
#
#
# Mechanical properties :
#
#
# Convention : Reuss Voigt Hill
#
# Bulk Modulus (GPa) = 21.86765 26.02450 23.94608
# Shear Modulus (GPa) = 21.61666 24.07644 22.84655
#
# Velocity S-wave (km/s) = 3.26981 3.45084 3.36154
# Velocity P-wave (km/s) = 5.00713 5.36185 5.18752
#
# Compressibility (1/GPa) = 0.04572964
#
# Stress axis : x y z
#
# Youngs Moduli (GPa) = 74.00458 79.25763 29.37114
#
# Poissons Ratio (x) = 0.05730 0.13665
# Poissons Ratio (y) = 0.05350 0.05428
# Poissons Ratio (z) = 0.34432 0.14646
#
# Static dielectric constant tensor:
#      x y z
#    x 1.765920 0.000000 0.000000 
#    y 0.000000 1.739890 0.000000 
#    z 0.000000 0.000000 1.736430 
# 
# From -- ./inp_files/13615.got.cif
#   From: 2010.05.17/outbox.cif.g08.bks.cpg/sg52_7_cif.got.tgz:13615.got - 2010.06.03 12:15:38.
