data_PCOD9409862
_publ_section_title
;
Structure prediction by ZEFSAII (Michael W. Deem and Ramdas Pophale) SiO2 
 PCOD9409862
Probable space group: P N N A
;
_chemical_formula_sum "Si O2"
_cell_formula_units_Z 40
_cell_length_a 7.231458
_cell_length_b 21.508031
_cell_length_c 12.413913
_cell_angle_alpha 90.000000
_cell_angle_beta 90.000000
_cell_angle_gamma 90.000000
_cell_volume 1930.790794
_symmetry_space_group_name_H-M "P N N A"
_symmetry_group_IT_number 52
_symmetry_cell_setting 'orthorhombic'
loop_
_space_group_symop_operation_xyz
x,y,z
1/2-x,-y,z
x,1/2-y,1/2-z
1/2-x,1/2+y,1/2-z
-x,-y,-z
1/2+x,y,-z
-x,1/2+y,1/2+z
1/2+x,1/2-y,1/2+z
loop_
_atom_site_type_symbol
_atom_site_label
_atom_site_fract_x
_atom_site_fract_y
_atom_site_fract_z
Si Si1 0.991011 0.267482 0.597830
Si Si2 0.625207 0.938977 0.383831
Si Si3 0.604706 0.353547 0.233101
Si Si4 0.261086 0.401573 0.122091
Si Si5 0.412086 0.763801 0.363634
O O1 0.099218 0.325576 0.647530
O O2 0.074509 0.205203 0.652313
O O3 0.780879 0.274044 0.638449
O O4 0.984661 0.257259 0.470708
O O5 0.408576 0.948974 0.362751
O O6 0.648756 0.912681 0.505149
O O7 0.713911 0.889962 0.301446
O O8 0.750000 0.000000 0.377838
O O9 0.426158 0.396461 0.207296
O O10 0.154909 0.334838 0.122977
O O11 0.508605 0.750000 0.250000
#
# Coordination Sequence:
#
# PCOD9409862 Si02
#       5
#     8   8   8   8   8
#     4  10  20  37  55  85 123 159 196 244 309 373
#     4  12  23  34  58  90 119 165 211 247 309 360
#     4  10  21  38  53  82 127 156 194 250 302 367
#     4  11  20  36  54  82 127 157 193 254 300 360
#     4  11  20  36  58  88 122 161 196 240 308 371
#
# _framework density 20.716899000000002
#
# number of rings (size 3 to 8) (size 9 to 14) (size 15 to 20)
#    0.000    1.200    8.000    1.800    0.000    1.600 
#    0.000    0.000    0.000    0.000    0.000    7.000 
#    0.000    0.000    0.000    0.000    0.000    0.000 
#
# Total GULP energy -223723.881200 kJ/mol
# GULP energy per Si atom -5593.097030 kJ/mol
# Density = 2.066975 g / cm^3
# Si number density = 20.716899 Si / 1000 Ang^3
#
#
#
# Elastic Constant Matrix: (Units=GPa)
#
#
# Indices 1 2 3 4 5 6 
#
# 1 102.4048 7.3522 11.7333 0.0000 0.0000 0.0000
# 2 7.3522 46.1518 13.8291 0.0000 0.0000 0.0000
# 3 11.7333 13.8291 117.0641 0.0000 0.0000 0.0000
# 4 0.0000 0.0000 0.0000 24.1985 0.0000 0.0000
# 5 0.0000 0.0000 0.0000 0.0000 22.9875 0.0000
# 6 0.0000 0.0000 0.0000 0.0000 0.0000 32.1375
#
#
#
# Elastic Compliance Matrix: (Units=1/GPa)
#
#
# Indices 1 2 3 4 5 6 
#
# 1 0.009957 -0.001334 -0.000840 0.000000 0.000000 0.000000
# 2 -0.001334 0.022642 -0.002541 0.000000 0.000000 0.000000
# 3 -0.000840 -0.002541 0.008927 0.000000 0.000000 0.000000
# 4 0.000000 0.000000 0.000000 0.041325 0.000000 0.000000
# 5 0.000000 0.000000 0.000000 0.000000 0.043502 0.000000
# 6 0.000000 0.000000 0.000000 0.000000 0.000000 0.031116
#
#
# Mechanical properties :
#
#
# Convention : Reuss Voigt Hill
#
# Bulk Modulus (GPa) = 31.15841 36.82776 33.99309
# Shear Modulus (GPa) = 28.15343 31.37842 29.76592
#
# Velocity S-wave (km/s) = 3.69041 3.89605 3.79462
# Velocity P-wave (km/s) = 5.76468 6.16881 5.97016
#
# Compressibility (1/GPa) = 0.03209407
#
# Stress axis : x y z
#
# Youngs Moduli (GPa) = 100.42919 44.16650 112.02307
#
# Poissons Ratio (x) = 0.05894 0.09414
# Poissons Ratio (y) = 0.13401 0.28465
# Poissons Ratio (z) = 0.08440 0.11223
#
# Static dielectric constant tensor:
#      x y z
#    x 1.814150 0.000000 0.000000 
#    y 0.000000 1.800460 0.000000 
#    z 0.000000 0.000000 1.737070 
# 
# From -- ./inp_files/16804.got.cif
#   From: 2010.05.17/outbox.cif.g08.bks.cpg/sg52_9_cif.got.tgz:16804.got - 2010.06.03 12:15:38.
