data_PCOD9409302
_publ_section_title
;
Structure prediction by ZEFSAII (Michael W. Deem and Ramdas Pophale) SiO2 
 PCOD9409302
Probable space group: P N N A
;
_chemical_formula_sum "Si O2"
_cell_formula_units_Z 48
_cell_length_a 9.108571
_cell_length_b 8.808662
_cell_length_c 28.678767
_cell_angle_alpha 90.000000
_cell_angle_beta 90.000000
_cell_angle_gamma 90.000000
_cell_volume 2301.021462
_symmetry_space_group_name_H-M "P N N A"
_symmetry_group_IT_number 52
_symmetry_cell_setting 'orthorhombic'
loop_
_space_group_symop_operation_xyz
x,y,z
1/2-x,-y,z
x,1/2-y,1/2-z
1/2-x,1/2+y,1/2-z
-x,-y,-z
1/2+x,y,-z
-x,1/2+y,1/2+z
1/2+x,1/2-y,1/2+z
loop_
_atom_site_type_symbol
_atom_site_label
_atom_site_fract_x
_atom_site_fract_y
_atom_site_fract_z
Si Si1 0.674701 0.227145 0.394549
Si Si2 0.184110 0.332373 0.389279
Si Si3 0.478500 0.259732 0.699136
Si Si4 0.410501 0.143699 0.448233
Si Si5 0.250000 0.000000 0.835012
Si Si6 0.965938 0.308153 0.050831
Si Si7 0.250000 0.500000 0.824303
O O1 0.570693 0.210206 0.437798
O O2 0.666090 0.386043 0.369235
O O3 0.838886 0.190513 0.410773
O O4 0.641908 0.102026 0.355816
O O5 0.250000 0.500000 0.381360
O O6 0.095092 0.271785 0.343624
O O7 0.309241 0.217172 0.408399
O O8 0.069235 0.329217 0.432783
O O9 0.551593 0.250000 0.750000
O O10 0.370346 0.404969 0.693131
O O11 0.361318 0.120009 0.698536
O O12 0.383356 0.192616 0.501378
O O13 0.434179 0.961362 0.447559
#
# Coordination Sequence:
#
# PCOD9409302 Si02
#       7
#     8   8   8   8   4   8   4
#     4  11  19  39  62  94 124 174 219 279 327 381
#     4  12  25  43  62 101 148 177 210 280 349 406
#     4  11  23  44  70  99 129 171 225 281 339 410
#     4  11  23  38  67  95 134 181 230 272 329 389
#     4  10  21  38  68  92 130 160 210 288 335 382
#     4  11  22  42  63  94 131 184 236 275 310 395
#     4  10  19  38  70  90 120 160 226 280 321 382
#
# _framework density 20.860299999999999
#
# number of rings (size 3 to 8) (size 9 to 14) (size 15 to 20)
#    0.000    1.000    5.000    3.000    0.000    3.333 
#    3.000    3.333    0.000    2.000    0.000    0.000 
#    0.000    0.000    0.000    0.000    0.000    0.000 
#
# Total GULP energy -267563.842634 kJ/mol
# GULP energy per Si atom -5574.246722 kJ/mol
# Density = 2.081282 g / cm^3
# Si number density = 20.860300 Si / 1000 Ang^3
#
#
#
# Elastic Constant Matrix: (Units=GPa)
#
#
# Indices 1 2 3 4 5 6 
#
# 1 74.5545 25.1128 34.9193 0.0000 0.0000 0.0000
# 2 25.1128 106.4872 51.5838 0.0000 0.0000 0.0000
# 3 34.9193 51.5838 114.7236 0.0000 0.0000 0.0000
# 4 0.0000 0.0000 0.0000 -85.5763 0.0000 0.0000
# 5 0.0000 0.0000 0.0000 0.0000 25.0811 0.0000
# 6 0.0000 0.0000 0.0000 0.0000 0.0000 28.7813
#
#
#
# Elastic Compliance Matrix: (Units=1/GPa)
#
#
# Indices 1 2 3 4 5 6 
#
# 1 0.015908 -0.001798 -0.004034 0.000000 0.000000 0.000000
# 2 -0.001798 0.012209 -0.004942 0.000000 0.000000 0.000000
# 3 -0.004034 -0.004942 0.012167 0.000000 0.000000 0.000000
# 4 0.000000 0.000000 0.000000 -0.011685 0.000000 0.000000
# 5 0.000000 0.000000 0.000000 0.000000 0.039871 0.000000
# 6 0.000000 0.000000 0.000000 0.000000 0.000000 0.034745
#
#
# Mechanical properties :
#
#
# Convention : Reuss Voigt Hill
#
# Bulk Modulus (GPa) = 53.37330 57.66634 55.51982
# Shear Modulus (GPa) = 38.16616 5.93382 22.04999
#
# Velocity S-wave (km/s) = 4.28203 1.68841 3.25473
# Velocity P-wave (km/s) = 7.07738 5.61294 6.38727
#
# Compressibility (1/GPa) = 0.01873596
#
# Stress axis : x y z
#
# Youngs Moduli (GPa) = 62.86229 81.90751 82.19170
#
# Poissons Ratio (x) = 0.14723 0.33154
# Poissons Ratio (y) = 0.11300 0.40623
# Poissons Ratio (z) = 0.25357 0.40482
#
# Static dielectric constant tensor:
#      x y z
#    x 1.756090 0.000000 0.000000 
#    y 0.000000 1.784880 0.000000 
#    z 0.000000 0.000000 1.721730 
# 
# From -- ./inp_files/44464.got.cif
#   From: 2010.05.17/outbox.cif.g08.bks.cpg/sg52_23_cif.got.tgz:44464.got - 2010.06.03 12:15:38.
