data_PCOD9409602
_publ_section_title
;
Structure prediction by ZEFSAII (Michael W. Deem and Ramdas Pophale) SiO2 
 PCOD9409602
Probable space group: P N N A
;
_chemical_formula_sum "Si O2"
_cell_formula_units_Z 60
_cell_length_a 9.400730
_cell_length_b 22.769883
_cell_length_c 15.004955
_cell_angle_alpha 90.000000
_cell_angle_beta 90.000000
_cell_angle_gamma 90.000000
_cell_volume 3211.863468
_symmetry_space_group_name_H-M "P N N A"
_symmetry_group_IT_number 52
_symmetry_cell_setting 'orthorhombic'
loop_
_space_group_symop_operation_xyz
x,y,z
1/2-x,-y,z
x,1/2-y,1/2-z
1/2-x,1/2+y,1/2-z
-x,-y,-z
1/2+x,y,-z
-x,1/2+y,1/2+z
1/2+x,1/2-y,1/2+z
loop_
_atom_site_type_symbol
_atom_site_label
_atom_site_fract_x
_atom_site_fract_y
_atom_site_fract_z
Si Si1 0.979745 0.775285 0.988468
Si Si2 0.338300 0.560489 0.738182
Si Si3 0.534340 0.648350 0.659357
Si Si4 0.582669 0.999819 0.408272
Si Si5 0.582327 0.621846 0.181696
Si Si6 0.874119 0.750000 0.250000
Si Si7 0.153124 0.188611 0.200614
Si Si8 0.242246 0.787636 0.570801
O O1 0.141018 0.755153 0.982794
O O2 0.925308 0.796638 0.892720
O O3 0.981333 0.824139 0.065643
O O4 0.889980 0.717532 0.018717
O O5 0.250000 0.500000 0.718266
O O6 0.456902 0.585969 0.672699
O O7 0.419187 0.550621 0.833019
O O8 0.213709 0.608376 0.751641
O O9 0.470561 0.693191 0.733191
O O10 0.703853 0.652494 0.675212
O O11 0.537024 0.941390 0.355190
O O12 0.750000 0.000000 0.430914
O O13 0.500000 0.000000 0.500000
O O14 0.456856 0.655601 0.232653
O O15 0.654206 0.655045 0.097475
O O16 0.775324 0.759678 0.333968
O O17 0.191354 0.250000 0.250000
#
# Coordination Sequence:
#
# PCOD9409602 Si02
#       8
#     8   8   8   8   8   4   8   8
#     4  11  24  36  55  88 129 158 205 250 303 378
#     4   9  21  42  65  87 115 164 216 249 310 375
#     4  11  22  39  59  90 125 159 208 260 307 372
#     4   9  21  41  59  90 115 151 207 252 304 359
#     4  10  21  37  63  81 120 169 196 248 311 365
#     4  10  20  34  62  82 118 166 196 238 328 364
#     4  12  23  38  57  95 129 161 207 248 309 385
#     4  11  20  36  54  87 121 160 199 238 305 374
#
# _framework density 18.680744000000001
#
# number of rings (size 3 to 8) (size 9 to 14) (size 15 to 20)
#    0.000    1.867    4.667    0.800    1.867    3.200 
#    2.400    2.000    0.000    7.200    0.000    0.000 
#    0.000    0.000    0.000    0.000    0.000    0.000 
#
# Total GULP energy -334059.307809 kJ/mol
# GULP energy per Si atom -5567.655130 kJ/mol
# Density = 1.863823 g / cm^3
# Si number density = 18.680744 Si / 1000 Ang^3
#
#
#
# Elastic Constant Matrix: (Units=GPa)
#
#
# Indices 1 2 3 4 5 6 
#
# 1 61.8623 23.7772 25.7554 0.0000 0.0000 0.0000
# 2 23.7772 49.7880 16.9075 0.0000 0.0000 0.0000
# 3 25.7554 16.9075 71.1783 0.0000 0.0000 0.0000
# 4 0.0000 0.0000 0.0000 19.9683 0.0000 0.0000
# 5 0.0000 0.0000 0.0000 0.0000 15.9846 0.0000
# 6 0.0000 0.0000 0.0000 0.0000 0.0000 19.8659
#
#
#
# Elastic Compliance Matrix: (Units=1/GPa)
#
#
# Indices 1 2 3 4 5 6 
#
# 1 0.021868 -0.008437 -0.005909 0.000000 0.000000 0.000000
# 2 -0.008437 0.025103 -0.002910 0.000000 0.000000 0.000000
# 3 -0.005909 -0.002910 0.016878 0.000000 0.000000 0.000000
# 4 0.000000 0.000000 0.000000 0.050079 0.000000 0.000000
# 5 0.000000 0.000000 0.000000 0.000000 0.062560 0.000000
# 6 0.000000 0.000000 0.000000 0.000000 0.000000 0.050338
#
#
# Mechanical properties :
#
#
# Convention : Reuss Voigt Hill
#
# Bulk Modulus (GPa) = 34.08567 35.07873 34.58220
# Shear Modulus (GPa) = 18.44231 18.92299 18.68265
#
# Velocity S-wave (km/s) = 3.14544 3.18617 3.16587
# Velocity P-wave (km/s) = 5.61050 5.68809 5.64943
#
# Compressibility (1/GPa) = 0.02933784
#
# Stress axis : x y z
#
# Youngs Moduli (GPa) = 45.72967 39.83663 59.24719
#
# Poissons Ratio (x) = 0.33609 0.35007
# Poissons Ratio (y) = 0.38581 0.17241
# Poissons Ratio (z) = 0.27020 0.11592
#
# Static dielectric constant tensor:
#      x y z
#    x 1.668310 0.000000 0.000000 
#    y 0.000000 1.710940 0.000000 
#    z 0.000000 0.000000 1.656470 
# 
# From -- ./inp_files/25090.got.cif
#   From: 2010.05.17/outbox.cif.g08.bks.cpg/sg52_13_cif.got.tgz:25090.got - 2010.06.03 12:15:38.
