data_PCOD9409132
_publ_section_title
;
Structure prediction by ZEFSAII (Michael W. Deem and Ramdas Pophale) SiO2 
 PCOD9409132
Probable space group: P N N A
;
_chemical_formula_sum "Si O2"
_cell_formula_units_Z 48
_cell_length_a 9.329093
_cell_length_b 7.981602
_cell_length_c 29.544462
_cell_angle_alpha 90.000000
_cell_angle_beta 90.000000
_cell_angle_gamma 90.000000
_cell_volume 2199.913356
_symmetry_space_group_name_H-M "P N N A"
_symmetry_group_IT_number 52
_symmetry_cell_setting 'orthorhombic'
loop_
_space_group_symop_operation_xyz
x,y,z
1/2-x,-y,z
x,1/2-y,1/2-z
1/2-x,1/2+y,1/2-z
-x,-y,-z
1/2+x,y,-z
-x,1/2+y,1/2+z
1/2+x,1/2-y,1/2+z
loop_
_atom_site_type_symbol
_atom_site_label
_atom_site_fract_x
_atom_site_fract_y
_atom_site_fract_z
Si Si1 0.596988 0.055965 0.765965
Si Si2 0.864265 0.653798 0.475802
Si Si3 0.082003 0.516126 0.166153
Si Si4 0.334850 0.672416 0.883719
Si Si5 0.422119 0.158906 0.846051
Si Si6 0.597347 0.054964 0.932019
O O1 0.611415 0.250000 0.750000
O O2 0.471799 0.053149 0.802793
O O3 0.750000 0.000000 0.785898
O O4 0.571843 0.950319 0.720125
O O5 0.750000 0.500000 0.472878
O O6 0.824922 0.783564 0.436737
O O7 0.876067 0.695795 0.529119
O O8 0.021206 0.591872 0.460367
O O9 0.250000 0.500000 0.154867
O O10 0.994147 0.646803 0.135668
O O11 0.003903 0.337617 0.159691
O O12 0.250000 0.500000 0.876808
O O13 0.244700 0.806743 0.854725
O O14 0.488545 0.091899 0.892391
O O15 0.750000 0.000000 0.913523
#
# Coordination Sequence:
#
# PCOD9409132 Si02
#       6
#     8   8   8   8   8   8
#     4   9  18  36  61  85 116 149 193 246 295 346
#     4  10  20  39  59  83 121 155 190 246 301 350
#     4   9  20  37  60  84 117 158 196 247 295 348
#     4  10  21  39  62  83 121 158 192 244 302 356
#     4  10  19  36  61  84 116 156 194 244 298 356
#     4  10  21  34  60  88 115 151 201 243 293 353
#
# _framework density 21.819040999999999
#
# number of rings (size 3 to 8) (size 9 to 14) (size 15 to 20)
#    0.000    2.333    1.667    0.500    2.333    0.000 
#    3.000    4.167   29.333    0.000    0.000    0.000 
#    0.000    0.000    0.000    0.000    0.000    0.000 
#
# Total GULP energy -267796.369391 kJ/mol
# GULP energy per Si atom -5579.091029 kJ/mol
# Density = 2.176938 g / cm^3
# Si number density = 21.819041 Si / 1000 Ang^3
#
#
#
# Elastic Constant Matrix: (Units=GPa)
#
#
# Indices 1 2 3 4 5 6 
#
# 1 133.5619 15.6414 45.7950 0.0000 0.0000 0.0000
# 2 15.6414 25.9220 18.6833 0.0000 0.0000 0.0000
# 3 45.7950 18.6833 109.2278 0.0000 0.0000 0.0000
# 4 0.0000 0.0000 0.0000 17.1646 0.0000 0.0000
# 5 0.0000 0.0000 0.0000 0.0000 26.0683 0.0000
# 6 0.0000 0.0000 0.0000 0.0000 0.0000 22.4775
#
#
#
# Elastic Compliance Matrix: (Units=1/GPa)
#
#
# Indices 1 2 3 4 5 6 
#
# 1 0.008954 -0.003076 -0.003228 0.000000 0.000000 0.000000
# 2 -0.003076 0.045059 -0.006417 0.000000 0.000000 0.000000
# 3 -0.003228 -0.006417 0.011606 0.000000 0.000000 0.000000
# 4 0.000000 0.000000 0.000000 0.058260 0.000000 0.000000
# 5 0.000000 0.000000 0.000000 0.000000 0.038361 0.000000
# 6 0.000000 0.000000 0.000000 0.000000 0.000000 0.044489
#
#
# Mechanical properties :
#
#
# Convention : Reuss Voigt Hill
#
# Bulk Modulus (GPa) = 24.89063 47.66122 36.27592
# Shear Modulus (GPa) = 20.36126 25.71488 23.03807
#
# Velocity S-wave (km/s) = 3.05813 3.43673 3.25294
# Velocity P-wave (km/s) = 4.88897 6.13510 5.54714
#
# Compressibility (1/GPa) = 0.04017577
#
# Stress axis : x y z
#
# Youngs Moduli (GPa) = 111.67911 22.19312 86.16072
#
# Poissons Ratio (x) = 0.06828 0.27812
# Poissons Ratio (y) = 0.34358 0.55293
# Poissons Ratio (z) = 0.36049 0.14242
#
# Static dielectric constant tensor:
#      x y z
#    x 1.799230 0.000000 0.000000 
#    y 0.000000 1.875160 0.000000 
#    z 0.000000 0.000000 1.863580 
# 
# From -- ./inp_files/44381.got.cif
#   From: 2010.05.17/outbox.cif.g08.bks.cpg/sg52_23_cif.got.tgz:44381.got - 2010.06.03 12:15:38.
