data_PCOD9409825
_publ_section_title
;
Structure prediction by ZEFSAII (Michael W. Deem and Ramdas Pophale) SiO2 
 PCOD9409825
Probable space group: P N N A
;
_chemical_formula_sum "Si O2"
_cell_formula_units_Z 56
_cell_length_a 21.302075
_cell_length_b 10.823084
_cell_length_c 11.765083
_cell_angle_alpha 90.000000
_cell_angle_beta 90.000000
_cell_angle_gamma 90.000000
_cell_volume 2712.488677
_symmetry_space_group_name_H-M "P N N A"
_symmetry_group_IT_number 52
_symmetry_cell_setting 'orthorhombic'
loop_
_space_group_symop_operation_xyz
x,y,z
1/2-x,-y,z
x,1/2-y,1/2-z
1/2-x,1/2+y,1/2-z
-x,-y,-z
1/2+x,y,-z
-x,1/2+y,1/2+z
1/2+x,1/2-y,1/2+z
loop_
_atom_site_type_symbol
_atom_site_label
_atom_site_fract_x
_atom_site_fract_y
_atom_site_fract_z
Si Si1 0.188144 0.421263 0.628108
Si Si2 0.147099 0.826635 0.632799
Si Si3 0.657913 0.297351 0.979190
Si Si4 0.517027 0.489647 0.686626
Si Si5 0.410573 0.750000 0.250000
Si Si6 0.750000 0.000000 0.473003
Si Si7 0.089109 0.080899 0.674651
Si Si8 0.409977 0.101799 0.986538
O O1 0.250000 0.500000 0.653666
O O2 0.198197 0.300623 0.552016
O O3 0.147066 0.391440 0.739662
O O4 0.142796 0.505779 0.552442
O O5 0.155277 0.750000 0.750000
O O6 0.209180 0.902652 0.599570
O O7 0.120684 0.734263 0.537851
O O8 0.096859 0.935339 0.649662
O O9 0.630909 0.244404 0.863639
O O10 0.700050 0.418312 0.958846
O O11 0.601115 0.338618 0.063234
O O12 0.549311 0.376558 0.752937
O O13 0.476796 0.585224 0.762031
O O14 0.468135 0.423055 0.599485
O O15 0.565826 0.566471 0.610498
#
# Coordination Sequence:
#
# PCOD9409825 Si02
#       8
#     8   8   8   8   4   4   8   8
#     4  11  21  38  67 102 131 169 212 275 335 394
#     4  11  19  36  61  96 129 175 214 268 338 395
#     4  11  25  43  62 100 130 174 223 271 336 394
#     4  10  20  39  65  94 125 177 215 273 324 392
#     4  12  24  44  70  86 134 184 222 270 328 406
#     4  10  26  40  60  86 140 166 220 284 318 398
#     4  10  23  39  66 100 132 166 218 280 334 393
#     4  10  20  36  62  97 132 165 225 256 324 405
#
# _framework density 20.645247000000001
#
# number of rings (size 3 to 8) (size 9 to 14) (size 15 to 20)
#    0.000    1.429    4.286    2.143    4.000    0.571 
#    1.286    0.000    6.286    0.000    0.000    0.000 
#    0.000    0.000    0.000    0.000    0.000    0.000 
#
# Total GULP energy -312861.086516 kJ/mol
# GULP energy per Si atom -5586.805116 kJ/mol
# Density = 2.059826 g / cm^3
# Si number density = 20.645247 Si / 1000 Ang^3
#
#
#
# Elastic Constant Matrix: (Units=GPa)
#
#
# Indices 1 2 3 4 5 6 
#
# 1 74.7214 28.2727 35.5541 0.0000 0.0000 0.0000
# 2 28.2727 102.6691 28.4266 0.0000 0.0000 0.0000
# 3 35.5541 28.4266 84.3968 0.0000 0.0000 0.0000
# 4 0.0000 0.0000 0.0000 29.9268 0.0000 0.0000
# 5 0.0000 0.0000 0.0000 0.0000 3.7180 0.0000
# 6 0.0000 0.0000 0.0000 0.0000 0.0000 24.0081
#
#
#
# Elastic Compliance Matrix: (Units=1/GPa)
#
#
# Indices 1 2 3 4 5 6 
#
# 1 0.017578 -0.003077 -0.006369 0.000000 0.000000 0.000000
# 2 -0.003077 0.011280 -0.002503 0.000000 0.000000 0.000000
# 3 -0.006369 -0.002503 0.015375 0.000000 0.000000 0.000000
# 4 0.000000 0.000000 0.000000 0.033415 0.000000 0.000000
# 5 0.000000 0.000000 0.000000 0.000000 0.268963 0.000000
# 6 0.000000 0.000000 0.000000 0.000000 0.000000 0.041653
#
#
# Mechanical properties :
#
#
# Convention : Reuss Voigt Hill
#
# Bulk Modulus (GPa) = 49.17591 49.58826 49.38208
# Shear Modulus (GPa) = 11.93490 22.83284 17.38387
#
# Velocity S-wave (km/s) = 2.40697 3.32921 2.90492
# Velocity P-wave (km/s) = 5.62102 6.23294 5.93487
#
# Compressibility (1/GPa) = 0.02033516
#
# Stress axis : x y z
#
# Youngs Moduli (GPa) = 56.89030 88.64870 65.04146
#
# Poissons Ratio (x) = 0.27279 0.41422
# Poissons Ratio (y) = 0.17506 0.16281
# Poissons Ratio (z) = 0.36231 0.22190
#
# Static dielectric constant tensor:
#      x y z
#    x 1.766220 0.000000 0.000000 
#    y 0.000000 1.799950 0.000000 
#    z 0.000000 0.000000 1.732750 
# 
# From -- ./inp_files/21741.got.cif
#   From: 2010.05.17/outbox.cif.g08.bks.cpg/sg52_11_cif.got.tgz:21741.got - 2010.06.03 12:15:38.
