data_PCOD9409205
_publ_section_title
;
Structure prediction by ZEFSAII (Michael W. Deem and Ramdas Pophale) SiO2 
 PCOD9409205
Probable space group: P N N A
;
_chemical_formula_sum "Si O2"
_cell_formula_units_Z 56
_cell_length_a 21.762770
_cell_length_b 7.718231
_cell_length_c 14.081167
_cell_angle_alpha 90.000000
_cell_angle_beta 90.000000
_cell_angle_gamma 90.000000
_cell_volume 2365.214833
_symmetry_space_group_name_H-M "P N N A"
_symmetry_group_IT_number 52
_symmetry_cell_setting 'orthorhombic'
loop_
_space_group_symop_operation_xyz
x,y,z
1/2-x,-y,z
x,1/2-y,1/2-z
1/2-x,1/2+y,1/2-z
-x,-y,-z
1/2+x,y,-z
-x,1/2+y,1/2+z
1/2+x,1/2-y,1/2+z
loop_
_atom_site_type_symbol
_atom_site_label
_atom_site_fract_x
_atom_site_fract_y
_atom_site_fract_z
Si Si1 0.151863 0.468320 0.590176
Si Si2 0.895612 0.878110 0.629367
Si Si3 0.833510 0.352014 0.009756
Si Si4 0.222436 0.321745 0.411371
Si Si5 0.638832 0.944593 0.289974
Si Si6 0.000359 0.414478 0.816967
Si Si7 0.969335 0.818109 0.021370
O O1 0.142772 0.662955 0.546836
O O2 0.195576 0.378583 0.514172
O O3 0.170175 0.460674 0.700239
O O4 0.088460 0.365936 0.586740
O O5 0.833125 0.769065 0.644772
O O6 0.942840 0.753374 0.575840
O O7 0.875139 0.026311 0.554924
O O8 0.940217 0.969002 0.705320
O O9 0.826057 0.452062 0.109947
O O10 0.776385 0.307202 0.941720
O O11 0.250000 0.500000 0.367553
O O12 0.637172 0.750000 0.250000
O O13 0.567306 0.997081 0.306775
O O14 0.998214 0.250000 0.750000
O O15 0.995519 0.331540 0.922557
O O16 0.000000 0.000000 0.000000
#
# Coordination Sequence:
#
# PCOD9409205 Si02
#       7
#     8   8   8   8   8   8   8
#     4   9  19  36  56  86 131 171 207 254 314 372
#     4  11  23  37  61  91 123 165 217 265 320 381
#     4  10  19  37  61  89 121 168 224 261 310 374
#     4   9  20  40  61  87 123 166 222 275 318 370
#     4  10  21  36  58  89 136 179 209 254 315 386
#     4  12  24  39  60  93 134 173 209 260 326 396
#     4  11  22  36  60  89 125 172 208 257 308 383
#
# _framework density 23.676494999999999
#
# number of rings (size 3 to 8) (size 9 to 14) (size 15 to 20)
#    0.000    1.714    2.857    1.714    4.000    0.000 
#    0.000   11.429    0.000    0.000    0.000   22.000 
#    0.000    0.000    0.000    0.000    0.000    0.000 
#
# Total GULP energy -312665.671052 kJ/mol
# GULP energy per Si atom -5583.315555 kJ/mol
# Density = 2.362261 g / cm^3
# Si number density = 23.676495 Si / 1000 Ang^3
#
#
#
# Elastic Constant Matrix: (Units=GPa)
#
#
# Indices 1 2 3 4 5 6 
#
# 1 90.9912 34.1905 8.5173 0.0000 0.0000 0.0000
# 2 34.1905 70.5509 7.9773 0.0000 0.0000 0.0000
# 3 8.5173 7.9773 54.4711 0.0000 0.0000 0.0000
# 4 0.0000 0.0000 0.0000 10.5900 0.0000 0.0000
# 5 0.0000 0.0000 0.0000 0.0000 -17.5839 0.0000
# 6 0.0000 0.0000 0.0000 0.0000 0.0000 53.5688
#
#
#
# Elastic Compliance Matrix: (Units=1/GPa)
#
#
# Indices 1 2 3 4 5 6 
#
# 1 0.013510 -0.006415 -0.001173 0.000000 0.000000 0.000000
# 2 -0.006415 0.017459 -0.001554 0.000000 0.000000 0.000000
# 3 -0.001173 -0.001554 0.018769 0.000000 0.000000 0.000000
# 4 0.000000 0.000000 0.000000 0.094428 0.000000 0.000000
# 5 0.000000 0.000000 0.000000 0.000000 -0.056870 0.000000
# 6 0.000000 0.000000 0.000000 0.000000 0.000000 0.018668
#
#
# Mechanical properties :
#
#
# Convention : Reuss Voigt Hill
#
# Bulk Modulus (GPa) = 31.79144 35.26481 33.52812
# Shear Modulus (GPa) = 37.11063 20.33685 28.72374
#
# Velocity S-wave (km/s) = 3.96334 2.93396 3.48685
# Velocity P-wave (km/s) = 5.86521 5.13851 5.51384
#
# Compressibility (1/GPa) = 0.03145501
#
# Stress axis : x y z
#
# Youngs Moduli (GPa) = 74.01785 57.27851 53.27839
#
# Poissons Ratio (x) = 0.36743 0.06250
# Poissons Ratio (y) = 0.47480 0.08278
# Poissons Ratio (z) = 0.08683 0.08900
#
# Static dielectric constant tensor:
#      x y z
#    x 1.990180 0.000000 0.000000 
#    y 0.000000 1.982500 0.000000 
#    z 0.000000 0.000000 -5.298140 
# 
# From -- ./inp_files/28765.got.cif
#   From: 2010.05.17/outbox.cif.g08.bks.cpg/sg52_15_cif.got.tgz:28765.got - 2010.06.03 12:15:38.
