data_PCOD9409230
_publ_section_title
;
Structure prediction by ZEFSAII (Michael W. Deem and Ramdas Pophale) SiO2 
 PCOD9409230
Probable space group: P N N A
;
_chemical_formula_sum "Si O2"
_cell_formula_units_Z 56
_cell_length_a 20.484538
_cell_length_b 11.488651
_cell_length_c 11.782333
_cell_angle_alpha 90.000000
_cell_angle_beta 90.000000
_cell_angle_gamma 90.000000
_cell_volume 2772.850808
_symmetry_space_group_name_H-M "P N N A"
_symmetry_group_IT_number 52
_symmetry_cell_setting 'orthorhombic'
loop_
_space_group_symop_operation_xyz
x,y,z
1/2-x,-y,z
x,1/2-y,1/2-z
1/2-x,1/2+y,1/2-z
-x,-y,-z
1/2+x,y,-z
-x,1/2+y,1/2+z
1/2+x,1/2-y,1/2+z
loop_
_atom_site_type_symbol
_atom_site_label
_atom_site_fract_x
_atom_site_fract_y
_atom_site_fract_z
Si Si1 0.019029 0.704610 0.621572
Si Si2 0.080467 0.250000 0.750000
Si Si3 0.738025 0.252411 0.612022
Si Si4 0.017839 0.547846 0.323911
Si Si5 0.377577 0.210297 0.053360
Si Si6 0.750000 0.000000 0.646489
Si Si7 0.390943 0.802746 0.501213
Si Si8 0.613466 0.972254 0.639091
O O1 0.013090 0.750000 0.750000
O O2 0.009208 0.565603 0.615501
O O3 0.961872 0.760102 0.543083
O O4 0.090341 0.729092 0.569522
O O5 0.117221 0.213784 0.635284
O O6 0.035679 0.357807 0.710367
O O7 0.739171 0.250000 0.750000
O O8 0.800985 0.320224 0.565452
O O9 0.752578 0.118231 0.576237
O O10 0.665392 0.270497 0.564985
O O11 0.076319 0.615674 0.386633
O O12 0.050215 0.498870 0.209653
O O13 0.387300 0.335205 0.115030
O O14 0.819561 0.998917 0.708038
O O15 0.384846 0.938592 0.465676
#
# Coordination Sequence:
#
# PCOD9409230 Si02
#       8
#     8   4   8   8   8   4   8   8
#     4  12  25  40  62  94 129 166 209 264 315 375
#     4  12  26  42  66  86 126 172 210 260 310 382
#     4  10  21  40  65  93 122 158 207 260 315 372
#     4  12  22  39  63  93 129 162 210 262 314 374
#     4  11  22  40  63  97 126 166 208 261 317 374
#     4   8  18  32  58  94 116 148 198 258 308 354
#     4  11  24  42  63  95 126 166 210 261 319 373
#     4  10  19  37  64  90 123 160 211 257 311 378
#
# _framework density 20.195822
#
# number of rings (size 3 to 8) (size 9 to 14) (size 15 to 20)
#    0.000    1.143    4.286    2.571    4.000    1.143 
#    1.286    0.000    0.000    0.000    0.000    0.000 
#    0.000    0.000    0.000    0.000    0.000    0.000 
#
# Total GULP energy -312177.717776 kJ/mol
# GULP energy per Si atom -5574.602103 kJ/mol
# Density = 2.014986 g / cm^3
# Si number density = 20.195822 Si / 1000 Ang^3
#
#
#
# Elastic Constant Matrix: (Units=GPa)
#
#
# Indices 1 2 3 4 5 6 
#
# 1 59.1660 6.2271 17.9532 0.0000 0.0000 0.0000
# 2 6.2271 79.2261 10.7117 0.0000 0.0000 0.0000
# 3 17.9532 10.7117 101.3324 0.0000 0.0000 0.0000
# 4 0.0000 0.0000 0.0000 21.5541 0.0000 0.0000
# 5 0.0000 0.0000 0.0000 0.0000 23.7657 0.0000
# 6 0.0000 0.0000 0.0000 0.0000 0.0000 23.2204
#
#
#
# Elastic Compliance Matrix: (Units=1/GPa)
#
#
# Indices 1 2 3 4 5 6 
#
# 1 0.017939 -0.000994 -0.003073 0.000000 0.000000 0.000000
# 2 -0.000994 0.012860 -0.001183 0.000000 0.000000 0.000000
# 3 -0.003073 -0.001183 0.010538 0.000000 0.000000 0.000000
# 4 0.000000 0.000000 0.000000 0.046395 0.000000 0.000000
# 5 0.000000 0.000000 0.000000 0.000000 0.042077 0.000000
# 6 0.000000 0.000000 0.000000 0.000000 0.000000 0.043066
#
#
# Mechanical properties :
#
#
# Convention : Reuss Voigt Hill
#
# Bulk Modulus (GPa) = 32.43024 34.38982 33.41003
# Shear Modulus (GPa) = 25.81911 27.36355 26.59133
#
# Velocity S-wave (km/s) = 3.57940 3.68491 3.63254
# Velocity P-wave (km/s) = 5.75983 5.93042 5.84574
#
# Compressibility (1/GPa) = 0.03083542
#
# Stress axis : x y z
#
# Youngs Moduli (GPa) = 55.74524 77.75902 94.89416
#
# Poissons Ratio (x) = 0.07733 0.29162
# Poissons Ratio (y) = 0.05544 0.11228
# Poissons Ratio (z) = 0.17131 0.09201
#
# Static dielectric constant tensor:
#      x y z
#    x 1.778490 0.000000 0.000000 
#    y 0.000000 1.749730 0.000000 
#    z 0.000000 0.000000 1.751300 
# 
# From -- ./inp_files/21722.got.cif
#   From: 2010.05.17/outbox.cif.g08.bks.cpg/sg52_11_cif.got.tgz:21722.got - 2010.06.03 12:15:38.
