data_PCOD9409987
_publ_section_title
;
Structure prediction by ZEFSAII (Michael W. Deem and Ramdas Pophale) SiO2 
 PCOD9409987
Probable space group: P N N A
;
_chemical_formula_sum "Si O2"
_cell_formula_units_Z 52
_cell_length_a 19.598641
_cell_length_b 8.150391
_cell_length_c 15.833285
_cell_angle_alpha 90.000000
_cell_angle_beta 90.000000
_cell_angle_gamma 90.000000
_cell_volume 2529.154910
_symmetry_space_group_name_H-M "P N N A"
_symmetry_group_IT_number 52
_symmetry_cell_setting 'orthorhombic'
loop_
_space_group_symop_operation_xyz
x,y,z
1/2-x,-y,z
x,1/2-y,1/2-z
1/2-x,1/2+y,1/2-z
-x,-y,-z
1/2+x,y,-z
-x,1/2+y,1/2+z
1/2+x,1/2-y,1/2+z
loop_
_atom_site_type_symbol
_atom_site_label
_atom_site_fract_x
_atom_site_fract_y
_atom_site_fract_z
Si Si1 0.460095 0.903109 0.074432
Si Si2 0.465413 0.438047 0.913959
Si Si3 0.324744 0.010013 0.991318
Si Si4 0.181269 0.750000 0.750000
Si Si5 0.690063 0.875288 0.429786
Si Si6 0.864167 0.899195 0.189886
Si Si7 0.985809 0.082595 0.763992
O O1 0.509097 0.748255 0.087822
O O2 0.450568 0.967555 0.169569
O O3 0.500000 0.000000 0.000000
O O4 0.383264 0.911314 0.039408
O O5 0.383659 0.462831 0.918507
O O6 0.493407 0.514202 0.826932
O O7 0.500000 0.500000 0.000000
O O8 0.331598 0.207961 0.979370
O O9 0.250000 0.000000 0.029918
O O10 0.326773 0.922703 0.898903
O O11 0.214218 0.807336 0.661940
O O12 0.141167 0.583228 0.727670
O O13 0.750000 0.000000 0.460062
O O14 0.840002 0.750000 0.250000
O O15 0.944992 0.870321 0.183488
O O16 0.945614 0.250000 0.750000
#
# Coordination Sequence:
#
# PCOD9409987 Si02
#       7
#     8   8   8   4   8   8   8
#     4  12  22  43  71  94 137 181 231 288 342 412
#     4  12  26  42  70 103 136 181 237 288 354 421
#     4  11  26  42  63  96 134 185 226 283 354 413
#     4  10  20  38  54  88 128 178 214 264 330 428
#     4  11  25  41  63  92 142 180 226 279 352 430
#     4  10  21  36  61  89 133 171 221 267 338 421
#     4  11  23  40  66 100 132 171 232 286 345 414
#
# _framework density 20.560227999999999
#
# number of rings (size 3 to 8) (size 9 to 14) (size 15 to 20)
#    0.000    0.923    4.615    2.308    6.462    2.462 
#    2.769    0.000    0.000    2.769    0.000    0.000 
#    0.000    0.000    0.000    0.000    0.000    0.000 
#
# Total GULP energy -289590.424937 kJ/mol
# GULP energy per Si atom -5569.046633 kJ/mol
# Density = 2.051343 g / cm^3
# Si number density = 20.560228 Si / 1000 Ang^3
#
#
#
# Elastic Constant Matrix: (Units=GPa)
#
#
# Indices 1 2 3 4 5 6 
#
# 1 112.6539 9.3650 33.2500 0.0000 0.0000 0.0000
# 2 9.3650 103.3613 31.2405 0.0000 0.0000 0.0000
# 3 33.2500 31.2405 103.1382 0.0000 0.0000 0.0000
# 4 0.0000 0.0000 0.0000 29.6725 0.0000 0.0000
# 5 0.0000 0.0000 0.0000 0.0000 29.2582 0.0000
# 6 0.0000 0.0000 0.0000 0.0000 0.0000 24.0906
#
#
#
# Elastic Compliance Matrix: (Units=1/GPa)
#
#
# Indices 1 2 3 4 5 6 
#
# 1 0.009811 0.000074 -0.003185 0.000000 0.000000 0.000000
# 2 0.000074 0.010650 -0.003250 0.000000 0.000000 0.000000
# 3 -0.003185 -0.003250 0.011707 0.000000 0.000000 0.000000
# 4 0.000000 0.000000 0.000000 0.033701 0.000000 0.000000
# 5 0.000000 0.000000 0.000000 0.000000 0.034178 0.000000
# 6 0.000000 0.000000 0.000000 0.000000 0.000000 0.041510
#
#
# Mechanical properties :
#
#
# Convention : Reuss Voigt Hill
#
# Bulk Modulus (GPa) = 51.42520 51.87383 51.64951
# Shear Modulus (GPa) = 31.10191 32.95745 32.02968
#
# Velocity S-wave (km/s) = 3.89359 4.00806 3.95124
# Velocity P-wave (km/s) = 6.72902 6.83405 6.78174
#
# Compressibility (1/GPa) = 0.01944572
#
# Stress axis : x y z
#
# Youngs Moduli (GPa) = 101.92939 93.89363 85.41955
#
# Poissons Ratio (x) = -0.00693 0.27207
# Poissons Ratio (y) = -0.00752 0.27759
# Poissons Ratio (z) = 0.32466 0.30513
#
# Static dielectric constant tensor:
#      x y z
#    x 1.851390 0.000000 0.000000 
#    y 0.000000 1.719640 0.000000 
#    z 0.000000 0.000000 1.816540 
# 
# From -- ./inp_files/28704.got.cif
#   From: 2010.05.17/outbox.cif.g08.bks.cpg/sg52_15_cif.got.tgz:28704.got - 2010.06.03 12:15:38.
