data_PCOD9409713
_publ_section_title
;
Structure prediction by ZEFSAII (Michael W. Deem and Ramdas Pophale) SiO2 
 PCOD9409713
Probable space group: P N N A
;
_chemical_formula_sum "Si O2"
_cell_formula_units_Z 36
_cell_length_a 13.175486
_cell_length_b 5.293871
_cell_length_c 24.070513
_cell_angle_alpha 90.000000
_cell_angle_beta 90.000000
_cell_angle_gamma 90.000000
_cell_volume 1678.901992
_symmetry_space_group_name_H-M "P N N A"
_symmetry_group_IT_number 52
_symmetry_cell_setting 'orthorhombic'
loop_
_space_group_symop_operation_xyz
x,y,z
1/2-x,-y,z
x,1/2-y,1/2-z
1/2-x,1/2+y,1/2-z
-x,-y,-z
1/2+x,y,-z
-x,1/2+y,1/2+z
1/2+x,1/2-y,1/2+z
loop_
_atom_site_type_symbol
_atom_site_label
_atom_site_fract_x
_atom_site_fract_y
_atom_site_fract_z
Si Si1 0.645331 0.100811 0.200818
Si Si2 0.865033 0.004711 0.564908
Si Si3 0.865831 0.506710 0.490954
Si Si4 0.750000 0.500000 0.119133
Si Si5 0.947235 0.262989 0.391877
O O1 0.589156 0.250000 0.250000
O O2 0.693913 0.287792 0.155666
O O3 0.750000 0.000000 0.227964
O O4 0.580342 0.892975 0.167162
O O5 0.873187 0.778519 0.520071
O O6 0.955528 0.919149 0.606420
O O7 0.750000 0.000000 0.588686
O O8 0.874867 0.273543 0.534375
O O9 0.750000 0.500000 0.469271
O O10 0.944238 0.472743 0.440413
O O11 0.846901 0.388583 0.089071
#
# Coordination Sequence:
#
# PCOD9409713 Si02
#       5
#     8   8   8   4   8
#     4  10  20  36  55  82 122 161 195 250 322 395
#     4  10  23  39  59  83 125 169 214 258 302 358
#     4  10  21  37  57  84 122 168 214 258 303 365
#     4  10  22  34  58  82 126 148 202 244 314 382
#     4  11  23  34  58  88 119 166 209 252 313 380
#
# _framework density 21.442587
#
# number of rings (size 3 to 8) (size 9 to 14) (size 15 to 20)
#    0.000    1.778    1.111    3.333   10.889    0.000 
#    0.000    0.000    0.000    0.000    0.000    0.000 
#    6.667    7.111    0.000    1.111    0.000    0.000 
#
# Total GULP energy -200826.305715 kJ/mol
# GULP energy per Si atom -5578.508492 kJ/mol
# Density = 2.139378 g / cm^3
# Si number density = 21.442587 Si / 1000 Ang^3
#
#
#
# Elastic Constant Matrix: (Units=GPa)
#
#
# Indices 1 2 3 4 5 6 
#
# 1 164.7570 45.7671 46.8298 0.0000 0.0000 0.0000
# 2 45.7671 111.4806 30.7932 0.0000 0.0000 0.0000
# 3 46.8298 30.7932 57.6704 0.0000 0.0000 0.0000
# 4 0.0000 0.0000 0.0000 48.2792 0.0000 0.0000
# 5 0.0000 0.0000 0.0000 0.0000 13.2701 0.0000
# 6 0.0000 0.0000 0.0000 0.0000 0.0000 42.6910
#
#
#
# Elastic Compliance Matrix: (Units=1/GPa)
#
#
# Indices 1 2 3 4 5 6 
#
# 1 0.008184 -0.001788 -0.005691 0.000000 0.000000 0.000000
# 2 -0.001788 0.010913 -0.004375 0.000000 0.000000 0.000000
# 3 -0.005691 -0.004375 0.024297 0.000000 0.000000 0.000000
# 4 0.000000 0.000000 0.000000 0.020713 0.000000 0.000000
# 5 0.000000 0.000000 0.000000 0.000000 0.075358 0.000000
# 6 0.000000 0.000000 0.000000 0.000000 0.000000 0.023424
#
#
# Mechanical properties :
#
#
# Convention : Reuss Voigt Hill
#
# Bulk Modulus (GPa) = 50.79731 64.52091 57.65911
# Shear Modulus (GPa) = 25.88565 34.88259 30.38412
#
# Velocity S-wave (km/s) = 3.47826 4.03772 3.76839
# Velocity P-wave (km/s) = 6.31446 7.20368 6.77368
#
# Compressibility (1/GPa) = 0.01968608
#
# Stress axis : x y z
#
# Youngs Moduli (GPa) = 122.19432 91.63704 41.15735
#
# Poissons Ratio (x) = 0.16383 0.23422
# Poissons Ratio (y) = 0.21846 0.18007
# Poissons Ratio (z) = 0.69538 0.40092
#
# Static dielectric constant tensor:
#      x y z
#    x 1.870550 0.000000 0.000000 
#    y 0.000000 1.972830 0.000000 
#    z 0.000000 0.000000 1.863080 
# 
# From -- ./inp_files/40436.got.cif
#   From: 2010.05.17/outbox.cif.g08.bks.cpg/sg52_21_cif.got.tgz:40436.got - 2010.06.03 12:15:38.
