data_PCOD9409255
_publ_section_title
;
Structure prediction by ZEFSAII (Michael W. Deem and Ramdas Pophale) SiO2 
 PCOD9409255
Probable space group: P N N A
;
_chemical_formula_sum "Si O2"
_cell_formula_units_Z 64
_cell_length_a 21.518477
_cell_length_b 15.766934
_cell_length_c 9.111166
_cell_angle_alpha 90.000000
_cell_angle_beta 90.000000
_cell_angle_gamma 90.000000
_cell_volume 3091.240105
_symmetry_space_group_name_H-M "P N N A"
_symmetry_group_IT_number 52
_symmetry_cell_setting 'orthorhombic'
loop_
_space_group_symop_operation_xyz
x,y,z
1/2-x,-y,z
x,1/2-y,1/2-z
1/2-x,1/2+y,1/2-z
-x,-y,-z
1/2+x,y,-z
-x,1/2+y,1/2+z
1/2+x,1/2-y,1/2+z
loop_
_atom_site_type_symbol
_atom_site_label
_atom_site_fract_x
_atom_site_fract_y
_atom_site_fract_z
Si Si1 0.874024 0.001349 0.942654
Si Si2 0.604358 0.214552 0.403779
Si Si3 0.490758 0.319164 0.876353
Si Si4 0.313240 0.343384 0.277716
Si Si5 0.520280 0.994060 0.741626
Si Si6 0.117363 0.906464 0.482359
Si Si7 0.620409 0.456504 0.223471
Si Si8 0.170659 0.321261 0.363793
O O1 0.945657 0.013151 0.897352
O O2 0.854522 0.916980 0.851279
O O3 0.842295 0.088310 0.889658
O O4 0.860131 0.978246 0.110866
O O5 0.580646 0.250000 0.250000
O O6 0.546396 0.199227 0.510947
O O7 0.640638 0.128603 0.360183
O O8 0.649648 0.282364 0.481161
O O9 0.488105 0.250000 0.750000
O O10 0.505162 0.409710 0.801765
O O11 0.424421 0.328994 0.957645
O O12 0.342547 0.250000 0.250000
O O13 0.243675 0.328406 0.333169
O O14 0.323855 0.384645 0.117801
O O15 0.568472 0.956906 0.622207
O O16 0.454742 0.947100 0.733169
O O17 0.134824 0.964979 0.618466
O O18 0.146073 0.250000 0.250000
#
# Coordination Sequence:
#
# PCOD9409255 Si02
#       8
#     8   8   8   8   8   8   8   8
#     4  11  22  40  67  94 135 174 215 274 335 401
#     4  12  22  37  62 100 142 168 215 280 344 397
#     4  11  21  35  60 100 135 173 220 264 338 421
#     4  10  25  46  66  87 122 174 232 282 327 392
#     4  10  19  38  59  90 135 174 207 255 324 411
#     4  10  21  41  64  86 131 175 214 269 323 407
#     4  11  21  38  62 102 135 170 209 264 346 406
#     4  11  24  43  68  94 124 171 234 284 328 393
#
# _framework density 20.703665999999998
#
# number of rings (size 3 to 8) (size 9 to 14) (size 15 to 20)
#    0.000    1.250    3.750    3.375    1.750    2.500 
#    0.000    2.500    0.000    0.000    0.000    0.000 
#    0.000    0.000    0.000    0.000    0.000    0.000 
#
# Total GULP energy -357184.746464 kJ/mol
# GULP energy per Si atom -5581.011664 kJ/mol
# Density = 2.065654 g / cm^3
# Si number density = 20.703666 Si / 1000 Ang^3
#
#
#
# Elastic Constant Matrix: (Units=GPa)
#
#
# Indices 1 2 3 4 5 6 
#
# 1 38.1485 29.1239 8.9483 0.0000 0.0000 0.0000
# 2 29.1239 123.8895 50.0130 0.0000 0.0000 0.0000
# 3 8.9483 50.0130 91.6802 0.0000 0.0000 0.0000
# 4 0.0000 0.0000 0.0000 35.1851 0.0000 0.0000
# 5 0.0000 0.0000 0.0000 0.0000 -241.2812 0.0000
# 6 0.0000 0.0000 0.0000 0.0000 0.0000 16.1668
#
#
#
# Elastic Compliance Matrix: (Units=1/GPa)
#
#
# Indices 1 2 3 4 5 6 
#
# 1 0.032060 -0.008045 0.001260 0.000000 0.000000 0.000000
# 2 -0.008045 0.012370 -0.005963 0.000000 0.000000 0.000000
# 3 0.001260 -0.005963 0.014037 0.000000 0.000000 0.000000
# 4 0.000000 0.000000 0.000000 0.028421 0.000000 0.000000
# 5 0.000000 0.000000 0.000000 0.000000 -0.004145 0.000000
# 6 0.000000 0.000000 0.000000 0.000000 0.000000 0.061855
#
#
# Mechanical properties :
#
#
# Convention : Reuss Voigt Hill
#
# Bulk Modulus (GPa) = 30.33010 47.76540 39.04775
# Shear Modulus (GPa) = 27.61123 -26.94365 0.33379
#
# Velocity S-wave (km/s) = 3.65587 -3.61140 0.40196
# Velocity P-wave (km/s) = 5.70104 2.39405 4.37226
#
# Compressibility (1/GPa) = 0.03297055
#
# Stress axis : x y z
#
# Youngs Moduli (GPa) = 31.19170 80.84016 71.23835
#
# Poissons Ratio (x) = 0.65037 -0.08973
# Poissons Ratio (y) = 0.25094 0.42478
# Poissons Ratio (z) = -0.03929 0.48204
#
# Static dielectric constant tensor:
#      x y z
#    x 1.744370 0.000000 0.000000 
#    y 0.000000 1.800500 0.000000 
#    z 0.000000 0.000000 1.770240 
# 
# From -- ./inp_files/14489.got.cif
#   From: 2010.05.17/outbox.cif.g08.bks.cpg/sg52_8_cif.got.tgz:14489.got - 2010.06.03 12:15:38.
