data_PCOD9409532
_publ_section_title
;
Structure prediction by ZEFSAII (Michael W. Deem and Ramdas Pophale) SiO2 
 PCOD9409532
Probable space group: P N N A
;
_chemical_formula_sum "Si O2"
_cell_formula_units_Z 48
_cell_length_a 15.105937
_cell_length_b 7.741620
_cell_length_c 18.659408
_cell_angle_alpha 90.000000
_cell_angle_beta 90.000000
_cell_angle_gamma 90.000000
_cell_volume 2182.113721
_symmetry_space_group_name_H-M "P N N A"
_symmetry_group_IT_number 52
_symmetry_cell_setting 'orthorhombic'
loop_
_space_group_symop_operation_xyz
x,y,z
1/2-x,-y,z
x,1/2-y,1/2-z
1/2-x,1/2+y,1/2-z
-x,-y,-z
1/2+x,y,-z
-x,1/2+y,1/2+z
1/2+x,1/2-y,1/2+z
loop_
_atom_site_type_symbol
_atom_site_label
_atom_site_fract_x
_atom_site_fract_y
_atom_site_fract_z
Si Si1 0.750000 0.000000 0.311682
Si Si2 0.851000 0.128963 0.579316
Si Si3 0.795297 0.820333 0.826231
Si Si4 0.932910 0.737895 0.563675
Si Si5 0.628506 0.855631 0.421063
Si Si6 0.454054 0.758027 0.594445
Si Si7 0.614545 0.250000 0.250000
O O1 0.796786 0.146957 0.360583
O O2 0.674859 0.086070 0.265803
O O3 0.776193 0.191600 0.634814
O O4 0.823523 0.166147 0.497396
O O5 0.940614 0.233476 0.591130
O O6 0.889290 0.931192 0.576165
O O7 0.827791 0.750000 0.750000
O O8 0.875009 0.863922 0.879965
O O9 0.750000 0.000000 0.809801
O O10 0.923264 0.676142 0.481296
O O11 0.037899 0.745292 0.581333
O O12 0.588441 0.049938 0.414559
O O13 0.433246 0.706074 0.675395
#
# Coordination Sequence:
#
# PCOD9409532 Si02
#       7
#     4   8   8   8   8   8   4
#     4  10  20  36  56  90 124 152 204 232 308 352
#     4   9  18  35  65  88 109 153 198 247 295 355
#     4  12  26  41  57  88 120 156 199 255 310 363
#     4   9  18  39  61  87 113 155 202 246 294 354
#     4   8  17  34  63  88 115 152 197 244 288 361
#     4   8  17  34  59  88 117 149 199 237 293 354
#     4  10  20  34  52  86 122 156 188 248 286 362
#
# _framework density 21.997021
#
# number of rings (size 3 to 8) (size 9 to 14) (size 15 to 20)
#    0.000    2.667    0.000    3.500    8.167    0.000 
#    6.000    3.333    0.000    0.000    0.000    0.000 
#    0.000    0.000    0.000    0.000    0.000    0.000 
#
# Total GULP energy -267454.050838 kJ/mol
# GULP energy per Si atom -5571.959392 kJ/mol
# Density = 2.194696 g / cm^3
# Si number density = 21.997021 Si / 1000 Ang^3
#
#
#
# Elastic Constant Matrix: (Units=GPa)
#
#
# Indices 1 2 3 4 5 6 
#
# 1 73.2162 -5.6559 58.3542 0.0000 0.0000 0.0000
# 2 -5.6559 26.8675 9.5615 0.0000 0.0000 0.0000
# 3 58.3542 9.5615 176.7382 0.0000 0.0000 0.0000
# 4 0.0000 0.0000 0.0000 26.1983 0.0000 0.0000
# 5 0.0000 0.0000 0.0000 0.0000 91.2722 0.0000
# 6 0.0000 0.0000 0.0000 0.0000 0.0000 6.5941
#
#
#
# Elastic Compliance Matrix: (Units=1/GPa)
#
#
# Indices 1 2 3 4 5 6 
#
# 1 0.019607 0.006558 -0.006829 0.000000 0.000000 0.000000
# 2 0.006558 0.040144 -0.004337 0.000000 0.000000 0.000000
# 3 -0.006829 -0.004337 0.008147 0.000000 0.000000 0.000000
# 4 0.000000 0.000000 0.000000 0.038170 0.000000 0.000000
# 5 0.000000 0.000000 0.000000 0.000000 0.010956 0.000000
# 6 0.000000 0.000000 0.000000 0.000000 0.000000 0.151650
#
#
# Mechanical properties :
#
#
# Convention : Reuss Voigt Hill
#
# Bulk Modulus (GPa) = 17.04089 44.59348 30.81719
# Shear Modulus (GPa) = 16.80947 39.11706 27.96326
#
# Velocity S-wave (km/s) = 2.76736 4.22155 3.56930
# Velocity P-wave (km/s) = 4.23967 6.63917 5.57016
#
# Compressibility (1/GPa) = 0.05868238
#
# Stress axis : x y z
#
# Youngs Moduli (GPa) = 51.00180 24.91062 122.74006
#
# Poissons Ratio (x) = -0.16335 0.83813
# Poissons Ratio (y) = -0.33445 0.53231
# Poissons Ratio (z) = 0.34827 0.10803
#
# Static dielectric constant tensor:
#      x y z
#    x 1.793230 0.000000 0.000000 
#    y 0.000000 1.903200 0.000000 
#    z 0.000000 0.000000 1.826590 
# 
# From -- ./inp_files/28118.got.cif
#   From: 2010.05.17/outbox.cif.g08.bks.cpg/sg52_15_cif.got.tgz:28118.got - 2010.06.03 12:15:38.
