data_PCOD9409037
_publ_section_title
;
Structure prediction by ZEFSAII (Michael W. Deem and Ramdas Pophale) SiO2 
 PCOD9409037
Probable space group: P N N A
;
_chemical_formula_sum "Si O2"
_cell_formula_units_Z 48
_cell_length_a 15.803757
_cell_length_b 15.651001
_cell_length_c 9.499963
_cell_angle_alpha 90.000000
_cell_angle_beta 90.000000
_cell_angle_gamma 90.000000
_cell_volume 2349.764706
_symmetry_space_group_name_H-M "P N N A"
_symmetry_group_IT_number 52
_symmetry_cell_setting 'orthorhombic'
loop_
_space_group_symop_operation_xyz
x,y,z
1/2-x,-y,z
x,1/2-y,1/2-z
1/2-x,1/2+y,1/2-z
-x,-y,-z
1/2+x,y,-z
-x,1/2+y,1/2+z
1/2+x,1/2-y,1/2+z
loop_
_atom_site_type_symbol
_atom_site_label
_atom_site_fract_x
_atom_site_fract_y
_atom_site_fract_z
Si Si1 0.735039 0.097765 0.378392
Si Si2 0.456814 0.842457 0.674774
Si Si3 0.970643 0.091311 0.947999
Si Si4 0.282782 0.096348 0.939206
Si Si5 0.528605 0.242486 0.596196
Si Si6 0.225285 0.259898 0.094646
O O1 0.635106 0.114882 0.347162
O O2 0.781446 0.110319 0.228750
O O3 0.762588 0.166499 0.495097
O O4 0.750000 0.000000 0.423201
O O5 0.442379 0.750000 0.750000
O O6 0.512023 0.896787 0.782877
O O7 0.501608 0.822234 0.525568
O O8 0.874520 0.104696 0.992763
O O9 0.023051 0.164354 0.027888
O O10 0.000000 0.000000 0.000000
O O11 0.250000 0.000000 0.963145
O O12 0.228615 0.170402 0.012458
O O13 0.487763 0.250000 0.750000
O O14 0.626649 0.216599 0.615136
O O15 0.264394 0.250000 0.250000
#
# Coordination Sequence:
#
# PCOD9409037 Si02
#       6
#     8   8   8   8   8   8
#     4  10  19  35  59  87 116 152 195 236 287 348
#     4   9  18  36  60  81 113 155 190 235 292 348
#     4  11  21  35  56  82 111 147 193 241 288 344
#     4  11  22  36  57  84 114 151 196 241 289 346
#     4   9  19  37  59  82 111 148 189 232 290 352
#     4  10  21  37  58  84 117 153 189 239 296 346
#
# _framework density 20.427576999999999
#
# number of rings (size 3 to 8) (size 9 to 14) (size 15 to 20)
#    0.000    2.000    0.000    6.500    0.000    4.000 
#    0.000    2.500    0.000    0.000    0.000    0.000 
#    0.000    0.000    0.000    0.000    0.000    0.000 
#
# Total GULP energy -267874.776695 kJ/mol
# GULP energy per Si atom -5580.724514 kJ/mol
# Density = 2.038108 g / cm^3
# Si number density = 20.427577 Si / 1000 Ang^3
#
#
#
# Elastic Constant Matrix: (Units=GPa)
#
#
# Indices 1 2 3 4 5 6 
#
# 1 56.4573 2.9507 26.5614 0.0000 0.0000 0.0000
# 2 2.9507 110.0700 82.8308 0.0000 0.0000 0.0000
# 3 26.5614 82.8308 187.9053 0.0000 0.0000 0.0000
# 4 0.0000 0.0000 0.0000 41.6436 0.0000 0.0000
# 5 0.0000 0.0000 0.0000 0.0000 15.3114 0.0000
# 6 0.0000 0.0000 0.0000 0.0000 0.0000 1.3876
#
#
#
# Elastic Compliance Matrix: (Units=1/GPa)
#
#
# Indices 1 2 3 4 5 6 
#
# 1 0.019357 0.002305 -0.003752 0.000000 0.000000 0.000000
# 2 0.002305 0.013869 -0.006440 0.000000 0.000000 0.000000
# 3 -0.003752 -0.006440 0.008691 0.000000 0.000000 0.000000
# 4 0.000000 0.000000 0.000000 0.024013 0.000000 0.000000
# 5 0.000000 0.000000 0.000000 0.000000 0.065311 0.000000
# 6 0.000000 0.000000 0.000000 0.000000 0.000000 0.720657
#
#
# Mechanical properties :
#
#
# Convention : Reuss Voigt Hill
#
# Bulk Modulus (GPa) = 38.25051 64.34647 51.29849
# Shear Modulus (GPa) = 5.70524 27.80783 16.75653
#
# Velocity S-wave (km/s) = 1.67301 3.69357 2.86718
# Velocity P-wave (km/s) = 4.74316 7.05394 6.01064
#
# Compressibility (1/GPa) = 0.02614344
#
# Stress axis : x y z
#
# Youngs Moduli (GPa) = 51.65998 72.10192 115.06375
#
# Poissons Ratio (x) = -0.16617 0.43174
# Poissons Ratio (y) = -0.11906 0.74095
# Poissons Ratio (z) = 0.19384 0.46430
#
# Static dielectric constant tensor:
#      x y z
#    x 1.767610 0.000000 0.000000 
#    y 0.000000 1.721390 0.000000 
#    z 0.000000 0.000000 1.777630 
# 
# From -- ./inp_files/12046.got.cif
#   From: 2010.05.17/outbox.cif.g08.bks.cpg/sg52_7_cif.got.tgz:12046.got - 2010.06.03 12:15:38.
