data_PCOD9409578
_publ_section_title
;
Structure prediction by ZEFSAII (Michael W. Deem and Ramdas Pophale) SiO2 
 PCOD9409578
Probable space group: P N N A
;
_chemical_formula_sum "Si O2"
_cell_formula_units_Z 56
_cell_length_a 4.979817
_cell_length_b 29.141234
_cell_length_c 16.297476
_cell_angle_alpha 90.000000
_cell_angle_beta 90.000000
_cell_angle_gamma 90.000000
_cell_volume 2365.057325
_symmetry_space_group_name_H-M "P N N A"
_symmetry_group_IT_number 52
_symmetry_cell_setting 'orthorhombic'
loop_
_space_group_symop_operation_xyz
x,y,z
1/2-x,-y,z
x,1/2-y,1/2-z
1/2-x,1/2+y,1/2-z
-x,-y,-z
1/2+x,y,-z
-x,1/2+y,1/2+z
1/2+x,1/2-y,1/2+z
loop_
_atom_site_type_symbol
_atom_site_label
_atom_site_fract_x
_atom_site_fract_y
_atom_site_fract_z
Si Si1 0.192477 0.565795 0.785606
Si Si2 0.100453 0.750000 0.750000
Si Si3 0.750000 0.500000 0.061562
Si Si4 0.465247 0.663699 0.788830
Si Si5 0.184158 0.950853 0.172569
Si Si6 0.842623 0.148971 0.878521
Si Si7 0.132631 0.791501 0.914353
Si Si8 0.374762 0.695223 0.959498
O O1 0.223089 0.542255 0.874234
O O2 0.286375 0.618298 0.790623
O O3 0.405536 0.545205 0.721080
O O4 0.904065 0.558814 0.744151
O O5 0.288053 0.706696 0.763614
O O6 0.986852 0.761916 0.839579
O O7 0.500000 0.500000 0.000000
O O8 0.693972 0.657416 0.720364
O O9 0.533121 0.677808 0.880626
O O10 0.171990 0.906013 0.114632
O O11 0.250000 0.000000 0.133206
O O12 0.134461 0.171467 0.891970
O O13 0.621293 0.175032 0.932794
O O14 0.311398 0.750463 0.956827
O O15 0.571612 0.678644 0.031247
#
# Coordination Sequence:
#
# PCOD9409578 Si02
#       8
#     8   4   4   8   8   8   8   8
#     4  11  22  37  53  76 105 144 183 236 290 336
#     4   8  16  32  52  78 102 136 170 228 288 338
#     4  12  24  38  54  70  96 146 204 248 272 312
#     4   9  21  36  57  81 111 144 192 236 290 347
#     4  11  19  34  56  80 111 137 168 218 294 356
#     4  10  20  34  57  84 108 143 180 229 289 340
#     4  10  20  35  53  80 112 140 185 228 274 344
#     4  11  24  39  57  80 116 158 194 235 281 329
#
# _framework density 23.678073000000001
#
# number of rings (size 3 to 8) (size 9 to 14) (size 15 to 20)
#    0.000    1.714    1.429    4.286    0.000   10.286 
#    0.000    0.000    0.000    0.000    0.000    0.000 
#    0.000   11.429    0.000    0.000    0.000    0.000 
#
# Total GULP energy -312084.835971 kJ/mol
# GULP energy per Si atom -5572.943499 kJ/mol
# Density = 2.362418 g / cm^3
# Si number density = 23.678073 Si / 1000 Ang^3
#
#
#
# Elastic Constant Matrix: (Units=GPa)
#
#
# Indices 1 2 3 4 5 6 
#
# 1 95.8674 22.7763 2.8181 0.0000 0.0000 0.0000
# 2 22.7763 125.4536 9.1539 0.0000 0.0000 0.0000
# 3 2.8181 9.1539 62.0116 0.0000 0.0000 0.0000
# 4 0.0000 0.0000 0.0000 16.3974 0.0000 0.0000
# 5 0.0000 0.0000 0.0000 0.0000 -50.5274 0.0000
# 6 0.0000 0.0000 0.0000 0.0000 0.0000 22.0151
#
#
#
# Elastic Compliance Matrix: (Units=1/GPa)
#
#
# Indices 1 2 3 4 5 6 
#
# 1 0.010904 -0.001965 -0.000206 0.000000 0.000000 0.000000
# 2 -0.001965 0.008412 -0.001152 0.000000 0.000000 0.000000
# 3 -0.000206 -0.001152 0.016305 0.000000 0.000000 0.000000
# 4 0.000000 0.000000 0.000000 0.060985 0.000000 0.000000
# 5 0.000000 0.000000 0.000000 0.000000 -0.019791 0.000000
# 6 0.000000 0.000000 0.000000 0.000000 0.000000 0.045423
#
#
# Mechanical properties :
#
#
# Convention : Reuss Voigt Hill
#
# Bulk Modulus (GPa) = 34.51130 39.20327 36.85728
# Shear Modulus (GPa) = 36.09008 14.14931 25.11970
#
# Velocity S-wave (km/s) = 3.90833 2.44718 3.26066
# Velocity P-wave (km/s) = 5.91385 4.95758 5.45670
#
# Compressibility (1/GPa) = 0.02897601
#
# Stress axis : x y z
#
# Youngs Moduli (GPa) = 91.71050 118.88001 61.32914
#
# Poissons Ratio (x) = 0.23355 0.01260
# Poissons Ratio (y) = 0.18018 0.07068
# Poissons Ratio (z) = 0.01885 0.13700
#
# Static dielectric constant tensor:
#      x y z
#    x 4.688360 0.000000 0.000000 
#    y 0.000000 1.930500 0.000000 
#    z 0.000000 0.000000 2.158470 
# 
# From -- ./inp_files/35313.got.cif
#   From: 2010.05.17/outbox.cif.g08.bks.cpg/sg52_18_cif.got.tgz:35313.got - 2010.06.03 12:15:38.
