data_PCOD9409750
_publ_section_title
;
Structure prediction by ZEFSAII (Michael W. Deem and Ramdas Pophale) SiO2 
 PCOD9409750
Probable space group: P N N A
;
_chemical_formula_sum "Si O2"
_cell_formula_units_Z 32
_cell_length_a 5.147496
_cell_length_b 7.315266
_cell_length_c 36.959385
_cell_angle_alpha 90.000000
_cell_angle_beta 90.000000
_cell_angle_gamma 90.000000
_cell_volume 1391.716821
_symmetry_space_group_name_H-M "P N N A"
_symmetry_group_IT_number 52
_symmetry_cell_setting 'orthorhombic'
loop_
_space_group_symop_operation_xyz
x,y,z
1/2-x,-y,z
x,1/2-y,1/2-z
1/2-x,1/2+y,1/2-z
-x,-y,-z
1/2+x,y,-z
-x,1/2+y,1/2+z
1/2+x,1/2-y,1/2+z
loop_
_atom_site_type_symbol
_atom_site_label
_atom_site_fract_x
_atom_site_fract_y
_atom_site_fract_z
Si Si1 0.007451 0.112054 0.218925
Si Si2 0.256198 0.776917 0.521540
Si Si3 0.242777 0.279628 0.146080
Si Si4 0.754845 0.722596 0.103427
O O1 0.919331 0.250000 0.250000
O O2 0.138833 0.204022 0.183902
O O3 0.250000 0.000000 0.235346
O O4 0.750000 0.000000 0.208697
O O5 0.479299 0.719242 0.493906
O O6 0.310435 0.718337 0.562551
O O7 0.250000 0.000000 0.522095
O O8 0.250000 0.500000 0.148544
O O9 0.525160 0.220195 0.132049
O O10 0.030119 0.223132 0.116375
O O11 0.750000 0.500000 0.103390
#
# Coordination Sequence:
#
# PCOD9409750 Si02
#       4
#     8   8   8   8
#     4  12  26  44  66  92 122 155 196 242 296 356
#     4   9  15  23  38  65 106 150 188 230 285 343
#     4  10  20  36  58  83 116 154 194 239 292 350
#     4   9  17  29  48  76 111 153 194 236 290 347
#
# _framework density 22.993182999999998
#
# number of rings (size 3 to 8) (size 9 to 14) (size 15 to 20)
#    0.000    2.000    0.000    4.500    0.000    9.000 
#    0.000    0.000    0.000    0.000    0.000    0.000 
#    0.000   70.000    0.000    0.000    0.000    0.000 
#
# Total GULP energy -178976.250169 kJ/mol
# GULP energy per Si atom -5593.007818 kJ/mol
# Density = 2.294085 g / cm^3
# Si number density = 22.993183 Si / 1000 Ang^3
#
#
#
# Elastic Constant Matrix: (Units=GPa)
#
#
# Indices 1 2 3 4 5 6 
#
# 1 151.8891 20.0904 39.8431 0.0000 0.0000 0.0000
# 2 20.0904 71.0167 19.1867 0.0000 0.0000 0.0000
# 3 39.8431 19.1867 142.3766 0.0000 0.0000 0.0000
# 4 0.0000 0.0000 0.0000 -4.0494 0.0000 0.0000
# 5 0.0000 0.0000 0.0000 0.0000 34.1306 0.0000
# 6 0.0000 0.0000 0.0000 0.0000 0.0000 12.0060
#
#
#
# Elastic Compliance Matrix: (Units=1/GPa)
#
#
# Indices 1 2 3 4 5 6 
#
# 1 0.007269 -0.001564 -0.001823 0.000000 0.000000 0.000000
# 2 -0.001564 0.014950 -0.001577 0.000000 0.000000 0.000000
# 3 -0.001823 -0.001577 0.007746 0.000000 0.000000 0.000000
# 4 0.000000 0.000000 0.000000 -0.246948 0.000000 0.000000
# 5 0.000000 0.000000 0.000000 0.000000 0.029299 0.000000
# 6 0.000000 0.000000 0.000000 0.000000 0.000000 0.083292
#
#
# Mechanical properties :
#
#
# Convention : Reuss Voigt Hill
#
# Bulk Modulus (GPa) = 49.90857 58.16919 54.03888
# Shear Modulus (GPa) = -56.95705 27.49492 -14.73107
#
# Velocity S-wave (km/s) = -4.98247 3.46176 -2.53389
# Velocity P-wave (km/s) = 3.36855 6.42898 3.87199
#
# Compressibility (1/GPa) = 0.02003664
#
# Stress axis : x y z
#
# Youngs Moduli (GPa) = 137.57237 66.89127 129.09186
#
# Poissons Ratio (x) = 0.10460 0.23539
# Poissons Ratio (y) = 0.21512 0.20358
# Poissons Ratio (z) = 0.25085 0.10549
#
# Static dielectric constant tensor:
#      x y z
#    x 1.805400 0.000000 0.000000 
#    y 0.000000 1.949840 0.000000 
#    z 0.000000 0.000000 1.793420 
# 
# From -- ./inp_files/43460.got.cif
#   From: 2010.05.17/outbox.cif.g08.bks.cpg/sg52_22_cif.got.tgz:43460.got - 2010.06.03 12:15:38.
