data_PCOD9409823
_publ_section_title
;
Structure prediction by ZEFSAII (Michael W. Deem and Ramdas Pophale) SiO2 
 PCOD9409823
Probable space group: P N N A
;
_chemical_formula_sum "Si O2"
_cell_formula_units_Z 40
_cell_length_a 10.016398
_cell_length_b 15.140794
_cell_length_c 10.480149
_cell_angle_alpha 90.000000
_cell_angle_beta 90.000000
_cell_angle_gamma 90.000000
_cell_volume 1589.379769
_symmetry_space_group_name_H-M "P N N A"
_symmetry_group_IT_number 52
_symmetry_cell_setting 'orthorhombic'
loop_
_space_group_symop_operation_xyz
x,y,z
1/2-x,-y,z
x,1/2-y,1/2-z
1/2-x,1/2+y,1/2-z
-x,-y,-z
1/2+x,y,-z
-x,1/2+y,1/2+z
1/2+x,1/2-y,1/2+z
loop_
_atom_site_type_symbol
_atom_site_label
_atom_site_fract_x
_atom_site_fract_y
_atom_site_fract_z
Si Si1 0.681107 0.762216 0.517462
Si Si2 0.492206 0.573050 0.321258
Si Si3 0.861146 0.069011 0.931797
Si Si4 0.750000 0.500000 0.203250
Si Si5 0.580948 0.324304 0.133858
Si Si6 0.521448 0.750000 0.250000
O O1 0.688647 0.666960 0.584163
O O2 0.830859 0.789163 0.484591
O O3 0.574932 0.822600 0.593105
O O4 0.613760 0.751599 0.376194
O O5 0.512883 0.583638 0.473526
O O6 0.411362 0.483225 0.308291
O O7 0.641668 0.560051 0.273353
O O8 0.439277 0.660018 0.257018
O O9 0.750000 0.000000 0.983209
O O10 0.650845 0.421169 0.151016
O O11 0.593430 0.250000 0.250000
#
# Coordination Sequence:
#
# PCOD9409823 Si02
#       6
#     8   8   8   4   8   4
#     4  11  24  44  71 103 147 185 242 301 366 435
#     4  10  20  36  62  96 127 179 230 289 353 426
#     4  10  21  34  64 102 136 172 237 304 359 422
#     4  12  22  42  72  88 140 190 244 278 368 448
#     4  12  26  48  73 106 143 194 243 305 370 442
#     4  10  20  42  64  94 136 182 222 296 364 414
#
# _framework density 25.16705
#
# number of rings (size 3 to 8) (size 9 to 14) (size 15 to 20)
#    0.000    1.200    4.000    2.400    8.400    0.800 
#    1.800    2.000    0.000    0.000    0.000    0.000 
#    0.000    0.000    0.000    0.000    0.000    0.000 
#
# Total GULP energy -222857.514114 kJ/mol
# GULP energy per Si atom -5571.437853 kJ/mol
# Density = 2.510977 g / cm^3
# Si number density = 25.167050 Si / 1000 Ang^3
#
#
#
# Elastic Constant Matrix: (Units=GPa)
#
#
# Indices 1 2 3 4 5 6 
#
# 1 109.7578 22.2824 32.1202 0.0000 0.0000 0.0000
# 2 22.2824 158.9094 39.6773 0.0000 0.0000 0.0000
# 3 32.1202 39.6773 57.6900 0.0000 0.0000 0.0000
# 4 0.0000 0.0000 0.0000 42.3170 0.0000 0.0000
# 5 0.0000 0.0000 0.0000 0.0000 44.0765 0.0000
# 6 0.0000 0.0000 0.0000 0.0000 0.0000 32.0323
#
#
#
# Elastic Compliance Matrix: (Units=1/GPa)
#
#
# Indices 1 2 3 4 5 6 
#
# 1 0.010884 -0.000016 -0.006049 0.000000 0.000000 0.000000
# 2 -0.000016 0.007598 -0.005217 0.000000 0.000000 0.000000
# 3 -0.006049 -0.005217 0.024290 0.000000 0.000000 0.000000
# 4 0.000000 0.000000 0.000000 0.023631 0.000000 0.000000
# 5 0.000000 0.000000 0.000000 0.000000 0.022688 0.000000
# 6 0.000000 0.000000 0.000000 0.000000 0.000000 0.031218
#
#
# Mechanical properties :
#
#
# Convention : Reuss Voigt Hill
#
# Bulk Modulus (GPa) = 49.48389 57.16855 53.32622
# Shear Modulus (GPa) = 33.42043 39.17032 36.29538
#
# Velocity S-wave (km/s) = 3.64805 3.94942 3.80172
# Velocity P-wave (km/s) = 6.11958 6.60016 6.36441
#
# Compressibility (1/GPa) = 0.02020860
#
# Stress axis : x y z
#
# Youngs Moduli (GPa) = 91.87388 131.62025 41.16938
#
# Poissons Ratio (x) = 0.00208 0.24905
# Poissons Ratio (y) = 0.00145 0.21476
# Poissons Ratio (z) = 0.55577 0.68661
#
# Static dielectric constant tensor:
#      x y z
#    x 2.041960 0.000000 0.000000 
#    y 0.000000 2.263000 0.000000 
#    z 0.000000 0.000000 2.078420 
# 
# From -- ./inp_files/18054.got.cif
#   From: 2010.05.17/outbox.cif.g08.bks.cpg/sg52_10_cif.got.tgz:18054.got - 2010.06.03 12:15:38.
