data_PCOD9409002
_publ_section_title
;
Structure prediction by ZEFSAII (Michael W. Deem and Ramdas Pophale) SiO2 
 PCOD9409002
Probable space group: P N N A
;
_chemical_formula_sum "Si O2"
_cell_formula_units_Z 48
_cell_length_a 8.645714
_cell_length_b 14.527188
_cell_length_c 17.053815
_cell_angle_alpha 90.000000
_cell_angle_beta 90.000000
_cell_angle_gamma 90.000000
_cell_volume 2141.923567
_symmetry_space_group_name_H-M "P N N A"
_symmetry_group_IT_number 52
_symmetry_cell_setting 'orthorhombic'
loop_
_space_group_symop_operation_xyz
x,y,z
1/2-x,-y,z
x,1/2-y,1/2-z
1/2-x,1/2+y,1/2-z
-x,-y,-z
1/2+x,y,-z
-x,1/2+y,1/2+z
1/2+x,1/2-y,1/2+z
loop_
_atom_site_type_symbol
_atom_site_label
_atom_site_fract_x
_atom_site_fract_y
_atom_site_fract_z
Si Si1 0.927674 0.473333 0.789451
Si Si2 0.547520 0.252093 0.939097
Si Si3 0.410681 0.053718 0.567758
Si Si4 0.022610 0.588044 0.386494
Si Si5 0.341302 0.280002 0.162938
Si Si6 0.779533 0.123647 0.034309
O O1 0.750000 0.500000 0.799144
O O2 0.954039 0.464349 0.695976
O O3 0.939407 0.372789 0.830024
O O4 0.027805 0.540401 0.843239
O O5 0.438122 0.339740 0.956449
O O6 0.676497 0.288175 0.878843
O O7 0.424248 0.170639 0.920460
O O8 0.665689 0.204113 0.000214
O O9 0.250000 0.000000 0.567221
O O10 0.500000 0.000000 0.500000
O O11 0.058955 0.695817 0.370233
O O12 0.139306 0.572735 0.459820
O O13 0.848047 0.572885 0.413686
O O14 0.300653 0.250000 0.250000
#
# Coordination Sequence:
#
# PCOD9409002 Si02
#       6
#     8   8   8   8   8   8
#     4  11  22  41  60  86 127 167 203 254 313 378
#     4  10  19  35  56  82 115 148 199 244 303 355
#     4  12  26  37  56  84 123 162 201 242 308 379
#     4   9  20  38  64  90 119 158 207 258 310 363
#     4   9  19  36  56  83 114 159 198 241 302 360
#     4   9  19  36  62  89 114 154 206 261 300 358
#
# _framework density 22.409765
#
# number of rings (size 3 to 8) (size 9 to 14) (size 15 to 20)
#    0.000    2.000    1.667    1.500    9.333    0.000 
#    3.000    2.500    0.000    0.000    0.000    0.000 
#    0.000    0.000    0.000    0.000    0.000    0.000 
#
# Total GULP energy -267526.523687 kJ/mol
# GULP energy per Si atom -5573.469243 kJ/mol
# Density = 2.235876 g / cm^3
# Si number density = 22.409765 Si / 1000 Ang^3
#
#
#
# Elastic Constant Matrix: (Units=GPa)
#
#
# Indices 1 2 3 4 5 6 
#
# 1 143.7032 21.8185 44.7266 0.0000 0.0000 0.0000
# 2 21.8185 60.2187 9.4053 0.0000 0.0000 0.0000
# 3 44.7266 9.4053 71.2838 0.0000 0.0000 0.0000
# 4 0.0000 0.0000 0.0000 21.3596 0.0000 0.0000
# 5 0.0000 0.0000 0.0000 0.0000 8.4014 0.0000
# 6 0.0000 0.0000 0.0000 0.0000 0.0000 30.2273
#
#
#
# Elastic Compliance Matrix: (Units=1/GPa)
#
#
# Indices 1 2 3 4 5 6 
#
# 1 0.008981 -0.002424 -0.005315 0.000000 0.000000 0.000000
# 2 -0.002424 0.017610 -0.000803 0.000000 0.000000 0.000000
# 3 -0.005315 -0.000803 0.017469 0.000000 0.000000 0.000000
# 4 0.000000 0.000000 0.000000 0.046817 0.000000 0.000000
# 5 0.000000 0.000000 0.000000 0.000000 0.119028 0.000000
# 6 0.000000 0.000000 0.000000 0.000000 0.000000 0.033083
#
#
# Mechanical properties :
#
#
# Convention : Reuss Voigt Hill
#
# Bulk Modulus (GPa) = 37.06914 47.45627 42.26271
# Shear Modulus (GPa) = 18.58289 25.28133 21.93211
#
# Velocity S-wave (km/s) = 2.88276 3.36242 3.13179
# Velocity P-wave (km/s) = 5.25907 6.02471 5.65486
#
# Compressibility (1/GPa) = 0.02697661
#
# Stress axis : x y z
#
# Youngs Moduli (GPa) = 111.34400 56.78682 57.24288
#
# Poissons Ratio (x) = 0.13765 0.30427
# Poissons Ratio (y) = 0.26989 0.04594
# Poissons Ratio (z) = 0.59183 0.04558
#
# Static dielectric constant tensor:
#      x y z
#    x 1.770130 0.000000 0.000000 
#    y 0.000000 2.075560 0.000000 
#    z 0.000000 0.000000 1.910420 
# 
# From -- ./inp_files/31264.got.cif
#   From: 2010.05.17/outbox.cif.g08.bks.cpg/sg52_16_cif.got.tgz:31264.got - 2010.06.03 12:15:38.
