data_PCOD9409474
_publ_section_title
;
Structure prediction by ZEFSAII (Michael W. Deem and Ramdas Pophale) SiO2 
 PCOD9409474
Probable space group: P N N A
;
_chemical_formula_sum "Si O2"
_cell_formula_units_Z 40
_cell_length_a 28.427268
_cell_length_b 7.174050
_cell_length_c 8.394283
_cell_angle_alpha 90.000000
_cell_angle_beta 90.000000
_cell_angle_gamma 90.000000
_cell_volume 1711.918676
_symmetry_space_group_name_H-M "P N N A"
_symmetry_group_IT_number 52
_symmetry_cell_setting 'orthorhombic'
loop_
_space_group_symop_operation_xyz
x,y,z
1/2-x,-y,z
x,1/2-y,1/2-z
1/2-x,1/2+y,1/2-z
-x,-y,-z
1/2+x,y,-z
-x,1/2+y,1/2+z
1/2+x,1/2-y,1/2+z
loop_
_atom_site_type_symbol
_atom_site_label
_atom_site_fract_x
_atom_site_fract_y
_atom_site_fract_z
Si Si1 0.649661 0.220029 0.436149
Si Si2 0.050714 0.716713 0.943024
Si Si3 0.751413 0.779648 0.563384
Si Si4 0.347878 0.278517 0.939790
Si Si5 0.550589 0.216393 0.560200
O O1 0.646572 0.250000 0.250000
O O2 0.700149 0.295610 0.490725
O O3 0.600716 0.294911 0.505202
O O4 0.651055 0.999715 0.473732
O O5 0.051272 0.750000 0.750000
O O6 0.101317 0.792354 0.000595
O O7 0.000083 0.790339 0.002528
O O8 0.050892 0.498660 0.996649
O O9 0.754705 0.750000 0.750000
O O10 0.700993 0.703825 0.507765
O O11 0.750000 0.000000 0.524508
O O12 0.346279 0.250000 0.750000
O O13 0.549408 0.250000 0.750000
#
# Coordination Sequence:
#
# PCOD9409474 Si02
#       5
#     8   8   8   8   8
#     4  10  20  33  51  76 104 134 169 211 259 312
#     4   8  15  29  51  73  99 137 174 210 261 318
#     4  10  21  35  51  73 100 130 167 212 259 305
#     4   9  18  34  53  72  98 134 171 205 251 312
#     4   9  16  29  51  75 100 134 174 216 261 309
#
# _framework density 23.365594000000002
#
# number of rings (size 3 to 8) (size 9 to 14) (size 15 to 20)
#    0.000    2.800    0.000    1.200    0.000    1.600 
#    0.000    1.000    0.000   40.800    0.000    0.000 
#    0.000    0.000    0.000    0.000    0.000    0.000 
#
# Total GULP energy -222879.901917 kJ/mol
# GULP energy per Si atom -5571.997548 kJ/mol
# Density = 2.331241 g / cm^3
# Si number density = 23.365594 Si / 1000 Ang^3
#
#
#
# Elastic Constant Matrix: (Units=GPa)
#
#
# Indices 1 2 3 4 5 6 
#
# 1 305.4495 12.5697 54.7967 0.0000 0.0000 0.0000
# 2 12.5697 139.3663 -3.4252 0.0000 0.0000 0.0000
# 3 54.7967 -3.4252 67.0740 0.0000 0.0000 0.0000
# 4 0.0000 0.0000 0.0000 26.5853 0.0000 0.0000
# 5 0.0000 0.0000 0.0000 0.0000 -30.8301 0.0000
# 6 0.0000 0.0000 0.0000 0.0000 0.0000 120.5409
#
#
#
# Elastic Compliance Matrix: (Units=1/GPa)
#
#
# Indices 1 2 3 4 5 6 
#
# 1 0.003861 -0.000426 -0.003176 0.000000 0.000000 0.000000
# 2 -0.000426 0.007231 0.000718 0.000000 0.000000 0.000000
# 3 -0.003176 0.000718 0.017540 0.000000 0.000000 0.000000
# 4 0.000000 0.000000 0.000000 0.037615 0.000000 0.000000
# 5 0.000000 0.000000 0.000000 0.000000 -0.032436 0.000000
# 6 0.000000 0.000000 0.000000 0.000000 0.000000 0.008296
#
#
# Mechanical properties :
#
#
# Convention : Reuss Voigt Hill
#
# Bulk Modulus (GPa) = 43.73861 71.08579 57.41220
# Shear Modulus (GPa) = 90.09202 53.12248 71.60725
#
# Velocity S-wave (km/s) = 6.21621 4.77333 5.54193
# Velocity P-wave (km/s) = 8.38341 7.80185 8.09785
#
# Compressibility (1/GPa) = 0.02286309
#
# Stress axis : x y z
#
# Youngs Moduli (GPa) = 258.98603 138.28544 57.01122
#
# Poissons Ratio (x) = 0.05895 0.18108
# Poissons Ratio (y) = 0.11041 -0.04091
# Poissons Ratio (z) = 0.82260 -0.09923
#
# Static dielectric constant tensor:
#      x y z
#    x 1.965060 0.000000 0.000000 
#    y 0.000000 1.903590 0.000000 
#    z 0.000000 0.000000 0.875310 
# 
# From -- ./inp_files/15353.got.cif
#   From: 2010.05.17/outbox.cif.g08.bks.cpg/sg52_8_cif.got.tgz:15353.got - 2010.06.03 12:15:38.
