data_PCOD9409840
_publ_section_title
;
Structure prediction by ZEFSAII (Michael W. Deem and Ramdas Pophale) SiO2 
 PCOD9409840
Probable space group: P N N A
;
_chemical_formula_sum "Si O2"
_cell_formula_units_Z 40
_cell_length_a 8.886733
_cell_length_b 20.264149
_cell_length_c 11.136461
_cell_angle_alpha 90.000000
_cell_angle_beta 90.000000
_cell_angle_gamma 90.000000
_cell_volume 2005.477079
_symmetry_space_group_name_H-M "P N N A"
_symmetry_group_IT_number 52
_symmetry_cell_setting 'orthorhombic'
loop_
_space_group_symop_operation_xyz
x,y,z
1/2-x,-y,z
x,1/2-y,1/2-z
1/2-x,1/2+y,1/2-z
-x,-y,-z
1/2+x,y,-z
-x,1/2+y,1/2+z
1/2+x,1/2-y,1/2+z
loop_
_atom_site_type_symbol
_atom_site_label
_atom_site_fract_x
_atom_site_fract_y
_atom_site_fract_z
Si Si1 0.765670 0.078749 0.347200
Si Si2 0.668818 0.071490 0.089710
Si Si3 0.965418 0.852534 0.529458
Si Si4 0.182200 0.927952 0.148201
Si Si5 0.306270 0.310563 0.165107
O O1 0.728326 0.103959 0.212784
O O2 0.646599 0.106861 0.442855
O O3 0.930485 0.100264 0.389845
O O4 0.750000 0.000000 0.345480
O O5 0.489861 0.064437 0.103470
O O6 0.750000 0.000000 0.085266
O O7 0.719571 0.101359 0.962467
O O8 0.860779 0.807510 0.611586
O O9 0.077111 0.812894 0.443812
O O10 0.183208 0.878875 0.260478
O O11 0.250000 0.000000 0.179572
O O12 0.340595 0.250000 0.250000
#
# Coordination Sequence:
#
# PCOD9409840 Si02
#       5
#     8   8   8   8   8
#     4  10  20  36  64  96 133 165 205 259 318 370
#     4  10  21  36  59  98 130 165 213 260 316 368
#     4  10  23  43  61  93 127 163 217 252 314 391
#     4  11  23  39  65  95 130 167 215 266 313 372
#     4  11  26  46  66  92 128 167 213 259 320 378
#
# _framework density 19.945378999999999
#
# number of rings (size 3 to 8) (size 9 to 14) (size 15 to 20)
#    0.000    1.600    2.000    3.000    8.400    4.800 
#    0.000    2.000    0.000    0.000    0.000    0.000 
#    0.000    0.000    0.000    0.000    0.000    0.000 
#
# Total GULP energy -223420.694847 kJ/mol
# GULP energy per Si atom -5585.517371 kJ/mol
# Density = 1.989998 g / cm^3
# Si number density = 19.945379 Si / 1000 Ang^3
#
#
#
# Elastic Constant Matrix: (Units=GPa)
#
#
# Indices 1 2 3 4 5 6 
#
# 1 119.0280 9.5585 20.3667 0.0000 0.0000 0.0000
# 2 9.5585 37.4702 7.6378 0.0000 0.0000 0.0000
# 3 20.3667 7.6378 64.5724 0.0000 0.0000 0.0000
# 4 0.0000 0.0000 0.0000 8.3251 0.0000 0.0000
# 5 0.0000 0.0000 0.0000 0.0000 46.3237 0.0000
# 6 0.0000 0.0000 0.0000 0.0000 0.0000 7.9195
#
#
#
# Elastic Compliance Matrix: (Units=1/GPa)
#
#
# Indices 1 2 3 4 5 6 
#
# 1 0.008992 -0.001758 -0.002628 0.000000 0.000000 0.000000
# 2 -0.001758 0.027691 -0.002721 0.000000 0.000000 0.000000
# 3 -0.002628 -0.002721 0.016637 0.000000 0.000000 0.000000
# 4 0.000000 0.000000 0.000000 0.120119 0.000000 0.000000
# 5 0.000000 0.000000 0.000000 0.000000 0.021587 0.000000
# 6 0.000000 0.000000 0.000000 0.000000 0.000000 0.126270
#
#
# Mechanical properties :
#
#
# Convention : Reuss Voigt Hill
#
# Bulk Modulus (GPa) = 25.57149 32.91073 29.24111
# Shear Modulus (GPa) = 14.34525 24.74750 19.54637
#
# Velocity S-wave (km/s) = 2.68475 3.52627 3.13388
# Velocity P-wave (km/s) = 4.73910 5.75462 5.27137
#
# Compressibility (1/GPa) = 0.03910605
#
# Stress axis : x y z
#
# Youngs Moduli (GPa) = 111.20634 36.11285 60.10586
#
# Poissons Ratio (x) = 0.06349 0.15798
# Poissons Ratio (y) = 0.19552 0.16354
# Poissons Ratio (z) = 0.29228 0.09826
#
# Static dielectric constant tensor:
#      x y z
#    x 1.694420 0.000000 0.000000 
#    y 0.000000 1.679670 0.000000 
#    z 0.000000 0.000000 1.748240 
# 
# From -- ./inp_files/16624.got.cif
#   From: 2010.05.17/outbox.cif.g08.bks.cpg/sg52_9_cif.got.tgz:16624.got - 2010.06.03 12:15:38.
