data_PCOD9409371
_publ_section_title
;
Structure prediction by ZEFSAII (Michael W. Deem and Ramdas Pophale) SiO2 
 PCOD9409371
Probable space group: P N N A
;
_chemical_formula_sum "Si O2"
_cell_formula_units_Z 52
_cell_length_a 29.736916
_cell_length_b 11.107127
_cell_length_c 7.690960
_cell_angle_alpha 90.000000
_cell_angle_beta 90.000000
_cell_angle_gamma 90.000000
_cell_volume 2540.260273
_symmetry_space_group_name_H-M "P N N A"
_symmetry_group_IT_number 52
_symmetry_cell_setting 'orthorhombic'
loop_
_space_group_symop_operation_xyz
x,y,z
1/2-x,-y,z
x,1/2-y,1/2-z
1/2-x,1/2+y,1/2-z
-x,-y,-z
1/2+x,y,-z
-x,1/2+y,1/2+z
1/2+x,1/2-y,1/2+z
loop_
_atom_site_type_symbol
_atom_site_label
_atom_site_fract_x
_atom_site_fract_y
_atom_site_fract_z
Si Si1 0.483143 0.428019 0.833541
Si Si2 0.794521 0.750000 0.250000
Si Si3 0.162612 0.867608 0.621760
Si Si4 0.443381 0.750000 0.250000
Si Si5 0.404158 0.490937 0.620250
Si Si6 0.119355 0.239978 0.947016
Si Si7 0.417737 0.261090 0.055547
Si Si8 0.250000 0.500000 0.825410
O O1 0.522415 0.362215 0.725568
O O2 0.451940 0.510166 0.712734
O O3 0.500000 0.500000 0.000000
O O4 0.450620 0.327448 0.920905
O O5 0.828623 0.729431 0.086301
O O6 0.768937 0.621575 0.272578
O O7 0.169608 0.750000 0.750000
O O8 0.132775 0.961427 0.732779
O O9 0.130674 0.826519 0.464333
O O10 0.208353 0.936541 0.576101
O O11 0.411566 0.796122 0.406688
O O12 0.385689 0.599725 0.509609
O O13 0.410177 0.372413 0.510207
O O14 0.100254 0.250000 0.750000
O O15 0.435154 0.250000 0.250000
#
# Coordination Sequence:
#
# PCOD9409371 Si02
#       8
#     8   4   8   4   8   8   8   4
#     4  11  23  38  59  91 121 170 230 271 321 387
#     4  10  24  40  69 104 130 170 225 264 354 406
#     4   9  18  34  64  89 119 158 206 266 323 391
#     4  12  24  42  63  90 138 174 221 282 324 386
#     4  10  19  41  59  85 127 161 216 268 321 392
#     4  10  23  42  62  94 129 177 217 262 346 402
#     4  10  22  39  59  91 130 167 214 274 335 391
#     4  12  18  38  72 100 124 164 224 276 318 430
#
# _framework density 20.470341999999999
#
# number of rings (size 3 to 8) (size 9 to 14) (size 15 to 20)
#    0.462    1.231    3.846    1.846    2.154    2.462 
#    0.000    0.000    1.692    4.615    0.000    0.000 
#    0.000    0.000    0.000    0.000    0.000    0.000 
#
# Total GULP energy -289474.400775 kJ/mol
# GULP energy per Si atom -5566.815400 kJ/mol
# Density = 2.042375 g / cm^3
# Si number density = 20.470342 Si / 1000 Ang^3
#
#
#
# Elastic Constant Matrix: (Units=GPa)
#
#
# Indices 1 2 3 4 5 6 
#
# 1 95.6495 24.9419 16.1370 0.0000 0.0000 0.0000
# 2 24.9419 78.9688 -14.0390 0.0000 0.0000 0.0000
# 3 16.1370 -14.0390 46.9218 0.0000 0.0000 0.0000
# 4 0.0000 0.0000 0.0000 20.6188 0.0000 0.0000
# 5 0.0000 0.0000 0.0000 0.0000 17.6888 0.0000
# 6 0.0000 0.0000 0.0000 0.0000 0.0000 18.0892
#
#
#
# Elastic Compliance Matrix: (Units=1/GPa)
#
#
# Indices 1 2 3 4 5 6 
#
# 1 0.012780 -0.005089 -0.005918 0.000000 0.000000 0.000000
# 2 -0.005089 0.015401 0.006358 0.000000 0.000000 0.000000
# 3 -0.005918 0.006358 0.025250 0.000000 0.000000 0.000000
# 4 0.000000 0.000000 0.000000 0.048499 0.000000 0.000000
# 5 0.000000 0.000000 0.000000 0.000000 0.056533 0.000000
# 6 0.000000 0.000000 0.000000 0.000000 0.000000 0.055281
#
#
# Mechanical properties :
#
#
# Convention : Reuss Voigt Hill
#
# Bulk Modulus (GPa) = 22.65845 30.62442 26.64144
# Shear Modulus (GPa) = 21.03030 24.24606 22.63818
#
# Velocity S-wave (km/s) = 3.20871 3.44532 3.32912
# Velocity P-wave (km/s) = 4.98204 5.55156 5.27449
#
# Compressibility (1/GPa) = 0.04413364
#
# Stress axis : x y z
#
# Youngs Moduli (GPa) = 78.24642 64.93187 39.60464
#
# Poissons Ratio (x) = 0.33041 0.23437
# Poissons Ratio (y) = 0.39816 -0.25180
# Poissons Ratio (z) = 0.46304 -0.41283
#
# Static dielectric constant tensor:
#      x y z
#    x 1.775820 0.000000 0.000000 
#    y 0.000000 1.816890 0.000000 
#    z 0.000000 0.000000 1.669450 
# 
# From -- ./inp_files/15677.got.cif
#   From: 2010.05.17/outbox.cif.g08.bks.cpg/sg52_8_cif.got.tgz:15677.got - 2010.06.03 12:15:38.
