data_PCOD9409308
_publ_section_title
;
Structure prediction by ZEFSAII (Michael W. Deem and Ramdas Pophale) SiO2 
 PCOD9409308
Probable space group: P N N A
;
_chemical_formula_sum "Si O2"
_cell_formula_units_Z 48
_cell_length_a 10.094500
_cell_length_b 8.838647
_cell_length_c 29.490387
_cell_angle_alpha 90.000000
_cell_angle_beta 90.000000
_cell_angle_gamma 90.000000
_cell_volume 2631.183115
_symmetry_space_group_name_H-M "P N N A"
_symmetry_group_IT_number 52
_symmetry_cell_setting 'orthorhombic'
loop_
_space_group_symop_operation_xyz
x,y,z
1/2-x,-y,z
x,1/2-y,1/2-z
1/2-x,1/2+y,1/2-z
-x,-y,-z
1/2+x,y,-z
-x,1/2+y,1/2+z
1/2+x,1/2-y,1/2+z
loop_
_atom_site_type_symbol
_atom_site_label
_atom_site_fract_x
_atom_site_fract_y
_atom_site_fract_z
Si Si1 0.893394 0.068870 0.611848
Si Si2 0.350587 0.130819 0.620863
Si Si3 0.285093 0.324665 0.538989
Si Si4 0.874368 0.112248 0.714678
Si Si5 0.129637 0.596064 0.774872
Si Si6 0.992567 0.670882 0.019964
O O1 0.882988 0.151195 0.660790
O O2 0.948036 0.168276 0.570771
O O3 0.750000 0.000000 0.601036
O O4 0.000756 0.933110 0.615834
O O5 0.319151 0.274428 0.590378
O O6 0.327788 0.145020 0.674321
O O7 0.250000 0.000000 0.604246
O O8 0.250000 0.500000 0.535671
O O9 0.412949 0.275987 0.510137
O O10 0.157542 0.229780 0.521872
O O11 0.865005 0.250000 0.750000
O O12 0.750000 0.000000 0.719766
O O13 0.005439 0.014960 0.723807
O O14 0.250000 0.500000 0.754237
O O15 0.097061 0.750000 0.750000
O O16 0.000000 0.500000 0.000000
#
# Coordination Sequence:
#
# PCOD9409308 Si02
#       6
#     8   8   8   8   8   8
#     4  10  20  36  63  91 111 153 216 247 279 364
#     4  10  19  39  60  82 116 161 203 237 291 371
#     4  12  25  40  59  92 127 155 192 258 311 344
#     4  10  21  39  62  86 122 160 201 252 304 356
#     4  10  21  36  59  89 120 153 202 247 294 355
#     4  12  22  41  67  87 116 165 211 238 294 370
#
# _framework density 18.242743999999998
#
# number of rings (size 3 to 8) (size 9 to 14) (size 15 to 20)
#    0.000    1.333    3.333    3.000    0.000    0.667 
#    3.000    0.833    0.000    0.000    0.000    0.000 
#    0.000    0.000    0.000    0.000    0.000    0.000 
#
# Total GULP energy -267938.039338 kJ/mol
# GULP energy per Si atom -5582.042486 kJ/mol
# Density = 1.820122 g / cm^3
# Si number density = 18.242744 Si / 1000 Ang^3
#
#
#
# Elastic Constant Matrix: (Units=GPa)
#
#
# Indices 1 2 3 4 5 6 
#
# 1 96.9939 4.9961 7.0832 0.0000 0.0000 0.0000
# 2 4.9961 84.0075 45.3582 0.0000 0.0000 0.0000
# 3 7.0832 45.3582 90.9164 0.0000 0.0000 0.0000
# 4 0.0000 0.0000 0.0000 10.3744 0.0000 0.0000
# 5 0.0000 0.0000 0.0000 0.0000 34.4721 0.0000
# 6 0.0000 0.0000 0.0000 0.0000 0.0000 25.6323
#
#
#
# Elastic Compliance Matrix: (Units=1/GPa)
#
#
# Indices 1 2 3 4 5 6 
#
# 1 0.010373 -0.000247 -0.000685 0.000000 0.000000 0.000000
# 2 -0.000247 0.016298 -0.008112 0.000000 0.000000 0.000000
# 3 -0.000685 -0.008112 0.015100 0.000000 0.000000 0.000000
# 4 0.000000 0.000000 0.000000 0.096391 0.000000 0.000000
# 5 0.000000 0.000000 0.000000 0.000000 0.029009 0.000000
# 6 0.000000 0.000000 0.000000 0.000000 0.000000 0.039013
#
#
# Mechanical properties :
#
#
# Convention : Reuss Voigt Hill
#
# Bulk Modulus (GPa) = 42.22503 42.97699 42.60101
# Shear Modulus (GPa) = 21.53636 28.39445 24.96540
#
# Velocity S-wave (km/s) = 3.43963 3.94950 3.70335
# Velocity P-wave (km/s) = 6.24269 6.66391 6.45674
#
# Compressibility (1/GPa) = 0.02368264
#
# Stress axis : x y z
#
# Youngs Moduli (GPa) = 96.40725 61.35616 66.22727
#
# Poissons Ratio (x) = 0.01516 0.04536
# Poissons Ratio (y) = 0.02382 0.53723
# Poissons Ratio (z) = 0.06602 0.49772
#
# Static dielectric constant tensor:
#      x y z
#    x 1.593480 0.000000 0.000000 
#    y 0.000000 1.591940 0.000000 
#    z 0.000000 0.000000 1.657300 
# 
# From -- ./inp_files/44346.got.cif
#   From: 2010.05.17/outbox.cif.g08.bks.cpg/sg52_23_cif.got.tgz:44346.got - 2010.06.03 12:15:38.
