data_PCOD9409834
_publ_section_title
;
Structure prediction by ZEFSAII (Michael W. Deem and Ramdas Pophale) SiO2 
 PCOD9409834
Probable space group: P N N A
;
_chemical_formula_sum "Si O2"
_cell_formula_units_Z 40
_cell_length_a 13.466375
_cell_length_b 7.332412
_cell_length_c 18.403768
_cell_angle_alpha 90.000000
_cell_angle_beta 90.000000
_cell_angle_gamma 90.000000
_cell_volume 1817.206634
_symmetry_space_group_name_H-M "P N N A"
_symmetry_group_IT_number 52
_symmetry_cell_setting 'orthorhombic'
loop_
_space_group_symop_operation_xyz
x,y,z
1/2-x,-y,z
x,1/2-y,1/2-z
1/2-x,1/2+y,1/2-z
-x,-y,-z
1/2+x,y,-z
-x,1/2+y,1/2+z
1/2+x,1/2-y,1/2+z
loop_
_atom_site_type_symbol
_atom_site_label
_atom_site_fract_x
_atom_site_fract_y
_atom_site_fract_z
Si Si1 0.250000 0.500000 0.361716
Si Si2 0.500926 0.594807 0.127992
Si Si3 0.053589 0.051854 0.073117
Si Si4 0.631841 0.250000 0.750000
Si Si5 0.711706 0.706256 0.166824
Si Si6 0.072287 0.206153 0.836473
O O1 0.158803 0.544879 0.414310
O O2 0.297268 0.648544 0.307386
O O3 0.440990 0.619763 0.203678
O O4 0.608697 0.693362 0.124977
O O5 0.524662 0.380950 0.122097
O O6 0.437894 0.727485 0.075678
O O7 0.989125 0.969636 0.139969
O O8 0.000000 0.000000 0.000000
O O9 0.750000 0.500000 0.167032
O O10 0.686008 0.750000 0.250000
O O11 0.810646 0.816686 0.144844
O O12 0.069280 0.250000 0.750000
#
# Coordination Sequence:
#
# PCOD9409834 Si02
#       6
#     4   8   8   4   8   8
#     4  10  24  40  64  96 124 166 224 268 330 380
#     4  10  20  37  59  90 128 159 202 268 312 372
#     4  11  26  43  61  88 128 173 214 261 322 395
#     4  10  20  36  64  92 126 154 214 284 320 370
#     4   9  18  29  52  91 122 151 191 242 316 370
#     4  10  21  36  63  93 124 162 205 262 322 382
#
# _framework density 22.011806
#
# number of rings (size 3 to 8) (size 9 to 14) (size 15 to 20)
#    0.000    2.000    1.000    2.400    9.800    2.400 
#    0.000    0.000    0.000    0.000    0.000    0.000 
#    0.000    0.000    0.000    0.000    0.000    0.000 
#
# Total GULP energy -222914.491117 kJ/mol
# GULP energy per Si atom -5572.862278 kJ/mol
# Density = 2.196171 g / cm^3
# Si number density = 22.011806 Si / 1000 Ang^3
#
#
#
# Elastic Constant Matrix: (Units=GPa)
#
#
# Indices 1 2 3 4 5 6 
#
# 1 106.6269 17.9022 17.3115 0.0000 0.0000 0.0000
# 2 17.9022 80.1034 1.9305 0.0000 0.0000 0.0000
# 3 17.3115 1.9305 70.3151 0.0000 0.0000 0.0000
# 4 0.0000 0.0000 0.0000 15.5447 0.0000 0.0000
# 5 0.0000 0.0000 0.0000 0.0000 408.4331 0.0000
# 6 0.0000 0.0000 0.0000 0.0000 0.0000 43.8554
#
#
#
# Elastic Compliance Matrix: (Units=1/GPa)
#
#
# Indices 1 2 3 4 5 6 
#
# 1 0.010145 -0.002209 -0.002437 0.000000 0.000000 0.000000
# 2 -0.002209 0.012973 0.000188 0.000000 0.000000 0.000000
# 3 -0.002437 0.000188 0.014817 0.000000 0.000000 0.000000
# 4 0.000000 0.000000 0.000000 0.064331 0.000000 0.000000
# 5 0.000000 0.000000 0.000000 0.000000 0.002448 0.000000
# 6 0.000000 0.000000 0.000000 0.000000 0.000000 0.022802
#
#
# Mechanical properties :
#
#
# Convention : Reuss Voigt Hill
#
# Bulk Modulus (GPa) = 34.46091 36.81487 35.63789
# Shear Modulus (GPa) = 34.22208 108.22674 71.22441
#
# Velocity S-wave (km/s) = 3.94726 7.01957 5.69452
# Velocity P-wave (km/s) = 6.03856 9.08077 7.71118
#
# Compressibility (1/GPa) = 0.02901839
#
# Stress axis : x y z
#
# Youngs Moduli (GPa) = 98.57108 77.08360 67.49215
#
# Poissons Ratio (x) = 0.17024 0.16448
# Poissons Ratio (y) = 0.21770 -0.01266
# Poissons Ratio (z) = 0.24022 -0.01446
#
# Static dielectric constant tensor:
#      x y z
#    x 1.890540 0.000000 0.000000 
#    y 0.000000 1.881100 0.000000 
#    z 0.000000 0.000000 1.812370 
# 
# From -- ./inp_files/32045.got.cif
#   From: 2010.05.17/outbox.cif.g08.bks.cpg/sg52_17_cif.got.tgz:32045.got - 2010.06.03 12:15:38.
