data_PCOD9409977
_publ_section_title
;
Structure prediction by ZEFSAII (Michael W. Deem and Ramdas Pophale) SiO2 
 PCOD9409977
Probable space group: P N N A
;
_chemical_formula_sum "Si O2"
_cell_formula_units_Z 32
_cell_length_a 5.116552
_cell_length_b 9.842048
_cell_length_c 27.770832
_cell_angle_alpha 90.000000
_cell_angle_beta 90.000000
_cell_angle_gamma 90.000000
_cell_volume 1398.465517
_symmetry_space_group_name_H-M "P N N A"
_symmetry_group_IT_number 52
_symmetry_cell_setting 'orthorhombic'
loop_
_space_group_symop_operation_xyz
x,y,z
1/2-x,-y,z
x,1/2-y,1/2-z
1/2-x,1/2+y,1/2-z
-x,-y,-z
1/2+x,y,-z
-x,1/2+y,1/2+z
1/2+x,1/2-y,1/2+z
loop_
_atom_site_type_symbol
_atom_site_label
_atom_site_fract_x
_atom_site_fract_y
_atom_site_fract_z
Si Si1 0.174255 0.844755 0.149659
Si Si2 0.652331 0.800467 0.378175
Si Si3 0.587436 0.149681 0.479871
Si Si4 0.750000 0.000000 0.297334
Si Si5 0.939840 0.250000 0.750000
O O1 0.372503 0.766716 0.114763
O O2 0.226996 0.796266 0.204333
O O3 0.871530 0.805080 0.141535
O O4 0.250000 0.000000 0.145710
O O5 0.792350 0.852674 0.426602
O O6 0.591974 0.912510 0.337111
O O7 0.307725 0.218801 0.487221
O O8 0.500000 0.000000 0.500000
O O9 0.603127 0.114987 0.266104
#
# Coordination Sequence:
#
# PCOD9409977 Si02
#       5
#     8   8   8   4   4
#     4  11  26  43  69  94 140 189 231 286 337 419
#     4  11  24  43  67 105 136 177 227 289 354 404
#     4  10  20  37  68 100 135 169 215 288 354 415
#     4  10  24  42  66 102 136 182 226 298 326 426
#     4  10  26  40  74  94 142 184 252 276 354 392
#
# _framework density 22.882224000000001
#
# number of rings (size 3 to 8) (size 9 to 14) (size 15 to 20)
#    0.000    1.500    0.000    3.750   10.500    6.000 
#    0.000    0.000    0.000   15.000    0.000    0.000 
#    0.000    0.000    0.000    0.000    0.000    0.000 
#
# Total GULP energy -178333.721669 kJ/mol
# GULP energy per Si atom -5572.928802 kJ/mol
# Density = 2.283014 g / cm^3
# Si number density = 22.882224 Si / 1000 Ang^3
#
#
#
# Elastic Constant Matrix: (Units=GPa)
#
#
# Indices 1 2 3 4 5 6 
#
# 1 121.4719 27.9130 33.6519 0.0000 0.0000 0.0000
# 2 27.9130 116.1737 36.8127 0.0000 0.0000 0.0000
# 3 33.6519 36.8127 145.9279 0.0000 0.0000 0.0000
# 4 0.0000 0.0000 0.0000 17.0636 0.0000 0.0000
# 5 0.0000 0.0000 0.0000 0.0000 35.4802 0.0000
# 6 0.0000 0.0000 0.0000 0.0000 0.0000 14.3453
#
#
#
# Elastic Compliance Matrix: (Units=1/GPa)
#
#
# Indices 1 2 3 4 5 6 
#
# 1 0.009076 -0.001649 -0.001677 0.000000 0.000000 0.000000
# 2 -0.001649 0.009655 -0.002055 0.000000 0.000000 0.000000
# 3 -0.001677 -0.002055 0.007758 0.000000 0.000000 0.000000
# 4 0.000000 0.000000 0.000000 0.058604 0.000000 0.000000
# 5 0.000000 0.000000 0.000000 0.000000 0.028185 0.000000
# 6 0.000000 0.000000 0.000000 0.000000 0.000000 0.069709
#
#
# Mechanical properties :
#
#
# Convention : Reuss Voigt Hill
#
# Bulk Modulus (GPa) = 63.58885 64.48097 64.03491
# Shear Modulus (GPa) = 25.12654 32.39087 28.75870
#
# Velocity S-wave (km/s) = 3.31733 3.76646 3.54900
# Velocity P-wave (km/s) = 6.52095 6.86699 6.69621
#
# Compressibility (1/GPa) = 0.01572603
#
# Stress axis : x y z
#
# Youngs Moduli (GPa) = 110.18187 103.56918 128.90067
#
# Poissons Ratio (x) = 0.17082 0.21615
# Poissons Ratio (y) = 0.18172 0.26494
# Poissons Ratio (z) = 0.18476 0.21288
#
# Static dielectric constant tensor:
#      x y z
#    x 2.110770 0.000000 0.000000 
#    y 0.000000 2.001860 0.000000 
#    z 0.000000 0.000000 1.911780 
# 
# From -- ./inp_files/43597.got.cif
#   From: 2010.05.17/outbox.cif.g08.bks.cpg/sg52_22_cif.got.tgz:43597.got - 2010.06.03 12:15:38.
