data_PCOD9409274
_publ_section_title
;
Structure prediction by ZEFSAII (Michael W. Deem and Ramdas Pophale) SiO2 
 PCOD9409274
Probable space group: P N N A
;
_chemical_formula_sum "Si O2"
_cell_formula_units_Z 44
_cell_length_a 14.951923
_cell_length_b 5.304609
_cell_length_c 25.972402
_cell_angle_alpha 90.000000
_cell_angle_beta 90.000000
_cell_angle_gamma 90.000000
_cell_volume 2059.977827
_symmetry_space_group_name_H-M "P N N A"
_symmetry_group_IT_number 52
_symmetry_cell_setting 'orthorhombic'
loop_
_space_group_symop_operation_xyz
x,y,z
1/2-x,-y,z
x,1/2-y,1/2-z
1/2-x,1/2+y,1/2-z
-x,-y,-z
1/2+x,y,-z
-x,1/2+y,1/2+z
1/2+x,1/2-y,1/2+z
loop_
_atom_site_type_symbol
_atom_site_label
_atom_site_fract_x
_atom_site_fract_y
_atom_site_fract_z
Si Si1 0.306213 0.750000 0.250000
Si Si2 0.020063 0.253895 0.435691
Si Si3 0.375389 0.160961 0.802705
Si Si4 0.590106 0.249119 0.049268
Si Si5 0.937782 0.608715 0.828421
Si Si6 0.000209 0.750000 0.250000
Si Si7 0.250000 0.500000 0.607069
O O1 0.250000 0.500000 0.240708
O O2 0.372446 0.792643 0.201938
O O3 0.077523 0.279572 0.487761
O O4 0.077177 0.147849 0.388240
O O5 0.975025 0.529189 0.427017
O O6 0.944394 0.034348 0.441450
O O7 0.327571 0.250000 0.750000
O O8 0.457224 0.337894 0.818978
O O9 0.313425 0.140746 0.851897
O O10 0.431362 0.920232 0.783239
O O11 0.686948 0.179448 0.072309
O O12 0.934394 0.358979 0.794221
#
# Coordination Sequence:
#
# PCOD9409274 Si02
#       7
#     4   8   8   8   8   4   4
#     4  12  27  42  65  98 130 166 226 287 340 409
#     4  10  22  44  70  92 126 187 226 274 342 418
#     4  10  22  37  58  96 135 184 216 273 336 428
#     4  10  23  42  67  99 130 174 234 279 340 398
#     4  11  21  42  68  91 133 178 225 273 354 414
#     4  10  19  38  63  92 132 190 224 259 344 455
#     4  12  22  40  62 104 142 176 232 298 332 402
#
# _framework density 21.359452999999998
#
# number of rings (size 3 to 8) (size 9 to 14) (size 15 to 20)
#    0.000    1.455    4.545    1.636    1.273    0.727 
#    8.182    0.000    0.000    0.000    0.000    0.000 
#    0.000    0.000    0.000    0.000    0.000    0.000 
#
# Total GULP energy -245071.227892 kJ/mol
# GULP energy per Si atom -5569.800634 kJ/mol
# Density = 2.131084 g / cm^3
# Si number density = 21.359453 Si / 1000 Ang^3
#
#
#
# Elastic Constant Matrix: (Units=GPa)
#
#
# Indices 1 2 3 4 5 6 
#
# 1 97.2287 17.7121 51.3756 0.0000 0.0000 0.0000
# 2 17.7121 82.5675 19.9960 0.0000 0.0000 0.0000
# 3 51.3756 19.9960 151.7664 0.0000 0.0000 0.0000
# 4 0.0000 0.0000 0.0000 20.2960 0.0000 0.0000
# 5 0.0000 0.0000 0.0000 0.0000 0.9225 0.0000
# 6 0.0000 0.0000 0.0000 0.0000 0.0000 26.2301
#
#
#
# Elastic Compliance Matrix: (Units=1/GPa)
#
#
# Indices 1 2 3 4 5 6 
#
# 1 0.012765 -0.001748 -0.004091 0.000000 0.000000 0.000000
# 2 -0.001748 0.012750 -0.001088 0.000000 0.000000 0.000000
# 3 -0.004091 -0.001088 0.008117 0.000000 0.000000 0.000000
# 4 0.000000 0.000000 0.000000 0.049271 0.000000 0.000000
# 5 0.000000 0.000000 0.000000 0.000000 1.083993 0.000000
# 6 0.000000 0.000000 0.000000 0.000000 0.000000 0.038124
#
#
# Mechanical properties :
#
#
# Convention : Reuss Voigt Hill
#
# Bulk Modulus (GPa) = 50.55987 56.63669 53.59828
# Shear Modulus (GPa) = 4.08008 25.65499 14.86754
#
# Velocity S-wave (km/s) = 1.38360 3.46946 2.64116
# Velocity P-wave (km/s) = 5.12590 6.52863 5.86932
#
# Compressibility (1/GPa) = 0.01977853
#
# Stress axis : x y z
#
# Youngs Moduli (GPa) = 78.33901 78.43302 123.19355
#
# Poissons Ratio (x) = 0.13707 0.50398
# Poissons Ratio (y) = 0.13690 0.13407
# Poissons Ratio (z) = 0.32048 0.08535
#
# Static dielectric constant tensor:
#      x y z
#    x 1.780530 0.000000 0.000000 
#    y 0.000000 1.945200 0.000000 
#    z 0.000000 0.000000 1.830420 
# 
# From -- ./inp_files/42979.got.cif
#   From: 2010.05.17/outbox.cif.g08.bks.cpg/sg52_22_cif.got.tgz:42979.got - 2010.06.03 12:15:38.
