data_PCOD9409499
_publ_section_title
;
Structure prediction by ZEFSAII (Michael W. Deem and Ramdas Pophale) SiO2 
 PCOD9409499
Probable space group: P N N A
;
_chemical_formula_sum "Si O2"
_cell_formula_units_Z 44
_cell_length_a 18.091828
_cell_length_b 11.892894
_cell_length_c 11.410966
_cell_angle_alpha 90.000000
_cell_angle_beta 90.000000
_cell_angle_gamma 90.000000
_cell_volume 2455.231287
_symmetry_space_group_name_H-M "P N N A"
_symmetry_group_IT_number 52
_symmetry_cell_setting 'orthorhombic'
loop_
_space_group_symop_operation_xyz
x,y,z
1/2-x,-y,z
x,1/2-y,1/2-z
1/2-x,1/2+y,1/2-z
-x,-y,-z
1/2+x,y,-z
-x,1/2+y,1/2+z
1/2+x,1/2-y,1/2+z
loop_
_atom_site_type_symbol
_atom_site_label
_atom_site_fract_x
_atom_site_fract_y
_atom_site_fract_z
Si Si1 0.750000 0.500000 0.028312
Si Si2 0.833683 0.715809 0.114636
Si Si3 0.469803 0.845691 0.461154
Si Si4 0.887570 0.750000 0.750000
Si Si5 0.846380 0.250000 0.750000
Si Si6 0.599854 0.920132 0.586815
Si Si7 0.726633 0.130493 0.902229
O O1 0.782093 0.605871 0.098707
O O2 0.681473 0.543987 0.951608
O O3 0.833635 0.750000 0.250000
O O4 0.915644 0.679469 0.070711
O O5 0.804736 0.810663 0.021132
O O6 0.440516 0.767641 0.359203
O O7 0.555103 0.842158 0.495398
O O8 0.449228 0.968571 0.411017
O O9 0.832727 0.849174 0.795831
O O10 0.894383 0.146705 0.706081
O O11 0.795457 0.204838 0.855859
O O12 0.750000 0.000000 0.914756
#
# Coordination Sequence:
#
# PCOD9409499 Si02
#       7
#     4   8   8   4   4   8   8
#     4  10  20  40  56  84 110 148 198 226 288 340
#     4  10  21  36  57  79 116 156 186 237 284 344
#     4   9  20  37  57  82 110 150 186 230 291 340
#     4   9  18  36  58  80 115 150 182 238 287 346
#     4  11  20  32  58  86 109 144 186 246 275 334
#     4  10  20  35  58  84 110 143 191 234 279 341
#     4  10  20  33  56  88 111 146 191 240 290 328
#
# _framework density 17.920918
#
# number of rings (size 3 to 8) (size 9 to 14) (size 15 to 20)
#    0.000    2.182    1.818    1.091    6.364    0.000 
#    1.636    0.000    4.000    3.273    0.000    0.000 
#    0.000    0.000    0.000    0.000    0.000    0.000 
#
# Total GULP energy -244990.337806 kJ/mol
# GULP energy per Si atom -5567.962223 kJ/mol
# Density = 1.788013 g / cm^3
# Si number density = 17.920918 Si / 1000 Ang^3
#
#
#
# Elastic Constant Matrix: (Units=GPa)
#
#
# Indices 1 2 3 4 5 6 
#
# 1 85.1168 14.5702 23.5360 0.0000 0.0000 0.0000
# 2 14.5702 80.6530 24.3704 0.0000 0.0000 0.0000
# 3 23.5360 24.3704 87.6681 0.0000 0.0000 0.0000
# 4 0.0000 0.0000 0.0000 41.8454 0.0000 0.0000
# 5 0.0000 0.0000 0.0000 0.0000 -2.8992 0.0000
# 6 0.0000 0.0000 0.0000 0.0000 0.0000 -1.9442
#
#
#
# Elastic Compliance Matrix: (Units=1/GPa)
#
#
# Indices 1 2 3 4 5 6 
#
# 1 0.012833 -0.001394 -0.003058 0.000000 0.000000 0.000000
# 2 -0.001394 0.013687 -0.003430 0.000000 0.000000 0.000000
# 3 -0.003058 -0.003430 0.013181 0.000000 0.000000 0.000000
# 4 0.000000 0.000000 0.000000 0.023898 0.000000 0.000000
# 5 0.000000 0.000000 0.000000 0.000000 -0.344917 0.000000
# 6 0.000000 0.000000 0.000000 0.000000 0.000000 -0.514351
#
#
# Mechanical properties :
#
#
# Convention : Reuss Voigt Hill
#
# Bulk Modulus (GPa) = 41.77765 42.04345 41.91055
# Shear Modulus (GPa) = -6.47731 20.13114 6.82691
#
# Velocity S-wave (km/s) = -1.90322 3.35525 1.95390
# Velocity P-wave (km/s) = 4.30502 6.20659 5.34111
#
# Compressibility (1/GPa) = 0.02393624
#
# Stress axis : x y z
#
# Youngs Moduli (GPa) = 77.92587 73.06058 75.86602
#
# Poissons Ratio (x) = 0.10187 0.23196
# Poissons Ratio (y) = 0.10866 0.26026
# Poissons Ratio (z) = 0.23826 0.25063
#
# Static dielectric constant tensor:
#      x y z
#    x 1.674620 0.000000 0.000000 
#    y 0.000000 1.658560 0.000000 
#    z 0.000000 0.000000 1.629140 
# 
# From -- ./inp_files/20579.got.cif
#   From: 2010.05.17/outbox.cif.g08.bks.cpg/sg52_11_cif.got.tgz:20579.got - 2010.06.03 12:15:38.
