data_PCOD9409583
_publ_section_title
;
Structure prediction by ZEFSAII (Michael W. Deem and Ramdas Pophale) SiO2 
 PCOD9409583
Probable space group: P N N A
;
_chemical_formula_sum "Si O2"
_cell_formula_units_Z 60
_cell_length_a 20.688679
_cell_length_b 6.833893
_cell_length_c 21.302474
_cell_angle_alpha 90.000000
_cell_angle_beta 90.000000
_cell_angle_gamma 90.000000
_cell_volume 3011.833641
_symmetry_space_group_name_H-M "P N N A"
_symmetry_group_IT_number 52
_symmetry_cell_setting 'orthorhombic'
loop_
_space_group_symop_operation_xyz
x,y,z
1/2-x,-y,z
x,1/2-y,1/2-z
1/2-x,1/2+y,1/2-z
-x,-y,-z
1/2+x,y,-z
-x,1/2+y,1/2+z
1/2+x,1/2-y,1/2+z
loop_
_atom_site_type_symbol
_atom_site_label
_atom_site_fract_x
_atom_site_fract_y
_atom_site_fract_z
Si Si1 0.925532 0.980144 0.017445
Si Si2 0.919815 0.212384 0.682084
Si Si3 0.011898 0.639559 0.815862
Si Si4 0.750000 0.000000 0.095976
Si Si5 0.590732 0.112169 0.880363
Si Si6 0.639365 0.723948 0.113800
Si Si7 0.177417 0.441852 0.108761
Si Si8 0.663394 0.339934 0.038134
O O1 0.898474 0.155077 0.059221
O O2 0.905541 0.771389 0.047427
O O3 0.892864 0.965416 0.949393
O O4 0.000000 0.000000 0.000000
O O5 0.889249 0.250000 0.750000
O O6 0.932888 0.425987 0.656763
O O7 0.870888 0.104387 0.635474
O O8 0.983437 0.078646 0.689379
O O9 0.998820 0.750000 0.750000
O O10 0.086285 0.665724 0.834700
O O11 0.968603 0.737173 0.871477
O O12 0.695855 0.875876 0.133227
O O13 0.785806 0.833046 0.054420
O O14 0.652735 0.238623 0.860107
O O15 0.667566 0.525948 0.083479
O O16 0.250000 0.500000 0.123081
O O17 0.170157 0.414344 0.033419
#
# Coordination Sequence:
#
# PCOD9409583 Si02
#       8
#     8   8   8   4   8   8   8   8
#     4  10  20  34  57  96 128 154 191 254 305 367
#     4  11  23  40  61  83 119 167 207 263 308 356
#     4  11  23  40  62  88 119 162 209 252 309 374
#     4  10  22  40  62  90 126 160 196 254 312 380
#     4  10  21  39  58  87 126 153 201 256 309 361
#     4  11  22  37  65  92 123 160 203 249 314 381
#     4  10  22  39  59  90 121 164 209 250 306 376
#     4  10  22  39  63  93 128 163 197 248 316 376
#
# _framework density 19.921419
#
# number of rings (size 3 to 8) (size 9 to 14) (size 15 to 20)
#    0.000    1.600    2.667    2.000    1.867    3.200 
#    2.400    0.000    2.933    0.000    0.000    0.000 
#    0.000    0.000    0.000    0.000    0.000    0.000 
#
# Total GULP energy -334420.517374 kJ/mol
# GULP energy per Si atom -5573.675290 kJ/mol
# Density = 1.987608 g / cm^3
# Si number density = 19.921419 Si / 1000 Ang^3
#
#
#
# Elastic Constant Matrix: (Units=GPa)
#
#
# Indices 1 2 3 4 5 6 
#
# 1 125.4577 51.8051 5.5536 0.0000 0.0000 0.0000
# 2 51.8051 134.1082 16.8670 0.0000 0.0000 0.0000
# 3 5.5536 16.8670 32.9379 0.0000 0.0000 0.0000
# 4 0.0000 0.0000 0.0000 11.8021 0.0000 0.0000
# 5 0.0000 0.0000 0.0000 0.0000 13.3936 0.0000
# 6 0.0000 0.0000 0.0000 0.0000 0.0000 28.6058
#
#
#
# Elastic Compliance Matrix: (Units=1/GPa)
#
#
# Indices 1 2 3 4 5 6 
#
# 1 0.009486 -0.003702 0.000296 0.000000 0.000000 0.000000
# 2 -0.003702 0.009414 -0.004197 0.000000 0.000000 0.000000
# 3 0.000296 -0.004197 0.032459 0.000000 0.000000 0.000000
# 4 0.000000 0.000000 0.000000 0.084731 0.000000 0.000000
# 5 0.000000 0.000000 0.000000 0.000000 0.074663 0.000000
# 6 0.000000 0.000000 0.000000 0.000000 0.000000 0.034958
#
#
# Mechanical properties :
#
#
# Convention : Reuss Voigt Hill
#
# Bulk Modulus (GPa) = 27.65850 48.99501 38.32675
# Shear Modulus (GPa) = 18.31718 25.31218 21.81468
#
# Velocity S-wave (km/s) = 3.03557 3.56842 3.31272
# Velocity P-wave (km/s) = 5.11861 6.45179 5.82348
#
# Compressibility (1/GPa) = 0.03615525
#
# Stress axis : x y z
#
# Youngs Moduli (GPa) = 105.41572 106.21960 30.80770
#
# Poissons Ratio (x) = 0.39320 -0.00912
# Poissons Ratio (y) = 0.39022 0.12930
# Poissons Ratio (z) = -0.03122 0.44579
#
# Static dielectric constant tensor:
#      x y z
#    x 1.745600 0.000000 0.000000 
#    y 0.000000 1.765650 0.000000 
#    z 0.000000 0.000000 1.755160 
# 
# From -- ./inp_files/41041.got.cif
#   From: 2010.05.17/outbox.cif.g08.bks.cpg/sg52_21_cif.got.tgz:41041.got - 2010.06.03 12:15:38.
