data_PCOD9409386
_publ_section_title
;
Structure prediction by ZEFSAII (Michael W. Deem and Ramdas Pophale) SiO2 
 PCOD9409386
Probable space group: P N N A
;
_chemical_formula_sum "Si O2"
_cell_formula_units_Z 56
_cell_length_a 13.562403
_cell_length_b 20.471698
_cell_length_c 8.734482
_cell_angle_alpha 90.000000
_cell_angle_beta 90.000000
_cell_angle_gamma 90.000000
_cell_volume 2425.088909
_symmetry_space_group_name_H-M "P N N A"
_symmetry_group_IT_number 52
_symmetry_cell_setting 'orthorhombic'
loop_
_space_group_symop_operation_xyz
x,y,z
1/2-x,-y,z
x,1/2-y,1/2-z
1/2-x,1/2+y,1/2-z
-x,-y,-z
1/2+x,y,-z
-x,1/2+y,1/2+z
1/2+x,1/2-y,1/2+z
loop_
_atom_site_type_symbol
_atom_site_label
_atom_site_fract_x
_atom_site_fract_y
_atom_site_fract_z
Si Si1 0.748576 0.604993 0.170229
Si Si2 0.793888 0.274367 0.965859
Si Si3 0.538512 0.369666 0.096670
Si Si4 0.523827 0.750000 0.750000
Si Si5 0.750000 0.500000 0.711712
Si Si6 0.280916 0.874207 0.022072
Si Si7 0.395183 0.677456 0.220703
Si Si8 0.104023 0.529725 0.045038
O O1 0.859119 0.591670 0.109903
O O2 0.764988 0.601585 0.350094
O O3 0.713675 0.676996 0.110363
O O4 0.672427 0.555164 0.092154
O O5 0.900743 0.261270 0.891124
O O6 0.755809 0.200808 0.988257
O O7 0.716324 0.310384 0.848766
O O8 0.546399 0.311655 0.221188
O O9 0.436071 0.404792 0.129755
O O10 0.540893 0.350196 0.917964
O O11 0.767120 0.433962 0.617482
O O12 0.839690 0.511303 0.828165
O O13 0.382066 0.862269 0.121462
O O14 0.434307 0.750000 0.250000
O O15 0.000000 0.500000 0.000000
#
# Coordination Sequence:
#
# PCOD9409386 Si02
#       8
#     8   8   8   4   4   8   8   8
#     4  11  25  45  72 107 144 193 246 314 377 445
#     4  10  19  42  70  99 145 188 240 299 375 437
#     4  11  25  40  69 108 144 192 249 304 377 452
#     4  12  20  38  68 108 142 186 254 296 370 448
#     4  12  26  46  74  98 142 194 248 304 378 442
#     4  11  22  41  72 101 144 196 240 304 376 443
#     4   9  19  39  65  93 140 192 235 297 374 436
#     4  12  25  49  74 101 139 197 251 306 374 461
#
# _framework density 23.091937999999999
#
# number of rings (size 3 to 8) (size 9 to 14) (size 15 to 20)
#    0.000    1.143    3.571    4.714    6.000    1.714 
#    2.571    5.714    0.000    0.000    0.000    0.000 
#    0.000    0.000    0.000    0.000    0.000    0.000 
#
# Total GULP energy -312202.933083 kJ/mol
# GULP energy per Si atom -5575.052376 kJ/mol
# Density = 2.303938 g / cm^3
# Si number density = 23.091938 Si / 1000 Ang^3
#
#
#
# Elastic Constant Matrix: (Units=GPa)
#
#
# Indices 1 2 3 4 5 6 
#
# 1 101.4029 19.9448 44.9359 0.0000 0.0000 0.0000
# 2 19.9448 83.7755 51.5181 0.0000 0.0000 0.0000
# 3 44.9359 51.5181 166.5282 0.0000 0.0000 0.0000
# 4 0.0000 0.0000 0.0000 40.9323 0.0000 0.0000
# 5 0.0000 0.0000 0.0000 0.0000 10.6189 0.0000
# 6 0.0000 0.0000 0.0000 0.0000 0.0000 32.0081
#
#
#
# Elastic Compliance Matrix: (Units=1/GPa)
#
#
# Indices 1 2 3 4 5 6 
#
# 1 0.011269 -0.001004 -0.002730 0.000000 0.000000 0.000000
# 2 -0.001004 0.014831 -0.004317 0.000000 0.000000 0.000000
# 3 -0.002730 -0.004317 0.008077 0.000000 0.000000 0.000000
# 4 0.000000 0.000000 0.000000 0.024431 0.000000 0.000000
# 5 0.000000 0.000000 0.000000 0.000000 0.094172 0.000000
# 6 0.000000 0.000000 0.000000 0.000000 0.000000 0.031242
#
#
# Mechanical properties :
#
#
# Convention : Reuss Voigt Hill
#
# Bulk Modulus (GPa) = 55.32744 64.94491 60.13618
# Shear Modulus (GPa) = 24.25433 32.39903 28.32668
#
# Velocity S-wave (km/s) = 3.24441 3.74979 3.50622
# Velocity P-wave (km/s) = 6.16819 6.85080 6.51843
#
# Compressibility (1/GPa) = 0.01807421
#
# Stress axis : x y z
#
# Youngs Moduli (GPa) = 88.73912 67.42846 123.80369
#
# Poissons Ratio (x) = 0.06769 0.33801
# Poissons Ratio (y) = 0.08908 0.53448
# Poissons Ratio (z) = 0.24228 0.29110
#
# Static dielectric constant tensor:
#      x y z
#    x 1.890620 0.000000 0.000000 
#    y 0.000000 2.093210 0.000000 
#    z 0.000000 0.000000 1.884430 
# 
# From -- ./inp_files/10863.got.cif
#   From: 2010.05.17/outbox.cif.g08.bks.cpg/sg52_6_cif.got.tgz:10863.got - 2010.06.03 12:15:38.
