data_PCOD9409845
_publ_section_title
;
Structure prediction by ZEFSAII (Michael W. Deem and Ramdas Pophale) SiO2 
 PCOD9409845
Probable space group: P N N A
;
_chemical_formula_sum "Si O2"
_cell_formula_units_Z 64
_cell_length_a 9.130374
_cell_length_b 33.181087
_cell_length_c 10.705922
_cell_angle_alpha 90.000000
_cell_angle_beta 90.000000
_cell_angle_gamma 90.000000
_cell_volume 3243.420458
_symmetry_space_group_name_H-M "P N N A"
_symmetry_group_IT_number 52
_symmetry_cell_setting 'orthorhombic'
loop_
_space_group_symop_operation_xyz
x,y,z
1/2-x,-y,z
x,1/2-y,1/2-z
1/2-x,1/2+y,1/2-z
-x,-y,-z
1/2+x,y,-z
-x,1/2+y,1/2+z
1/2+x,1/2-y,1/2+z
loop_
_atom_site_type_symbol
_atom_site_label
_atom_site_fract_x
_atom_site_fract_y
_atom_site_fract_z
Si Si1 0.300245 0.857210 0.704598
Si Si2 0.346964 0.236979 0.115389
Si Si3 0.386927 0.715387 0.971789
Si Si4 0.489784 0.653507 0.151091
Si Si5 0.225808 0.453237 0.160502
Si Si6 0.521050 0.648729 0.568553
Si Si7 0.974108 0.917033 0.452952
Si Si8 0.183938 0.114764 0.152214
O O1 0.318984 0.822587 0.599971
O O2 0.129918 0.854228 0.737637
O O3 0.404356 0.848809 0.819839
O O4 0.356395 0.899113 0.645141
O O5 0.281530 0.250000 0.250000
O O6 0.492250 0.263915 0.111610
O O7 0.397145 0.192240 0.074836
O O8 0.232545 0.252866 0.014043
O O9 0.470285 0.696885 0.091498
O O10 0.343162 0.643452 0.227198
O O11 0.514412 0.621578 0.039097
O O12 0.250000 0.500000 0.185991
O O13 0.380504 0.433958 0.113076
O O14 0.167952 0.428848 0.282075
O O15 0.108675 0.446890 0.048177
O O16 0.428619 0.631582 0.451477
O O17 0.653042 0.618429 0.600058
#
# Coordination Sequence:
#
# PCOD9409845 Si02
#       8
#     8   8   8   8   8   8   8   8
#     4  11  20  38  65  90 127 170 219 266 317 383
#     4  12  24  41  59  89 128 169 214 277 332 372
#     4  11  23  38  60  93 124 160 215 274 329 371
#     4  10  21  37  64  94 125 168 212 263 321 391
#     4  11  22  41  68 103 137 164 207 271 336 398
#     4  12  24  43  65  85 128 178 223 269 317 388
#     4  10  20  36  65  98 132 167 204 262 328 394
#     4  11  25  43  66  93 125 173 221 260 323 401
#
# _framework density 19.732254999999999
#
# number of rings (size 3 to 8) (size 9 to 14) (size 15 to 20)
#    0.000    1.000    5.000    2.625    0.000    0.000 
#    0.000    1.250    0.000    0.000    0.000    0.000 
#    0.000    0.000    0.000    0.000    0.000    0.000 
#
# Total GULP energy -357051.111685 kJ/mol
# GULP energy per Si atom -5578.923620 kJ/mol
# Density = 1.968734 g / cm^3
# Si number density = 19.732255 Si / 1000 Ang^3
#
#
#
# Elastic Constant Matrix: (Units=GPa)
#
#
# Indices 1 2 3 4 5 6 
#
# 1 78.1402 14.3252 31.0011 0.0000 0.0000 0.0000
# 2 14.3252 75.6427 36.3262 0.0000 0.0000 0.0000
# 3 31.0011 36.3262 76.8986 0.0000 0.0000 0.0000
# 4 0.0000 0.0000 0.0000 17.5001 0.0000 0.0000
# 5 0.0000 0.0000 0.0000 0.0000 21.5442 0.0000
# 6 0.0000 0.0000 0.0000 0.0000 0.0000 23.8314
#
#
#
# Elastic Compliance Matrix: (Units=1/GPa)
#
#
# Indices 1 2 3 4 5 6 
#
# 1 0.015234 0.000083 -0.006181 0.000000 0.000000 0.000000
# 2 0.000083 0.017100 -0.008111 0.000000 0.000000 0.000000
# 3 -0.006181 -0.008111 0.019328 0.000000 0.000000 0.000000
# 4 0.000000 0.000000 0.000000 0.057143 0.000000 0.000000
# 5 0.000000 0.000000 0.000000 0.000000 0.046416 0.000000
# 6 0.000000 0.000000 0.000000 0.000000 0.000000 0.041961
#
#
# Mechanical properties :
#
#
# Convention : Reuss Voigt Hill
#
# Bulk Modulus (GPa) = 43.02244 43.77628 43.39936
# Shear Modulus (GPa) = 21.42726 22.51042 21.96884
#
# Velocity S-wave (km/s) = 3.29888 3.38123 3.34031
# Velocity P-wave (km/s) = 6.02997 6.12184 6.07608
#
# Compressibility (1/GPa) = 0.02324369
#
# Stress axis : x y z
#
# Youngs Moduli (GPa) = 65.64066 58.48104 51.73946
#
# Poissons Ratio (x) = -0.00487 0.31980
# Poissons Ratio (y) = -0.00546 0.41967
# Poissons Ratio (z) = 0.40572 0.47435
#
# Static dielectric constant tensor:
#      x y z
#    x 1.716490 0.000000 0.000000 
#    y 0.000000 1.680540 0.000000 
#    z 0.000000 0.000000 1.735910 
# 
# From -- ./inp_files/17239.got.cif
#   From: 2010.05.17/outbox.cif.g08.bks.cpg/sg52_9_cif.got.tgz:17239.got - 2010.06.03 12:15:38.
