data_PCOD9409242
_publ_section_title
;
Structure prediction by ZEFSAII (Michael W. Deem and Ramdas Pophale) SiO2 
 PCOD9409242
Probable space group: P N N A
;
_chemical_formula_sum "Si O2"
_cell_formula_units_Z 64
_cell_length_a 15.080872
_cell_length_b 16.892372
_cell_length_c 12.392210
_cell_angle_alpha 90.000000
_cell_angle_beta 90.000000
_cell_angle_gamma 90.000000
_cell_volume 3156.936563
_symmetry_space_group_name_H-M "P N N A"
_symmetry_group_IT_number 52
_symmetry_cell_setting 'orthorhombic'
loop_
_space_group_symop_operation_xyz
x,y,z
1/2-x,-y,z
x,1/2-y,1/2-z
1/2-x,1/2+y,1/2-z
-x,-y,-z
1/2+x,y,-z
-x,1/2+y,1/2+z
1/2+x,1/2-y,1/2+z
loop_
_atom_site_type_symbol
_atom_site_label
_atom_site_fract_x
_atom_site_fract_y
_atom_site_fract_z
Si Si1 0.640899 0.841906 0.088480
Si Si2 0.660482 0.837944 0.720198
Si Si3 0.729529 0.408239 0.596713
Si Si4 0.379465 0.787830 0.637870
Si Si5 0.014825 0.073863 0.753162
Si Si6 0.300769 0.330806 0.968781
Si Si7 0.340243 0.051877 0.705129
Si Si8 0.048963 0.135736 0.985936
O O1 0.653593 0.747994 0.078719
O O2 0.661179 0.880171 0.203707
O O3 0.709374 0.879222 0.002629
O O4 0.542020 0.861899 0.050587
O O5 0.623494 0.750000 0.750000
O O6 0.741519 0.856601 0.800323
O O7 0.589197 0.907822 0.741100
O O8 0.687396 0.834332 0.596199
O O9 0.750000 0.500000 0.616442
O O10 0.629209 0.393806 0.559691
O O11 0.343002 0.750000 0.750000
O O12 0.443921 0.855169 0.681731
O O13 0.300967 0.823594 0.567666
O O14 0.427214 0.721148 0.566375
O O15 0.037672 0.082387 0.879580
O O16 0.069299 0.997417 0.717144
O O17 0.338403 0.407814 0.911073
O O18 0.250000 0.000000 0.719525
#
# Coordination Sequence:
#
# PCOD9409242 Si02
#       8
#     8   8   8   8   8   8   8   8
#     4  12  23  44  73 100 141 174 238 294 349 413
#     4  12  24  48  71  97 137 190 234 280 344 434
#     4  12  26  42  68 106 137 174 229 289 352 405
#     4  10  19  37  68 100 128 175 236 275 333 418
#     4  11  22  40  70 101 136 176 239 278 340 427
#     4  12  24  44  69  97 143 186 230 286 347 419
#     4  12  26  42  66 107 141 180 228 297 360 408
#     4  11  22  41  72 104 133 182 228 292 350 412
#
# _framework density 20.272817
#
# number of rings (size 3 to 8) (size 9 to 14) (size 15 to 20)
#    0.000    0.500    5.000    4.875    1.750    2.000 
#    0.000    5.000    0.000    0.000    0.000    0.000 
#    0.000    0.000    0.000    0.000    0.000    0.000 
#
# Total GULP energy -357987.588438 kJ/mol
# GULP energy per Si atom -5593.556069 kJ/mol
# Density = 2.022668 g / cm^3
# Si number density = 20.272817 Si / 1000 Ang^3
#
#
#
# Elastic Constant Matrix: (Units=GPa)
#
#
# Indices 1 2 3 4 5 6 
#
# 1 85.9272 -7.7112 10.3681 0.0000 0.0000 0.0000
# 2 -7.7112 31.2897 3.2488 0.0000 0.0000 0.0000
# 3 10.3681 3.2488 103.3518 0.0000 0.0000 0.0000
# 4 0.0000 0.0000 0.0000 24.9851 0.0000 0.0000
# 5 0.0000 0.0000 0.0000 0.0000 25.4660 0.0000
# 6 0.0000 0.0000 0.0000 0.0000 0.0000 27.9965
#
#
#
# Elastic Compliance Matrix: (Units=1/GPa)
#
#
# Indices 1 2 3 4 5 6 
#
# 1 0.012075 0.003112 -0.001309 0.000000 0.000000 0.000000
# 2 0.003112 0.032866 -0.001345 0.000000 0.000000 0.000000
# 3 -0.001309 -0.001345 0.009849 0.000000 0.000000 0.000000
# 4 0.000000 0.000000 0.000000 0.040024 0.000000 0.000000
# 5 0.000000 0.000000 0.000000 0.000000 0.039268 0.000000
# 6 0.000000 0.000000 0.000000 0.000000 0.000000 0.035719
#
#
# Mechanical properties :
#
#
# Convention : Reuss Voigt Hill
#
# Bulk Modulus (GPa) = 17.95175 25.81999 21.88587
# Shear Modulus (GPa) = 26.67316 30.00041 28.33678
#
# Velocity S-wave (km/s) = 3.63121 3.85103 3.74274
# Velocity P-wave (km/s) = 5.14346 5.70420 5.43107
#
# Compressibility (1/GPa) = 0.05570488
#
# Stress axis : x y z
#
# Youngs Moduli (GPa) = 82.81588 30.42664 101.52991
#
# Poissons Ratio (x) = -0.09468 0.13292
# Poissons Ratio (y) = -0.25770 0.13659
# Poissons Ratio (z) = 0.10842 0.04093
#
# Static dielectric constant tensor:
#      x y z
#    x 1.699720 0.000000 0.000000 
#    y 0.000000 1.752770 0.000000 
#    z 0.000000 0.000000 1.675280 
# 
# From -- ./inp_files/19861.got.cif
#   From: 2010.05.17/outbox.cif.g08.bks.cpg/sg52_10_cif.got.tgz:19861.got - 2010.06.03 12:15:38.
