data_PCOD9409604
_publ_section_title
;
Structure prediction by ZEFSAII (Michael W. Deem and Ramdas Pophale) SiO2 
 PCOD9409604
Probable space group: P N N A
;
_chemical_formula_sum "Si O2"
_cell_formula_units_Z 36
_cell_length_a 12.685710
_cell_length_b 7.915006
_cell_length_c 15.933770
_cell_angle_alpha 90.000000
_cell_angle_beta 90.000000
_cell_angle_gamma 90.000000
_cell_volume 1599.869545
_symmetry_space_group_name_H-M "P N N A"
_symmetry_group_IT_number 52
_symmetry_cell_setting 'orthorhombic'
loop_
_space_group_symop_operation_xyz
x,y,z
1/2-x,-y,z
x,1/2-y,1/2-z
1/2-x,1/2+y,1/2-z
-x,-y,-z
1/2+x,y,-z
-x,1/2+y,1/2+z
1/2+x,1/2-y,1/2+z
loop_
_atom_site_type_symbol
_atom_site_label
_atom_site_fract_x
_atom_site_fract_y
_atom_site_fract_z
Si Si1 0.078262 0.136372 0.899787
Si Si2 0.250000 0.500000 0.352502
Si Si3 0.031613 0.051652 0.247006
Si Si4 0.426842 0.999313 0.580625
Si Si5 0.854573 0.175522 0.996186
O O1 0.130129 0.320417 0.904566
O O2 0.141774 0.993244 0.948011
O O3 0.046483 0.059471 0.810240
O O4 0.967733 0.163100 0.948683
O O5 0.147642 0.471830 0.294084
O O6 0.226930 0.654878 0.417964
O O7 0.006828 0.250000 0.250000
O O8 0.009157 0.003349 0.342209
O O9 0.357276 0.163906 0.558399
O O10 0.500000 0.000000 0.500000
#
# Coordination Sequence:
#
# PCOD9409604 Si02
#       5
#     8   4   8   8   8
#     4   9  18  34  61  81 120 163 227 259 312 404
#     4  10  24  36  62  92 148 168 208 298 358 382
#     4  11  21  37  60  96 126 177 216 280 341 392
#     4  10  20  34  62  86 119 170 228 255 315 414
#     4   9  18  37  56  86 119 177 209 262 331 390
#
# _framework density 22.501836000000001
#
# number of rings (size 3 to 8) (size 9 to 14) (size 15 to 20)
#    0.000    2.222    2.222    0.667    3.111    5.333 
#    0.000    1.111    9.778    0.000   11.556    0.000 
#    0.000    0.000    0.000    0.000    0.000    0.000 
#
# Total GULP energy -200586.601966 kJ/mol
# GULP energy per Si atom -5571.850055 kJ/mol
# Density = 2.245062 g / cm^3
# Si number density = 22.501836 Si / 1000 Ang^3
#
#
#
# Elastic Constant Matrix: (Units=GPa)
#
#
# Indices 1 2 3 4 5 6 
#
# 1 100.4031 27.6345 65.4020 0.0000 0.0000 0.0000
# 2 27.6345 204.0425 74.6431 0.0000 0.0000 0.0000
# 3 65.4020 74.6431 200.2419 0.0000 0.0000 0.0000
# 4 0.0000 0.0000 0.0000 35.6740 0.0000 0.0000
# 5 0.0000 0.0000 0.0000 0.0000 -4.7550 0.0000
# 6 0.0000 0.0000 0.0000 0.0000 0.0000 -11.9195
#
#
#
# Elastic Compliance Matrix: (Units=1/GPa)
#
#
# Indices 1 2 3 4 5 6 
#
# 1 0.012661 -0.000234 -0.004048 0.000000 0.000000 0.000000
# 2 -0.000234 0.005679 -0.002041 0.000000 0.000000 0.000000
# 3 -0.004048 -0.002041 0.007077 0.000000 0.000000 0.000000
# 4 0.000000 0.000000 0.000000 0.028032 0.000000 0.000000
# 5 0.000000 0.000000 0.000000 0.000000 -0.210304 0.000000
# 6 0.000000 0.000000 0.000000 0.000000 0.000000 -0.083896
#
#
# Mechanical properties :
#
#
# Convention : Reuss Voigt Hill
#
# Bulk Modulus (GPa) = 78.29706 93.33852 85.81779
# Shear Modulus (GPa) = -22.33650 26.26709 1.96530
#
# Velocity S-wave (km/s) = -3.15406 3.42033 0.93557
# Velocity P-wave (km/s) = 4.64837 7.56100 6.27598
#
# Compressibility (1/GPa) = 0.01277187
#
# Stress axis : x y z
#
# Youngs Moduli (GPa) = 78.98170 176.08417 141.30676
#
# Poissons Ratio (x) = 0.04118 0.57203
# Poissons Ratio (y) = 0.01847 0.28835
# Poissons Ratio (z) = 0.31973 0.35931
#
# Static dielectric constant tensor:
#      x y z
#    x 1.869570 0.000000 0.000000 
#    y 0.000000 1.895170 0.000000 
#    z 0.000000 0.000000 1.872990 
# 
# From -- ./inp_files/26783.got.cif
#   From: 2010.05.17/outbox.cif.g08.bks.cpg/sg52_14_cif.got.tgz:26783.got - 2010.06.03 12:15:38.
