data_PCOD9409506
_publ_section_title
;
Structure prediction by ZEFSAII (Michael W. Deem and Ramdas Pophale) SiO2 
 PCOD9409506
Probable space group: P N N A
;
_chemical_formula_sum "Si O2"
_cell_formula_units_Z 32
_cell_length_a 7.436466
_cell_length_b 5.286178
_cell_length_c 29.606845
_cell_angle_alpha 90.000000
_cell_angle_beta 90.000000
_cell_angle_gamma 90.000000
_cell_volume 1163.859376
_symmetry_space_group_name_H-M "P N N A"
_symmetry_group_IT_number 52
_symmetry_cell_setting 'orthorhombic'
loop_
_space_group_symop_operation_xyz
x,y,z
1/2-x,-y,z
x,1/2-y,1/2-z
1/2-x,1/2+y,1/2-z
-x,-y,-z
1/2+x,y,-z
-x,1/2+y,1/2+z
1/2+x,1/2-y,1/2+z
loop_
_atom_site_type_symbol
_atom_site_label
_atom_site_fract_x
_atom_site_fract_y
_atom_site_fract_z
Si Si1 0.027554 0.745343 0.197047
Si Si2 0.343996 0.721550 0.543788
Si Si3 0.930012 0.743978 0.659267
Si Si4 0.454952 0.821118 0.442381
O O1 0.992877 0.750000 0.250000
O O2 0.963207 0.491458 0.173728
O O3 0.244252 0.750804 0.187686
O O4 0.962693 0.995405 0.172419
O O5 0.359729 0.750949 0.489202
O O6 0.379562 0.403383 0.553278
O O7 0.250000 0.000000 0.559236
O O8 0.533002 0.867705 0.558618
O O9 0.886449 0.750641 0.606910
#
# Coordination Sequence:
#
# PCOD9409506 Si02
#       4
#     8   8   8   8
#     4  10  20  36  58  91 130 160 194 268 335 385
#     4  10  22  40  59  79 131 165 217 264 314 376
#     4  10  20  33  59  87 125 157 209 252 317 390
#     4  10  23  37  57  93 115 175 216 262 320 373
#
# _framework density 27.494731000000002
#
# number of rings (size 3 to 8) (size 9 to 14) (size 15 to 20)
#    0.000    2.000    0.000    4.500    7.000    8.000 
#    0.000    0.000    0.000    0.000    0.000   21.000 
#    0.000    0.000    0.000    0.000    0.000    0.000 
#
# Total GULP energy -178337.889400 kJ/mol
# GULP energy per Si atom -5573.059044 kJ/mol
# Density = 2.743215 g / cm^3
# Si number density = 27.494731 Si / 1000 Ang^3
#
#
#
# Elastic Constant Matrix: (Units=GPa)
#
#
# Indices 1 2 3 4 5 6 
#
# 1 66.0661 23.9893 -0.9699 0.0000 0.0000 0.0000
# 2 23.9893 345.6889 41.3439 0.0000 0.0000 0.0000
# 3 -0.9699 41.3439 174.3441 0.0000 0.0000 0.0000
# 4 0.0000 0.0000 0.0000 -11.0114 0.0000 0.0000
# 5 0.0000 0.0000 0.0000 0.0000 173.8319 0.0000
# 6 0.0000 0.0000 0.0000 0.0000 0.0000 18.8426
#
#
#
# Elastic Compliance Matrix: (Units=1/GPa)
#
#
# Indices 1 2 3 4 5 6 
#
# 1 0.015549 -0.001121 0.000352 0.000000 0.000000 0.000000
# 2 -0.001121 0.003058 -0.000731 0.000000 0.000000 0.000000
# 3 0.000352 -0.000731 0.005911 0.000000 0.000000 0.000000
# 4 0.000000 0.000000 0.000000 -0.090815 0.000000 0.000000
# 5 0.000000 0.000000 0.000000 0.000000 0.005753 0.000000
# 6 0.000000 0.000000 0.000000 0.000000 0.000000 0.053071
#
#
# Mechanical properties :
#
#
# Convention : Reuss Voigt Hill
#
# Bulk Modulus (GPa) = 46.47390 79.42509 62.94949
# Shear Modulus (GPa) = 1852.16777 71.11501 961.64139
#
# Velocity S-wave (km/s) = 25.98282 5.09128 18.72202
# Velocity P-wave (km/s) = 30.28337 7.96942 22.14265
#
# Compressibility (1/GPa) = 0.02151746
#
# Stress axis : x y z
#
# Youngs Moduli (GPa) = 64.31438 327.00526 169.17055
#
# Poissons Ratio (x) = 0.36662 -0.05961
# Poissons Ratio (y) = 0.07211 0.12374
# Poissons Ratio (z) = -0.02266 0.23918
#
# Static dielectric constant tensor:
#      x y z
#    x 0.831990 0.000000 0.000000 
#    y 0.000000 2.165160 0.000000 
#    z 0.000000 0.000000 1.885660 
# 
# From -- ./inp_files/39809.got.cif
#   From: 2010.05.17/outbox.cif.g08.bks.cpg/sg52_20_cif.got.tgz:39809.got - 2010.06.03 12:15:38.
