data_PCOD9409462
_publ_section_title
;
Structure prediction by ZEFSAII (Michael W. Deem and Ramdas Pophale) SiO2 
 PCOD9409462
Probable space group: P N N A
;
_chemical_formula_sum "Si O2"
_cell_formula_units_Z 44
_cell_length_a 5.396216
_cell_length_b 15.116100
_cell_length_c 32.032812
_cell_angle_alpha 90.000000
_cell_angle_beta 90.000000
_cell_angle_gamma 90.000000
_cell_volume 2612.908168
_symmetry_space_group_name_H-M "P N N A"
_symmetry_group_IT_number 52
_symmetry_cell_setting 'orthorhombic'
loop_
_space_group_symop_operation_xyz
x,y,z
1/2-x,-y,z
x,1/2-y,1/2-z
1/2-x,1/2+y,1/2-z
-x,-y,-z
1/2+x,y,-z
-x,1/2+y,1/2+z
1/2+x,1/2-y,1/2+z
loop_
_atom_site_type_symbol
_atom_site_label
_atom_site_fract_x
_atom_site_fract_y
_atom_site_fract_z
Si Si1 0.104480 0.906952 0.115446
Si Si2 0.721379 0.272247 0.682887
Si Si3 0.250000 0.500000 0.668928
Si Si4 0.069372 0.426860 0.257901
Si Si5 0.484793 0.101942 0.017394
Si Si6 0.721891 0.310463 0.208932
O O1 0.235294 0.830131 0.141478
O O2 0.846031 0.922582 0.139472
O O3 0.061555 0.894216 0.066581
O O4 0.250000 0.000000 0.119216
O O5 0.709504 0.340045 0.723143
O O6 0.451910 0.227251 0.682000
O O7 0.952408 0.204062 0.688360
O O8 0.462747 0.470057 0.700096
O O9 0.250000 0.500000 0.238613
O O10 0.841124 0.399667 0.228207
O O11 0.248145 0.142527 0.994431
O O12 0.500000 0.000000 0.000000
O O13 0.709089 0.250000 0.250000
#
# Coordination Sequence:
#
# PCOD9409462 Si02
#       6
#     8   8   4   8   8   8
#     4  12  21  30  50  68  94 126 167 214 236 284
#     4  11  21  35  46  69  91 126 160 205 254 290
#     4  12  20  30  48  74  90 118 172 220 244 280
#     4  11  22  33  52  70  95 126 174 218 256 297
#     4  10  20  33  45  66  93 123 152 202 241 282
#     4  10  22  34  48  63  95 124 154 206 261 295
#
# _framework density 16.839473000000002
#
# number of rings (size 3 to 8) (size 9 to 14) (size 15 to 20)
#    0.000    1.091    5.455    4.909    2.545    0.000 
#    0.000    0.000    0.000    0.000    0.000    0.000 
#    0.000    0.000    0.000    0.000    0.000   18.182 
#
# Total GULP energy -245344.705906 kJ/mol
# GULP energy per Si atom -5576.016043 kJ/mol
# Density = 1.680115 g / cm^3
# Si number density = 16.839473 Si / 1000 Ang^3
#
#
#
# Elastic Constant Matrix: (Units=GPa)
#
#
# Indices 1 2 3 4 5 6 
#
# 1 113.3057 13.1716 28.0674 0.0000 0.0000 0.0000
# 2 13.1716 35.7835 18.7077 0.0000 0.0000 0.0000
# 3 28.0674 18.7077 96.3308 0.0000 0.0000 0.0000
# 4 0.0000 0.0000 0.0000 65.2721 0.0000 0.0000
# 5 0.0000 0.0000 0.0000 0.0000 -14.3670 0.0000
# 6 0.0000 0.0000 0.0000 0.0000 0.0000 28.5560
#
#
#
# Elastic Compliance Matrix: (Units=1/GPa)
#
#
# Indices 1 2 3 4 5 6 
#
# 1 0.009683 -0.002325 -0.002370 0.000000 0.000000 0.000000
# 2 -0.002325 0.031662 -0.005471 0.000000 0.000000 0.000000
# 3 -0.002370 -0.005471 0.012134 0.000000 0.000000 0.000000
# 4 0.000000 0.000000 0.000000 0.015320 0.000000 0.000000
# 5 0.000000 0.000000 0.000000 0.000000 -0.069604 0.000000
# 6 0.000000 0.000000 0.000000 0.000000 0.000000 0.035019
#
#
# Mechanical properties :
#
#
# Convention : Reuss Voigt Hill
#
# Bulk Modulus (GPa) = 30.16928 40.59038 35.37983
# Shear Modulus (GPa) = 76.22388 28.25710 52.24049
#
# Velocity S-wave (km/s) = 6.73523 4.10082 5.57584
# Velocity P-wave (km/s) = 8.85658 6.82487 7.90626
#
# Compressibility (1/GPa) = 0.03314630
#
# Stress axis : x y z
#
# Youngs Moduli (GPa) = 103.27371 31.58336 82.41370
#
# Poissons Ratio (x) = 0.07344 0.19530
# Poissons Ratio (y) = 0.24015 0.45092
# Poissons Ratio (z) = 0.24473 0.17280
#
# Static dielectric constant tensor:
#      x y z
#    x 1.686110 0.000000 0.000000 
#    y 0.000000 1.645030 0.000000 
#    z 0.000000 0.000000 1.541190 
# 
# From -- ./inp_files/43732.got.cif
#   From: 2010.05.17/outbox.cif.g08.bks.cpg/sg52_22_cif.got.tgz:43732.got - 2010.06.03 12:15:38.
