data_PCOD9409494
_publ_section_title
;
Structure prediction by ZEFSAII (Michael W. Deem and Ramdas Pophale) SiO2 
 PCOD9409494
Probable space group: P N N A
;
_chemical_formula_sum "Si O2"
_cell_formula_units_Z 48
_cell_length_a 9.184771
_cell_length_b 17.225704
_cell_length_c 15.735214
_cell_angle_alpha 90.000000
_cell_angle_beta 90.000000
_cell_angle_gamma 90.000000
_cell_volume 2489.533454
_symmetry_space_group_name_H-M "P N N A"
_symmetry_group_IT_number 52
_symmetry_cell_setting 'orthorhombic'
loop_
_space_group_symop_operation_xyz
x,y,z
1/2-x,-y,z
x,1/2-y,1/2-z
1/2-x,1/2+y,1/2-z
-x,-y,-z
1/2+x,y,-z
-x,1/2+y,1/2+z
1/2+x,1/2-y,1/2+z
loop_
_atom_site_type_symbol
_atom_site_label
_atom_site_fract_x
_atom_site_fract_y
_atom_site_fract_z
Si Si1 0.331626 0.395947 0.277194
Si Si2 0.093622 0.726765 0.404962
Si Si3 0.968353 0.410271 0.902972
Si Si4 0.155065 0.363280 0.502104
Si Si5 0.250000 0.500000 0.627006
Si Si6 0.446144 0.545265 0.338619
Si Si7 0.250000 0.500000 0.969865
O O1 0.372480 0.312394 0.313386
O O2 0.413368 0.423922 0.193320
O O3 0.381111 0.458424 0.348663
O O4 0.157970 0.409918 0.271950
O O5 0.059962 0.817688 0.409280
O O6 0.226933 0.694986 0.461904
O O7 0.952803 0.686478 0.442264
O O8 0.131909 0.444654 0.919672
O O9 0.856938 0.449732 0.969589
O O10 0.213866 0.429406 0.564191
O O11 0.072386 0.406705 0.425052
O O12 0.386411 0.470099 0.681300
#
# Coordination Sequence:
#
# PCOD9409494 Si02
#       7
#     8   8   8   8   4   8   4
#     4  10  21  37  58  89 126 161 203 239 308 373
#     4  11  21  36  59  91 126 166 196 248 308 359
#     4  11  23  44  67  88 114 152 210 267 316 369
#     4  11  20  33  55  92 131 165 206 234 287 374
#     4  12  18  31  53  88 134 164 196 238 272 363
#     4  10  20  33  55  88 126 170 197 235 291 356
#     4  10  24  45  69  86 106 152 214 274 314 359
#
# _framework density 19.280722999999998
#
# number of rings (size 3 to 8) (size 9 to 14) (size 15 to 20)
#    0.000    1.333    3.333    5.000    0.000    0.667 
#    0.000    0.000    0.000    0.000    4.333    0.000 
#    0.000    0.000    0.000    0.000    0.000    0.000 
#
# Total GULP energy -267443.032598 kJ/mol
# GULP energy per Si atom -5571.729846 kJ/mol
# Density = 1.923684 g / cm^3
# Si number density = 19.280723 Si / 1000 Ang^3
#
#
#
# Elastic Constant Matrix: (Units=GPa)
#
#
# Indices 1 2 3 4 5 6 
#
# 1 149.5244 53.3312 47.7948 0.0000 0.0000 0.0000
# 2 53.3312 147.9329 41.9968 0.0000 0.0000 0.0000
# 3 47.7948 41.9968 71.1241 0.0000 0.0000 0.0000
# 4 0.0000 0.0000 0.0000 27.9933 0.0000 0.0000
# 5 0.0000 0.0000 0.0000 0.0000 -3.5084 0.0000
# 6 0.0000 0.0000 0.0000 0.0000 0.0000 15.1150
#
#
#
# Elastic Compliance Matrix: (Units=1/GPa)
#
#
# Indices 1 2 3 4 5 6 
#
# 1 0.008906 -0.001816 -0.004912 0.000000 0.000000 0.000000
# 2 -0.001816 0.008492 -0.003794 0.000000 0.000000 0.000000
# 3 -0.004912 -0.003794 0.019601 0.000000 0.000000 0.000000
# 4 0.000000 0.000000 0.000000 0.035723 0.000000 0.000000
# 5 0.000000 0.000000 0.000000 0.000000 -0.285027 0.000000
# 6 0.000000 0.000000 0.000000 0.000000 0.000000 0.066160
#
#
# Mechanical properties :
#
#
# Convention : Reuss Voigt Hill
#
# Bulk Modulus (GPa) = 62.67887 72.75854 67.71870
# Shear Modulus (GPa) = -41.74159 22.95055 -9.39552
#
# Velocity S-wave (km/s) = -4.65794 3.45387 -2.20989
# Velocity P-wave (km/s) = 1.91066 7.32966 5.35605
#
# Compressibility (1/GPa) = 0.01595434
#
# Stress axis : x y z
#
# Youngs Moduli (GPa) = 112.28640 117.76472 51.01789
#
# Poissons Ratio (x) = 0.21387 0.25061
# Poissons Ratio (y) = 0.20392 0.19354
# Poissons Ratio (z) = 0.55158 0.44675
#
# Static dielectric constant tensor:
#      x y z
#    x 1.761980 0.000000 0.000000 
#    y 0.000000 1.689780 0.000000 
#    z 0.000000 0.000000 1.684960 
# 
# From -- ./inp_files/24790.got.cif
#   From: 2010.05.17/outbox.cif.g08.bks.cpg/sg52_13_cif.got.tgz:24790.got - 2010.06.03 12:15:38.
