data_PCOD9409588
_publ_section_title
;
Structure prediction by ZEFSAII (Michael W. Deem and Ramdas Pophale) SiO2 
 PCOD9409588
Probable space group: P N N A
;
_chemical_formula_sum "Si O2"
_cell_formula_units_Z 32
_cell_length_a 8.110147
_cell_length_b 14.422365
_cell_length_c 11.413255
_cell_angle_alpha 90.000000
_cell_angle_beta 90.000000
_cell_angle_gamma 90.000000
_cell_volume 1334.979907
_symmetry_space_group_name_H-M "P N N A"
_symmetry_group_IT_number 52
_symmetry_cell_setting 'orthorhombic'
loop_
_space_group_symop_operation_xyz
x,y,z
1/2-x,-y,z
x,1/2-y,1/2-z
1/2-x,1/2+y,1/2-z
-x,-y,-z
1/2+x,y,-z
-x,1/2+y,1/2+z
1/2+x,1/2-y,1/2+z
loop_
_atom_site_type_symbol
_atom_site_label
_atom_site_fract_x
_atom_site_fract_y
_atom_site_fract_z
Si Si1 0.750000 0.000000 0.564618
Si Si2 0.019960 0.937251 0.852951
Si Si3 0.977528 0.750000 0.250000
Si Si4 0.664214 0.872245 0.922526
Si Si5 0.431832 0.936798 0.654839
O O1 0.639662 0.058479 0.475260
O O2 0.868602 0.062944 0.641693
O O3 0.848537 0.882406 0.871842
O O4 0.955135 0.040542 0.889508
O O5 0.089967 0.965672 0.725421
O O6 0.153040 0.887391 0.936921
O O7 0.083995 0.783285 0.137526
O O8 0.880352 0.840976 0.287792
#
# Coordination Sequence:
#
# PCOD9409588 Si02
#       5
#     4   8   4   8   8
#     4  10  22  40  60  80 114 166 204 236 300 370
#     4   9  18  34  55  79 111 151 188 226 283 356
#     4  10  20  34  58  88 120 148 190 254 300 344
#     4   9  18  32  54  82 112 145 184 232 288 340
#     4  10  21  39  60  84 116 155 201 246 295 357
#
# _framework density 23.970396999999998
#
# number of rings (size 3 to 8) (size 9 to 14) (size 15 to 20)
#    0.000    2.500    0.000    3.000    0.000    8.000 
#    0.000    2.500    0.000    4.500    0.000    0.000 
#    0.000    0.000    0.000    0.000    0.000    0.000 
#
# Total GULP energy -178317.498802 kJ/mol
# GULP energy per Si atom -5572.421838 kJ/mol
# Density = 2.391584 g / cm^3
# Si number density = 23.970397 Si / 1000 Ang^3
#
#
#
# Elastic Constant Matrix: (Units=GPa)
#
#
# Indices 1 2 3 4 5 6 
#
# 1 87.9168 30.0948 16.3074 0.0000 0.0000 0.0000
# 2 30.0948 99.1504 38.5694 0.0000 0.0000 0.0000
# 3 16.3074 38.5694 125.4569 0.0000 0.0000 0.0000
# 4 0.0000 0.0000 0.0000 34.3095 0.0000 0.0000
# 5 0.0000 0.0000 0.0000 0.0000 23.7361 0.0000
# 6 0.0000 0.0000 0.0000 0.0000 0.0000 23.3510
#
#
#
# Elastic Compliance Matrix: (Units=1/GPa)
#
#
# Indices 1 2 3 4 5 6 
#
# 1 0.012724 -0.003656 -0.000530 0.000000 0.000000 0.000000
# 2 -0.003656 0.012506 -0.003370 0.000000 0.000000 0.000000
# 3 -0.000530 -0.003370 0.009076 0.000000 0.000000 0.000000
# 4 0.000000 0.000000 0.000000 0.029146 0.000000 0.000000
# 5 0.000000 0.000000 0.000000 0.000000 0.042130 0.000000
# 6 0.000000 0.000000 0.000000 0.000000 0.000000 0.042825
#
#
# Mechanical properties :
#
#
# Convention : Reuss Voigt Hill
#
# Bulk Modulus (GPa) = 52.09706 53.60750 52.85228
# Shear Modulus (GPa) = 29.42625 31.44949 30.43787
#
# Velocity S-wave (km/s) = 3.50752 3.62610 3.56731
# Velocity P-wave (km/s) = 6.17938 6.32013 6.25015
#
# Compressibility (1/GPa) = 0.01919494
#
# Stress axis : x y z
#
# Youngs Moduli (GPa) = 78.59059 79.96083 110.18478
#
# Poissons Ratio (x) = 0.29233 0.05840
# Poissons Ratio (y) = 0.28732 0.37127
# Poissons Ratio (z) = 0.04165 0.26943
#
# Static dielectric constant tensor:
#      x y z
#    x 2.028410 0.000000 0.000000 
#    y 0.000000 1.909590 0.000000 
#    z 0.000000 0.000000 2.123530 
# 
# From -- ./inp_files/16458.got.cif
#   From: 2010.05.17/outbox.cif.g08.bks.cpg/sg52_9_cif.got.tgz:16458.got - 2010.06.03 12:15:38.
