data_PCOD9409266
_publ_section_title
;
Structure prediction by ZEFSAII (Michael W. Deem and Ramdas Pophale) SiO2 
 PCOD9409266
Probable space group: P N N A
;
_chemical_formula_sum "Si O2"
_cell_formula_units_Z 48
_cell_length_a 10.270614
_cell_length_b 9.306799
_cell_length_c 21.522409
_cell_angle_alpha 90.000000
_cell_angle_beta 90.000000
_cell_angle_gamma 90.000000
_cell_volume 2057.252611
_symmetry_space_group_name_H-M "P N N A"
_symmetry_group_IT_number 52
_symmetry_cell_setting 'orthorhombic'
loop_
_space_group_symop_operation_xyz
x,y,z
1/2-x,-y,z
x,1/2-y,1/2-z
1/2-x,1/2+y,1/2-z
-x,-y,-z
1/2+x,y,-z
-x,1/2+y,1/2+z
1/2+x,1/2-y,1/2+z
loop_
_atom_site_type_symbol
_atom_site_label
_atom_site_fract_x
_atom_site_fract_y
_atom_site_fract_z
Si Si1 0.431191 0.408069 0.591285
Si Si2 0.014051 0.391259 0.058699
Si Si3 0.250000 0.000000 0.359502
Si Si4 0.250000 0.000000 0.559853
Si Si5 0.615064 0.587336 0.270363
Si Si6 0.483215 0.146187 0.308057
Si Si7 0.142978 0.286953 0.577065
O O1 0.504885 0.280847 0.554928
O O2 0.464354 0.416150 0.664607
O O3 0.281484 0.355218 0.594172
O O4 0.437967 0.567865 0.562719
O O5 0.876688 0.434565 0.092568
O O6 0.138238 0.433934 0.097567
O O7 0.000000 0.500000 0.000000
O O8 0.168864 0.879154 0.323265
O O9 0.308092 0.846705 0.532909
O O10 0.750000 0.500000 0.277661
O O11 0.642112 0.750000 0.250000
O O12 0.535168 0.505371 0.217504
O O13 0.501028 0.250000 0.250000
O O14 0.563928 0.212366 0.366203
#
# Coordination Sequence:
#
# PCOD9409266 Si02
#       7
#     8   8   4   4   8   8   8
#     4  10  20  37  64  97 137 177 241 295 349 409
#     4  11  24  45  71  97 126 176 239 310 370 420
#     4  12  27  44  68 100 142 182 244 283 364 444
#     4  10  21  40  76  92 126 174 226 293 352 410
#     4  12  22  33  61 103 148 193 243 284 337 424
#     4  12  24  41  62  96 155 196 228 274 353 444
#     4  10  19  38  62 102 134 186 231 288 334 413
#
# _framework density 23.332087000000001
#
# number of rings (size 3 to 8) (size 9 to 14) (size 15 to 20)
#    0.000    1.000    5.000    3.000    3.500    2.000 
#    0.000    0.833    0.000    2.000    0.000    0.000 
#    0.000    0.000    0.000    0.000    0.000    0.000 
#
# Total GULP energy -267272.996465 kJ/mol
# GULP energy per Si atom -5568.187426 kJ/mol
# Density = 2.327898 g / cm^3
# Si number density = 23.332087 Si / 1000 Ang^3
#
#
#
# Elastic Constant Matrix: (Units=GPa)
#
#
# Indices 1 2 3 4 5 6 
#
# 1 98.5593 47.5264 22.9696 0.0000 0.0000 0.0000
# 2 47.5264 238.5174 49.4732 0.0000 0.0000 0.0000
# 3 22.9696 49.4732 75.5663 0.0000 0.0000 0.0000
# 4 0.0000 0.0000 0.0000 41.0246 0.0000 0.0000
# 5 0.0000 0.0000 0.0000 0.0000 103.4284 0.0000
# 6 0.0000 0.0000 0.0000 0.0000 0.0000 42.9909
#
#
#
# Elastic Compliance Matrix: (Units=1/GPa)
#
#
# Indices 1 2 3 4 5 6 
#
# 1 0.011566 -0.001823 -0.002322 0.000000 0.000000 0.000000
# 2 -0.001823 0.005139 -0.002810 0.000000 0.000000 0.000000
# 3 -0.002322 -0.002810 0.015779 0.000000 0.000000 0.000000
# 4 0.000000 0.000000 0.000000 0.024376 0.000000 0.000000
# 5 0.000000 0.000000 0.000000 0.000000 0.009669 0.000000
# 6 0.000000 0.000000 0.000000 0.000000 0.000000 0.023261
#
#
# Mechanical properties :
#
#
# Convention : Reuss Voigt Hill
#
# Bulk Modulus (GPa) = 53.84056 72.50904 63.17480
# Shear Modulus (GPa) = 45.49955 57.00039 51.24997
#
# Velocity S-wave (km/s) = 4.42077 4.94804 4.69182
# Velocity P-wave (km/s) = 7.01309 7.98677 7.51572
#
# Compressibility (1/GPa) = 0.01857336
#
# Stress axis : x y z
#
# Youngs Moduli (GPa) = 86.45680 194.60178 63.37486
#
# Poissons Ratio (x) = 0.35476 0.14717
# Poissons Ratio (y) = 0.15761 0.17809
# Poissons Ratio (z) = 0.20078 0.54686
#
# Static dielectric constant tensor:
#      x y z
#    x 2.217060 0.000000 0.000000 
#    y 0.000000 1.937240 0.000000 
#    z 0.000000 0.000000 2.069290 
# 
# From -- ./inp_files/40183.got.cif
#   From: 2010.05.17/outbox.cif.g08.bks.cpg/sg52_21_cif.got.tgz:40183.got - 2010.06.03 12:15:38.
