data_PCOD9409360
_publ_section_title
;
Structure prediction by ZEFSAII (Michael W. Deem and Ramdas Pophale) SiO2 
 PCOD9409360
Probable space group: P N N A
;
_chemical_formula_sum "Si O2"
_cell_formula_units_Z 40
_cell_length_a 18.052856
_cell_length_b 12.253521
_cell_length_c 7.050381
_cell_angle_alpha 90.000000
_cell_angle_beta 90.000000
_cell_angle_gamma 90.000000
_cell_volume 1559.622185
_symmetry_space_group_name_H-M "P N N A"
_symmetry_group_IT_number 52
_symmetry_cell_setting 'orthorhombic'
loop_
_space_group_symop_operation_xyz
x,y,z
1/2-x,-y,z
x,1/2-y,1/2-z
1/2-x,1/2+y,1/2-z
-x,-y,-z
1/2+x,y,-z
-x,1/2+y,1/2+z
1/2+x,1/2-y,1/2+z
loop_
_atom_site_type_symbol
_atom_site_label
_atom_site_fract_x
_atom_site_fract_y
_atom_site_fract_z
Si Si1 0.900696 0.376801 0.718204
Si Si2 0.405095 0.047683 0.632412
Si Si3 0.223468 0.130858 0.211344
Si Si4 0.006694 0.250000 0.250000
Si Si5 0.586506 0.079438 0.021547
Si Si6 0.750000 0.500000 0.071907
O O1 0.924456 0.250000 0.750000
O O2 0.811902 0.369390 0.680181
O O3 0.933336 0.456989 0.558754
O O4 0.913500 0.448724 0.906441
O O5 0.453280 0.152794 0.682660
O O6 0.423316 0.938747 0.753032
O O7 0.316742 0.061775 0.673714
O O8 0.197912 0.250000 0.250000
O O9 0.173366 0.087040 0.041611
O O10 0.211482 0.078551 0.418561
O O11 0.051723 0.184919 0.083942
#
# Coordination Sequence:
#
# PCOD9409360 Si02
#       6
#     8   8   8   4   8   4
#     4  10  22  43  73 104 144 192 252 314 374 437
#     4  11  25  45  70 107 142 198 253 303 378 448
#     4  10  19  40  68 104 141 183 236 305 380 434
#     4  12  28  48  66 108 158 198 248 308 382 458
#     4  12  23  44  73 101 153 197 242 313 373 464
#     4  10  22  46  72 104 144 178 252 314 364 456
#
# _framework density 25.647237000000001
#
# number of rings (size 3 to 8) (size 9 to 14) (size 15 to 20)
#    0.000    1.200    5.000    1.800    2.800    0.800 
#    0.000    5.000    0.000    0.000    0.000    0.000 
#    0.000    0.000    0.000    0.000    0.000    0.000 
#
# Total GULP energy -223007.901360 kJ/mol
# GULP energy per Si atom -5575.197534 kJ/mol
# Density = 2.558886 g / cm^3
# Si number density = 25.647237 Si / 1000 Ang^3
#
#
#
# Elastic Constant Matrix: (Units=GPa)
#
#
# Indices 1 2 3 4 5 6 
#
# 1 125.6430 38.9018 46.9870 0.0000 0.0000 0.0000
# 2 38.9018 170.4485 53.6316 0.0000 0.0000 0.0000
# 3 46.9870 53.6316 109.9893 0.0000 0.0000 0.0000
# 4 0.0000 0.0000 0.0000 -29.3610 0.0000 0.0000
# 5 0.0000 0.0000 0.0000 0.0000 34.8438 0.0000
# 6 0.0000 0.0000 0.0000 0.0000 0.0000 40.4700
#
#
#
# Elastic Compliance Matrix: (Units=1/GPa)
#
#
# Indices 1 2 3 4 5 6 
#
# 1 0.009634 -0.001068 -0.003595 0.000000 0.000000 0.000000
# 2 -0.001068 0.007048 -0.002981 0.000000 0.000000 0.000000
# 3 -0.003595 -0.002981 0.012081 0.000000 0.000000 0.000000
# 4 0.000000 0.000000 0.000000 -0.034059 0.000000 0.000000
# 5 0.000000 0.000000 0.000000 0.000000 0.028700 0.000000
# 6 0.000000 0.000000 0.000000 0.000000 0.000000 0.024710
#
#
# Mechanical properties :
#
#
# Convention : Reuss Voigt Hill
#
# Bulk Modulus (GPa) = 74.20257 76.12462 75.16359
# Shear Modulus (GPa) = 73.64513 26.96124 50.30319
#
# Velocity S-wave (km/s) = 5.36442 3.24579 4.43352
# Velocity P-wave (km/s) = 8.20756 6.61761 7.45509
#
# Compressibility (1/GPa) = 0.01347662
#
# Stress axis : x y z
#
# Youngs Moduli (GPa) = 103.79832 141.87526 82.77427
#
# Poissons Ratio (x) = 0.15147 0.29758
# Poissons Ratio (y) = 0.11082 0.24673
# Poissons Ratio (z) = 0.37316 0.42290
#
# Static dielectric constant tensor:
#      x y z
#    x 2.455160 0.000000 0.000000 
#    y 0.000000 2.168290 0.000000 
#    z 0.000000 0.000000 2.064980 
# 
# From -- ./inp_files/11902.got.cif
#   From: 2010.05.17/outbox.cif.g08.bks.cpg/sg52_6_cif.got.tgz:11902.got - 2010.06.03 12:15:38.
