data_PCOD9409337
_publ_section_title
;
Structure prediction by ZEFSAII (Michael W. Deem and Ramdas Pophale) SiO2 
 PCOD9409337
Probable space group: P N N A
;
_chemical_formula_sum "Si O2"
_cell_formula_units_Z 32
_cell_length_a 5.119210
_cell_length_b 7.855102
_cell_length_c 31.681406
_cell_angle_alpha 90.000000
_cell_angle_beta 90.000000
_cell_angle_gamma 90.000000
_cell_volume 1273.970059
_symmetry_space_group_name_H-M "P N N A"
_symmetry_group_IT_number 52
_symmetry_cell_setting 'orthorhombic'
loop_
_space_group_symop_operation_xyz
x,y,z
1/2-x,-y,z
x,1/2-y,1/2-z
1/2-x,1/2+y,1/2-z
-x,-y,-z
1/2+x,y,-z
-x,1/2+y,1/2+z
1/2+x,1/2-y,1/2+z
loop_
_atom_site_type_symbol
_atom_site_label
_atom_site_fract_x
_atom_site_fract_y
_atom_site_fract_z
Si Si1 0.094471 0.750000 0.250000
Si Si2 0.750000 0.000000 0.193635
Si Si3 0.750000 0.000000 0.863540
Si Si4 0.943892 0.356228 0.896391
Si Si5 0.587547 0.187712 0.482538
Si Si6 0.750000 0.500000 0.816546
O O1 0.275577 0.654107 0.216108
O O2 0.900717 0.630028 0.276051
O O3 0.508556 0.948753 0.163321
O O4 0.676974 0.828356 0.888036
O O5 0.750000 0.500000 0.915226
O O6 0.154419 0.325367 0.932915
O O7 0.974445 0.438399 0.849469
O O8 0.810249 0.275409 0.509549
O O9 0.500000 0.000000 0.500000
#
# Coordination Sequence:
#
# PCOD9409337 Si02
#       6
#     4   4   4   8   8   4
#     4  12  26  40  82 100 148 194 260 306 380 430
#     4  12  28  48  70  99 149 181 252 307 358 432
#     4  12  27  50  66 109 142 188 240 301 360 441
#     4  10  22  44  74 102 143 187 235 292 365 428
#     4  10  19  39  69 102 136 179 229 287 352 433
#     4  10  23  46  70 106 137 199 236 304 358 429
#
# _framework density 25.118331999999999
#
# number of rings (size 3 to 8) (size 9 to 14) (size 15 to 20)
#    0.750    0.500    5.000    0.750    3.500    3.000 
#    0.000    3.750    0.000    0.000    0.000    0.000 
#    0.000    0.000    0.000    0.000    0.000    0.000 
#
# Total GULP energy -178218.947339 kJ/mol
# GULP energy per Si atom -5569.342104 kJ/mol
# Density = 2.506116 g / cm^3
# Si number density = 25.118332 Si / 1000 Ang^3
#
#
#
# Elastic Constant Matrix: (Units=GPa)
#
#
# Indices 1 2 3 4 5 6 
#
# 1 103.6852 24.9104 28.5319 0.0000 0.0000 0.0000
# 2 24.9104 123.7525 43.0216 0.0000 0.0000 0.0000
# 3 28.5319 43.0216 188.8408 0.0000 0.0000 0.0000
# 4 0.0000 0.0000 0.0000 -40.5945 0.0000 0.0000
# 5 0.0000 0.0000 0.0000 0.0000 -24.2402 0.0000
# 6 0.0000 0.0000 0.0000 0.0000 0.0000 23.2912
#
#
#
# Elastic Compliance Matrix: (Units=1/GPa)
#
#
# Indices 1 2 3 4 5 6 
#
# 1 0.010373 -0.001676 -0.001186 0.000000 0.000000 0.000000
# 2 -0.001676 0.009046 -0.001808 0.000000 0.000000 0.000000
# 3 -0.001186 -0.001808 0.005886 0.000000 0.000000 0.000000
# 4 0.000000 0.000000 0.000000 -0.024634 0.000000 0.000000
# 5 0.000000 0.000000 0.000000 0.000000 -0.041254 0.000000
# 6 0.000000 0.000000 0.000000 0.000000 0.000000 0.042935
#
#
# Mechanical properties :
#
#
# Convention : Reuss Voigt Hill
#
# Bulk Modulus (GPa) = 62.62557 67.68959 65.15758
# Shear Modulus (GPa) = 293.87014 13.01229 153.44121
#
# Velocity S-wave (km/s) = 10.82812 2.27852 7.82432
# Velocity P-wave (km/s) = 13.46541 5.82486 10.37416
#
# Compressibility (1/GPa) = 0.01596792
#
# Stress axis : x y z
#
# Youngs Moduli (GPa) = 96.39992 110.54066 169.88248
#
# Poissons Ratio (x) = 0.18526 0.20140
# Poissons Ratio (y) = 0.16156 0.30710
# Poissons Ratio (z) = 0.11428 0.19983
#
# Static dielectric constant tensor:
#      x y z
#    x 11.338470 0.000000 0.000000 
#    y 0.000000 1.751190 0.000000 
#    z 0.000000 0.000000 2.003920 
# 
# From -- ./inp_files/43525.got.cif
#   From: 2010.05.17/outbox.cif.g08.bks.cpg/sg52_22_cif.got.tgz:43525.got - 2010.06.03 12:15:38.
