data_PCOD9409150
_publ_section_title
;
Structure prediction by ZEFSAII (Michael W. Deem and Ramdas Pophale) SiO2 
 PCOD9409150
Probable space group: P N N A
;
_chemical_formula_sum "Si O2"
_cell_formula_units_Z 48
_cell_length_a 17.398398
_cell_length_b 14.399791
_cell_length_c 8.498146
_cell_angle_alpha 90.000000
_cell_angle_beta 90.000000
_cell_angle_gamma 90.000000
_cell_volume 2129.068518
_symmetry_space_group_name_H-M "P N N A"
_symmetry_group_IT_number 52
_symmetry_cell_setting 'orthorhombic'
loop_
_space_group_symop_operation_xyz
x,y,z
1/2-x,-y,z
x,1/2-y,1/2-z
1/2-x,1/2+y,1/2-z
-x,-y,-z
1/2+x,y,-z
-x,1/2+y,1/2+z
1/2+x,1/2-y,1/2+z
loop_
_atom_site_type_symbol
_atom_site_label
_atom_site_fract_x
_atom_site_fract_y
_atom_site_fract_z
Si Si1 0.483181 0.984613 0.185984
Si Si2 0.197047 0.715040 0.405428
Si Si3 0.121650 0.854627 0.808135
Si Si4 0.084661 0.353196 0.717980
Si Si5 0.136647 0.155346 0.150455
Si Si6 0.741260 0.398222 0.092783
O O1 0.545528 0.907657 0.233900
O O2 0.402065 0.937164 0.221681
O O3 0.514467 0.078964 0.258061
O O4 0.500000 0.000000 0.000000
O O5 0.156518 0.750000 0.250000
O O6 0.140021 0.654776 0.508813
O O7 0.271608 0.656362 0.355812
O O8 0.232838 0.805842 0.495959
O O9 0.116407 0.750000 0.750000
O O10 0.195657 0.901846 0.731609
O O11 0.060284 0.250000 0.750000
O O12 0.109286 0.349761 0.532511
O O13 0.158714 0.379137 0.826205
O O14 0.115423 0.250000 0.250000
O O15 0.750000 0.500000 0.013634
#
# Coordination Sequence:
#
# PCOD9409150 Si02
#       6
#     8   8   8   8   8   8
#     4  10  22  36  58  91 121 160 208 249 304 370
#     4  10  21  38  63  86 125 159 197 252 321 367
#     4  10  19  36  63  90 117 157 207 257 297 358
#     4  11  19  37  61  87 117 157 209 253 297 363
#     4  10  20  37  59  87 126 164 197 244 314 371
#     4  11  19  35  64  94 114 154 210 257 301 358
#
# _framework density 22.545071
#
# number of rings (size 3 to 8) (size 9 to 14) (size 15 to 20)
#    0.000    1.667    5.000    1.000    0.000    0.000 
#    0.000   11.667    0.000    0.000    0.000    0.000 
#    0.000    0.000    0.000    0.000    0.000    0.000 
#
# Total GULP energy -267824.754914 kJ/mol
# GULP energy per Si atom -5579.682394 kJ/mol
# Density = 2.249376 g / cm^3
# Si number density = 22.545071 Si / 1000 Ang^3
#
#
#
# Elastic Constant Matrix: (Units=GPa)
#
#
# Indices 1 2 3 4 5 6 
#
# 1 45.9043 37.9451 2.1232 0.0000 0.0000 0.0000
# 2 37.9451 108.5291 -15.6729 0.0000 0.0000 0.0000
# 3 2.1232 -15.6729 44.3863 0.0000 0.0000 0.0000
# 4 0.0000 0.0000 0.0000 20.8846 0.0000 0.0000
# 5 0.0000 0.0000 0.0000 0.0000 5.3562 0.0000
# 6 0.0000 0.0000 0.0000 0.0000 0.0000 21.8747
#
#
#
# Elastic Compliance Matrix: (Units=1/GPa)
#
#
# Indices 1 2 3 4 5 6 
#
# 1 0.031984 -0.012016 -0.005773 0.000000 0.000000 0.000000
# 2 -0.012016 0.014224 0.005597 0.000000 0.000000 0.000000
# 3 -0.005773 0.005597 0.024782 0.000000 0.000000 0.000000
# 4 0.000000 0.000000 0.000000 0.047882 0.000000 0.000000
# 5 0.000000 0.000000 0.000000 0.000000 0.186701 0.000000
# 6 0.000000 0.000000 0.000000 0.000000 0.000000 0.045715
#
#
# Mechanical properties :
#
#
# Convention : Reuss Voigt Hill
#
# Bulk Modulus (GPa) = 21.45653 27.51227 24.48440
# Shear Modulus (GPa) = 12.78092 21.25138 17.01615
#
# Velocity S-wave (km/s) = 2.38356 3.07354 2.75027
# Velocity P-wave (km/s) = 4.13678 4.98249 4.57920
#
# Compressibility (1/GPa) = 0.04660585
#
# Stress axis : x y z
#
# Youngs Moduli (GPa) = 31.26520 70.30498 40.35178
#
# Poissons Ratio (x) = 0.84482 0.23295
# Poissons Ratio (y) = 0.37570 -0.22586
# Poissons Ratio (z) = 0.18049 -0.39351
#
# Static dielectric constant tensor:
#      x y z
#    x 1.828800 0.000000 0.000000 
#    y 0.000000 1.866320 0.000000 
#    z 0.000000 0.000000 1.944440 
# 
# From -- ./inp_files/12111.got.cif
#   From: 2010.05.17/outbox.cif.g08.bks.cpg/sg52_7_cif.got.tgz:12111.got - 2010.06.03 12:15:38.
