data_PCOD9409651
_publ_section_title
;
Structure prediction by ZEFSAII (Michael W. Deem and Ramdas Pophale) SiO2 
 PCOD9409651
Probable space group: P N N A
;
_chemical_formula_sum "Si O2"
_cell_formula_units_Z 52
_cell_length_a 22.951050
_cell_length_b 8.175239
_cell_length_c 14.019809
_cell_angle_alpha 90.000000
_cell_angle_beta 90.000000
_cell_angle_gamma 90.000000
_cell_volume 2630.541236
_symmetry_space_group_name_H-M "P N N A"
_symmetry_group_IT_number 52
_symmetry_cell_setting 'orthorhombic'
loop_
_space_group_symop_operation_xyz
x,y,z
1/2-x,-y,z
x,1/2-y,1/2-z
1/2-x,1/2+y,1/2-z
-x,-y,-z
1/2+x,y,-z
-x,1/2+y,1/2+z
1/2+x,1/2-y,1/2+z
loop_
_atom_site_type_symbol
_atom_site_label
_atom_site_fract_x
_atom_site_fract_y
_atom_site_fract_z
Si Si1 0.930108 0.073321 0.798779
Si Si2 0.311530 0.062390 0.280905
Si Si3 0.204893 0.127865 0.925581
Si Si4 0.390232 0.120445 0.987274
Si Si5 0.132691 0.250000 0.750000
Si Si6 0.208458 0.867638 0.498082
Si Si7 0.054798 0.928906 0.789948
O O1 0.938058 0.250000 0.750000
O O2 0.871178 0.989163 0.758893
O O3 0.919419 0.113866 0.909863
O O4 0.987197 0.969900 0.775887
O O5 0.315002 0.250000 0.250000
O O6 0.308140 0.058968 0.395483
O O7 0.250000 0.000000 0.242762
O O8 0.173122 0.234150 0.844211
O O9 0.250000 0.000000 0.876537
O O10 0.245042 0.220423 0.001999
O O11 0.155829 0.026833 0.979755
O O12 0.351517 0.284426 0.967044
O O13 0.434614 0.087795 0.902757
O O14 0.093425 0.416649 0.748085
O O15 0.250000 0.000000 0.550742
O O16 0.070991 0.750000 0.750000
#
# Coordination Sequence:
#
# PCOD9409651 Si02
#       7
#     8   8   8   8   4   8   8
#     4  11  21  42  66  89 131 174 213 277 332 387
#     4  10  21  34  59  90 125 163 201 263 327 391
#     4   9  21  38  61  91 126 170 214 253 335 397
#     4  10  21  41  63  92 126 170 213 268 330 387
#     4  10  22  44  64  92 134 172 214 284 320 372
#     4  10  20  35  56  93 127 160 207 262 320 397
#     4  11  25  44  69  94 125 176 231 273 323 388
#
# _framework density 19.767795
#
# number of rings (size 3 to 8) (size 9 to 14) (size 15 to 20)
#    0.000    1.846    3.846    0.462    4.308    1.231 
#   12.462    0.769    0.000    0.000    0.000    0.000 
#    0.000    0.000    0.000    0.000    0.000    0.000 
#
# Total GULP energy -289517.175138 kJ/mol
# GULP energy per Si atom -5567.637983 kJ/mol
# Density = 1.972280 g / cm^3
# Si number density = 19.767795 Si / 1000 Ang^3
#
#
#
# Elastic Constant Matrix: (Units=GPa)
#
#
# Indices 1 2 3 4 5 6 
#
# 1 97.8990 26.1186 26.5661 0.0000 0.0000 0.0000
# 2 26.1186 74.5514 26.9732 0.0000 0.0000 0.0000
# 3 26.5661 26.9732 84.1523 0.0000 0.0000 0.0000
# 4 0.0000 0.0000 0.0000 18.2636 0.0000 0.0000
# 5 0.0000 0.0000 0.0000 0.0000 28.0370 0.0000
# 6 0.0000 0.0000 0.0000 0.0000 0.0000 27.6409
#
#
#
# Elastic Compliance Matrix: (Units=1/GPa)
#
#
# Indices 1 2 3 4 5 6 
#
# 1 0.011791 -0.003149 -0.002713 0.000000 0.000000 0.000000
# 2 -0.003149 0.016014 -0.004139 0.000000 0.000000 0.000000
# 3 -0.002713 -0.004139 0.014066 0.000000 0.000000 0.000000
# 4 0.000000 0.000000 0.000000 0.054754 0.000000 0.000000
# 5 0.000000 0.000000 0.000000 0.000000 0.035667 0.000000
# 6 0.000000 0.000000 0.000000 0.000000 0.000000 0.036178
#
#
# Mechanical properties :
#
#
# Convention : Reuss Voigt Hill
#
# Bulk Modulus (GPa) = 45.72574 46.21317 45.96945
# Shear Modulus (GPa) = 25.54112 26.58463 26.06287
#
# Velocity S-wave (km/s) = 3.59842 3.67119 3.63499
# Velocity P-wave (km/s) = 6.35975 6.43420 6.39709
#
# Compressibility (1/GPa) = 0.02186952
#
# Stress axis : x y z
#
# Youngs Moduli (GPa) = 84.81049 62.44384 71.09220
#
# Poissons Ratio (x) = 0.19666 0.19286
# Poissons Ratio (y) = 0.26710 0.29424
# Poissons Ratio (z) = 0.23008 0.25844
#
# Static dielectric constant tensor:
#      x y z
#    x 1.727410 0.000000 0.000000 
#    y 0.000000 1.776640 0.000000 
#    z 0.000000 0.000000 1.696470 
# 
# From -- ./inp_files/28684.got.cif
#   From: 2010.05.17/outbox.cif.g08.bks.cpg/sg52_15_cif.got.tgz:28684.got - 2010.06.03 12:15:38.
