data_PCOD9409649
_publ_section_title
;
Structure prediction by ZEFSAII (Michael W. Deem and Ramdas Pophale) SiO2 
 PCOD9409649
Probable space group: P N N A
;
_chemical_formula_sum "Si O2"
_cell_formula_units_Z 36
_cell_length_a 5.233825
_cell_length_b 20.513871
_cell_length_c 16.261442
_cell_angle_alpha 90.000000
_cell_angle_beta 90.000000
_cell_angle_gamma 90.000000
_cell_volume 1745.926159
_symmetry_space_group_name_H-M "P N N A"
_symmetry_group_IT_number 52
_symmetry_cell_setting 'orthorhombic'
loop_
_space_group_symop_operation_xyz
x,y,z
1/2-x,-y,z
x,1/2-y,1/2-z
1/2-x,1/2+y,1/2-z
-x,-y,-z
1/2+x,y,-z
-x,1/2+y,1/2+z
1/2+x,1/2-y,1/2+z
loop_
_atom_site_type_symbol
_atom_site_label
_atom_site_fract_x
_atom_site_fract_y
_atom_site_fract_z
Si Si1 0.010749 0.073472 0.036563
Si Si2 0.250000 0.000000 0.651680
Si Si3 0.524754 0.117518 0.446842
Si Si4 0.471128 0.823505 0.724805
Si Si5 0.020827 0.401418 0.273107
O O1 0.030514 0.071907 0.134218
O O2 0.753581 0.106403 0.005081
O O3 0.000000 0.000000 0.000000
O O4 0.082091 0.047928 0.595838
O O5 0.435001 0.042592 0.709627
O O6 0.243907 0.123708 0.484478
O O7 0.561073 0.168677 0.373155
O O8 0.524653 0.750000 0.750000
O O9 0.209784 0.849314 0.765858
O O10 0.708870 0.869520 0.750169
#
# Coordination Sequence:
#
# PCOD9409649 Si02
#       5
#     8   4   8   8   8
#     4  10  20  35  56  87 128 162 194 250 310 366
#     4  10  22  38  64  98 132 164 200 252 326 398
#     4  11  23  40  63  95 127 159 199 257 315 369
#     4  11  25  46  66  87 122 172 220 259 301 368
#     4  11  23  40  65  94 125 169 212 255 318 384
#
# _framework density 20.619430999999999
#
# number of rings (size 3 to 8) (size 9 to 14) (size 15 to 20)
#    0.000    1.333    0.000    6.667    0.000   12.444 
#    0.000    6.667    0.000    0.000    0.000    0.000 
#    0.000    0.000    0.000    0.000    0.000    0.000 
#
# Total GULP energy -201325.478900 kJ/mol
# GULP energy per Si atom -5592.374414 kJ/mol
# Density = 2.057250 g / cm^3
# Si number density = 20.619431 Si / 1000 Ang^3
#
#
#
# Elastic Constant Matrix: (Units=GPa)
#
#
# Indices 1 2 3 4 5 6 
#
# 1 96.5019 -15.8638 -4.4877 0.0000 0.0000 0.0000
# 2 -15.8638 63.1044 19.3244 0.0000 0.0000 0.0000
# 3 -4.4877 19.3244 107.2416 0.0000 0.0000 0.0000
# 4 0.0000 0.0000 0.0000 13.4446 0.0000 0.0000
# 5 0.0000 0.0000 0.0000 0.0000 31.3128 0.0000
# 6 0.0000 0.0000 0.0000 0.0000 0.0000 16.3991
#
#
#
# Elastic Compliance Matrix: (Units=1/GPa)
#
#
# Indices 1 2 3 4 5 6 
#
# 1 0.010809 0.002729 -0.000039 0.000000 0.000000 0.000000
# 2 0.002729 0.017461 -0.003032 0.000000 0.000000 0.000000
# 3 -0.000039 -0.003032 0.009869 0.000000 0.000000 0.000000
# 4 0.000000 0.000000 0.000000 0.074379 0.000000 0.000000
# 5 0.000000 0.000000 0.000000 0.000000 0.031936 0.000000
# 6 0.000000 0.000000 0.000000 0.000000 0.000000 0.060979
#
#
# Mechanical properties :
#
#
# Convention : Reuss Voigt Hill
#
# Bulk Modulus (GPa) = 26.69820 29.42152 28.05986
# Shear Modulus (GPa) = 22.87241 30.08964 26.48103
#
# Velocity S-wave (km/s) = 3.33418 3.82420 3.58757
# Velocity P-wave (km/s) = 5.27243 5.81371 5.54967
#
# Compressibility (1/GPa) = 0.03745571
#
# Stress axis : x y z
#
# Youngs Moduli (GPa) = 92.51257 57.26891 101.32249
#
# Poissons Ratio (x) = -0.15631 0.00400
# Poissons Ratio (y) = -0.25251 0.30723
# Poissons Ratio (z) = 0.00365 0.17365
#
# Static dielectric constant tensor:
#      x y z
#    x 1.712810 0.000000 0.000000 
#    y 0.000000 1.703800 0.000000 
#    z 0.000000 0.000000 1.720550 
# 
# From -- ./inp_files/23567.got.cif
#   From: 2010.05.17/outbox.cif.g08.bks.cpg/sg52_12_cif.got.tgz:23567.got - 2010.06.03 12:15:38.
