data_PCOD9409454
_publ_section_title
;
Structure prediction by ZEFSAII (Michael W. Deem and Ramdas Pophale) SiO2 
 PCOD9409454
Probable space group: P N N A
;
_chemical_formula_sum "Si O2"
_cell_formula_units_Z 56
_cell_length_a 27.277887
_cell_length_b 17.801963
_cell_length_c 5.312890
_cell_angle_alpha 90.000000
_cell_angle_beta 90.000000
_cell_angle_gamma 90.000000
_cell_volume 2579.939039
_symmetry_space_group_name_H-M "P N N A"
_symmetry_group_IT_number 52
_symmetry_cell_setting 'orthorhombic'
loop_
_space_group_symop_operation_xyz
x,y,z
1/2-x,-y,z
x,1/2-y,1/2-z
1/2-x,1/2+y,1/2-z
-x,-y,-z
1/2+x,y,-z
-x,1/2+y,1/2+z
1/2+x,1/2-y,1/2+z
loop_
_atom_site_type_symbol
_atom_site_label
_atom_site_fract_x
_atom_site_fract_y
_atom_site_fract_z
Si Si1 0.759583 0.250000 0.250000
Si Si2 0.318187 0.114737 0.998714
Si Si3 0.750000 0.500000 0.254229
Si Si4 0.142069 0.340522 0.280036
Si Si5 0.524188 0.840952 0.737683
Si Si6 0.759569 0.867377 0.618189
Si Si7 0.078968 0.658452 0.731674
Si Si8 0.912183 0.841445 0.278041
O O1 0.792226 0.183988 0.141448
O O2 0.730717 0.209826 0.470417
O O3 0.292567 0.037613 0.917686
O O4 0.373045 0.122107 0.898261
O O5 0.296403 0.128278 0.280428
O O6 0.768328 0.565153 0.070762
O O7 0.139012 0.250000 0.250000
O O8 0.197850 0.367814 0.324599
O O9 0.109427 0.367408 0.512340
O O10 0.120589 0.367325 0.012686
O O11 0.526079 0.750000 0.750000
O O12 0.561389 0.864438 0.512618
O O13 0.468585 0.863293 0.678667
O O14 0.538099 0.861515 0.023069
O O15 0.085835 0.750000 0.750000
O O16 0.911275 0.750000 0.250000
#
# Coordination Sequence:
#
# PCOD9409454 Si02
#       8
#     4   8   4   8   8   8   8   8
#     4  10  22  34  60  84 124 154 196 258 314 352
#     4  11  22  39  58  86 122 161 205 258 302 374
#     4  10  26  42  58  78 124 162 216 248 318 354
#     4  10  20  32  57  86 119 160 201 244 309 365
#     4   9  18  32  51  83 123 155 192 245 309 369
#     4  11  24  39  59  87 122 164 207 258 305 378
#     4  10  20  32  57  86 117 158 199 245 311 368
#     4   9  18  32  51  83 123 157 192 245 308 368
#
# _framework density 21.705940999999999
#
# number of rings (size 3 to 8) (size 9 to 14) (size 15 to 20)
#    0.000    2.000    0.714    2.571   11.000    4.571 
#    0.000    0.000    0.000    0.000    0.000    6.000 
#    0.000    0.000    0.000    0.000    0.000    0.000 
#
# Total GULP energy -312306.579115 kJ/mol
# GULP energy per Si atom -5576.903198 kJ/mol
# Density = 2.165654 g / cm^3
# Si number density = 21.705941 Si / 1000 Ang^3
#
#
#
# Elastic Constant Matrix: (Units=GPa)
#
#
# Indices 1 2 3 4 5 6 
#
# 1 100.8419 4.3444 31.4034 0.0000 0.0000 0.0000
# 2 4.3444 30.8694 17.6705 0.0000 0.0000 0.0000
# 3 31.4034 17.6705 123.0924 0.0000 0.0000 0.0000
# 4 0.0000 0.0000 0.0000 14.6607 0.0000 0.0000
# 5 0.0000 0.0000 0.0000 0.0000 17.9266 0.0000
# 6 0.0000 0.0000 0.0000 0.0000 0.0000 -2.3927
#
#
#
# Elastic Compliance Matrix: (Units=1/GPa)
#
#
# Indices 1 2 3 4 5 6 
#
# 1 0.010772 0.000062 -0.002757 0.000000 0.000000 0.000000
# 2 0.000062 0.035295 -0.005083 0.000000 0.000000 0.000000
# 3 -0.002757 -0.005083 0.009557 0.000000 0.000000 0.000000
# 4 0.000000 0.000000 0.000000 0.068210 0.000000 0.000000
# 5 0.000000 0.000000 0.000000 0.000000 0.055783 0.000000
# 6 0.000000 0.000000 0.000000 0.000000 0.000000 -0.417943
#
#
# Mechanical properties :
#
#
# Convention : Reuss Voigt Hill
#
# Bulk Modulus (GPa) = 24.95665 40.18224 32.56945
# Shear Modulus (GPa) = -23.87622 19.46462 -2.20580
#
# Velocity S-wave (km/s) = -3.32020 2.99781 -1.00917
# Velocity P-wave (km/s) = 1.78206 5.52583 3.69858
#
# Compressibility (1/GPa) = 0.04006948
#
# Stress axis : x y z
#
# Youngs Moduli (GPa) = 92.82931 28.33241 104.63483
#
# Poissons Ratio (x) = -0.00176 0.28850
# Poissons Ratio (y) = -0.00578 0.53183
# Poissons Ratio (z) = 0.25595 0.14400
#
# Static dielectric constant tensor:
#      x y z
#    x 1.804810 0.000000 0.000000 
#    y 0.000000 1.832460 0.000000 
#    z 0.000000 0.000000 1.928720 
# 
# From -- ./inp_files/5249.got.cif
#   From: 2010.05.17/outbox.cif.g08.bks.cpg/sg52_3_cif.got.tgz:5249.got - 2010.06.03 12:15:38.
