data_PCOD9409100
_publ_section_title
;
Structure prediction by ZEFSAII (Michael W. Deem and Ramdas Pophale) SiO2 
 PCOD9409100
Probable space group: P N N A
;
_chemical_formula_sum "Si O2"
_cell_formula_units_Z 40
_cell_length_a 17.179715
_cell_length_b 13.558092
_cell_length_c 7.806578
_cell_angle_alpha 90.000000
_cell_angle_beta 90.000000
_cell_angle_gamma 90.000000
_cell_volume 1818.340596
_symmetry_space_group_name_H-M "P N N A"
_symmetry_group_IT_number 52
_symmetry_cell_setting 'orthorhombic'
loop_
_space_group_symop_operation_xyz
x,y,z
1/2-x,-y,z
x,1/2-y,1/2-z
1/2-x,1/2+y,1/2-z
-x,-y,-z
1/2+x,y,-z
-x,1/2+y,1/2+z
1/2+x,1/2-y,1/2+z
loop_
_atom_site_type_symbol
_atom_site_label
_atom_site_fract_x
_atom_site_fract_y
_atom_site_fract_z
Si Si1 0.116465 0.860042 0.707753
Si Si2 0.037428 0.662934 0.143339
Si Si3 0.218247 0.398769 0.924163
Si Si4 0.106542 0.237573 0.054380
Si Si5 0.582688 0.050789 0.154236
O O1 0.092951 0.750000 0.750000
O O2 0.209346 0.865383 0.691118
O O3 0.083307 0.881772 0.516870
O O4 0.085146 0.933176 0.853842
O O5 0.079953 0.750000 0.250000
O O6 0.000897 0.582604 0.270683
O O7 0.961554 0.716608 0.062550
O O8 0.250000 0.500000 0.014296
O O9 0.147620 0.430936 0.801557
O O10 0.183587 0.304864 0.024412
O O11 0.085558 0.250000 0.250000
O O12 0.108948 0.123351 0.997051
#
# Coordination Sequence:
#
# PCOD9409100 Si02
#       5
#     8   8   8   8   8
#     4  11  20  33  54  84 112 138 179 233 277 321
#     4   9  19  36  55  76 107 145 183 224 275 331
#     4   9  19  36  56  77 106 143 179 218 274 333
#     4  10  19  36  58  80 107 144 188 229 273 337
#     4   9  19  37  57  75 105 152 184 212 273 344
#
# _framework density 21.998080000000002
#
# number of rings (size 3 to 8) (size 9 to 14) (size 15 to 20)
#    0.000    2.400    0.000    4.200    0.000    0.800 
#    0.000   20.000    0.000    0.000    0.000    0.000 
#    0.000    0.000    0.000    0.000    0.000    0.000 
#
# Total GULP energy -223067.633776 kJ/mol
# GULP energy per Si atom -5576.690844 kJ/mol
# Density = 2.194801 g / cm^3
# Si number density = 21.998080 Si / 1000 Ang^3
#
#
#
# Elastic Constant Matrix: (Units=GPa)
#
#
# Indices 1 2 3 4 5 6 
#
# 1 50.9937 17.5649 6.1473 0.0000 0.0000 0.0000
# 2 17.5649 167.8949 40.6750 0.0000 0.0000 0.0000
# 3 6.1473 40.6750 76.9139 0.0000 0.0000 0.0000
# 4 0.0000 0.0000 0.0000 22.1003 0.0000 0.0000
# 5 0.0000 0.0000 0.0000 0.0000 4.2600 0.0000
# 6 0.0000 0.0000 0.0000 0.0000 0.0000 5.3134
#
#
#
# Elastic Compliance Matrix: (Units=1/GPa)
#
#
# Indices 1 2 3 4 5 6 
#
# 1 0.020365 -0.001991 -0.000575 0.000000 0.000000 0.000000
# 2 -0.001991 0.007026 -0.003556 0.000000 0.000000 0.000000
# 3 -0.000575 -0.003556 0.014928 0.000000 0.000000 0.000000
# 4 0.000000 0.000000 0.000000 0.045248 0.000000 0.000000
# 5 0.000000 0.000000 0.000000 0.000000 0.234742 0.000000
# 6 0.000000 0.000000 0.000000 0.000000 0.000000 0.188203
#
#
# Mechanical properties :
#
#
# Convention : Reuss Voigt Hill
#
# Bulk Modulus (GPa) = 33.25033 47.17521 40.21277
# Shear Modulus (GPa) = 9.38469 21.76242 15.57355
#
# Velocity S-wave (km/s) = 2.06770 3.14871 2.66362
# Velocity P-wave (km/s) = 4.56601 5.89159 5.27064
#
# Compressibility (1/GPa) = 0.03007489
#
# Stress axis : x y z
#
# Youngs Moduli (GPa) = 49.10272 142.32735 66.98693
#
# Poissons Ratio (x) = 0.28343 0.03849
# Poissons Ratio (y) = 0.09778 0.23824
# Poissons Ratio (z) = 0.02821 0.50619
#
# Static dielectric constant tensor:
#      x y z
#    x 1.792880 0.000000 0.000000 
#    y 0.000000 1.969750 0.000000 
#    z 0.000000 0.000000 1.817450 
# 
# From -- ./inp_files/13157.got.cif
#   From: 2010.05.17/outbox.cif.g08.bks.cpg/sg52_7_cif.got.tgz:13157.got - 2010.06.03 12:15:38.
