data_PCOD9409492
_publ_section_title
;
Structure prediction by ZEFSAII (Michael W. Deem and Ramdas Pophale) SiO2 
 PCOD9409492
Probable space group: P N N A
;
_chemical_formula_sum "Si O2"
_cell_formula_units_Z 48
_cell_length_a 10.812208
_cell_length_b 22.647438
_cell_length_c 8.122532
_cell_angle_alpha 90.000000
_cell_angle_beta 90.000000
_cell_angle_gamma 90.000000
_cell_volume 1988.954748
_symmetry_space_group_name_H-M "P N N A"
_symmetry_group_IT_number 52
_symmetry_cell_setting 'orthorhombic'
loop_
_space_group_symop_operation_xyz
x,y,z
1/2-x,-y,z
x,1/2-y,1/2-z
1/2-x,1/2+y,1/2-z
-x,-y,-z
1/2+x,y,-z
-x,1/2+y,1/2+z
1/2+x,1/2-y,1/2+z
loop_
_atom_site_type_symbol
_atom_site_label
_atom_site_fract_x
_atom_site_fract_y
_atom_site_fract_z
Si Si1 0.376600 0.858903 0.537777
Si Si2 0.123638 0.932840 0.535649
Si Si3 0.250849 0.808324 0.840951
Si Si4 0.053354 0.915239 0.870730
Si Si5 0.647051 0.545439 0.693160
Si Si6 0.809906 0.657595 0.693227
O O1 0.263076 0.906283 0.540908
O O2 0.511880 0.886079 0.503629
O O3 0.360701 0.827347 0.714466
O O4 0.343131 0.819812 0.375730
O O5 0.094300 0.955856 0.717866
O O6 0.116086 0.974610 0.377554
O O7 0.198614 0.750000 0.750000
O O8 0.150087 0.860684 0.852149
O O9 0.292073 0.802968 0.031035
O O10 0.920741 0.887163 0.846437
O O11 0.053734 0.945919 0.045999
O O12 0.750000 0.500000 0.631756
O O13 0.695345 0.612822 0.712581
#
# Coordination Sequence:
#
# PCOD9409492 Si02
#       6
#     8   8   8   8   8   8
#     4   9  18  35  57  77 106 149 181 223 285 331
#     4   9  18  35  56  76 109 148 181 225 281 330
#     4  10  20  35  54  81 107 140 189 230 280 338
#     4   9  19  37  55  74 113 151 182 234 288 333
#     4  10  20  33  55  84 111 146 194 236 280 343
#     4   9  19  37  55  74 111 149 181 233 288 332
#
# _framework density 24.133279000000002
#
# number of rings (size 3 to 8) (size 9 to 14) (size 15 to 20)
#    0.000    2.667    0.000    1.000    0.000    2.000 
#    9.000    7.500    0.000    0.000    0.000    0.000 
#    0.000    0.000    0.000    0.000    0.000    0.000 
#
# Total GULP energy -267502.369974 kJ/mol
# GULP energy per Si atom -5572.966041 kJ/mol
# Density = 2.407835 g / cm^3
# Si number density = 24.133279 Si / 1000 Ang^3
#
#
#
# Elastic Constant Matrix: (Units=GPa)
#
#
# Indices 1 2 3 4 5 6 
#
# 1 75.1000 15.3360 23.9395 0.0000 0.0000 0.0000
# 2 15.3360 51.8785 24.6591 0.0000 0.0000 0.0000
# 3 23.9395 24.6591 128.6257 0.0000 0.0000 0.0000
# 4 0.0000 0.0000 0.0000 13.4466 0.0000 0.0000
# 5 0.0000 0.0000 0.0000 0.0000 25.0818 0.0000
# 6 0.0000 0.0000 0.0000 0.0000 0.0000 5.3336
#
#
#
# Elastic Compliance Matrix: (Units=1/GPa)
#
#
# Indices 1 2 3 4 5 6 
#
# 1 0.014664 -0.003342 -0.002088 0.000000 0.000000 0.000000
# 2 -0.003342 0.021970 -0.003590 0.000000 0.000000 0.000000
# 3 -0.002088 -0.003590 0.008851 0.000000 0.000000 0.000000
# 4 0.000000 0.000000 0.000000 0.074368 0.000000 0.000000
# 5 0.000000 0.000000 0.000000 0.000000 0.039870 0.000000
# 6 0.000000 0.000000 0.000000 0.000000 0.000000 0.187490
#
#
# Mechanical properties :
#
#
# Convention : Reuss Voigt Hill
#
# Bulk Modulus (GPa) = 36.43734 42.60816 39.52275
# Shear Modulus (GPa) = 13.35461 21.55038 17.45250
#
# Velocity S-wave (km/s) = 2.35493 2.99151 2.69210
# Velocity P-wave (km/s) = 4.74610 5.44296 5.10643
#
# Compressibility (1/GPa) = 0.02744437
#
# Stress axis : x y z
#
# Youngs Moduli (GPa) = 68.19518 45.51631 112.97612
#
# Poissons Ratio (x) = 0.15212 0.23595
# Poissons Ratio (y) = 0.22792 0.40558
# Poissons Ratio (z) = 0.14242 0.16340
#
# Static dielectric constant tensor:
#      x y z
#    x 1.905570 0.000000 0.000000 
#    y 0.000000 1.945460 0.000000 
#    z 0.000000 0.000000 2.020120 
# 
# From -- ./inp_files/8846.got.cif
#   From: 2010.05.17/outbox.cif.g08.bks.cpg/sg52_5_cif.got.tgz:8846.got - 2010.06.03 12:15:38.
