data_PCOD9409326
_publ_section_title
;
Structure prediction by ZEFSAII (Michael W. Deem and Ramdas Pophale) SiO2 
 PCOD9409326
Probable space group: P N N A
;
_chemical_formula_sum "Si O2"
_cell_formula_units_Z 48
_cell_length_a 8.348706
_cell_length_b 14.009618
_cell_length_c 20.244707
_cell_angle_alpha 90.000000
_cell_angle_beta 90.000000
_cell_angle_gamma 90.000000
_cell_volume 2367.865102
_symmetry_space_group_name_H-M "P N N A"
_symmetry_group_IT_number 52
_symmetry_cell_setting 'orthorhombic'
loop_
_space_group_symop_operation_xyz
x,y,z
1/2-x,-y,z
x,1/2-y,1/2-z
1/2-x,1/2+y,1/2-z
-x,-y,-z
1/2+x,y,-z
-x,1/2+y,1/2+z
1/2+x,1/2-y,1/2+z
loop_
_atom_site_type_symbol
_atom_site_label
_atom_site_fract_x
_atom_site_fract_y
_atom_site_fract_z
Si Si1 0.750000 0.500000 0.248830
Si Si2 0.511323 0.008241 0.653586
Si Si3 0.750000 0.000000 0.763294
Si Si4 0.412951 0.187095 0.185468
Si Si5 0.799680 0.316536 0.312322
Si Si6 0.835440 0.321781 0.076311
Si Si7 0.448920 0.170000 0.426837
O O1 0.622233 0.453022 0.198646
O O2 0.841049 0.424080 0.293436
O O3 0.421261 0.089207 0.612386
O O4 0.627782 0.046877 0.710160
O O5 0.593262 0.932232 0.605377
O O6 0.668596 0.915829 0.805291
O O7 0.372760 0.250000 0.250000
O O8 0.606196 0.179010 0.182929
O O9 0.375430 0.248088 0.119973
O O10 0.841033 0.250000 0.250000
O O11 0.869494 0.270562 0.378223
O O12 0.642818 0.330306 0.074941
O O13 0.894297 0.318013 0.001569
#
# Coordination Sequence:
#
# PCOD9409326 Si02
#       7
#     4   8   4   8   8   8   8
#     4  12  18  40  66  92 120 168 220 262 332 374
#     4  12  22  39  64  97 127 165 212 275 328 390
#     4  12  24  38  66  98 128 168 220 272 330 386
#     4  10  20  41  62  87 127 169 210 265 331 377
#     4  10  19  39  65  88 124 167 214 271 319 386
#     4  11  24  40  62  93 128 171 216 262 331 391
#     4  11  23  42  63  89 132 171 209 268 329 392
#
# _framework density 20.271426000000002
#
# number of rings (size 3 to 8) (size 9 to 14) (size 15 to 20)
#    0.000    1.000    6.667    1.500    2.333    0.000 
#    6.000    0.833    0.000    4.000    0.000    0.000 
#    0.000    0.000    0.000    0.000    0.000    0.000 
#
# Total GULP energy -268016.177012 kJ/mol
# GULP energy per Si atom -5583.670354 kJ/mol
# Density = 2.022529 g / cm^3
# Si number density = 20.271426 Si / 1000 Ang^3
#
#
#
# Elastic Constant Matrix: (Units=GPa)
#
#
# Indices 1 2 3 4 5 6 
#
# 1 43.1836 28.5663 40.5893 0.0000 0.0000 0.0000
# 2 28.5663 141.8868 99.0898 0.0000 0.0000 0.0000
# 3 40.5893 99.0898 177.8265 0.0000 0.0000 0.0000
# 4 0.0000 0.0000 0.0000 33.1565 0.0000 0.0000
# 5 0.0000 0.0000 0.0000 0.0000 31.1062 0.0000
# 6 0.0000 0.0000 0.0000 0.0000 0.0000 26.5711
#
#
#
# Elastic Compliance Matrix: (Units=1/GPa)
#
#
# Indices 1 2 3 4 5 6 
#
# 1 0.029841 -0.002048 -0.005670 0.000000 0.000000 0.000000
# 2 -0.002048 0.011678 -0.006040 0.000000 0.000000 0.000000
# 3 -0.005670 -0.006040 0.010283 0.000000 0.000000 0.000000
# 4 0.000000 0.000000 0.000000 0.030160 0.000000 0.000000
# 5 0.000000 0.000000 0.000000 0.000000 0.032148 0.000000
# 6 0.000000 0.000000 0.000000 0.000000 0.000000 0.037635
#
#
# Mechanical properties :
#
#
# Convention : Reuss Voigt Hill
#
# Bulk Modulus (GPa) = 41.17514 77.70974 59.44244
# Shear Modulus (GPa) = 26.68691 31.14354 28.91523
#
# Velocity S-wave (km/s) = 3.63227 3.92385 3.78087
# Velocity P-wave (km/s) = 6.16013 7.67767 6.96038
#
# Compressibility (1/GPa) = 0.02428650
#
# Stress axis : x y z
#
# Youngs Moduli (GPa) = 33.51066 85.62786 97.24478
#
# Poissons Ratio (x) = 0.17538 0.55138
# Poissons Ratio (y) = 0.06864 0.58736
# Poissons Ratio (z) = 0.19001 0.51720
#
# Static dielectric constant tensor:
#      x y z
#    x 1.838290 0.000000 0.000000 
#    y 0.000000 1.752620 0.000000 
#    z 0.000000 0.000000 1.682780 
# 
# From -- ./inp_files/31298.got.cif
#   From: 2010.05.17/outbox.cif.g08.bks.cpg/sg52_16_cif.got.tgz:31298.got - 2010.06.03 12:15:38.
