data_PCOD9409431
_publ_section_title
;
Structure prediction by ZEFSAII (Michael W. Deem and Ramdas Pophale) SiO2 
 PCOD9409431
Probable space group: P N N A
;
_chemical_formula_sum "Si O2"
_cell_formula_units_Z 44
_cell_length_a 29.738096
_cell_length_b 10.623211
_cell_length_c 7.667075
_cell_angle_alpha 90.000000
_cell_angle_beta 90.000000
_cell_angle_gamma 90.000000
_cell_volume 2422.136857
_symmetry_space_group_name_H-M "P N N A"
_symmetry_group_IT_number 52
_symmetry_cell_setting 'orthorhombic'
loop_
_space_group_symop_operation_xyz
x,y,z
1/2-x,-y,z
x,1/2-y,1/2-z
1/2-x,1/2+y,1/2-z
-x,-y,-z
1/2+x,y,-z
-x,1/2+y,1/2+z
1/2+x,1/2-y,1/2+z
loop_
_atom_site_type_symbol
_atom_site_label
_atom_site_fract_x
_atom_site_fract_y
_atom_site_fract_z
Si Si1 0.462203 0.104326 0.469508
Si Si2 0.290799 0.401693 0.743930
Si Si3 0.513251 0.250000 0.750000
Si Si4 0.045311 0.503896 0.390811
Si Si5 0.636653 0.895756 0.540376
Si Si6 0.138457 0.905780 0.057821
O O1 0.480525 0.218000 0.586813
O O2 0.457743 0.109687 0.260314
O O3 0.412377 0.060846 0.525145
O O4 0.500000 0.000000 0.500000
O O5 0.250000 0.500000 0.750638
O O6 0.279277 0.250000 0.750000
O O7 0.320270 0.429881 0.570754
O O8 0.323760 0.425181 0.907765
O O9 0.544263 0.368704 0.704578
O O10 0.091458 0.528042 0.492225
O O11 0.000000 0.500000 0.500000
O O12 0.646195 0.939225 0.738423
O O13 0.631518 0.744381 0.547331
#
# Coordination Sequence:
#
# PCOD9409431 Si02
#       6
#     8   8   4   8   8   8
#     4   9  19  31  50  80 110 148 190 227 277 338
#     4  10  22  39  62  85 111 144 194 245 295 350
#     4  10  20  32  50  76 120 150 188 238 288 334
#     4  10  20  33  52  79 114 150 195 235 283 349
#     4   9  18  34  58  81 109 145 188 233 281 343
#     4   9  19  35  56  82 107 146 191 228 281 350
#
# _framework density 18.165776999999999
#
# number of rings (size 3 to 8) (size 9 to 14) (size 15 to 20)
#    0.000    2.545    0.000    1.091    8.909    2.909 
#    0.000    5.455    0.000    0.000    0.000    0.000 
#    0.000    0.000    0.000    0.000    0.000    0.000 
#
# Total GULP energy -245097.354172 kJ/mol
# GULP energy per Si atom -5570.394413 kJ/mol
# Density = 1.812443 g / cm^3
# Si number density = 18.165777 Si / 1000 Ang^3
#
#
#
# Elastic Constant Matrix: (Units=GPa)
#
#
# Indices 1 2 3 4 5 6 
#
# 1 168.4556 64.6702 66.1624 0.0000 0.0000 0.0000
# 2 64.6702 76.8587 37.2205 0.0000 0.0000 0.0000
# 3 66.1624 37.2205 80.2335 0.0000 0.0000 0.0000
# 4 0.0000 0.0000 0.0000 22.9559 0.0000 0.0000
# 5 0.0000 0.0000 0.0000 0.0000 32.3621 0.0000
# 6 0.0000 0.0000 0.0000 0.0000 0.0000 35.7738
#
#
#
# Elastic Compliance Matrix: (Units=1/GPa)
#
#
# Indices 1 2 3 4 5 6 
#
# 1 0.010579 -0.006032 -0.005926 0.000000 0.000000 0.000000
# 2 -0.006032 0.020220 -0.004406 0.000000 0.000000 0.000000
# 3 -0.005926 -0.004406 0.019394 0.000000 0.000000 0.000000
# 4 0.000000 0.000000 0.000000 0.043562 0.000000 0.000000
# 5 0.000000 0.000000 0.000000 0.000000 0.030900 0.000000
# 6 0.000000 0.000000 0.000000 0.000000 0.000000 0.027953
#
#
# Mechanical properties :
#
#
# Convention : Reuss Voigt Hill
#
# Bulk Modulus (GPa) = 57.25409 73.51712 65.38560
# Shear Modulus (GPa) = 26.15633 28.71801 27.43717
#
# Velocity S-wave (km/s) = 3.79868 3.98035 3.89057
# Velocity P-wave (km/s) = 7.12923 7.85380 7.50027
#
# Compressibility (1/GPa) = 0.01746600
#
# Stress axis : x y z
#
# Youngs Moduli (GPa) = 94.52393 49.45604 51.56213
#
# Poissons Ratio (x) = 0.29832 0.30554
# Poissons Ratio (y) = 0.57016 0.22718
# Poissons Ratio (z) = 0.56012 0.21790
#
# Static dielectric constant tensor:
#      x y z
#    x 1.622450 0.000000 0.000000 
#    y 0.000000 1.656010 0.000000 
#    z 0.000000 0.000000 1.675070 
# 
# From -- ./inp_files/14168.got.cif
#   From: 2010.05.17/outbox.cif.g08.bks.cpg/sg52_8_cif.got.tgz:14168.got - 2010.06.03 12:15:38.
