data_PCOD9409394
_publ_section_title
;
Structure prediction by ZEFSAII (Michael W. Deem and Ramdas Pophale) SiO2 
 PCOD9409394
Probable space group: P N N A
;
_chemical_formula_sum "Si O2"
_cell_formula_units_Z 56
_cell_length_a 18.443370
_cell_length_b 16.863626
_cell_length_c 7.076526
_cell_angle_alpha 90.000000
_cell_angle_beta 90.000000
_cell_angle_gamma 90.000000
_cell_volume 2200.955934
_symmetry_space_group_name_H-M "P N N A"
_symmetry_group_IT_number 52
_symmetry_cell_setting 'orthorhombic'
loop_
_space_group_symop_operation_xyz
x,y,z
1/2-x,-y,z
x,1/2-y,1/2-z
1/2-x,1/2+y,1/2-z
-x,-y,-z
1/2+x,y,-z
-x,1/2+y,1/2+z
1/2+x,1/2-y,1/2+z
loop_
_atom_site_type_symbol
_atom_site_label
_atom_site_fract_x
_atom_site_fract_y
_atom_site_fract_z
Si Si1 0.614217 0.846240 0.085272
Si Si2 0.722314 0.120332 0.497881
Si Si3 0.639009 0.969764 0.544636
Si Si4 0.459411 0.250000 0.250000
Si Si5 0.755554 0.250000 0.250000
Si Si6 0.874386 0.842219 0.802183
Si Si7 0.334568 0.988184 0.015989
Si Si8 0.489535 0.132427 0.571425
O O1 0.691091 0.805021 0.126938
O O2 0.559362 0.831942 0.258837
O O3 0.585593 0.808635 0.889048
O O4 0.621087 0.941632 0.082309
O O5 0.806551 0.100660 0.482813
O O6 0.705824 0.196544 0.378360
O O7 0.704212 0.142816 0.711686
O O8 0.673200 0.045958 0.439840
O O9 0.558859 0.939583 0.507812
O O10 0.657999 0.985764 0.763087
O O11 0.500419 0.194091 0.399875
O O12 0.890376 0.750000 0.750000
O O13 0.867186 0.898050 0.988718
O O14 0.935217 0.885884 0.673504
O O15 0.250000 0.000000 0.963870
#
# Coordination Sequence:
#
# PCOD9409394 Si02
#       8
#     8   8   8   4   4   8   8   8
#     4  12  25  41  74 110 142 195 255 303 376 453
#     4  10  22  39  68 100 141 190 242 302 385 435
#     4  10  19  45  70  98 142 191 247 306 360 464
#     4  12  22  43  72 102 145 190 242 302 366 455
#     4  12  24  41  70 114 149 188 252 324 376 453
#     4  11  26  47  72 106 156 194 245 327 388 456
#     4  11  24  44  72 112 147 203 258 304 397 456
#     4  12  25  47  76 108 148 197 251 311 379 462
#
# _framework density 25.443491000000002
#
# number of rings (size 3 to 8) (size 9 to 14) (size 15 to 20)
#    0.000    0.857    7.143    0.857    2.000    4.571 
#    1.286    0.000    0.000    0.000    0.000    0.000 
#    0.000    0.000    0.000    0.000    0.000    0.000 
#
# Total GULP energy -312880.828349 kJ/mol
# GULP energy per Si atom -5587.157649 kJ/mol
# Density = 2.538558 g / cm^3
# Si number density = 25.443491 Si / 1000 Ang^3
#
#
#
# Elastic Constant Matrix: (Units=GPa)
#
#
# Indices 1 2 3 4 5 6 
#
# 1 87.0477 12.0828 4.4643 0.0000 0.0000 0.0000
# 2 12.0828 98.9105 7.1628 0.0000 0.0000 0.0000
# 3 4.4643 7.1628 84.8271 0.0000 0.0000 0.0000
# 4 0.0000 0.0000 0.0000 51.5648 0.0000 0.0000
# 5 0.0000 0.0000 0.0000 0.0000 19.8697 0.0000
# 6 0.0000 0.0000 0.0000 0.0000 0.0000 28.8621
#
#
#
# Elastic Compliance Matrix: (Units=1/GPa)
#
#
# Indices 1 2 3 4 5 6 
#
# 1 0.011707 -0.001394 -0.000498 0.000000 0.000000 0.000000
# 2 -0.001394 0.010338 -0.000800 0.000000 0.000000 0.000000
# 3 -0.000498 -0.000800 0.011882 0.000000 0.000000 0.000000
# 4 0.000000 0.000000 0.000000 0.019393 0.000000 0.000000
# 5 0.000000 0.000000 0.000000 0.000000 0.050328 0.000000
# 6 0.000000 0.000000 0.000000 0.000000 0.000000 0.034648
#
#
# Mechanical properties :
#
#
# Convention : Reuss Voigt Hill
#
# Bulk Modulus (GPa) = 35.03399 35.35615 35.19507
# Shear Modulus (GPa) = 32.63814 36.53100 34.58457
#
# Velocity S-wave (km/s) = 3.58546 3.79327 3.69083
# Velocity P-wave (km/s) = 5.56237 5.75424 5.65912
#
# Compressibility (1/GPa) = 0.02854371
#
# Stress axis : x y z
#
# Youngs Moduli (GPa) = 85.41884 96.72726 84.15785
#
# Poissons Ratio (x) = 0.13484 0.04195
# Poissons Ratio (y) = 0.11908 0.06729
# Poissons Ratio (z) = 0.04257 0.07734
#
# Static dielectric constant tensor:
#      x y z
#    x 1.946950 0.000000 0.000000 
#    y 0.000000 2.193250 0.000000 
#    z 0.000000 0.000000 2.087400 
# 
# From -- ./inp_files/13577.got.cif
#   From: 2010.05.17/outbox.cif.g08.bks.cpg/sg52_7_cif.got.tgz:13577.got - 2010.06.03 12:15:38.
