data_PCOD9409140
_publ_section_title
;
Structure prediction by ZEFSAII (Michael W. Deem and Ramdas Pophale) SiO2 
 PCOD9409140
Probable space group: P N N A
;
_chemical_formula_sum "Si O2"
_cell_formula_units_Z 36
_cell_length_a 10.647970
_cell_length_b 7.300684
_cell_length_c 19.148943
_cell_angle_alpha 90.000000
_cell_angle_beta 90.000000
_cell_angle_gamma 90.000000
_cell_volume 1488.590271
_symmetry_space_group_name_H-M "P N N A"
_symmetry_group_IT_number 52
_symmetry_cell_setting 'orthorhombic'
loop_
_space_group_symop_operation_xyz
x,y,z
1/2-x,-y,z
x,1/2-y,1/2-z
1/2-x,1/2+y,1/2-z
-x,-y,-z
1/2+x,y,-z
-x,1/2+y,1/2+z
1/2+x,1/2-y,1/2+z
loop_
_atom_site_type_symbol
_atom_site_label
_atom_site_fract_x
_atom_site_fract_y
_atom_site_fract_z
Si Si1 0.250000 0.500000 0.046336
Si Si2 0.634164 0.750000 0.750000
Si Si3 0.514161 0.634949 0.417165
Si Si4 0.250000 0.000000 0.138919
Si Si5 0.007660 0.498113 0.147185
Si Si6 0.123132 0.268221 0.548901
O O1 0.130068 0.506285 0.096633
O O2 0.234187 0.323699 0.995791
O O3 0.719308 0.828172 0.811676
O O4 0.551216 0.583030 0.779627
O O5 0.377863 0.541848 0.401849
O O6 0.490356 0.730765 0.491758
O O7 0.615300 0.475141 0.423659
O O8 0.537523 0.789476 0.359332
O O9 0.908159 0.633456 0.111978
#
# Coordination Sequence:
#
# PCOD9409140 Si02
#       6
#     4   4   8   4   8   8
#     4  10  19  36  62  82 123 160 212 264 324 376
#     4  12  22  34  58  82 126 168 208 248 322 390
#     4  10  21  36  57  83 127 153 210 248 321 375
#     4  12  21  36  56  92 119 170 194 250 312 390
#     4  11  22  39  55  90 123 165 201 258 315 388
#     4  10  21  38  56  87 118 163 200 265 309 372
#
# _framework density 24.183954
#
# number of rings (size 3 to 8) (size 9 to 14) (size 15 to 20)
#    0.000    1.333    2.222    7.333    0.000    0.000 
#    0.000    0.000    0.000    0.000    0.000    7.778 
#    0.000    0.000    0.000    0.000    0.000    0.000 
#
# Total GULP energy -201405.098376 kJ/mol
# GULP energy per Si atom -5594.586066 kJ/mol
# Density = 2.412891 g / cm^3
# Si number density = 24.183954 Si / 1000 Ang^3
#
#
#
# Elastic Constant Matrix: (Units=GPa)
#
#
# Indices 1 2 3 4 5 6 
#
# 1 75.2450 27.5805 25.9423 0.0000 0.0000 0.0000
# 2 27.5805 168.2658 31.9262 0.0000 0.0000 0.0000
# 3 25.9423 31.9262 60.5893 0.0000 0.0000 0.0000
# 4 0.0000 0.0000 0.0000 55.6787 0.0000 0.0000
# 5 0.0000 0.0000 0.0000 0.0000 20.0673 0.0000
# 6 0.0000 0.0000 0.0000 0.0000 0.0000 27.3785
#
#
#
# Elastic Compliance Matrix: (Units=1/GPa)
#
#
# Indices 1 2 3 4 5 6 
#
# 1 0.015908 -0.001461 -0.006041 0.000000 0.000000 0.000000
# 2 -0.001461 0.006737 -0.002924 0.000000 0.000000 0.000000
# 3 -0.006041 -0.002924 0.020632 0.000000 0.000000 0.000000
# 4 0.000000 0.000000 0.000000 0.017960 0.000000 0.000000
# 5 0.000000 0.000000 0.000000 0.000000 0.049832 0.000000
# 6 0.000000 0.000000 0.000000 0.000000 0.000000 0.036525
#
#
# Mechanical properties :
#
#
# Convention : Reuss Voigt Hill
#
# Bulk Modulus (GPa) = 44.59558 52.77754 48.68656
# Shear Modulus (GPa) = 28.42125 35.20162 31.81143
#
# Velocity S-wave (km/s) = 3.43185 3.81934 3.63077
# Velocity P-wave (km/s) = 5.84668 6.42811 6.14428
#
# Compressibility (1/GPa) = 0.02242375
#
# Stress axis : x y z
#
# Youngs Moduli (GPa) = 62.85959 148.42588 48.46770
#
# Poissons Ratio (x) = 0.21689 0.29282
# Poissons Ratio (y) = 0.09185 0.14174
# Poissons Ratio (z) = 0.37977 0.43406
#
# Static dielectric constant tensor:
#      x y z
#    x 1.966390 0.000000 0.000000 
#    y 0.000000 2.043550 0.000000 
#    z 0.000000 0.000000 1.901280 
# 
# From -- ./inp_files/35614.got.cif
#   From: 2010.05.17/outbox.cif.g08.bks.cpg/sg52_18_cif.got.tgz:35614.got - 2010.06.03 12:15:38.
