data_PCOD9409191
_publ_section_title
;
Structure prediction by ZEFSAII (Michael W. Deem and Ramdas Pophale) SiO2 
 PCOD9409191
Probable space group: P N N A
;
_chemical_formula_sum "Si O2"
_cell_formula_units_Z 64
_cell_length_a 8.229298
_cell_length_b 20.500792
_cell_length_c 16.925058
_cell_angle_alpha 90.000000
_cell_angle_beta 90.000000
_cell_angle_gamma 90.000000
_cell_volume 2855.377903
_symmetry_space_group_name_H-M "P N N A"
_symmetry_group_IT_number 52
_symmetry_cell_setting 'orthorhombic'
loop_
_space_group_symop_operation_xyz
x,y,z
1/2-x,-y,z
x,1/2-y,1/2-z
1/2-x,1/2+y,1/2-z
-x,-y,-z
1/2+x,y,-z
-x,1/2+y,1/2+z
1/2+x,1/2-y,1/2+z
loop_
_atom_site_type_symbol
_atom_site_label
_atom_site_fract_x
_atom_site_fract_y
_atom_site_fract_z
Si Si1 0.649343 0.303320 0.305196
Si Si2 0.877114 0.285819 0.443827
Si Si3 0.497916 0.519382 0.772009
Si Si4 0.488967 0.144619 0.535093
Si Si5 0.302779 0.428198 0.091408
Si Si6 0.817236 0.101961 0.313302
Si Si7 0.032916 0.579110 0.388413
Si Si8 0.150736 0.380422 0.457786
O O1 0.565367 0.250000 0.250000
O O2 0.754666 0.269940 0.373411
O O3 0.777221 0.342191 0.249974
O O4 0.526412 0.353963 0.345549
O O5 0.768178 0.323936 0.507183
O O6 0.967886 0.222090 0.476379
O O7 0.006123 0.340940 0.416794
O O8 0.642003 0.556081 0.818798
O O9 0.341115 0.557237 0.805198
O O10 0.470345 0.444245 0.793054
O O11 0.496726 0.525895 0.677792
O O12 0.452196 0.102140 0.457721
O O13 0.658513 0.122672 0.573944
O O14 0.350868 0.126369 0.599073
O O15 0.250000 0.500000 0.059933
O O16 0.223507 0.579046 0.406655
O O17 0.929165 0.578894 0.469644
#
# Coordination Sequence:
#
# PCOD9409191 Si02
#       8
#     8   8   8   8   8   8   8   8
#     4  10  19  37  59  90 124 160 203 246 309 367
#     4  10  20  37  59  84 121 157 199 251 303 368
#     4  10  22  41  60  88 121 160 203 254 310 355
#     4  12  23  37  57  85 121 167 210 246 300 364
#     4  12  25  39  57  86 124 161 210 257 297 356
#     4  10  21  38  63  83 120 167 204 247 306 363
#     4   9  20  39  66  91 124 157 200 256 310 373
#     4   9  19  39  63  89 118 156 198 252 313 363
#
# _framework density 22.413844999999998
#
# number of rings (size 3 to 8) (size 9 to 14) (size 15 to 20)
#    0.000    1.750    2.500    1.875    1.750    1.000 
#   11.250    0.000    0.000   28.500    0.000    0.000 
#    0.000    0.000    0.000    0.000    0.000    0.000 
#
# Total GULP energy -357315.171277 kJ/mol
# GULP energy per Si atom -5583.049551 kJ/mol
# Density = 2.236283 g / cm^3
# Si number density = 22.413845 Si / 1000 Ang^3
#
#
#
# Elastic Constant Matrix: (Units=GPa)
#
#
# Indices 1 2 3 4 5 6 
#
# 1 77.6052 -3.3362 6.8706 0.0000 0.0000 0.0000
# 2 -3.3362 65.8345 9.0317 0.0000 0.0000 0.0000
# 3 6.8706 9.0317 62.9627 0.0000 0.0000 0.0000
# 4 0.0000 0.0000 0.0000 14.9491 0.0000 0.0000
# 5 0.0000 0.0000 0.0000 0.0000 25.9186 0.0000
# 6 0.0000 0.0000 0.0000 0.0000 0.0000 23.2239
#
#
#
# Elastic Compliance Matrix: (Units=1/GPa)
#
#
# Indices 1 2 3 4 5 6 
#
# 1 0.013061 0.000875 -0.001551 0.000000 0.000000 0.000000
# 2 0.000875 0.015553 -0.002326 0.000000 0.000000 0.000000
# 3 -0.001551 -0.002326 0.016385 0.000000 0.000000 0.000000
# 4 0.000000 0.000000 0.000000 0.066893 0.000000 0.000000
# 5 0.000000 0.000000 0.000000 0.000000 0.038582 0.000000
# 6 0.000000 0.000000 0.000000 0.000000 0.000000 0.043059
#
#
# Mechanical properties :
#
#
# Convention : Reuss Voigt Hill
#
# Bulk Modulus (GPa) = 25.64495 25.72605 25.68550
# Shear Modulus (GPa) = 23.52530 25.74074 24.63302
#
# Velocity S-wave (km/s) = 3.24325 3.39253 3.31873
# Velocity P-wave (km/s) = 5.04889 5.18154 5.11564
#
# Compressibility (1/GPa) = 0.03899402
#
# Stress axis : x y z
#
# Youngs Moduli (GPa) = 76.56607 64.29596 61.03011
#
# Poissons Ratio (x) = -0.05623 0.09464
# Poissons Ratio (y) = -0.06696 0.14198
# Poissons Ratio (z) = 0.11873 0.14958
#
# Static dielectric constant tensor:
#      x y z
#    x 1.863530 0.000000 0.000000 
#    y 0.000000 1.870570 0.000000 
#    z 0.000000 0.000000 1.813710 
# 
# From -- ./inp_files/25146.got.cif
#   From: 2010.05.17/outbox.cif.g08.bks.cpg/sg52_13_cif.got.tgz:25146.got - 2010.06.03 12:15:38.
