data_PCOD9409478
_publ_section_title
;
Structure prediction by ZEFSAII (Michael W. Deem and Ramdas Pophale) SiO2 
 PCOD9409478
Probable space group: P N N A
;
_chemical_formula_sum "Si O2"
_cell_formula_units_Z 36
_cell_length_a 4.999362
_cell_length_b 32.004172
_cell_length_c 11.094134
_cell_angle_alpha 90.000000
_cell_angle_beta 90.000000
_cell_angle_gamma 90.000000
_cell_volume 1775.066336
_symmetry_space_group_name_H-M "P N N A"
_symmetry_group_IT_number 52
_symmetry_cell_setting 'orthorhombic'
loop_
_space_group_symop_operation_xyz
x,y,z
1/2-x,-y,z
x,1/2-y,1/2-z
1/2-x,1/2+y,1/2-z
-x,-y,-z
1/2+x,y,-z
-x,1/2+y,1/2+z
1/2+x,1/2-y,1/2+z
loop_
_atom_site_type_symbol
_atom_site_label
_atom_site_fract_x
_atom_site_fract_y
_atom_site_fract_z
Si Si1 0.648721 0.823666 0.811033
Si Si2 0.819180 0.272776 0.375490
Si Si3 0.750000 0.500000 0.589345
Si Si4 0.318190 0.910203 0.084298
Si Si5 0.642719 0.185629 0.445332
O O1 0.400018 0.809091 0.895464
O O2 0.259309 0.765803 0.537030
O O3 0.894538 0.792684 0.841764
O O4 0.747965 0.869932 0.838044
O O5 0.745316 0.250000 0.250000
O O6 0.476776 0.320275 0.177179
O O7 0.500000 0.500000 0.500000
O O8 0.735085 0.454600 0.650630
O O9 0.616732 0.908904 0.030733
O O10 0.441693 0.167270 0.546247
#
# Coordination Sequence:
#
# PCOD9409478 Si02
#       5
#     8   8   4   8   8
#     4  11  21  34  51  75 101 130 175 218 250 302
#     4  10  20  34  48  66  97 132 170 216 253 287
#     4   8  16  32  50  72 102 130 158 198 256 326
#     4  10  20  33  52  77 104 132 163 206 262 316
#     4  11  22  35  51  71 100 141 177 211 257 302
#
# _framework density 20.280933000000001
#
# number of rings (size 3 to 8) (size 9 to 14) (size 15 to 20)
#    0.000    1.778    0.000    7.333    0.000    5.333 
#    0.000    0.000    0.000    0.000    0.000    1.556 
#    0.000    0.000    0.000    0.667    0.000    0.000 
#
# Total GULP energy -200428.592759 kJ/mol
# GULP energy per Si atom -5567.460910 kJ/mol
# Density = 2.023477 g / cm^3
# Si number density = 20.280933 Si / 1000 Ang^3
#
#
#
# Elastic Constant Matrix: (Units=GPa)
#
#
# Indices 1 2 3 4 5 6 
#
# 1 116.0219 -20.5499 1.9989 0.0000 0.0000 0.0000
# 2 -20.5499 98.6684 6.3834 0.0000 0.0000 0.0000
# 3 1.9989 6.3834 33.4130 0.0000 0.0000 0.0000
# 4 0.0000 0.0000 0.0000 16.7829 0.0000 0.0000
# 5 0.0000 0.0000 0.0000 0.0000 18.5831 0.0000
# 6 0.0000 0.0000 0.0000 0.0000 0.0000 22.9298
#
#
#
# Elastic Compliance Matrix: (Units=1/GPa)
#
#
# Indices 1 2 3 4 5 6 
#
# 1 0.008976 0.001928 -0.000905 0.000000 0.000000 0.000000
# 2 0.001928 0.010676 -0.002155 0.000000 0.000000 0.000000
# 3 -0.000905 -0.002155 0.030394 0.000000 0.000000 0.000000
# 4 0.000000 0.000000 0.000000 0.059584 0.000000 0.000000
# 5 0.000000 0.000000 0.000000 0.000000 0.053812 0.000000
# 6 0.000000 0.000000 0.000000 0.000000 0.000000 0.043611
#
#
# Mechanical properties :
#
#
# Convention : Reuss Voigt Hill
#
# Bulk Modulus (GPa) = 20.92839 24.86311 22.89575
# Shear Modulus (GPa) = 22.19795 29.01057 25.60426
#
# Velocity S-wave (km/s) = 3.31195 3.78621 3.55699
# Velocity P-wave (km/s) = 4.99670 5.60356 5.30880
#
# Compressibility (1/GPa) = 0.04778199
#
# Stress axis : x y z
#
# Youngs Moduli (GPa) = 111.40618 93.66863 32.90093
#
# Poissons Ratio (x) = -0.18060 0.02979
# Poissons Ratio (y) = -0.21480 0.07090
# Poissons Ratio (z) = 0.10086 0.20185
#
# Static dielectric constant tensor:
#      x y z
#    x 1.819530 0.000000 0.000000 
#    y 0.000000 1.875660 0.000000 
#    z 0.000000 0.000000 1.901130 
# 
# From -- ./inp_files/16082.got.cif
#   From: 2010.05.17/outbox.cif.g08.bks.cpg/sg52_9_cif.got.tgz:16082.got - 2010.06.03 12:15:38.
