data_PCOD9409576
_publ_section_title
;
Structure prediction by ZEFSAII (Michael W. Deem and Ramdas Pophale) SiO2 
 PCOD9409576
Probable space group: P N N A
;
_chemical_formula_sum "Si O2"
_cell_formula_units_Z 32
_cell_length_a 17.927595
_cell_length_b 5.168550
_cell_length_c 17.059847
_cell_angle_alpha 90.000000
_cell_angle_beta 90.000000
_cell_angle_gamma 90.000000
_cell_volume 1580.759813
_symmetry_space_group_name_H-M "P N N A"
_symmetry_group_IT_number 52
_symmetry_cell_setting 'orthorhombic'
loop_
_space_group_symop_operation_xyz
x,y,z
1/2-x,-y,z
x,1/2-y,1/2-z
1/2-x,1/2+y,1/2-z
-x,-y,-z
1/2+x,y,-z
-x,1/2+y,1/2+z
1/2+x,1/2-y,1/2+z
loop_
_atom_site_type_symbol
_atom_site_label
_atom_site_fract_x
_atom_site_fract_y
_atom_site_fract_z
Si Si1 0.318226 0.681864 0.159080
Si Si2 0.617938 0.956160 0.958699
Si Si3 0.469951 0.342933 0.161058
Si Si4 0.078559 0.030810 0.545371
O O1 0.250000 0.500000 0.134531
O O2 0.307896 0.750000 0.250000
O O3 0.397489 0.529337 0.152374
O O4 0.325721 0.935879 0.106219
O O5 0.628724 0.701828 0.011882
O O6 0.609046 0.194563 0.017761
O O7 0.547626 0.888820 0.901036
O O8 0.471627 0.250000 0.250000
O O9 0.547991 0.469183 0.133935
O O10 0.000000 0.000000 0.500000
#
# Coordination Sequence:
#
# PCOD9409576 Si02
#       4
#     8   8   8   8
#     4  12  25  35  52  78 118 160 205 234 274 340
#     4  11  21  38  54  76 105 154 193 236 283 337
#     4  11  21  35  55  81 111 151 188 242 297 348
#     4  10  20  34  57  76 102 144 193 237 293 338
#
# _framework density 20.24343
#
# number of rings (size 3 to 8) (size 9 to 14) (size 15 to 20)
#    0.000    1.000    7.500    3.750    0.000    0.000 
#    0.000    0.000    0.000    0.000    0.000    0.000 
#    0.000    0.000   17.000    2.750    0.000    0.000 
#
# Total GULP energy -178426.871235 kJ/mol
# GULP energy per Si atom -5575.839726 kJ/mol
# Density = 2.019736 g / cm^3
# Si number density = 20.243430 Si / 1000 Ang^3
#
#
#
# Elastic Constant Matrix: (Units=GPa)
#
#
# Indices 1 2 3 4 5 6 
#
# 1 54.7914 41.3870 48.8600 0.0000 0.0000 0.0000
# 2 41.3870 152.9091 57.0218 0.0000 0.0000 0.0000
# 3 48.8600 57.0218 101.9981 0.0000 0.0000 0.0000
# 4 0.0000 0.0000 0.0000 25.7457 0.0000 0.0000
# 5 0.0000 0.0000 0.0000 0.0000 -100.4187 0.0000
# 6 0.0000 0.0000 0.0000 0.0000 0.0000 32.5331
#
#
#
# Elastic Compliance Matrix: (Units=1/GPa)
#
#
# Indices 1 2 3 4 5 6 
#
# 1 0.033613 -0.003908 -0.013917 0.000000 0.000000 0.000000
# 2 -0.003908 0.008717 -0.003001 0.000000 0.000000 0.000000
# 3 -0.013917 -0.003001 0.018148 0.000000 0.000000 0.000000
# 4 0.000000 0.000000 0.000000 0.038841 0.000000 0.000000
# 5 0.000000 0.000000 0.000000 0.000000 -0.009958 0.000000
# 6 0.000000 0.000000 0.000000 0.000000 0.000000 0.030738
#
#
# Mechanical properties :
#
#
# Convention : Reuss Voigt Hill
#
# Bulk Modulus (GPa) = 53.11672 67.13736 60.12704
# Shear Modulus (GPa) = 29.75709 2.40068 16.07889
#
# Velocity S-wave (km/s) = 3.83817 1.09017 2.82135
# Velocity P-wave (km/s) = 6.77776 5.90099 6.35451
#
# Compressibility (1/GPa) = 0.01882646
#
# Stress axis : x y z
#
# Youngs Moduli (GPa) = 29.75000 114.72206 55.10136
#
# Poissons Ratio (x) = 0.44835 0.76684
# Poissons Ratio (y) = 0.11627 0.16536
# Poissons Ratio (z) = 0.41403 0.34427
#
# Static dielectric constant tensor:
#      x y z
#    x 1.775750 0.000000 0.000000 
#    y 0.000000 1.839240 0.000000 
#    z 0.000000 0.000000 1.792520 
# 
# From -- ./inp_files/27711.got.cif
#   From: 2010.05.17/outbox.cif.g08.bks.cpg/sg52_14_cif.got.tgz:27711.got - 2010.06.03 12:15:38.
