data_PCOD9409115
_publ_section_title
;
Structure prediction by ZEFSAII (Michael W. Deem and Ramdas Pophale) SiO2 
 PCOD9409115
Probable space group: P N N A
;
_chemical_formula_sum "Si O2"
_cell_formula_units_Z 48
_cell_length_a 8.799323
_cell_length_b 31.802788
_cell_length_c 9.014177
_cell_angle_alpha 90.000000
_cell_angle_beta 90.000000
_cell_angle_gamma 90.000000
_cell_volume 2522.554369
_symmetry_space_group_name_H-M "P N N A"
_symmetry_group_IT_number 52
_symmetry_cell_setting 'orthorhombic'
loop_
_space_group_symop_operation_xyz
x,y,z
1/2-x,-y,z
x,1/2-y,1/2-z
1/2-x,1/2+y,1/2-z
-x,-y,-z
1/2+x,y,-z
-x,1/2+y,1/2+z
1/2+x,1/2-y,1/2+z
loop_
_atom_site_type_symbol
_atom_site_label
_atom_site_fract_x
_atom_site_fract_y
_atom_site_fract_z
Si Si1 0.826529 0.833857 0.453038
Si Si2 0.317562 0.909993 0.355894
Si Si3 0.453386 0.203052 0.698173
Si Si4 0.026407 0.879351 0.893429
Si Si5 0.018938 0.544691 0.078917
Si Si6 0.629883 0.398813 0.302664
O O1 0.751169 0.868534 0.563525
O O2 0.939347 0.810339 0.562242
O O3 0.712818 0.802479 0.372163
O O4 0.891060 0.862376 0.320215
O O5 0.387339 0.900522 0.197060
O O6 0.464149 0.923440 0.451131
O O7 0.189840 0.945328 0.370607
O O8 0.483388 0.250000 0.750000
O O9 0.470484 0.168627 0.830515
O O10 0.193494 0.897397 0.852942
O O11 0.982433 0.887396 0.063067
O O12 0.913866 0.557633 0.219461
O O13 0.000000 0.500000 0.000000
#
# Coordination Sequence:
#
# PCOD9409115 Si02
#       6
#     8   8   8   8   8   8
#     4   9  19  37  57  79 112 155 195 232 285 353
#     4  10  19  36  59  82 112 152 193 232 284 358
#     4  10  21  36  56  86 119 154 199 249 293 342
#     4  10  21  37  60  87 118 158 200 240 294 357
#     4  11  21  35  58  87 114 147 189 239 292 346
#     4  10  20  37  59  85 115 154 199 240 289 360
#
# _framework density 19.028331999999999
#
# number of rings (size 3 to 8) (size 9 to 14) (size 15 to 20)
#    0.000    2.000    0.000    6.500    0.000    4.000 
#    0.000    1.667    0.000    4.000    0.000    0.000 
#    0.000    0.000    0.000    0.000    0.000    0.000 
#
# Total GULP energy -267481.480900 kJ/mol
# GULP energy per Si atom -5572.530852 kJ/mol
# Density = 1.898502 g / cm^3
# Si number density = 19.028332 Si / 1000 Ang^3
#
#
#
# Elastic Constant Matrix: (Units=GPa)
#
#
# Indices 1 2 3 4 5 6 
#
# 1 95.2143 55.1636 51.4515 0.0000 0.0000 0.0000
# 2 55.1636 93.7049 59.2523 0.0000 0.0000 0.0000
# 3 51.4515 59.2523 134.2062 0.0000 0.0000 0.0000
# 4 0.0000 0.0000 0.0000 23.0401 0.0000 0.0000
# 5 0.0000 0.0000 0.0000 0.0000 30.6212 0.0000
# 6 0.0000 0.0000 0.0000 0.0000 0.0000 21.8732
#
#
#
# Elastic Compliance Matrix: (Units=1/GPa)
#
#
# Indices 1 2 3 4 5 6 
#
# 1 0.016694 -0.008020 -0.002859 0.000000 0.000000 0.000000
# 2 -0.008020 0.018657 -0.005163 0.000000 0.000000 0.000000
# 3 -0.002859 -0.005163 0.010827 0.000000 0.000000 0.000000
# 4 0.000000 0.000000 0.000000 0.043403 0.000000 0.000000
# 5 0.000000 0.000000 0.000000 0.000000 0.032657 0.000000
# 6 0.000000 0.000000 0.000000 0.000000 0.000000 0.045718
#
#
# Mechanical properties :
#
#
# Convention : Reuss Voigt Hill
#
# Bulk Modulus (GPa) = 70.94854 72.76224 71.85539
# Shear Modulus (GPa) = 24.42145 25.59076 25.00610
#
# Velocity S-wave (km/s) = 3.58638 3.67123 3.62906
# Velocity P-wave (km/s) = 7.38351 7.50283 7.44341
#
# Compressibility (1/GPa) = 0.01409472
#
# Stress axis : x y z
#
# Youngs Moduli (GPa) = 59.90158 53.59783 92.36306
#
# Poissons Ratio (x) = 0.42983 0.26411
# Poissons Ratio (y) = 0.48039 0.47685
# Poissons Ratio (z) = 0.17128 0.27671
#
# Static dielectric constant tensor:
#      x y z
#    x 1.701720 0.000000 0.000000 
#    y 0.000000 1.685590 0.000000 
#    z 0.000000 0.000000 1.652670 
# 
# From -- ./inp_files/7704.got.cif
#   From: 2010.05.17/outbox.cif.g08.bks.cpg/sg52_4_cif.got.tgz:7704.got - 2010.06.03 12:15:38.
