data_PCOD9409131
_publ_section_title
;
Structure prediction by ZEFSAII (Michael W. Deem and Ramdas Pophale) SiO2 
 PCOD9409131
Probable space group: P N N A
;
_chemical_formula_sum "Si O2"
_cell_formula_units_Z 52
_cell_length_a 9.942020
_cell_length_b 12.979572
_cell_length_c 16.641938
_cell_angle_alpha 90.000000
_cell_angle_beta 90.000000
_cell_angle_gamma 90.000000
_cell_volume 2147.528342
_symmetry_space_group_name_H-M "P N N A"
_symmetry_group_IT_number 52
_symmetry_cell_setting 'orthorhombic'
loop_
_space_group_symop_operation_xyz
x,y,z
1/2-x,-y,z
x,1/2-y,1/2-z
1/2-x,1/2+y,1/2-z
-x,-y,-z
1/2+x,y,-z
-x,1/2+y,1/2+z
1/2+x,1/2-y,1/2+z
loop_
_atom_site_type_symbol
_atom_site_label
_atom_site_fract_x
_atom_site_fract_y
_atom_site_fract_z
Si Si1 0.141641 0.088752 0.243263
Si Si2 0.750000 0.000000 0.993566
Si Si3 0.627595 0.353999 0.387671
Si Si4 0.004924 0.634209 0.910576
Si Si5 0.734196 0.341092 0.011471
Si Si6 0.091279 0.828687 0.825848
Si Si7 0.669544 0.687685 0.621011
O O1 0.070803 0.102253 0.329283
O O2 0.224941 0.175377 0.193372
O O3 0.010543 0.077599 0.186955
O O4 0.250000 0.000000 0.248899
O O5 0.802327 0.092021 0.938499
O O6 0.637078 0.050392 0.050967
O O7 0.672888 0.253268 0.437965
O O8 0.756344 0.365185 0.330189
O O9 0.483583 0.327359 0.351520
O O10 0.898295 0.604862 0.978185
O O11 0.035204 0.758430 0.899440
O O12 0.154997 0.601120 0.934996
O O13 0.806195 0.289931 0.932439
O O14 0.081638 0.750000 0.750000
#
# Coordination Sequence:
#
# PCOD9409131 Si02
#       7
#     8   4   8   8   8   8   8
#     4  11  23  38  59  83 124 161 198 238 312 375
#     4  10  22  30  54  84 128 154 184 238 294 364
#     4  10  21  33  54  85 117 152 194 241 293 351
#     4  10  20  39  60  88 112 157 197 262 300 354
#     4  10  19  36  61  84 113 145 210 253 297 337
#     4   9  20  39  57  79 118 158 197 249 306 352
#     4  11  20  34  55  88 118 157 199 236 293 373
#
# _framework density 24.213882000000002
#
# number of rings (size 3 to 8) (size 9 to 14) (size 15 to 20)
#    0.000    1.846    3.846    0.462    2.154    0.000 
#    2.769    0.769    0.000    0.000    0.000    0.000 
#    0.000    0.000    0.000    0.000    0.000    0.000 
#
# Total GULP energy -290167.120247 kJ/mol
# GULP energy per Si atom -5580.136928 kJ/mol
# Density = 2.415877 g / cm^3
# Si number density = 24.213882 Si / 1000 Ang^3
#
#
#
# Elastic Constant Matrix: (Units=GPa)
#
#
# Indices 1 2 3 4 5 6 
#
# 1 187.0808 4.6489 46.0555 0.0000 0.0000 0.0000
# 2 4.6489 36.8188 12.4950 0.0000 0.0000 0.0000
# 3 46.0555 12.4950 77.8623 0.0000 0.0000 0.0000
# 4 0.0000 0.0000 0.0000 16.9010 0.0000 0.0000
# 5 0.0000 0.0000 0.0000 0.0000 33.9460 0.0000
# 6 0.0000 0.0000 0.0000 0.0000 0.0000 24.3459
#
#
#
# Elastic Compliance Matrix: (Units=1/GPa)
#
#
# Indices 1 2 3 4 5 6 
#
# 1 0.006265 0.000493 -0.003785 0.000000 0.000000 0.000000
# 2 0.000493 0.028763 -0.004908 0.000000 0.000000 0.000000
# 3 -0.003785 -0.004908 0.015869 0.000000 0.000000 0.000000
# 4 0.000000 0.000000 0.000000 0.059168 0.000000 0.000000
# 5 0.000000 0.000000 0.000000 0.000000 0.029459 0.000000
# 6 0.000000 0.000000 0.000000 0.000000 0.000000 0.041075
#
#
# Mechanical properties :
#
#
# Convention : Reuss Voigt Hill
#
# Bulk Modulus (GPa) = 28.98600 47.57339 38.27970
# Shear Modulus (GPa) = 23.98123 30.94277 27.46200
#
# Velocity S-wave (km/s) = 3.15046 3.57864 3.37136
# Velocity P-wave (km/s) = 5.02302 6.06345 5.56759
#
# Compressibility (1/GPa) = 0.03449941
#
# Stress axis : x y z
#
# Youngs Moduli (GPa) = 159.62306 34.76659 63.01422
#
# Poissons Ratio (x) = -0.01715 0.23849
# Poissons Ratio (y) = -0.07876 0.30925
# Poissons Ratio (z) = 0.60414 0.17062
#
# Static dielectric constant tensor:
#      x y z
#    x 1.921340 0.000000 0.000000 
#    y 0.000000 2.001650 0.000000 
#    z 0.000000 0.000000 1.999780 
# 
# From -- ./inp_files/31436.got.cif
#   From: 2010.05.17/outbox.cif.g08.bks.cpg/sg52_16_cif.got.tgz:31436.got - 2010.06.03 12:15:38.
