data_PCOD9409081
_publ_section_title
;
Structure prediction by ZEFSAII (Michael W. Deem and Ramdas Pophale) SiO2 
 PCOD9409081
Probable space group: P N N A
;
_chemical_formula_sum "Si O2"
_cell_formula_units_Z 64
_cell_length_a 17.820628
_cell_length_b 9.892579
_cell_length_c 20.478311
_cell_angle_alpha 90.000000
_cell_angle_beta 90.000000
_cell_angle_gamma 90.000000
_cell_volume 3610.161795
_symmetry_space_group_name_H-M "P N N A"
_symmetry_group_IT_number 52
_symmetry_cell_setting 'orthorhombic'
loop_
_space_group_symop_operation_xyz
x,y,z
1/2-x,-y,z
x,1/2-y,1/2-z
1/2-x,1/2+y,1/2-z
-x,-y,-z
1/2+x,y,-z
-x,1/2+y,1/2+z
1/2+x,1/2-y,1/2+z
loop_
_atom_site_type_symbol
_atom_site_label
_atom_site_fract_x
_atom_site_fract_y
_atom_site_fract_z
Si Si1 0.874515 0.459640 0.346186
Si Si2 0.843568 0.400933 0.489444
Si Si3 0.336451 0.477632 0.802003
Si Si4 0.075501 0.399582 0.075598
Si Si5 0.181508 0.206097 0.008507
Si Si6 0.460783 0.314244 0.038835
Si Si7 0.967101 0.278066 0.174289
Si Si8 0.396438 0.732210 0.875226
O O1 0.830659 0.415298 0.411102
O O2 0.838354 0.437308 0.274945
O O3 0.949921 0.370606 0.353347
O O4 0.888458 0.618231 0.347822
O O5 0.855496 0.556338 0.511169
O O6 0.768525 0.329150 0.515062
O O7 0.911819 0.309835 0.513550
O O8 0.250000 0.500000 0.821575
O O9 0.388894 0.362164 0.834523
O O10 0.376516 0.617250 0.823041
O O11 0.147018 0.307002 0.061320
O O12 0.087999 0.557770 0.062666
O O13 0.034245 0.360753 0.142404
O O14 0.012594 0.358142 0.022004
O O15 0.159365 0.271411 0.938259
O O16 0.520258 0.284137 0.095885
O O17 0.980424 0.250000 0.250000
#
# Coordination Sequence:
#
# PCOD9409081 Si02
#       8
#     8   8   8   8   8   8   8   8
#     4  10  22  33  55  73 112 151 189 226 269 329
#     4  10  20  37  53  83 112 142 187 231 287 339
#     4  11  24  36  52  77 115 159 192 227 274 327
#     4  10  19  36  53  80 106 145 187 231 286 332
#     4   9  22  33  55  81 110 141 185 238 285 338
#     4  10  20  33  57  75 110 143 183 239 276 333
#     4  10  21  37  53  80 107 150 190 229 273 337
#     4  10  21  36  51  80 106 148 193 231 275 328
#
# _framework density 17.727737999999999
#
# number of rings (size 3 to 8) (size 9 to 14) (size 15 to 20)
#    0.000    2.000    2.500    0.375    7.000    4.000 
#    0.000    0.000    0.000    0.000    0.000    5.250 
#    0.000    0.000    0.000    0.000    0.000    0.000 
#
# Total GULP energy -356582.108225 kJ/mol
# GULP energy per Si atom -5571.595441 kJ/mol
# Density = 1.768739 g / cm^3
# Si number density = 17.727738 Si / 1000 Ang^3
#
#
#
# Elastic Constant Matrix: (Units=GPa)
#
#
# Indices 1 2 3 4 5 6 
#
# 1 46.6752 24.0662 22.2627 0.0000 0.0000 0.0000
# 2 24.0662 55.7178 15.1768 0.0000 0.0000 0.0000
# 3 22.2627 15.1768 41.3819 0.0000 0.0000 0.0000
# 4 0.0000 0.0000 0.0000 24.9683 0.0000 0.0000
# 5 0.0000 0.0000 0.0000 0.0000 8.8261 0.0000
# 6 0.0000 0.0000 0.0000 0.0000 0.0000 26.8936
#
#
#
# Elastic Compliance Matrix: (Units=1/GPa)
#
#
# Indices 1 2 3 4 5 6 
#
# 1 0.033719 -0.010691 -0.014219 0.000000 0.000000 0.000000
# 2 -0.010691 0.023329 -0.002804 0.000000 0.000000 0.000000
# 3 -0.014219 -0.002804 0.032843 0.000000 0.000000 0.000000
# 4 0.000000 0.000000 0.000000 0.040051 0.000000 0.000000
# 5 0.000000 0.000000 0.000000 0.000000 0.113300 0.000000
# 6 0.000000 0.000000 0.000000 0.000000 0.000000 0.037184
#
#
# Mechanical properties :
#
#
# Convention : Reuss Voigt Hill
#
# Bulk Modulus (GPa) = 29.01731 29.64292 29.33011
# Shear Modulus (GPa) = 14.39497 17.62222 16.00859
#
# Velocity S-wave (km/s) = 2.85266 3.15627 3.00830
# Velocity P-wave (km/s) = 5.22054 5.48090 5.35230
#
# Compressibility (1/GPa) = 0.03446219
#
# Stress axis : x y z
#
# Youngs Moduli (GPa) = 29.65653 42.86456 30.44748
#
# Poissons Ratio (x) = 0.45827 0.43295
# Poissons Ratio (y) = 0.31706 0.08538
# Poissons Ratio (z) = 0.42170 0.12021
#
# Static dielectric constant tensor:
#      x y z
#    x 1.603840 0.000000 0.000000 
#    y 0.000000 1.634240 0.000000 
#    z 0.000000 0.000000 1.631510 
# 
# From -- ./inp_files/37693.got.cif
#   From: 2010.05.17/outbox.cif.g08.bks.cpg/sg52_19_cif.got.tgz:37693.got - 2010.06.03 12:15:38.
