data_PCOD9409001
_publ_section_title
;
Structure prediction by ZEFSAII (Michael W. Deem and Ramdas Pophale) SiO2 
 PCOD9409001
Probable space group: P N N A
;
_chemical_formula_sum "Si O2"
_cell_formula_units_Z 56
_cell_length_a 15.023017
_cell_length_b 14.260524
_cell_length_c 13.591713
_cell_angle_alpha 90.000000
_cell_angle_beta 90.000000
_cell_angle_gamma 90.000000
_cell_volume 2911.835510
_symmetry_space_group_name_H-M "P N N A"
_symmetry_group_IT_number 52
_symmetry_cell_setting 'orthorhombic'
loop_
_space_group_symop_operation_xyz
x,y,z
1/2-x,-y,z
x,1/2-y,1/2-z
1/2-x,1/2+y,1/2-z
-x,-y,-z
1/2+x,y,-z
-x,1/2+y,1/2+z
1/2+x,1/2-y,1/2+z
loop_
_atom_site_type_symbol
_atom_site_label
_atom_site_fract_x
_atom_site_fract_y
_atom_site_fract_z
Si Si1 0.922514 0.177857 0.335089
Si Si2 0.581259 0.297886 0.568965
Si Si3 0.258027 0.898675 0.592294
Si Si4 0.425143 0.781450 0.638390
Si Si5 0.404362 0.351644 0.200931
Si Si6 0.206157 0.363962 0.125740
Si Si7 0.060824 0.450203 0.272177
O O1 0.891866 0.250000 0.250000
O O2 0.838643 0.148316 0.400213
O O3 0.998886 0.233671 0.394150
O O4 0.972226 0.090568 0.281399
O O5 0.581562 0.292925 0.450650
O O6 0.668318 0.241924 0.609549
O O7 0.571376 0.397091 0.623572
O O8 0.333713 0.837296 0.641065
O O9 0.296517 0.908951 0.482120
O O10 0.250000 0.000000 0.639778
O O11 0.436705 0.750000 0.750000
O O12 0.514972 0.842624 0.622426
O O13 0.392265 0.250000 0.250000
O O14 0.307722 0.371388 0.157500
O O15 0.432587 0.437578 0.271884
O O16 0.141591 0.413265 0.203344
#
# Coordination Sequence:
#
# PCOD9409001 Si02
#       7
#     8   8   8   8   8   8   8
#     4   9  18  33  55  80 105 139 184 226 266 323
#     4   9  19  36  58  79 105 143 185 225 275 333
#     4  11  20  32  53  80 107 141 176 220 278 331
#     4  10  22  37  52  75 109 145 182 229 277 326
#     4  11  21  34  52  78 112 145 175 221 278 327
#     4  10  20  33  54  83 111 136 172 220 276 334
#     4  10  19  35  56  81 108 141 182 227 271 330
#
# _framework density 19.231857000000002
#
# number of rings (size 3 to 8) (size 9 to 14) (size 15 to 20)
#    0.000    2.000    0.000    5.571    0.000    0.000 
#    0.000    8.571    0.000    6.857    0.000    0.000 
#    0.000    0.000    0.000    0.000    0.000    0.000 
#
# Total GULP energy -312048.992112 kJ/mol
# GULP energy per Si atom -5572.303431 kJ/mol
# Density = 1.918808 g / cm^3
# Si number density = 19.231857 Si / 1000 Ang^3
#
#
#
# Elastic Constant Matrix: (Units=GPa)
#
#
# Indices 1 2 3 4 5 6 
#
# 1 104.8130 1.0132 9.4026 0.0000 0.0000 0.0000
# 2 1.0132 77.7574 24.4498 0.0000 0.0000 0.0000
# 3 9.4026 24.4498 87.0933 0.0000 0.0000 0.0000
# 4 0.0000 0.0000 0.0000 2.0599 0.0000 0.0000
# 5 0.0000 0.0000 0.0000 0.0000 93.5594 0.0000
# 6 0.0000 0.0000 0.0000 0.0000 0.0000 7.7650
#
#
#
# Elastic Compliance Matrix: (Units=1/GPa)
#
#
# Indices 1 2 3 4 5 6 
#
# 1 0.009638 0.000221 -0.001103 0.000000 0.000000 0.000000
# 2 0.000221 0.014111 -0.003985 0.000000 0.000000 0.000000
# 3 -0.001103 -0.003985 0.012720 0.000000 0.000000 0.000000
# 4 0.000000 0.000000 0.000000 0.485468 0.000000 0.000000
# 5 0.000000 0.000000 0.000000 0.000000 0.010688 0.000000
# 6 0.000000 0.000000 0.000000 0.000000 0.000000 0.128783
#
#
# Mechanical properties :
#
#
# Convention : Reuss Voigt Hill
#
# Bulk Modulus (GPa) = 37.40449 37.71056 37.55752
# Shear Modulus (GPa) = 7.35237 36.33006 21.84122
#
# Velocity S-wave (km/s) = 1.95738 4.35104 3.37364
# Velocity P-wave (km/s) = 4.95983 6.70023 5.89461
#
# Compressibility (1/GPa) = 0.02673476
#
# Stress axis : x y z
#
# Youngs Moduli (GPa) = 103.76063 70.86815 78.61802
#
# Poissons Ratio (x) = -0.01567 0.08668
# Poissons Ratio (y) = -0.02294 0.31331
# Poissons Ratio (z) = 0.11440 0.28242
#
# Static dielectric constant tensor:
#      x y z
#    x 1.716080 0.000000 0.000000 
#    y 0.000000 1.807930 0.000000 
#    z 0.000000 0.000000 0.874460 
# 
# From -- ./inp_files/27258.got.cif
#   From: 2010.05.17/outbox.cif.g08.bks.cpg/sg52_14_cif.got.tgz:27258.got - 2010.06.03 12:15:38.
