data_PCOD9409693
_publ_section_title
;
Structure prediction by ZEFSAII (Michael W. Deem and Ramdas Pophale) SiO2 
 PCOD9409693
Probable space group: P N N A
;
_chemical_formula_sum "Si O2"
_cell_formula_units_Z 44
_cell_length_a 14.855211
_cell_length_b 8.463065
_cell_length_c 17.300100
_cell_angle_alpha 90.000000
_cell_angle_beta 90.000000
_cell_angle_gamma 90.000000
_cell_volume 2174.979234
_symmetry_space_group_name_H-M "P N N A"
_symmetry_group_IT_number 52
_symmetry_cell_setting 'orthorhombic'
loop_
_space_group_symop_operation_xyz
x,y,z
1/2-x,-y,z
x,1/2-y,1/2-z
1/2-x,1/2+y,1/2-z
-x,-y,-z
1/2+x,y,-z
-x,1/2+y,1/2+z
1/2+x,1/2-y,1/2+z
loop_
_atom_site_type_symbol
_atom_site_label
_atom_site_fract_x
_atom_site_fract_y
_atom_site_fract_z
Si Si1 0.501425 0.137415 0.137920
Si Si2 0.620648 0.750000 0.250000
Si Si3 0.339274 0.096861 0.903167
Si Si4 0.184148 0.130720 0.319087
Si Si5 0.304637 0.164798 0.065794
Si Si6 0.500464 0.023437 0.314693
O O1 0.401211 0.136588 0.104858
O O2 0.489862 0.082723 0.226486
O O3 0.533026 0.321404 0.139122
O O4 0.571893 0.016051 0.098373
O O5 0.672530 0.837825 0.182960
O O6 0.563734 0.626754 0.198293
O O7 0.250000 0.000000 0.915346
O O8 0.333518 0.210639 0.977784
O O9 0.159348 0.250000 0.250000
O O10 0.241759 0.213693 0.386835
O O11 0.250000 0.000000 0.283110
O O12 0.093997 0.042692 0.346326
O O13 0.250000 0.000000 0.068824
#
# Coordination Sequence:
#
# PCOD9409693 Si02
#       6
#     8   4   8   8   8   8
#     4  10  20  40  61  90 129 164 205 247 315 381
#     4  10  22  42  68  88 116 160 216 260 314 362
#     4  10  24  44  64  86 115 166 221 268 310 361
#     4  12  21  34  59  96 137 165 198 241 314 391
#     4  11  23  38  61  92 128 169 203 252 315 385
#     4  10  20  35  61  97 121 161 202 252 306 381
#
# _framework density 20.230079
#
# number of rings (size 3 to 8) (size 9 to 14) (size 15 to 20)
#    0.000    1.455    2.727    3.273    2.545    2.909 
#    0.000    5.455    0.000    0.000    0.000    0.000 
#    0.000    0.000    0.000    0.000    0.000    0.000 
#
# Total GULP energy -245092.743364 kJ/mol
# GULP energy per Si atom -5570.289622 kJ/mol
# Density = 2.018403 g / cm^3
# Si number density = 20.230079 Si / 1000 Ang^3
#
#
#
# Elastic Constant Matrix: (Units=GPa)
#
#
# Indices 1 2 3 4 5 6 
#
# 1 44.4545 2.2352 23.2034 0.0000 0.0000 0.0000
# 2 2.2352 64.1911 12.6068 0.0000 0.0000 0.0000
# 3 23.2034 12.6068 48.7394 0.0000 0.0000 0.0000
# 4 0.0000 0.0000 0.0000 22.8947 0.0000 0.0000
# 5 0.0000 0.0000 0.0000 0.0000 19.3548 0.0000
# 6 0.0000 0.0000 0.0000 0.0000 0.0000 -45.1435
#
#
#
# Elastic Compliance Matrix: (Units=1/GPa)
#
#
# Indices 1 2 3 4 5 6 
#
# 1 0.030143 0.001863 -0.014832 0.000000 0.000000 0.000000
# 2 0.001863 0.016527 -0.005162 0.000000 0.000000 0.000000
# 3 -0.014832 -0.005162 0.028914 0.000000 0.000000 0.000000
# 4 0.000000 0.000000 0.000000 0.043678 0.000000 0.000000
# 5 0.000000 0.000000 0.000000 0.000000 0.051667 0.000000
# 6 0.000000 0.000000 0.000000 0.000000 0.000000 -0.022152
#
#
# Mechanical properties :
#
#
# Convention : Reuss Voigt Hill
#
# Bulk Modulus (GPa) = 25.43083 25.94176 25.68630
# Shear Modulus (GPa) = 25.23386 7.37717 16.30551
#
# Velocity S-wave (km/s) = 3.53561 1.91169 2.84210
# Velocity P-wave (km/s) = 5.40975 4.20998 4.84713
#
# Compressibility (1/GPa) = 0.03932234
#
# Stress axis : x y z
#
# Youngs Moduli (GPa) = 33.17523 60.50564 34.58577
#
# Poissons Ratio (x) = -0.11274 0.51298
# Poissons Ratio (y) = -0.06182 0.17853
# Poissons Ratio (z) = 0.49206 0.31233
#
# Static dielectric constant tensor:
#      x y z
#    x 1.708550 0.000000 0.000000 
#    y 0.000000 1.470380 0.000000 
#    z 0.000000 0.000000 1.866950 
# 
# From -- ./inp_files/32944.got.cif
#   From: 2010.05.17/outbox.cif.g08.bks.cpg/sg52_17_cif.got.tgz:32944.got - 2010.06.03 12:15:38.
