data_PCOD9409530
_publ_section_title
;
Structure prediction by ZEFSAII (Michael W. Deem and Ramdas Pophale) SiO2 
 PCOD9409530
Probable space group: P N N A
;
_chemical_formula_sum "Si O2"
_cell_formula_units_Z 44
_cell_length_a 15.977213
_cell_length_b 5.133229
_cell_length_c 25.618709
_cell_angle_alpha 90.000000
_cell_angle_beta 90.000000
_cell_angle_gamma 90.000000
_cell_volume 2101.110557
_symmetry_space_group_name_H-M "P N N A"
_symmetry_group_IT_number 52
_symmetry_cell_setting 'orthorhombic'
loop_
_space_group_symop_operation_xyz
x,y,z
1/2-x,-y,z
x,1/2-y,1/2-z
1/2-x,1/2+y,1/2-z
-x,-y,-z
1/2+x,y,-z
-x,1/2+y,1/2+z
1/2+x,1/2-y,1/2+z
loop_
_atom_site_type_symbol
_atom_site_label
_atom_site_fract_x
_atom_site_fract_y
_atom_site_fract_z
Si Si1 0.157280 0.048208 0.386766
Si Si2 0.750000 0.000000 0.116342
Si Si3 0.656866 0.548311 0.543854
Si Si4 0.420763 0.058677 0.936928
Si Si5 0.521784 0.462839 0.123029
Si Si6 0.836284 0.878871 0.300953
O O1 0.150867 0.340685 0.409083
O O2 0.250000 0.000000 0.363331
O O3 0.152786 0.841789 0.434808
O O4 0.072839 0.980129 0.355725
O O5 0.674692 0.885190 0.082602
O O6 0.796834 0.801559 0.154313
O O7 0.750000 0.500000 0.522617
O O8 0.591019 0.503285 0.498005
O O9 0.469627 0.318345 0.921529
O O10 0.457953 0.814911 0.904266
O O11 0.590587 0.526224 0.167739
O O12 0.876336 0.750000 0.250000
O O13 0.750000 0.000000 0.279404
#
# Coordination Sequence:
#
# PCOD9409530 Si02
#       6
#     8   4   8   8   8   8
#     4  10  22  39  55  77 110 152 199 240 284 321
#     4  10  20  34  52  82 116 156 178 218 276 340
#     4  10  20  35  56  79 110 156 196 235 277 329
#     4  11  21  34  55  81 119 148 191 229 278 330
#     4  11  24  36  56  84 111 148 192 235 281 343
#     4  11  21  37  59  84 115 149 181 225 291 360
#
# _framework density 20.941306000000001
#
# number of rings (size 3 to 8) (size 9 to 14) (size 15 to 20)
#    0.000    1.455    3.636    2.182    0.000    4.364 
#    0.000    0.000    0.000    0.000    0.000   10.182 
#    0.000    0.000    0.000    0.000    0.000    0.000 
#
# Total GULP energy -245343.791856 kJ/mol
# GULP energy per Si atom -5575.995269 kJ/mol
# Density = 2.089364 g / cm^3
# Si number density = 20.941306 Si / 1000 Ang^3
#
#
#
# Elastic Constant Matrix: (Units=GPa)
#
#
# Indices 1 2 3 4 5 6 
#
# 1 161.5858 1.7417 7.1211 0.0000 0.0000 0.0000
# 2 1.7417 78.6753 -0.6586 0.0000 0.0000 0.0000
# 3 7.1211 -0.6586 23.7438 0.0000 0.0000 0.0000
# 4 0.0000 0.0000 0.0000 15.5616 0.0000 0.0000
# 5 0.0000 0.0000 0.0000 0.0000 192.9246 0.0000
# 6 0.0000 0.0000 0.0000 0.0000 0.0000 21.2298
#
#
#
# Elastic Compliance Matrix: (Units=1/GPa)
#
#
# Indices 1 2 3 4 5 6 
#
# 1 0.006273 -0.000155 -0.001886 0.000000 0.000000 0.000000
# 2 -0.000155 0.012717 0.000399 0.000000 0.000000 0.000000
# 3 -0.001886 0.000399 0.042693 0.000000 0.000000 0.000000
# 4 0.000000 0.000000 0.000000 0.064261 0.000000 0.000000
# 5 0.000000 0.000000 0.000000 0.000000 0.005183 0.000000
# 6 0.000000 0.000000 0.000000 0.000000 0.000000 0.047104
#
#
# Mechanical properties :
#
#
# Convention : Reuss Voigt Hill
#
# Bulk Modulus (GPa) = 17.12303 31.15704 24.14003
# Shear Modulus (GPa) = 24.87799 62.99658 43.93729
#
# Velocity S-wave (km/s) = 3.45046 5.49070 4.58549
# Velocity P-wave (km/s) = 4.90598 7.42345 6.29191
#
# Compressibility (1/GPa) = 0.05840089
#
# Stress axis : x y z
#
# Youngs Moduli (GPa) = 159.40222 78.63340 23.42310
#
# Poissons Ratio (x) = 0.01216 0.04417
# Poissons Ratio (y) = 0.02465 -0.00935
# Poissons Ratio (z) = 0.30060 -0.03138
#
# Static dielectric constant tensor:
#      x y z
#    x 1.864600 0.000000 0.000000 
#    y 0.000000 1.788670 0.000000 
#    z 0.000000 0.000000 1.720950 
# 
# From -- ./inp_files/42948.got.cif
#   From: 2010.05.17/outbox.cif.g08.bks.cpg/sg52_22_cif.got.tgz:42948.got - 2010.06.03 12:15:38.
