data_PCOD9409568
_publ_section_title
;
Structure prediction by ZEFSAII (Michael W. Deem and Ramdas Pophale) SiO2 
 PCOD9409568
Probable space group: P N N A
;
_chemical_formula_sum "Si O2"
_cell_formula_units_Z 56
_cell_length_a 10.421384
_cell_length_b 20.728629
_cell_length_c 11.097693
_cell_angle_alpha 90.000000
_cell_angle_beta 90.000000
_cell_angle_gamma 90.000000
_cell_volume 2397.334768
_symmetry_space_group_name_H-M "P N N A"
_symmetry_group_IT_number 52
_symmetry_cell_setting 'orthorhombic'
loop_
_space_group_symop_operation_xyz
x,y,z
1/2-x,-y,z
x,1/2-y,1/2-z
1/2-x,1/2+y,1/2-z
-x,-y,-z
1/2+x,y,-z
-x,1/2+y,1/2+z
1/2+x,1/2-y,1/2+z
loop_
_atom_site_type_symbol
_atom_site_label
_atom_site_fract_x
_atom_site_fract_y
_atom_site_fract_z
Si Si1 0.644457 0.876391 0.879783
Si Si2 0.064328 0.044053 0.748799
Si Si3 0.177670 0.696666 0.830953
Si Si4 0.158587 0.318423 0.209973
Si Si5 0.914060 0.235534 0.578204
Si Si6 0.608111 0.374574 0.038803
Si Si7 0.337879 0.090628 0.840770
O O1 0.566732 0.927366 0.800726
O O2 0.782807 0.858647 0.821586
O O3 0.566489 0.808532 0.880542
O O4 0.652841 0.900760 0.016485
O O5 0.070481 0.059632 0.605820
O O6 0.186917 0.081476 0.807716
O O7 0.088549 0.971403 0.789745
O O8 0.250684 0.750000 0.750000
O O9 0.252310 0.644454 0.912359
O O10 0.109913 0.652317 0.731423
O O11 0.106597 0.735897 0.934787
O O12 0.094779 0.250000 0.250000
O O13 0.285278 0.289926 0.141023
O O14 0.100976 0.364089 0.104355
O O15 0.022469 0.182592 0.596550
#
# Coordination Sequence:
#
# PCOD9409568 Si02
#       7
#     8   8   8   8   8   8   8
#     4  11  20  36  63  89 126 156 198 259 317 359
#     4  10  22  39  65  83 119 170 207 240 304 380
#     4  10  20  36  57  84 115 151 198 256 294 350
#     4   9  20  35  54  91 126 154 195 259 307 355
#     4  10  20  34  56  88 116 155 199 244 307 368
#     4  10  21  36  61  84 121 160 205 241 301 372
#     4  10  22  40  60  89 119 158 210 253 299 366
#
# _framework density 23.359275
#
# number of rings (size 3 to 8) (size 9 to 14) (size 15 to 20)
#    0.000    2.000    2.857    0.429    4.000    0.571 
#    2.571    0.714    6.286    0.000    0.000    0.000 
#    0.000    0.000    0.000    0.000    0.000    0.000 
#
# Total GULP energy -312440.171341 kJ/mol
# GULP energy per Si atom -5579.288774 kJ/mol
# Density = 2.330611 g / cm^3
# Si number density = 23.359275 Si / 1000 Ang^3
#
#
#
# Elastic Constant Matrix: (Units=GPa)
#
#
# Indices 1 2 3 4 5 6 
#
# 1 15.5197 -7.5427 11.7454 0.0000 0.0000 0.0000
# 2 -7.5427 76.4457 58.3287 0.0000 0.0000 0.0000
# 3 11.7454 58.3287 185.6203 0.0000 0.0000 0.0000
# 4 0.0000 0.0000 0.0000 36.5571 0.0000 0.0000
# 5 0.0000 0.0000 0.0000 0.0000 32.4270 0.0000
# 6 0.0000 0.0000 0.0000 0.0000 0.0000 25.2464
#
#
#
# Elastic Compliance Matrix: (Units=1/GPa)
#
#
# Indices 1 2 3 4 5 6 
#
# 1 0.079333 0.015334 -0.009839 0.000000 0.000000 0.000000
# 2 0.015334 0.020171 -0.007309 0.000000 0.000000 0.000000
# 3 -0.009839 -0.007309 0.008307 0.000000 0.000000 0.000000
# 4 0.000000 0.000000 0.000000 0.027354 0.000000 0.000000
# 5 0.000000 0.000000 0.000000 0.000000 0.030839 0.000000
# 6 0.000000 0.000000 0.000000 0.000000 0.000000 0.039610
#
#
# Mechanical properties :
#
#
# Convention : Reuss Voigt Hill
#
# Bulk Modulus (GPa) = 9.59836 44.73872 27.16854
# Shear Modulus (GPa) = 20.49463 33.18305 26.83884
#
# Velocity S-wave (km/s) = 2.96525 3.77311 3.39331
# Velocity P-wave (km/s) = 3.98014 6.17866 5.19699
#
# Compressibility (1/GPa) = 0.10418446
#
# Stress axis : x y z
#
# Youngs Moduli (GPa) = 12.60514 49.57662 120.38689
#
# Poissons Ratio (x) = -0.76023 1.18443
# Poissons Ratio (y) = -0.19329 0.87987
# Poissons Ratio (z) = 0.12402 0.36234
#
# Static dielectric constant tensor:
#      x y z
#    x 2.029320 0.000000 0.000000 
#    y 0.000000 1.871060 0.000000 
#    z 0.000000 0.000000 1.893080 
# 
# From -- ./inp_files/18350.got.cif
#   From: 2010.05.17/outbox.cif.g08.bks.cpg/sg52_10_cif.got.tgz:18350.got - 2010.06.03 12:15:38.
