data_PCOD9409102
_publ_section_title
;
Structure prediction by ZEFSAII (Michael W. Deem and Ramdas Pophale) SiO2 
 PCOD9409102
Probable space group: P N N A
;
_chemical_formula_sum "Si O2"
_cell_formula_units_Z 64
_cell_length_a 14.100850
_cell_length_b 17.262162
_cell_length_c 14.251694
_cell_angle_alpha 90.000000
_cell_angle_beta 90.000000
_cell_angle_gamma 90.000000
_cell_volume 3469.021326
_symmetry_space_group_name_H-M "P N N A"
_symmetry_group_IT_number 52
_symmetry_cell_setting 'orthorhombic'
loop_
_space_group_symop_operation_xyz
x,y,z
1/2-x,-y,z
x,1/2-y,1/2-z
1/2-x,1/2+y,1/2-z
-x,-y,-z
1/2+x,y,-z
-x,1/2+y,1/2+z
1/2+x,1/2-y,1/2+z
loop_
_atom_site_type_symbol
_atom_site_label
_atom_site_fract_x
_atom_site_fract_y
_atom_site_fract_z
Si Si1 0.096961 0.340751 0.863575
Si Si2 0.926583 0.587544 0.609389
Si Si3 0.435436 0.059748 0.442756
Si Si4 0.663289 0.449185 0.799006
Si Si5 0.070668 0.913891 0.039083
Si Si6 0.889216 0.845047 0.147638
Si Si7 0.754104 0.859337 0.522216
Si Si8 0.259563 0.824839 0.014539
O O1 0.095639 0.247522 0.862839
O O2 0.117055 0.365645 0.756879
O O3 0.997493 0.371053 0.901610
O O4 0.173170 0.373522 0.937367
O O5 0.904431 0.584040 0.719061
O O6 0.905954 0.502964 0.563308
O O7 0.853054 0.651325 0.572249
O O8 0.031126 0.600909 0.566734
O O9 0.343915 0.095257 0.494130
O O10 0.500000 0.000000 0.500000
O O11 0.395931 0.010974 0.356803
O O12 0.750000 0.500000 0.756202
O O13 0.704197 0.389708 0.877629
O O14 0.166149 0.866276 0.052280
O O15 0.980878 0.887474 0.102800
O O16 0.792227 0.855845 0.088418
O O17 0.742271 0.766743 0.521026
#
# Coordination Sequence:
#
# PCOD9409102 Si02
#       8
#     8   8   8   8   8   8   8   8
#     4  10  19  37  57  82 115 148 195 234 280 337
#     4  10  21  35  57  82 114 145 183 240 284 335
#     4  11  21  36  59  82 112 152 188 232 285 336
#     4  10  20  36  55  83 114 146 186 231 283 339
#     4  10  19  36  58  82 114 146 191 231 292 342
#     4   9  20  35  58  84 112 151 190 238 277 341
#     4  10  22  37  57  80 114 148 190 234 283 342
#     4  10  20  37  58  82 111 149 186 233 289 338
#
# _framework density 18.449007000000002
#
# number of rings (size 3 to 8) (size 9 to 14) (size 15 to 20)
#    0.000    2.000    1.250    2.625    0.000    1.500 
#    2.250    0.000    5.500    0.000    0.000    0.000 
#    0.000    0.000    0.000    0.000    0.000    0.000 
#
# Total GULP energy -356599.462328 kJ/mol
# GULP energy per Si atom -5571.866599 kJ/mol
# Density = 1.840702 g / cm^3
# Si number density = 18.449007 Si / 1000 Ang^3
#
#
#
# Elastic Constant Matrix: (Units=GPa)
#
#
# Indices 1 2 3 4 5 6 
#
# 1 54.0743 10.9029 0.4488 0.0000 0.0000 0.0000
# 2 10.9029 29.1042 -1.2379 0.0000 0.0000 0.0000
# 3 0.4488 -1.2379 49.5109 0.0000 0.0000 0.0000
# 4 0.0000 0.0000 0.0000 20.6603 0.0000 0.0000
# 5 0.0000 0.0000 0.0000 0.0000 13.9461 0.0000
# 6 0.0000 0.0000 0.0000 0.0000 0.0000 22.0312
#
#
#
# Elastic Compliance Matrix: (Units=1/GPa)
#
#
# Indices 1 2 3 4 5 6 
#
# 1 0.020011 -0.007512 -0.000369 0.000000 0.000000 0.000000
# 2 -0.007512 0.037216 0.000999 0.000000 0.000000 0.000000
# 3 -0.000369 0.000999 0.020226 0.000000 0.000000 0.000000
# 4 0.000000 0.000000 0.000000 0.048402 0.000000 0.000000
# 5 0.000000 0.000000 0.000000 0.000000 0.071705 0.000000
# 6 0.000000 0.000000 0.000000 0.000000 0.000000 0.045390
#
#
# Mechanical properties :
#
#
# Convention : Reuss Voigt Hill
#
# Bulk Modulus (GPa) = 15.70176 16.99080 16.34628
# Shear Modulus (GPa) = 17.98925 19.49923 18.74424
#
# Velocity S-wave (km/s) = 3.12601 3.25457 3.19094
# Velocity P-wave (km/s) = 4.64313 4.83245 4.73873
#
# Compressibility (1/GPa) = 0.06368712
#
# Stress axis : x y z
#
# Youngs Moduli (GPa) = 49.97313 26.87029 49.44163
#
# Poissons Ratio (x) = 0.20185 0.01826
# Poissons Ratio (y) = 0.37540 -0.04937
# Poissons Ratio (z) = 0.01845 -0.02683
#
# Static dielectric constant tensor:
#      x y z
#    x 1.602950 0.000000 0.000000 
#    y 0.000000 1.593890 0.000000 
#    z 0.000000 0.000000 1.656210 
# 
# From -- ./inp_files/26361.got.cif
#   From: 2010.05.17/outbox.cif.g08.bks.cpg/sg52_14_cif.got.tgz:26361.got - 2010.06.03 12:15:38.
