data_PCOD9409231
_publ_section_title
;
Structure prediction by ZEFSAII (Michael W. Deem and Ramdas Pophale) SiO2 
 PCOD9409231
Probable space group: P N N A
;
_chemical_formula_sum "Si O2"
_cell_formula_units_Z 56
_cell_length_a 9.671833
_cell_length_b 15.825898
_cell_length_c 17.952365
_cell_angle_alpha 90.000000
_cell_angle_beta 90.000000
_cell_angle_gamma 90.000000
_cell_volume 2747.886693
_symmetry_space_group_name_H-M "P N N A"
_symmetry_group_IT_number 52
_symmetry_cell_setting 'orthorhombic'
loop_
_space_group_symop_operation_xyz
x,y,z
1/2-x,-y,z
x,1/2-y,1/2-z
1/2-x,1/2+y,1/2-z
-x,-y,-z
1/2+x,y,-z
-x,1/2+y,1/2+z
1/2+x,1/2-y,1/2+z
loop_
_atom_site_type_symbol
_atom_site_label
_atom_site_fract_x
_atom_site_fract_y
_atom_site_fract_z
Si Si1 0.712857 0.778547 0.900391
Si Si2 0.446064 0.833019 0.575831
Si Si3 0.381975 0.445160 0.322775
Si Si4 0.294478 0.211320 0.930908
Si Si5 0.954732 0.834090 0.594277
Si Si6 0.405918 0.028312 0.929333
Si Si7 0.089736 0.987841 0.349564
O O1 0.593657 0.711726 0.916578
O O2 0.653989 0.851225 0.848656
O O3 0.844137 0.729073 0.869358
O O4 0.748306 0.811582 0.983657
O O5 0.340980 0.758311 0.602999
O O6 0.402967 0.852289 0.490402
O O7 0.481666 0.922781 0.613068
O O8 0.250000 0.500000 0.348716
O O9 0.519523 0.479817 0.361932
O O10 0.394082 0.456282 0.234723
O O11 0.404738 0.285273 0.919943
O O12 0.380913 0.127074 0.909068
O O13 0.970009 0.918463 0.641019
O O14 0.250000 0.000000 0.943394
O O15 0.500000 0.000000 0.000000
O O16 0.250000 0.000000 0.379065
#
# Coordination Sequence:
#
# PCOD9409231 Si02
#       7
#     8   8   8   8   8   8   8
#     4  10  19  37  64  93 125 160 217 280 329 396
#     4  10  21  39  65  94 127 169 228 278 332 395
#     4  11  24  41  65  97 134 179 224 273 347 418
#     4  10  22  36  64 100 122 167 217 278 340 386
#     4  10  21  39  66  93 130 164 223 280 331 397
#     4  12  24  41  69  99 136 170 220 284 341 414
#     4  11  23  43  63  96 133 183 228 273 341 413
#
# _framework density 20.379297000000001
#
# number of rings (size 3 to 8) (size 9 to 14) (size 15 to 20)
#    0.000    1.429    2.857    2.571    4.000    1.143 
#    2.571    2.143    0.000    0.000    0.000    0.000 
#    0.000    0.000    0.000    0.000    0.000    0.000 
#
# Total GULP energy -311891.631925 kJ/mol
# GULP energy per Si atom -5569.493427 kJ/mol
# Density = 2.033291 g / cm^3
# Si number density = 20.379297 Si / 1000 Ang^3
#
#
#
# Elastic Constant Matrix: (Units=GPa)
#
#
# Indices 1 2 3 4 5 6 
#
# 1 95.8865 8.2259 8.9738 0.0000 0.0000 0.0000
# 2 8.2259 95.3410 25.9544 0.0000 0.0000 0.0000
# 3 8.9738 25.9544 38.8269 0.0000 0.0000 0.0000
# 4 0.0000 0.0000 0.0000 21.3195 0.0000 0.0000
# 5 0.0000 0.0000 0.0000 0.0000 15.2105 0.0000
# 6 0.0000 0.0000 0.0000 0.0000 0.0000 41.9479
#
#
#
# Elastic Compliance Matrix: (Units=1/GPa)
#
#
# Indices 1 2 3 4 5 6 
#
# 1 0.010667 -0.000305 -0.002262 0.000000 0.000000 0.000000
# 2 -0.000305 0.012831 -0.008506 0.000000 0.000000 0.000000
# 3 -0.002262 -0.008506 0.031964 0.000000 0.000000 0.000000
# 4 0.000000 0.000000 0.000000 0.046905 0.000000 0.000000
# 5 0.000000 0.000000 0.000000 0.000000 0.065744 0.000000
# 6 0.000000 0.000000 0.000000 0.000000 0.000000 0.023839
#
#
# Mechanical properties :
#
#
# Convention : Reuss Voigt Hill
#
# Bulk Modulus (GPa) = 30.01539 35.15139 32.58339
# Shear Modulus (GPa) = 22.20235 28.15558 25.17897
#
# Velocity S-wave (km/s) = 3.30427 3.72099 3.51881
# Velocity P-wave (km/s) = 5.41461 5.97888 5.70373
#
# Compressibility (1/GPa) = 0.03331624
#
# Stress axis : x y z
#
# Youngs Moduli (GPa) = 93.74879 77.93848 31.28487
#
# Poissons Ratio (x) = 0.02374 0.07076
# Poissons Ratio (y) = 0.02856 0.26612
# Poissons Ratio (z) = 0.21203 0.66298
#
# Static dielectric constant tensor:
#      x y z
#    x 1.741130 0.000000 0.000000 
#    y 0.000000 1.551800 0.000000 
#    z 0.000000 0.000000 1.781770 
# 
# From -- ./inp_files/36040.got.cif
#   From: 2010.05.17/outbox.cif.g08.bks.cpg/sg52_19_cif.got.tgz:36040.got - 2010.06.03 12:15:38.
