data_PCOD9409698
_publ_section_title
;
Structure prediction by ZEFSAII (Michael W. Deem and Ramdas Pophale) SiO2 
 PCOD9409698
Probable space group: P N N A
;
_chemical_formula_sum "Si O2"
_cell_formula_units_Z 20
_cell_length_a 5.146085
_cell_length_b 7.435899
_cell_length_c 20.124892
_cell_angle_alpha 90.000000
_cell_angle_beta 90.000000
_cell_angle_gamma 90.000000
_cell_volume 770.094454
_symmetry_space_group_name_H-M "P N N A"
_symmetry_group_IT_number 52
_symmetry_cell_setting 'orthorhombic'
loop_
_space_group_symop_operation_xyz
x,y,z
1/2-x,-y,z
x,1/2-y,1/2-z
1/2-x,1/2+y,1/2-z
-x,-y,-z
1/2+x,y,-z
-x,1/2+y,1/2+z
1/2+x,1/2-y,1/2+z
loop_
_atom_site_type_symbol
_atom_site_label
_atom_site_fract_x
_atom_site_fract_y
_atom_site_fract_z
Si Si1 0.243252 0.783555 0.536854
Si Si2 0.250000 0.000000 0.220043
Si Si3 0.593573 0.160966 0.655835
O O1 0.021473 0.714689 0.486278
O O2 0.134156 0.759475 0.611312
O O3 0.750000 0.000000 0.468081
O O4 0.032585 0.062218 0.273983
O O5 0.281802 0.175199 0.175715
O O6 0.750000 0.000000 0.619071
#
# Coordination Sequence:
#
# PCOD9409698 Si02
#       3
#     8   4   8
#     4  10  20  35  63  93 119 160 206 251 307 365
#     4   8  18  32  60  88 120 162 206 246 310 362
#     4   9  16  34  60  83 126 153 206 250 304 362
#
# _framework density 25.970842999999999
#
# number of rings (size 3 to 8) (size 9 to 14) (size 15 to 20)
#    1.200    1.600    0.000    3.600    0.000    0.000 
#    0.000    2.000   35.200    0.000    0.000    2.800 
#    0.000    0.000    0.000    0.000    0.000    0.000 
#
# Total GULP energy -111404.495712 kJ/mol
# GULP energy per Si atom -5570.224786 kJ/mol
# Density = 2.591173 g / cm^3
# Si number density = 25.970843 Si / 1000 Ang^3
#
#
#
# Elastic Constant Matrix: (Units=GPa)
#
#
# Indices 1 2 3 4 5 6 
#
# 1 102.5052 13.6812 39.2362 0.0000 0.0000 0.0000
# 2 13.6812 131.4630 35.0236 0.0000 0.0000 0.0000
# 3 39.2362 35.0236 139.5361 0.0000 0.0000 0.0000
# 4 0.0000 0.0000 0.0000 -6.2114 0.0000 0.0000
# 5 0.0000 0.0000 0.0000 0.0000 -586.2016 0.0000
# 6 0.0000 0.0000 0.0000 0.0000 0.0000 -2.1389
#
#
#
# Elastic Compliance Matrix: (Units=1/GPa)
#
#
# Indices 1 2 3 4 5 6 
#
# 1 0.010947 -0.000342 -0.002992 0.000000 0.000000 0.000000
# 2 -0.000342 0.008163 -0.001953 0.000000 0.000000 0.000000
# 3 -0.002992 -0.001953 0.008498 0.000000 0.000000 0.000000
# 4 0.000000 0.000000 0.000000 -0.160995 0.000000 0.000000
# 5 0.000000 0.000000 0.000000 0.000000 -0.001706 0.000000
# 6 0.000000 0.000000 0.000000 0.000000 0.000000 -0.467528
#
#
# Mechanical properties :
#
#
# Convention : Reuss Voigt Hill
#
# Bulk Modulus (GPa) = 58.70801 61.04293 59.87547
# Shear Modulus (GPa) = -8.52703 -99.87281 -54.19992
#
# Velocity S-wave (km/s) = -1.81396 -6.20800 -4.57327
# Velocity P-wave (km/s) = 4.27401 5.27543 2.18667
#
# Compressibility (1/GPa) = 0.01703345
#
# Stress axis : x y z
#
# Youngs Moduli (GPa) = 91.35262 122.51147 117.67342
#
# Poissons Ratio (x) = 0.04190 0.35211
# Poissons Ratio (y) = 0.03124 0.22977
# Poissons Ratio (z) = 0.27335 0.23922
#
# Static dielectric constant tensor:
#      x y z
#    x 2.121220 0.000000 0.000000 
#    y 0.000000 2.137880 0.000000 
#    z 0.000000 0.000000 2.122320 
# 
# From -- ./inp_files/34675.got.cif
#   From: 2010.05.17/outbox.cif.g08.bks.cpg/sg52_18_cif.got.tgz:34675.got - 2010.06.03 12:15:38.
