data_PCOD9409924
_publ_section_title
;
Structure prediction by ZEFSAII (Michael W. Deem and Ramdas Pophale) SiO2 
 PCOD9409924
Probable space group: P N N A
;
_chemical_formula_sum "Si O2"
_cell_formula_units_Z 40
_cell_length_a 13.322350
_cell_length_b 9.250230
_cell_length_c 15.985376
_cell_angle_alpha 90.000000
_cell_angle_beta 90.000000
_cell_angle_gamma 90.000000
_cell_volume 1969.954641
_symmetry_space_group_name_H-M "P N N A"
_symmetry_group_IT_number 52
_symmetry_cell_setting 'orthorhombic'
loop_
_space_group_symop_operation_xyz
x,y,z
1/2-x,-y,z
x,1/2-y,1/2-z
1/2-x,1/2+y,1/2-z
-x,-y,-z
1/2+x,y,-z
-x,1/2+y,1/2+z
1/2+x,1/2-y,1/2+z
loop_
_atom_site_type_symbol
_atom_site_label
_atom_site_fract_x
_atom_site_fract_y
_atom_site_fract_z
Si Si1 0.512502 0.664594 0.167033
Si Si2 0.718413 0.274480 0.841723
Si Si3 0.056099 0.848877 0.998712
Si Si4 0.250000 0.500000 0.029981
Si Si5 0.250000 0.000000 0.060886
Si Si6 0.439967 0.593433 0.931089
O O1 0.542829 0.750000 0.250000
O O2 0.391075 0.652938 0.167432
O O3 0.554436 0.503302 0.152127
O O4 0.545457 0.761967 0.087913
O O5 0.763708 0.250000 0.750000
O O6 0.696110 0.118084 0.880981
O O7 0.782629 0.374343 0.904540
O O8 0.170043 0.901300 0.012900
O O9 0.996359 0.746604 0.065488
O O10 0.000000 0.000000 0.000000
O O11 0.328915 0.582732 0.970684
O O12 0.500000 0.500000 0.000000
#
# Coordination Sequence:
#
# PCOD9409924 Si02
#       6
#     8   8   8   4   4   8
#     4  10  21  40  60  84 123 159 196 258 311 357
#     4  11  22  35  57  89 125 153 194 247 319 373
#     4  11  21  40  59  88 122 158 209 248 302 376
#     4  12  19  38  65  88 118 162 210 250 299 382
#     4  12  23  38  59  88 118 166 196 254 303 366
#     4  10  20  37  62  88 115 162 207 246 304 379
#
# _framework density 20.305035
#
# number of rings (size 3 to 8) (size 9 to 14) (size 15 to 20)
#    0.000    1.200    6.000    3.000    0.000    0.000 
#    0.000    2.000    0.000    0.000    0.000    0.000 
#    0.000    0.000    0.000    0.000    0.000    0.000 
#
# Total GULP energy -222804.367023 kJ/mol
# GULP energy per Si atom -5570.109176 kJ/mol
# Density = 2.025882 g / cm^3
# Si number density = 20.305035 Si / 1000 Ang^3
#
#
#
# Elastic Constant Matrix: (Units=GPa)
#
#
# Indices 1 2 3 4 5 6 
#
# 1 79.8703 30.6291 23.6664 0.0000 0.0000 0.0000
# 2 30.6291 160.6720 49.4824 0.0000 0.0000 0.0000
# 3 23.6664 49.4824 90.6272 0.0000 0.0000 0.0000
# 4 0.0000 0.0000 0.0000 30.9201 0.0000 0.0000
# 5 0.0000 0.0000 0.0000 0.0000 11.6102 0.0000
# 6 0.0000 0.0000 0.0000 0.0000 0.0000 30.0118
#
#
#
# Elastic Compliance Matrix: (Units=1/GPa)
#
#
# Indices 1 2 3 4 5 6 
#
# 1 0.014017 -0.001857 -0.002646 0.000000 0.000000 0.000000
# 2 -0.001857 0.007728 -0.003735 0.000000 0.000000 0.000000
# 3 -0.002646 -0.003735 0.013764 0.000000 0.000000 0.000000
# 4 0.000000 0.000000 0.000000 0.032341 0.000000 0.000000
# 5 0.000000 0.000000 0.000000 0.000000 0.086131 0.000000
# 6 0.000000 0.000000 0.000000 0.000000 0.000000 0.033320
#
#
# Mechanical properties :
#
#
# Convention : Reuss Voigt Hill
#
# Bulk Modulus (GPa) = 52.54005 59.85837 56.19921
# Shear Modulus (GPa) = 23.79569 29.66785 26.73177
#
# Velocity S-wave (km/s) = 3.42703 3.82659 3.63231
# Velocity P-wave (km/s) = 6.44910 7.00481 6.73269
#
# Compressibility (1/GPa) = 0.01903310
#
# Stress axis : x y z
#
# Youngs Moduli (GPa) = 71.34410 129.39969 72.65139
#
# Poissons Ratio (x) = 0.24029 0.19226
# Poissons Ratio (y) = 0.13248 0.27132
# Poissons Ratio (z) = 0.18880 0.48325
#
# Static dielectric constant tensor:
#      x y z
#    x 1.951390 0.000000 0.000000 
#    y 0.000000 1.763600 0.000000 
#    z 0.000000 0.000000 1.779640 
# 
# From -- ./inp_files/26928.got.cif
#   From: 2010.05.17/outbox.cif.g08.bks.cpg/sg52_14_cif.got.tgz:26928.got - 2010.06.03 12:15:38.
