data_PCOD9409641
_publ_section_title
;
Structure prediction by ZEFSAII (Michael W. Deem and Ramdas Pophale) SiO2 
 PCOD9409641
Probable space group: P N N A
;
_chemical_formula_sum "Si O2"
_cell_formula_units_Z 32
_cell_length_a 8.058070
_cell_length_b 13.341650
_cell_length_c 10.355106
_cell_angle_alpha 90.000000
_cell_angle_beta 90.000000
_cell_angle_gamma 90.000000
_cell_volume 1113.256214
_symmetry_space_group_name_H-M "P N N A"
_symmetry_group_IT_number 52
_symmetry_cell_setting 'orthorhombic'
loop_
_space_group_symop_operation_xyz
x,y,z
1/2-x,-y,z
x,1/2-y,1/2-z
1/2-x,1/2+y,1/2-z
-x,-y,-z
1/2+x,y,-z
-x,1/2+y,1/2+z
1/2+x,1/2-y,1/2+z
loop_
_atom_site_type_symbol
_atom_site_label
_atom_site_fract_x
_atom_site_fract_y
_atom_site_fract_z
Si Si1 0.107069 0.101306 0.507123
Si Si2 0.702175 0.867741 0.227881
Si Si3 0.166127 0.132875 0.225187
Si Si4 0.513764 0.807098 0.887467
O O1 0.218531 0.099382 0.635725
O O2 0.204925 0.100604 0.371855
O O3 0.012021 0.211517 0.516484
O O4 0.000000 0.000000 0.500000
O O5 0.679255 0.750000 0.250000
O O6 0.518853 0.907822 0.193705
O O7 0.146786 0.250000 0.250000
O O8 0.319355 0.126811 0.125808
O O9 0.152148 0.126328 0.878062
O O10 0.516967 0.750000 0.750000
#
# Coordination Sequence:
#
# PCOD9409641 Si02
#       4
#     8   8   8   8
#     4  10  21  36  63 101 130 160 221 292 343 387
#     4   8  18  35  52  79 125 168 208 259 323 404
#     4  10  20  35  55  83 128 168 212 256 335 408
#     4   8  18  38  53  79 127 169 208 262 329 403
#
# _framework density 28.744503000000002
#
# number of rings (size 3 to 8) (size 9 to 14) (size 15 to 20)
#    0.000    3.500    0.000    0.000   10.500    1.000 
#    0.000    0.000    0.000    0.000    0.000   43.750 
#    0.000    0.250    0.000    0.000    0.000    0.000 
#
# Total GULP energy -178592.282550 kJ/mol
# GULP energy per Si atom -5581.008830 kJ/mol
# Density = 2.867908 g / cm^3
# Si number density = 28.744503 Si / 1000 Ang^3
#
#
#
# Elastic Constant Matrix: (Units=GPa)
#
#
# Indices 1 2 3 4 5 6 
#
# 1 311.9011 54.9378 95.8450 0.0000 0.0000 0.0000
# 2 54.9378 136.2678 55.9434 0.0000 0.0000 0.0000
# 3 95.8450 55.9434 157.2345 0.0000 0.0000 0.0000
# 4 0.0000 0.0000 0.0000 -46.9398 0.0000 0.0000
# 5 0.0000 0.0000 0.0000 0.0000 47.0392 0.0000
# 6 0.0000 0.0000 0.0000 0.0000 0.0000 43.5682
#
#
#
# Elastic Compliance Matrix: (Units=1/GPa)
#
#
# Indices 1 2 3 4 5 6 
#
# 1 0.004004 -0.000717 -0.002186 0.000000 0.000000 0.000000
# 2 -0.000717 0.008722 -0.002666 0.000000 0.000000 0.000000
# 3 -0.002186 -0.002666 0.008641 0.000000 0.000000 0.000000
# 4 0.000000 0.000000 0.000000 -0.021304 0.000000 0.000000
# 5 0.000000 0.000000 0.000000 0.000000 0.021259 0.000000
# 6 0.000000 0.000000 0.000000 0.000000 0.000000 0.022953
#
#
# Mechanical properties :
#
#
# Convention : Reuss Voigt Hill
#
# Bulk Modulus (GPa) = 97.75826 113.20619 105.48223
# Shear Modulus (GPa) = 85.00200 35.31200 60.15700
#
# Velocity S-wave (km/s) = 5.44387 3.50877 4.57970
# Velocity P-wave (km/s) = 8.57890 7.47558 8.04618
#
# Compressibility (1/GPa) = 0.01022931
#
# Stress axis : x y z
#
# Youngs Moduli (GPa) = 249.74600 114.65058 115.72910
#
# Poissons Ratio (x) = 0.08220 0.25294
# Poissons Ratio (y) = 0.17906 0.30856
# Poissons Ratio (z) = 0.54586 0.30569
#
# Static dielectric constant tensor:
#      x y z
#    x 2.647540 0.000000 0.000000 
#    y 0.000000 2.316600 0.000000 
#    z 0.000000 0.000000 2.211560 
# 
# From -- ./inp_files/16509.got.cif
#   From: 2010.05.17/outbox.cif.g08.bks.cpg/sg52_9_cif.got.tgz:16509.got - 2010.06.03 12:15:38.
