data_PCOD9409799
_publ_section_title
;
Structure prediction by ZEFSAII (Michael W. Deem and Ramdas Pophale) SiO2 
 PCOD9409799
Probable space group: P N N A
;
_chemical_formula_sum "Si O2"
_cell_formula_units_Z 60
_cell_length_a 15.482250
_cell_length_b 9.130622
_cell_length_c 16.646254
_cell_angle_alpha 90.000000
_cell_angle_beta 90.000000
_cell_angle_gamma 90.000000
_cell_volume 2353.157287
_symmetry_space_group_name_H-M "P N N A"
_symmetry_group_IT_number 52
_symmetry_cell_setting 'orthorhombic'
loop_
_space_group_symop_operation_xyz
x,y,z
1/2-x,-y,z
x,1/2-y,1/2-z
1/2-x,1/2+y,1/2-z
-x,-y,-z
1/2+x,y,-z
-x,1/2+y,1/2+z
1/2+x,1/2-y,1/2+z
loop_
_atom_site_type_symbol
_atom_site_label
_atom_site_fract_x
_atom_site_fract_y
_atom_site_fract_z
Si Si1 0.343048 0.989653 0.341900
Si Si2 0.167214 0.759671 0.657837
Si Si3 0.819502 0.289090 0.987844
Si Si4 0.568289 0.486937 0.329299
Si Si5 0.040832 0.469282 0.838483
Si Si6 0.250000 0.500000 0.404079
Si Si7 0.978996 0.759899 0.034300
Si Si8 0.093855 0.163148 0.137678
O O1 0.366215 0.818147 0.339099
O O2 0.250000 0.000000 0.299395
O O3 0.322584 0.076184 0.425630
O O4 0.438144 0.053993 0.322196
O O5 0.200275 0.750000 0.750000
O O6 0.215931 0.815710 0.578173
O O7 0.144774 0.590162 0.640749
O O8 0.083460 0.868994 0.657313
O O9 0.769566 0.148874 0.952641
O O10 0.921004 0.246824 0.990252
O O11 0.586038 0.415083 0.243181
O O12 0.537162 0.375325 0.395424
O O13 0.490251 0.603569 0.317763
O O14 0.052742 0.391262 0.924527
O O15 0.164096 0.463459 0.355564
O O16 0.930292 0.811389 0.955374
#
# Coordination Sequence:
#
# PCOD9409799 Si02
#       8
#     8   8   8   8   8   4   8   8
#     4  11  22  38  58  85 120 160 200 237 295 363
#     4  10  20  36  61  86 110 150 198 250 302 351
#     4  11  21  38  61  87 114 154 198 254 290 362
#     4  11  20  36  59  89 123 152 192 253 302 352
#     4  10  22  37  59  89 121 155 198 247 301 360
#     4  12  24  36  58  90 120 154 196 244 310 352
#     4  11  21  37  62  89 118 151 206 248 299 345
#     4  12  22  38  61  88 119 159 201 251 295 358
#
# _framework density 25.497658999999999
#
# number of rings (size 3 to 8) (size 9 to 14) (size 15 to 20)
#    0.000    1.067    5.333    2.400    0.000    2.133 
#    1.200    0.000    4.400    1.600    0.000    0.000 
#    0.000    0.000    0.000    0.000    0.000    0.000 
#
# Total GULP energy -335019.794959 kJ/mol
# GULP energy per Si atom -5583.663249 kJ/mol
# Density = 2.543962 g / cm^3
# Si number density = 25.497659 Si / 1000 Ang^3
#
#
#
# Elastic Constant Matrix: (Units=GPa)
#
#
# Indices 1 2 3 4 5 6 
#
# 1 47.6368 -1.4331 -18.9065 0.0000 0.0000 0.0000
# 2 -1.4331 61.5066 8.4417 0.0000 0.0000 0.0000
# 3 -18.9065 8.4417 126.6355 0.0000 0.0000 0.0000
# 4 0.0000 0.0000 0.0000 -71.8113 0.0000 0.0000
# 5 0.0000 0.0000 0.0000 0.0000 8.2574 0.0000
# 6 0.0000 0.0000 0.0000 0.0000 0.0000 27.8779
#
#
#
# Elastic Compliance Matrix: (Units=1/GPa)
#
#
# Indices 1 2 3 4 5 6 
#
# 1 0.022315 0.000063 0.003327 0.000000 0.000000 0.000000
# 2 0.000063 0.016409 -0.001084 0.000000 0.000000 0.000000
# 3 0.003327 -0.001084 0.008466 0.000000 0.000000 0.000000
# 4 0.000000 0.000000 0.000000 -0.013925 0.000000 0.000000
# 5 0.000000 0.000000 0.000000 0.000000 0.121104 0.000000
# 6 0.000000 0.000000 0.000000 0.000000 0.000000 0.035871
#
#
# Mechanical properties :
#
#
# Convention : Reuss Voigt Hill
#
# Bulk Modulus (GPa) = 19.30449 23.55371 21.42910
# Shear Modulus (GPa) = 24.64356 9.37660 17.01008
#
# Velocity S-wave (km/s) = 3.11224 1.91974 2.58567
# Velocity P-wave (km/s) = 4.52794 3.76451 4.16376
#
# Compressibility (1/GPa) = 0.05180142
#
# Stress axis : x y z
#
# Youngs Moduli (GPa) = 44.81365 60.94324 118.12334
#
# Poissons Ratio (x) = -0.00385 -0.39303
# Poissons Ratio (y) = -0.00283 0.12809
# Poissons Ratio (z) = -0.14911 0.06609
#
# Static dielectric constant tensor:
#      x y z
#    x 2.070340 0.000000 0.000000 
#    y 0.000000 1.988130 0.000000 
#    z 0.000000 0.000000 2.037620 
# 
# From -- ./inp_files/33757.got.cif
#   From: 2010.05.17/outbox.cif.g08.bks.cpg/sg52_17_cif.got.tgz:33757.got - 2010.06.03 12:15:38.
