data_PCOD9409206
_publ_section_title
;
Structure prediction by ZEFSAII (Michael W. Deem and Ramdas Pophale) SiO2 
 PCOD9409206
Probable space group: P N N A
;
_chemical_formula_sum "Si O2"
_cell_formula_units_Z 20
_cell_length_a 4.986353
_cell_length_b 7.827563
_cell_length_c 19.894064
_cell_angle_alpha 90.000000
_cell_angle_beta 90.000000
_cell_angle_gamma 90.000000
_cell_volume 776.485058
_symmetry_space_group_name_H-M "P N N A"
_symmetry_group_IT_number 52
_symmetry_cell_setting 'orthorhombic'
loop_
_space_group_symop_operation_xyz
x,y,z
1/2-x,-y,z
x,1/2-y,1/2-z
1/2-x,1/2+y,1/2-z
-x,-y,-z
1/2+x,y,-z
-x,1/2+y,1/2+z
1/2+x,1/2-y,1/2+z
loop_
_atom_site_type_symbol
_atom_site_label
_atom_site_fract_x
_atom_site_fract_y
_atom_site_fract_z
Si Si1 0.890622 0.247737 0.545928
Si Si2 0.104565 0.175679 0.816779
Si Si3 0.250000 0.500000 0.882473
O O1 0.608633 0.285774 0.512107
O O2 0.930261 0.345321 0.616148
O O3 0.005223 0.062095 0.571475
O O4 0.964257 0.250000 0.750000
O O5 0.305050 0.331473 0.838720
O O6 0.250000 0.000000 0.802362
#
# Coordination Sequence:
#
# PCOD9409206 Si02
#       3
#     8   8   4
#     4  10  21  39  64  93 127 164 206 257 312 369
#     4  10  19  37  61  89 124 163 209 254 312 368
#     4   8  20  34  64  84 132 152 212 248 312 366
#
# _framework density 25.757095
#
# number of rings (size 3 to 8) (size 9 to 14) (size 15 to 20)
#    2.400    0.000    2.000    1.200    0.000    1.600 
#    0.000    2.000    0.000    0.000    0.000    0.000 
#    0.000    0.000    0.000    0.000    0.000    0.000 
#
# Total GULP energy -111486.278483 kJ/mol
# GULP energy per Si atom -5574.313924 kJ/mol
# Density = 2.569847 g / cm^3
# Si number density = 25.757095 Si / 1000 Ang^3
#
#
#
# Elastic Constant Matrix: (Units=GPa)
#
#
# Indices 1 2 3 4 5 6 
#
# 1 36.2126 24.5032 0.4839 0.0000 0.0000 0.0000
# 2 24.5032 150.7024 56.2046 0.0000 0.0000 0.0000
# 3 0.4839 56.2046 197.0558 0.0000 0.0000 0.0000
# 4 0.0000 0.0000 0.0000 50.5176 0.0000 0.0000
# 5 0.0000 0.0000 0.0000 0.0000 -18.5872 0.0000
# 6 0.0000 0.0000 0.0000 0.0000 0.0000 17.6843
#
#
#
# Elastic Compliance Matrix: (Units=1/GPa)
#
#
# Indices 1 2 3 4 5 6 
#
# 1 0.031443 -0.005689 0.001545 0.000000 0.000000 0.000000
# 2 -0.005689 0.008455 -0.002398 0.000000 0.000000 0.000000
# 3 0.001545 -0.002398 0.005755 0.000000 0.000000 0.000000
# 4 0.000000 0.000000 0.000000 0.019795 0.000000 0.000000
# 5 0.000000 0.000000 0.000000 0.000000 -0.053800 0.000000
# 6 0.000000 0.000000 0.000000 0.000000 0.000000 0.056547
#
#
# Mechanical properties :
#
#
# Convention : Reuss Voigt Hill
#
# Bulk Modulus (GPa) = 30.70227 60.70603 45.70415
# Shear Modulus (GPa) = 54.26897 30.10821 42.18859
#
# Velocity S-wave (km/s) = 4.59513 3.42267 4.05154
# Velocity P-wave (km/s) = 6.33242 6.26413 6.29837
#
# Compressibility (1/GPa) = 0.03257088
#
# Stress axis : x y z
#
# Youngs Moduli (GPa) = 31.80321 118.27724 173.77009
#
# Poissons Ratio (x) = 0.67286 -0.26854
# Poissons Ratio (y) = 0.18092 0.41661
# Poissons Ratio (z) = -0.04915 0.28357
#
# Static dielectric constant tensor:
#      x y z
#    x 2.027410 0.000000 0.000000 
#    y 0.000000 2.157970 0.000000 
#    z 0.000000 0.000000 2.031690 
# 
# From -- ./inp_files/38414.got.cif
#   From: 2010.05.17/outbox.cif.g08.bks.cpg/sg52_20_cif.got.tgz:38414.got - 2010.06.03 12:15:38.
