data_PCOD9409128
_publ_section_title
;
Structure prediction by ZEFSAII (Michael W. Deem and Ramdas Pophale) SiO2 
 PCOD9409128
Probable space group: P N N A
;
_chemical_formula_sum "Si O2"
_cell_formula_units_Z 48
_cell_length_a 19.872341
_cell_length_b 13.614966
_cell_length_c 8.818254
_cell_angle_alpha 90.000000
_cell_angle_beta 90.000000
_cell_angle_gamma 90.000000
_cell_volume 2385.877799
_symmetry_space_group_name_H-M "P N N A"
_symmetry_group_IT_number 52
_symmetry_cell_setting 'orthorhombic'
loop_
_space_group_symop_operation_xyz
x,y,z
1/2-x,-y,z
x,1/2-y,1/2-z
1/2-x,1/2+y,1/2-z
-x,-y,-z
1/2+x,y,-z
-x,1/2+y,1/2+z
1/2+x,1/2-y,1/2+z
loop_
_atom_site_type_symbol
_atom_site_label
_atom_site_fract_x
_atom_site_fract_y
_atom_site_fract_z
Si Si1 0.963403 0.085844 0.759390
Si Si2 0.750000 0.000000 0.707792
Si Si3 0.627733 0.077792 0.904326
Si Si4 0.351544 0.111147 0.494630
Si Si5 0.603184 0.508684 0.285844
Si Si6 0.432900 0.211562 0.959167
Si Si7 0.047649 0.250000 0.250000
O O1 0.916979 0.093167 0.612023
O O2 0.930592 0.997949 0.856051
O O3 0.955580 0.177152 0.874195
O O4 0.039245 0.054058 0.729672
O O5 0.805757 0.949989 0.813079
O O6 0.712362 0.918997 0.604939
O O7 0.596787 0.177594 0.840450
O O8 0.637000 0.057607 0.082826
O O9 0.353900 0.042514 0.642005
O O10 0.364689 0.224603 0.537803
O O11 0.579069 0.611717 0.363325
O O12 0.492670 0.274951 0.881663
#
# Coordination Sequence:
#
# PCOD9409128 Si02
#       7
#     8   4   8   8   8   8   4
#     4  10  19  36  60  95 128 155 196 258 335 380
#     4  10  26  46  54  78 126 176 220 238 318 396
#     4  10  21  39  61  84 122 170 213 255 313 388
#     4  11  22  37  62  89 129 169 206 265 315 395
#     4  11  19  36  66  92 123 158 207 269 332 376
#     4  11  19  35  63 100 126 153 207 266 331 385
#     4  12  18  36  66  94 126 152 212 286 326 382
#
# _framework density 20.118383000000001
#
# number of rings (size 3 to 8) (size 9 to 14) (size 15 to 20)
#    0.000    1.333    5.000    2.000    0.000    2.000 
#    9.000    0.000    3.667    0.000    0.000    0.000 
#    0.000    0.000    0.000    0.000    0.000    0.000 
#
# Total GULP energy -267550.808814 kJ/mol
# GULP energy per Si atom -5573.975184 kJ/mol
# Density = 2.007259 g / cm^3
# Si number density = 20.118383 Si / 1000 Ang^3
#
#
#
# Elastic Constant Matrix: (Units=GPa)
#
#
# Indices 1 2 3 4 5 6 
#
# 1 87.0773 23.9020 20.4299 0.0000 0.0000 0.0000
# 2 23.9020 62.5506 31.2220 0.0000 0.0000 0.0000
# 3 20.4299 31.2220 104.9458 0.0000 0.0000 0.0000
# 4 0.0000 0.0000 0.0000 25.3735 0.0000 0.0000
# 5 0.0000 0.0000 0.0000 0.0000 -34.3245 0.0000
# 6 0.0000 0.0000 0.0000 0.0000 0.0000 31.2386
#
#
#
# Elastic Compliance Matrix: (Units=1/GPa)
#
#
# Indices 1 2 3 4 5 6 
#
# 1 0.012964 -0.004338 -0.001233 0.000000 0.000000 0.000000
# 2 -0.004338 0.020227 -0.005173 0.000000 0.000000 0.000000
# 3 -0.001233 -0.005173 0.011308 0.000000 0.000000 0.000000
# 4 0.000000 0.000000 0.000000 0.039411 0.000000 0.000000
# 5 0.000000 0.000000 0.000000 0.000000 -0.029134 0.000000
# 6 0.000000 0.000000 0.000000 0.000000 0.000000 0.032012
#
#
# Mechanical properties :
#
#
# Convention : Reuss Voigt Hill
#
# Bulk Modulus (GPa) = 43.45965 45.07574 44.26769
# Shear Modulus (GPa) = 43.12308 16.39218 29.75763
#
# Velocity S-wave (km/s) = 4.63478 2.85754 3.85011
# Velocity P-wave (km/s) = 7.09158 5.77419 6.46652
#
# Compressibility (1/GPa) = 0.02300985
#
# Stress axis : x y z
#
# Youngs Moduli (GPa) = 77.13546 49.43887 88.43456
#
# Poissons Ratio (x) = 0.21449 0.10904
# Poissons Ratio (y) = 0.33465 0.45748
# Poissons Ratio (z) = 0.09511 0.25575
#
# Static dielectric constant tensor:
#      x y z
#    x 1.684800 0.000000 0.000000 
#    y 0.000000 1.804020 0.000000 
#    z 0.000000 0.000000 1.781380 
# 
# From -- ./inp_files/12140.got.cif
#   From: 2010.05.17/outbox.cif.g08.bks.cpg/sg52_7_cif.got.tgz:12140.got - 2010.06.03 12:15:38.
