data_PCOD9409095
_publ_section_title
;
Structure prediction by ZEFSAII (Michael W. Deem and Ramdas Pophale) SiO2 
 PCOD9409095
Probable space group: P N N A
;
_chemical_formula_sum "Si O2"
_cell_formula_units_Z 32
_cell_length_a 9.611063
_cell_length_b 18.090981
_cell_length_c 9.331488
_cell_angle_alpha 90.000000
_cell_angle_beta 90.000000
_cell_angle_gamma 90.000000
_cell_volume 1622.499021
_symmetry_space_group_name_H-M "P N N A"
_symmetry_group_IT_number 52
_symmetry_cell_setting 'orthorhombic'
loop_
_space_group_symop_operation_xyz
x,y,z
1/2-x,-y,z
x,1/2-y,1/2-z
1/2-x,1/2+y,1/2-z
-x,-y,-z
1/2+x,y,-z
-x,1/2+y,1/2+z
1/2+x,1/2-y,1/2+z
loop_
_atom_site_type_symbol
_atom_site_label
_atom_site_fract_x
_atom_site_fract_y
_atom_site_fract_z
Si Si1 0.039039 0.082387 0.543437
Si Si2 0.769804 0.681393 0.441603
Si Si3 0.433221 0.167945 0.181805
Si Si4 0.315300 0.150796 0.629719
O O1 0.969185 0.110589 0.692211
O O2 0.968991 0.134707 0.424266
O O3 0.203087 0.095400 0.560054
O O4 0.000000 0.000000 0.500000
O O5 0.702721 0.653496 0.587871
O O6 0.734190 0.768197 0.421126
O O7 0.701244 0.645341 0.300181
O O8 0.933980 0.670265 0.424211
O O9 0.423970 0.250000 0.250000
#
# Coordination Sequence:
#
# PCOD9409095 Si02
#       4
#     8   8   8   8
#     4  11  22  37  59  87 121 160 196 241 305 367
#     4  10  19  36  59  88 118 153 200 256 297 332
#     4  11  20  38  59  91 123 150 205 254 293 355
#     4  10  19  36  57  85 119 154 200 248 293 352
#
# _framework density 19.722663000000001
#
# number of rings (size 3 to 8) (size 9 to 14) (size 15 to 20)
#    0.000    1.500    7.500    0.750    0.000    2.000 
#    4.500    1.250    0.000    3.000    0.000    0.000 
#    0.000    0.000    0.000    0.000    0.000    0.000 
#
# Total GULP energy -178674.991692 kJ/mol
# GULP energy per Si atom -5583.593490 kJ/mol
# Density = 1.967777 g / cm^3
# Si number density = 19.722663 Si / 1000 Ang^3
#
#
#
# Elastic Constant Matrix: (Units=GPa)
#
#
# Indices 1 2 3 4 5 6 
#
# 1 54.5789 10.2585 42.2828 0.0000 0.0000 0.0000
# 2 10.2585 67.2476 16.4869 0.0000 0.0000 0.0000
# 3 42.2828 16.4869 56.8014 0.0000 0.0000 0.0000
# 4 0.0000 0.0000 0.0000 24.8264 0.0000 0.0000
# 5 0.0000 0.0000 0.0000 0.0000 28.5850 0.0000
# 6 0.0000 0.0000 0.0000 0.0000 0.0000 16.6324
#
#
#
# Elastic Compliance Matrix: (Units=1/GPa)
#
#
# Indices 1 2 3 4 5 6 
#
# 1 0.043405 0.001400 -0.032717 0.000000 0.000000 0.000000
# 2 0.001400 0.016055 -0.005702 0.000000 0.000000 0.000000
# 3 -0.032717 -0.005702 0.043615 0.000000 0.000000 0.000000
# 4 0.000000 0.000000 0.000000 0.040280 0.000000 0.000000
# 5 0.000000 0.000000 0.000000 0.000000 0.034983 0.000000
# 6 0.000000 0.000000 0.000000 0.000000 0.000000 0.060123
#
#
# Mechanical properties :
#
#
# Convention : Reuss Voigt Hill
#
# Bulk Modulus (GPa) = 34.43967 35.18712 34.81340
# Shear Modulus (GPa) = 15.51936 21.31542 18.41739
#
# Velocity S-wave (km/s) = 2.80818 3.29105 3.05916
# Velocity P-wave (km/s) = 5.29286 5.68516 5.49252
#
# Compressibility (1/GPa) = 0.02903628
#
# Stress axis : x y z
#
# Youngs Moduli (GPa) = 23.03874 62.28658 22.92808
#
# Poissons Ratio (x) = -0.08719 0.75014
# Poissons Ratio (y) = -0.03225 0.13073
# Poissons Ratio (z) = 0.75376 0.35516
#
# Static dielectric constant tensor:
#      x y z
#    x 1.685470 0.000000 0.000000 
#    y 0.000000 1.698380 0.000000 
#    z 0.000000 0.000000 1.699830 
# 
# From -- ./inp_files/7210.got.cif
#   From: 2010.05.17/outbox.cif.g08.bks.cpg/sg52_4_cif.got.tgz:7210.got - 2010.06.03 12:15:38.
