data_PCOD9409299
_publ_section_title
;
Structure prediction by ZEFSAII (Michael W. Deem and Ramdas Pophale) SiO2 
 PCOD9409299
Probable space group: P N N A
;
_chemical_formula_sum "Si O2"
_cell_formula_units_Z 64
_cell_length_a 14.308464
_cell_length_b 20.695914
_cell_length_c 9.825042
_cell_angle_alpha 90.000000
_cell_angle_beta 90.000000
_cell_angle_gamma 90.000000
_cell_volume 2909.457662
_symmetry_space_group_name_H-M "P N N A"
_symmetry_group_IT_number 52
_symmetry_cell_setting 'orthorhombic'
loop_
_space_group_symop_operation_xyz
x,y,z
1/2-x,-y,z
x,1/2-y,1/2-z
1/2-x,1/2+y,1/2-z
-x,-y,-z
1/2+x,y,-z
-x,1/2+y,1/2+z
1/2+x,1/2-y,1/2+z
loop_
_atom_site_type_symbol
_atom_site_label
_atom_site_fract_x
_atom_site_fract_y
_atom_site_fract_z
Si Si1 0.722037 0.188228 0.328966
Si Si2 0.058685 0.908337 0.215000
Si Si3 0.644428 0.977669 0.037538
Si Si4 0.430978 0.721044 0.048690
Si Si5 0.379736 0.620224 0.589664
Si Si6 0.610202 0.867917 0.502554
Si Si7 0.395712 0.844516 0.189459
Si Si8 0.469818 0.456444 0.787469
O O1 0.763053 0.250000 0.250000
O O2 0.633907 0.216919 0.415350
O O3 0.687007 0.136661 0.215531
O O4 0.796941 0.156812 0.429301
O O5 0.120803 0.937822 0.095306
O O6 0.117730 0.877599 0.336407
O O7 0.981628 0.860012 0.150039
O O8 0.003528 0.969621 0.282970
O O9 0.750000 0.000000 0.044779
O O10 0.608928 0.943851 0.173217
O O11 0.593667 0.047085 0.045553
O O12 0.524234 0.680778 0.024480
O O13 0.459354 0.790021 0.113858
O O14 0.368294 0.688479 0.169296
O O15 0.334503 0.643705 0.446359
O O16 0.574735 0.933343 0.428162
O O17 0.446335 0.909357 0.239657
#
# Coordination Sequence:
#
# PCOD9409299 Si02
#       8
#     8   8   8   8   8   8   8   8
#     4  12  25  42  68  98 134 180 227 280 342 404
#     4  11  21  41  65  92 129 176 218 269 344 403
#     4  11  22  37  59  97 126 162 221 273 329 396
#     4  10  23  41  66  93 134 174 219 277 342 399
#     4  11  20  41  67  89 125 174 220 271 330 407
#     4  11  25  41  63  98 134 170 222 272 335 408
#     4  10  19  38  69  90 123 171 223 268 336 397
#     4  10  20  40  66  92 126 175 217 272 338 402
#
# _framework density 21.997226000000001
#
# number of rings (size 3 to 8) (size 9 to 14) (size 15 to 20)
#    0.000    1.250    5.000    1.875    3.500    1.000 
#    0.000    0.625    8.250    0.000    0.000    0.000 
#    0.000    0.000    0.000    0.000    0.000    0.000 
#
# Total GULP energy -356391.033708 kJ/mol
# GULP energy per Si atom -5568.609902 kJ/mol
# Density = 2.194716 g / cm^3
# Si number density = 21.997226 Si / 1000 Ang^3
#
#
#
# Elastic Constant Matrix: (Units=GPa)
#
#
# Indices 1 2 3 4 5 6 
#
# 1 38.8788 -11.1138 11.4628 0.0000 0.0000 0.0000
# 2 -11.1138 32.9614 9.8935 0.0000 0.0000 0.0000
# 3 11.4628 9.8935 150.4176 0.0000 0.0000 0.0000
# 4 0.0000 0.0000 0.0000 33.2002 0.0000 0.0000
# 5 0.0000 0.0000 0.0000 0.0000 11.7790 0.0000
# 6 0.0000 0.0000 0.0000 0.0000 0.0000 17.9289
#
#
#
# Elastic Compliance Matrix: (Units=1/GPa)
#
#
# Indices 1 2 3 4 5 6 
#
# 1 0.029721 0.010917 -0.002983 0.000000 0.000000 0.000000
# 2 0.010917 0.034959 -0.003131 0.000000 0.000000 0.000000
# 3 -0.002983 -0.003131 0.007081 0.000000 0.000000 0.000000
# 4 0.000000 0.000000 0.000000 0.030120 0.000000 0.000000
# 5 0.000000 0.000000 0.000000 0.000000 0.084897 0.000000
# 6 0.000000 0.000000 0.000000 0.000000 0.000000 0.055776
#
#
# Mechanical properties :
#
#
# Convention : Reuss Voigt Hill
#
# Bulk Modulus (GPa) = 12.29013 26.97145 19.63079
# Shear Modulus (GPa) = 19.22547 26.71599 22.97073
#
# Velocity S-wave (km/s) = 2.95955 3.48877 3.23500
# Velocity P-wave (km/s) = 4.15666 5.34010 4.78510
#
# Compressibility (1/GPa) = 0.08136608
#
# Stress axis : x y z
#
# Youngs Moduli (GPa) = 33.64627 28.60482 141.21428
#
# Poissons Ratio (x) = -0.31227 0.42124
# Poissons Ratio (y) = -0.36730 0.44218
# Poissons Ratio (z) = 0.10037 0.08957
#
# Static dielectric constant tensor:
#      x y z
#    x 1.838230 0.000000 0.000000 
#    y 0.000000 1.972230 0.000000 
#    z 0.000000 0.000000 1.858770 
# 
# From -- ./inp_files/11017.got.cif
#   From: 2010.05.17/outbox.cif.g08.bks.cpg/sg52_6_cif.got.tgz:11017.got - 2010.06.03 12:15:38.
