data_PCOD9409428
_publ_section_title
;
Structure prediction by ZEFSAII (Michael W. Deem and Ramdas Pophale) SiO2 
 PCOD9409428
Probable space group: P N N A
;
_chemical_formula_sum "Si O2"
_cell_formula_units_Z 52
_cell_length_a 8.619770
_cell_length_b 21.609209
_cell_length_c 14.719833
_cell_angle_alpha 90.000000
_cell_angle_beta 90.000000
_cell_angle_gamma 90.000000
_cell_volume 2741.810470
_symmetry_space_group_name_H-M "P N N A"
_symmetry_group_IT_number 52
_symmetry_cell_setting 'orthorhombic'
loop_
_space_group_symop_operation_xyz
x,y,z
1/2-x,-y,z
x,1/2-y,1/2-z
1/2-x,1/2+y,1/2-z
-x,-y,-z
1/2+x,y,-z
-x,1/2+y,1/2+z
1/2+x,1/2-y,1/2+z
loop_
_atom_site_type_symbol
_atom_site_label
_atom_site_fract_x
_atom_site_fract_y
_atom_site_fract_z
Si Si1 0.006376 0.250000 0.750000
Si Si2 0.361738 0.453344 0.014206
Si Si3 0.932521 0.738410 0.605668
Si Si4 0.215054 0.248648 0.590880
Si Si5 0.243953 0.609842 0.830876
Si Si6 0.088547 0.143527 0.262039
Si Si7 0.911359 0.121124 0.681983
O O1 0.111154 0.278811 0.669874
O O2 0.915296 0.194252 0.703924
O O3 0.250000 0.500000 0.067500
O O4 0.402697 0.394601 0.075043
O O5 0.500000 0.500000 0.000000
O O6 0.293403 0.432453 0.918017
O O7 0.853598 0.745268 0.508635
O O8 0.917770 0.803342 0.659473
O O9 0.881338 0.682098 0.669918
O O10 0.113456 0.725725 0.591188
O O11 0.228737 0.178034 0.626118
O O12 0.416713 0.594883 0.790340
O O13 0.084798 0.613072 0.770853
O O14 0.242397 0.102122 0.278616
#
# Coordination Sequence:
#
# PCOD9409428 Si02
#       7
#     4   8   8   8   8   8   8
#     4  10  22  36  56  82 114 160 214 246 314 380
#     4  12  23  38  57  87 124 164 210 247 301 373
#     4  10  20  32  49  77 112 151 200 249 297 367
#     4  10  21  33  54  79 115 156 202 253 304 364
#     4  10  22  36  53  79 114 157 202 249 293 356
#     4  10  21  35  51  77 109 155 204 247 296 364
#     4  11  22  36  59  77 114 161 201 256 301 363
#
# _framework density 18.965572000000002
#
# number of rings (size 3 to 8) (size 9 to 14) (size 15 to 20)
#    0.000    1.538    1.538    5.538   15.077    0.000 
#    0.000    0.000    0.000    0.000    0.000    0.000 
#    0.000    6.154    1.846    0.923    0.000    0.000 
#
# Total GULP energy -289543.960170 kJ/mol
# GULP energy per Si atom -5568.153080 kJ/mol
# Density = 1.892241 g / cm^3
# Si number density = 18.965572 Si / 1000 Ang^3
#
#
#
# Elastic Constant Matrix: (Units=GPa)
#
#
# Indices 1 2 3 4 5 6 
#
# 1 145.1453 7.2331 22.1756 0.0000 0.0000 0.0000
# 2 7.2331 44.4704 14.2149 0.0000 0.0000 0.0000
# 3 22.1756 14.2149 81.5422 0.0000 0.0000 0.0000
# 4 0.0000 0.0000 0.0000 25.5966 0.0000 0.0000
# 5 0.0000 0.0000 0.0000 0.0000 -18.8967 0.0000
# 6 0.0000 0.0000 0.0000 0.0000 0.0000 22.7658
#
#
#
# Elastic Compliance Matrix: (Units=1/GPa)
#
#
# Indices 1 2 3 4 5 6 
#
# 1 0.007202 -0.000578 -0.001858 0.000000 0.000000 0.000000
# 2 -0.000578 0.023860 -0.004002 0.000000 0.000000 0.000000
# 3 -0.001858 -0.004002 0.013467 0.000000 0.000000 0.000000
# 4 0.000000 0.000000 0.000000 0.039068 0.000000 0.000000
# 5 0.000000 0.000000 0.000000 0.000000 -0.052919 0.000000
# 6 0.000000 0.000000 0.000000 0.000000 0.000000 0.043926
#
#
# Mechanical properties :
#
#
# Convention : Reuss Voigt Hill
#
# Bulk Modulus (GPa) = 31.59237 39.82278 35.70758
# Shear Modulus (GPa) = 51.00481 21.06209 36.03345
#
# Velocity S-wave (km/s) = 5.19151 3.33610 4.36356
# Velocity P-wave (km/s) = 7.25462 5.99019 6.65252
#
# Compressibility (1/GPa) = 0.03165321
#
# Stress axis : x y z
#
# Youngs Moduli (GPa) = 138.84454 41.91085 74.25784
#
# Poissons Ratio (x) = 0.02421 0.13797
# Poissons Ratio (y) = 0.08019 0.29721
# Poissons Ratio (z) = 0.25797 0.16774
#
# Static dielectric constant tensor:
#      x y z
#    x 1.802600 0.000000 0.000000 
#    y 0.000000 1.655830 0.000000 
#    z 0.000000 0.000000 1.412050 
# 
# From -- ./inp_files/25055.got.cif
#   From: 2010.05.17/outbox.cif.g08.bks.cpg/sg52_13_cif.got.tgz:25055.got - 2010.06.03 12:15:38.
