data_PCOD9409314
_publ_section_title
;
Structure prediction by ZEFSAII (Michael W. Deem and Ramdas Pophale) SiO2 
 PCOD9409314
Probable space group: P N N A
;
_chemical_formula_sum "Si O2"
_cell_formula_units_Z 44
_cell_length_a 24.203740
_cell_length_b 9.501874
_cell_length_c 9.578264
_cell_angle_alpha 90.000000
_cell_angle_beta 90.000000
_cell_angle_gamma 90.000000
_cell_volume 2202.817658
_symmetry_space_group_name_H-M "P N N A"
_symmetry_group_IT_number 52
_symmetry_cell_setting 'orthorhombic'
loop_
_space_group_symop_operation_xyz
x,y,z
1/2-x,-y,z
x,1/2-y,1/2-z
1/2-x,1/2+y,1/2-z
-x,-y,-z
1/2+x,y,-z
-x,1/2+y,1/2+z
1/2+x,1/2-y,1/2+z
loop_
_atom_site_type_symbol
_atom_site_label
_atom_site_fract_x
_atom_site_fract_y
_atom_site_fract_z
Si Si1 0.356122 0.056950 0.005922
Si Si2 0.088044 0.225779 0.085581
Si Si3 0.607115 0.955785 0.520487
Si Si4 0.651505 0.750000 0.750000
Si Si5 0.800850 0.092858 0.286917
Si Si6 0.964254 0.234074 0.083038
O O1 0.324690 0.156468 0.120055
O O2 0.370934 0.901980 0.058106
O O3 0.324822 0.040004 0.860215
O O4 0.414769 0.135492 0.973230
O O5 0.084484 0.250000 0.250000
O O6 0.105984 0.376536 0.025295
O O7 0.025465 0.188745 0.038811
O O8 0.620723 0.876080 0.665947
O O9 0.651734 0.908426 0.404097
O O10 0.549317 0.888569 0.475170
O O11 0.782598 0.250000 0.250000
O O12 0.750000 0.000000 0.335921
O O13 0.960581 0.250000 0.250000
#
# Coordination Sequence:
#
# PCOD9409314 Si02
#       6
#     8   8   8   4   8   8
#     4  11  21  43  63  93 129 170 208 269 323 372
#     4  11  23  34  61 100 131 164 217 258 313 390
#     4  11  21  43  63  93 129 170 208 269 323 372
#     4  10  20  38  70  80 122 172 188 246 338 378
#     4  12  26  46  72  92 124 171 226 272 322 378
#     4  10  19  39  61  88 130 176 211 253 318 389
#
# _framework density 19.974419000000001
#
# number of rings (size 3 to 8) (size 9 to 14) (size 15 to 20)
#    0.000    1.091    7.273    1.091    2.545    0.000 
#    0.000    2.727    4.000    0.000    0.000    0.000 
#    0.000    0.000    0.000    0.000    0.000    0.000 
#
# Total GULP energy -245237.075871 kJ/mol
# GULP energy per Si atom -5573.569906 kJ/mol
# Density = 1.992896 g / cm^3
# Si number density = 19.974419 Si / 1000 Ang^3
#
#
#
# Elastic Constant Matrix: (Units=GPa)
#
#
# Indices 1 2 3 4 5 6 
#
# 1 32.1394 1.5346 0.9861 0.0000 0.0000 0.0000
# 2 1.5346 105.4153 -1.2742 0.0000 0.0000 0.0000
# 3 0.9861 -1.2742 77.1315 0.0000 0.0000 0.0000
# 4 0.0000 0.0000 0.0000 26.6487 0.0000 0.0000
# 5 0.0000 0.0000 0.0000 0.0000 5.4224 0.0000
# 6 0.0000 0.0000 0.0000 0.0000 0.0000 -6.3068
#
#
#
# Elastic Compliance Matrix: (Units=1/GPa)
#
#
# Indices 1 2 3 4 5 6 
#
# 1 0.031149 -0.000458 -0.000406 0.000000 0.000000 0.000000
# 2 -0.000458 0.009495 0.000163 0.000000 0.000000 0.000000
# 3 -0.000406 0.000163 0.012973 0.000000 0.000000 0.000000
# 4 0.000000 0.000000 0.000000 0.037525 0.000000 0.000000
# 5 0.000000 0.000000 0.000000 0.000000 0.184421 0.000000
# 6 0.000000 0.000000 0.000000 0.000000 0.000000 -0.158559
#
#
# Mechanical properties :
#
#
# Convention : Reuss Voigt Hill
#
# Bulk Modulus (GPa) = 19.15209 24.13102 21.64156
# Shear Modulus (GPa) = 36.81575 19.38217 28.09896
#
# Velocity S-wave (km/s) = 4.29784 3.11842 3.75473
# Velocity P-wave (km/s) = 5.85130 5.00732 5.44569
#
# Compressibility (1/GPa) = 0.05221362
#
# Stress axis : x y z
#
# Youngs Moduli (GPa) = 32.10398 105.31942 77.08469
#
# Poissons Ratio (x) = 0.04827 0.03128
# Poissons Ratio (y) = 0.01471 -0.01254
# Poissons Ratio (z) = 0.01303 -0.01714
#
# Static dielectric constant tensor:
#      x y z
#    x 1.692360 0.000000 0.000000 
#    y 0.000000 1.549590 0.000000 
#    z 0.000000 0.000000 1.728590 
# 
# From -- ./inp_files/15417.got.cif
#   From: 2010.05.17/outbox.cif.g08.bks.cpg/sg52_8_cif.got.tgz:15417.got - 2010.06.03 12:15:38.
