data_PCOD9409876
_publ_section_title
;
Structure prediction by ZEFSAII (Michael W. Deem and Ramdas Pophale) SiO2 
 PCOD9409876
Probable space group: P N N A
;
_chemical_formula_sum "Si O2"
_cell_formula_units_Z 28
_cell_length_a 16.765899
_cell_length_b 13.355130
_cell_length_c 6.970302
_cell_angle_alpha 90.000000
_cell_angle_beta 90.000000
_cell_angle_gamma 90.000000
_cell_volume 1560.725623
_symmetry_space_group_name_H-M "P N N A"
_symmetry_group_IT_number 52
_symmetry_cell_setting 'orthorhombic'
loop_
_space_group_symop_operation_xyz
x,y,z
1/2-x,-y,z
x,1/2-y,1/2-z
1/2-x,1/2+y,1/2-z
-x,-y,-z
1/2+x,y,-z
-x,1/2+y,1/2+z
1/2+x,1/2-y,1/2+z
loop_
_atom_site_type_symbol
_atom_site_label
_atom_site_fract_x
_atom_site_fract_y
_atom_site_fract_z
Si Si1 0.528024 0.947496 0.696029
Si Si2 0.219882 0.838361 0.904916
Si Si3 0.624567 0.034703 0.042752
Si Si4 0.879923 0.250000 0.750000
O O1 0.451010 0.935036 0.831277
O O2 0.566556 0.838972 0.663924
O O3 0.500000 0.000000 0.500000
O O4 0.591776 0.008616 0.829026
O O5 0.223701 0.750000 0.750000
O O6 0.306771 0.882228 0.954047
O O7 0.164395 0.935435 0.861042
O O8 0.176683 0.793473 0.088339
#
# Coordination Sequence:
#
# PCOD9409876 Si02
#       4
#     8   8   8   4
#     4  10  20  38  59  82 117 153 189 245 293 343
#     4  10  20  37  58  82 117 154 187 242 287 342
#     4   9  21  37  55  86 117 145 197 240 283 348
#     4  10  22  36  58  88 114 150 204 228 292 360
#
# _framework density 17.940372
#
# number of rings (size 3 to 8) (size 9 to 14) (size 15 to 20)
#    0.000    2.286    0.000    1.714    2.000    2.286 
#    0.000    5.714    0.000    0.000    0.000    0.000 
#    0.000    0.000    0.000    0.000    0.000    0.000 
#
# Total GULP energy -156093.402928 kJ/mol
# GULP energy per Si atom -5574.764390 kJ/mol
# Density = 1.789954 g / cm^3
# Si number density = 17.940372 Si / 1000 Ang^3
#
#
#
# Elastic Constant Matrix: (Units=GPa)
#
#
# Indices 1 2 3 4 5 6 
#
# 1 122.6484 69.3390 36.4386 0.0000 0.0000 0.0000
# 2 69.3390 126.6474 60.0710 0.0000 0.0000 0.0000
# 3 36.4386 60.0710 72.1128 0.0000 0.0000 0.0000
# 4 0.0000 0.0000 0.0000 29.4455 0.0000 0.0000
# 5 0.0000 0.0000 0.0000 0.0000 18.0436 0.0000
# 6 0.0000 0.0000 0.0000 0.0000 0.0000 27.7391
#
#
#
# Elastic Compliance Matrix: (Units=1/GPa)
#
#
# Indices 1 2 3 4 5 6 
#
# 1 0.011849 -0.006030 -0.000964 0.000000 0.000000 0.000000
# 2 -0.006030 0.016122 -0.010383 0.000000 0.000000 0.000000
# 3 -0.000964 -0.010383 0.023004 0.000000 0.000000 0.000000
# 4 0.000000 0.000000 0.000000 0.033961 0.000000 0.000000
# 5 0.000000 0.000000 0.000000 0.000000 0.055421 0.000000
# 6 0.000000 0.000000 0.000000 0.000000 0.000000 0.036050
#
#
# Mechanical properties :
#
#
# Convention : Reuss Voigt Hill
#
# Bulk Modulus (GPa) = 61.65135 72.56729 67.10932
# Shear Modulus (GPa) = 23.08743 25.41632 24.25188
#
# Velocity S-wave (km/s) = 3.59123 3.76801 3.68068
# Velocity P-wave (km/s) = 7.18576 7.71151 7.45327
#
# Compressibility (1/GPa) = 0.01622024
#
# Stress axis : x y z
#
# Youngs Moduli (GPa) = 84.39674 62.02671 43.47131
#
# Poissons Ratio (x) = 0.37401 0.04192
# Poissons Ratio (y) = 0.50889 0.45137
# Poissons Ratio (z) = 0.08138 0.64403
#
# Static dielectric constant tensor:
#      x y z
#    x 1.601720 0.000000 0.000000 
#    y 0.000000 1.642850 0.000000 
#    z 0.000000 0.000000 1.556310 
# 
# From -- ./inp_files/2921.got.cif
#   From: 2010.05.17/outbox.cif.g08.bks.cpg/sg52_2_cif.got.tgz:2921.got - 2010.06.03 12:15:38.
