data_PCOD9409198
_publ_section_title
;
Structure prediction by ZEFSAII (Michael W. Deem and Ramdas Pophale) SiO2 
 PCOD9409198
Probable space group: P N N A
;
_chemical_formula_sum "Si O2"
_cell_formula_units_Z 40
_cell_length_a 9.140428
_cell_length_b 18.177023
_cell_length_c 12.360049
_cell_angle_alpha 90.000000
_cell_angle_beta 90.000000
_cell_angle_gamma 90.000000
_cell_volume 2053.569858
_symmetry_space_group_name_H-M "P N N A"
_symmetry_group_IT_number 52
_symmetry_cell_setting 'orthorhombic'
loop_
_space_group_symop_operation_xyz
x,y,z
1/2-x,-y,z
x,1/2-y,1/2-z
1/2-x,1/2+y,1/2-z
-x,-y,-z
1/2+x,y,-z
-x,1/2+y,1/2+z
1/2+x,1/2-y,1/2+z
loop_
_atom_site_type_symbol
_atom_site_label
_atom_site_fract_x
_atom_site_fract_y
_atom_site_fract_z
Si Si1 0.929909 0.114335 0.459852
Si Si2 0.576481 0.519034 0.843424
Si Si3 0.677467 0.288053 0.014366
Si Si4 0.910752 0.464418 0.599439
Si Si5 0.921515 0.211960 0.867541
O O1 0.934905 0.094775 0.588664
O O2 0.773185 0.147296 0.430581
O O3 0.057491 0.172686 0.438696
O O4 0.973910 0.040084 0.401461
O O5 0.750000 0.500000 0.851876
O O6 0.532107 0.515695 0.718991
O O7 0.582290 0.237510 0.092776
O O8 0.797173 0.245387 0.945322
O O9 0.750000 0.500000 0.590818
O O10 0.908125 0.375605 0.611893
O O11 0.000000 0.500000 0.500000
O O12 0.899192 0.250000 0.750000
#
# Coordination Sequence:
#
# PCOD9409198 Si02
#       5
#     8   8   8   8   8
#     4  10  19  37  61 102 120 160 210 277 331 393
#     4  10  20  36  65  92 132 161 212 263 336 389
#     4  10  21  39  64  91 129 160 217 265 333 388
#     4  11  24  44  64  90 130 178 226 264 331 406
#     4  11  24  44  67  94 134 179 222 281 340 404
#
# _framework density 19.478275
#
# number of rings (size 3 to 8) (size 9 to 14) (size 15 to 20)
#    0.000    1.600    2.000    3.600    2.800    0.000 
#   10.800    2.000    0.000    0.000    0.000    0.000 
#    0.000    0.000    0.000    0.000    0.000    0.000 
#
# Total GULP energy -222878.881405 kJ/mol
# GULP energy per Si atom -5571.972035 kJ/mol
# Density = 1.943394 g / cm^3
# Si number density = 19.478275 Si / 1000 Ang^3
#
#
#
# Elastic Constant Matrix: (Units=GPa)
#
#
# Indices 1 2 3 4 5 6 
#
# 1 107.7206 48.0078 38.6972 0.0000 0.0000 0.0000
# 2 48.0078 129.3920 46.5689 0.0000 0.0000 0.0000
# 3 38.6972 46.5689 122.5313 0.0000 0.0000 0.0000
# 4 0.0000 0.0000 0.0000 17.6769 0.0000 0.0000
# 5 0.0000 0.0000 0.0000 0.0000 22.9446 0.0000
# 6 0.0000 0.0000 0.0000 0.0000 0.0000 40.9593
#
#
#
# Elastic Compliance Matrix: (Units=1/GPa)
#
#
# Indices 1 2 3 4 5 6 
#
# 1 0.011686 -0.003484 -0.002366 0.000000 0.000000 0.000000
# 2 -0.003484 0.009992 -0.002697 0.000000 0.000000 0.000000
# 3 -0.002366 -0.002697 0.009934 0.000000 0.000000 0.000000
# 4 0.000000 0.000000 0.000000 0.056571 0.000000 0.000000
# 5 0.000000 0.000000 0.000000 0.000000 0.043583 0.000000
# 6 0.000000 0.000000 0.000000 0.000000 0.000000 0.024414
#
#
# Mechanical properties :
#
#
# Convention : Reuss Voigt Hill
#
# Bulk Modulus (GPa) = 68.88899 69.57685 69.23292
# Shear Modulus (GPa) = 28.07179 31.40748 29.73963
#
# Velocity S-wave (km/s) = 3.80041 4.01987 3.91168
# Velocity P-wave (km/s) = 7.39604 7.57256 7.48482
#
# Compressibility (1/GPa) = 0.01451611
#
# Stress axis : x y z
#
# Youngs Moduli (GPa) = 85.57097 100.08117 100.66826
#
# Poissons Ratio (x) = 0.34870 0.23823
# Poissons Ratio (y) = 0.29814 0.27152
# Poissons Ratio (z) = 0.20250 0.26993
#
# Static dielectric constant tensor:
#      x y z
#    x 1.679330 0.000000 0.000000 
#    y 0.000000 1.777010 0.000000 
#    z 0.000000 0.000000 1.705390 
# 
# From -- ./inp_files/16649.got.cif
#   From: 2010.05.17/outbox.cif.g08.bks.cpg/sg52_9_cif.got.tgz:16649.got - 2010.06.03 12:15:38.
