data_PCOD9409904
_publ_section_title
;
Structure prediction by ZEFSAII (Michael W. Deem and Ramdas Pophale) SiO2 
 PCOD9409904
Probable space group: P N N A
;
_chemical_formula_sum "Si O2"
_cell_formula_units_Z 48
_cell_length_a 19.907499
_cell_length_b 12.138177
_cell_length_c 10.406635
_cell_angle_alpha 90.000000
_cell_angle_beta 90.000000
_cell_angle_gamma 90.000000
_cell_volume 2514.667050
_symmetry_space_group_name_H-M "P N N A"
_symmetry_group_IT_number 52
_symmetry_cell_setting 'orthorhombic'
loop_
_space_group_symop_operation_xyz
x,y,z
1/2-x,-y,z
x,1/2-y,1/2-z
1/2-x,1/2+y,1/2-z
-x,-y,-z
1/2+x,y,-z
-x,1/2+y,1/2+z
1/2+x,1/2-y,1/2+z
loop_
_atom_site_type_symbol
_atom_site_label
_atom_site_fract_x
_atom_site_fract_y
_atom_site_fract_z
Si Si1 0.174634 0.461445 0.517502
Si Si2 0.634687 0.750000 0.250000
Si Si3 0.522070 0.750000 0.750000
Si Si4 0.549969 0.417195 0.073564
Si Si5 0.064332 0.844737 0.985540
Si Si6 0.679734 0.512455 0.197685
Si Si7 0.577455 0.207158 0.896163
O O1 0.250000 0.500000 0.477912
O O2 0.117681 0.556608 0.508584
O O3 0.179611 0.440210 0.671267
O O4 0.143720 0.360266 0.437537
O O5 0.590237 0.760198 0.122547
O O6 0.675879 0.638765 0.241230
O O7 0.480619 0.644010 0.800925
O O8 0.561522 0.710335 0.624844
O O9 0.615451 0.482581 0.116236
O O10 0.500000 0.500000 0.000000
O O11 0.569478 0.316144 0.981964
O O12 0.988147 0.866974 0.935557
O O13 0.750000 0.500000 0.126505
O O14 0.576652 0.250000 0.750000
#
# Coordination Sequence:
#
# PCOD9409904 Si02
#       7
#     8   4   4   8   8   8   8
#     4  10  23  40  62  93 125 170 217 263 323 398
#     4  10  20  37  60  95 122 160 210 264 314 383
#     4  10  22  37  60  91 122 168 202 276 316 371
#     4  11  24  39  61  97 129 155 221 272 325 383
#     4  10  20  38  65  89 125 161 222 261 324 378
#     4  10  21  38  63  89 123 163 205 262 317 382
#     4  11  23  40  64  92 126 176 213 266 326 390
#
# _framework density 19.088014000000001
#
# number of rings (size 3 to 8) (size 9 to 14) (size 15 to 20)
#    0.000    1.667    0.833    4.500    4.667    4.667 
#    1.500    0.833    0.000    0.000    0.000    0.000 
#    0.000    0.000    0.000    0.000    0.000    0.000 
#
# Total GULP energy -267685.602485 kJ/mol
# GULP energy per Si atom -5576.783385 kJ/mol
# Density = 1.904457 g / cm^3
# Si number density = 19.088014 Si / 1000 Ang^3
#
#
#
# Elastic Constant Matrix: (Units=GPa)
#
#
# Indices 1 2 3 4 5 6 
#
# 1 160.7086 67.7471 52.6736 0.0000 0.0000 0.0000
# 2 67.7471 91.3438 40.9155 0.0000 0.0000 0.0000
# 3 52.6736 40.9155 122.7582 0.0000 0.0000 0.0000
# 4 0.0000 0.0000 0.0000 24.8629 0.0000 0.0000
# 5 0.0000 0.0000 0.0000 0.0000 16.5616 0.0000
# 6 0.0000 0.0000 0.0000 0.0000 0.0000 26.3836
#
#
#
# Elastic Compliance Matrix: (Units=1/GPa)
#
#
# Indices 1 2 3 4 5 6 
#
# 1 0.009462 -0.006111 -0.002023 0.000000 0.000000 0.000000
# 2 -0.006111 0.016816 -0.002983 0.000000 0.000000 0.000000
# 3 -0.002023 -0.002983 0.010008 0.000000 0.000000 0.000000
# 4 0.000000 0.000000 0.000000 0.040221 0.000000 0.000000
# 5 0.000000 0.000000 0.000000 0.000000 0.060381 0.000000
# 6 0.000000 0.000000 0.000000 0.000000 0.000000 0.037902
#
#
# Mechanical properties :
#
#
# Convention : Reuss Voigt Hill
#
# Bulk Modulus (GPa) = 71.16229 77.49811 74.33020
# Shear Modulus (GPa) = 24.78835 27.79325 26.29080
#
# Velocity S-wave (km/s) = 3.60757 3.81997 3.71529
# Velocity P-wave (km/s) = 7.39694 7.75531 7.57824
#
# Compressibility (1/GPa) = 0.01405239
#
# Stress axis : x y z
#
# Youngs Moduli (GPa) = 105.68876 59.46625 99.91784
#
# Poissons Ratio (x) = 0.36342 0.20213
# Poissons Ratio (y) = 0.64590 0.29801
# Poissons Ratio (z) = 0.21380 0.17736
#
# Static dielectric constant tensor:
#      x y z
#    x 1.698650 0.000000 0.000000 
#    y 0.000000 1.689100 0.000000 
#    z 0.000000 0.000000 1.678340 
# 
# From -- ./inp_files/20653.got.cif
#   From: 2010.05.17/outbox.cif.g08.bks.cpg/sg52_11_cif.got.tgz:20653.got - 2010.06.03 12:15:38.
