data_PCOD9409561
_publ_section_title
;
Structure prediction by ZEFSAII (Michael W. Deem and Ramdas Pophale) SiO2 
 PCOD9409561
Probable space group: P N N A
;
_chemical_formula_sum "Si O2"
_cell_formula_units_Z 52
_cell_length_a 8.898168
_cell_length_b 12.095728
_cell_length_c 25.902374
_cell_angle_alpha 90.000000
_cell_angle_beta 90.000000
_cell_angle_gamma 90.000000
_cell_volume 2787.867847
_symmetry_space_group_name_H-M "P N N A"
_symmetry_group_IT_number 52
_symmetry_cell_setting 'orthorhombic'
loop_
_space_group_symop_operation_xyz
x,y,z
1/2-x,-y,z
x,1/2-y,1/2-z
1/2-x,1/2+y,1/2-z
-x,-y,-z
1/2+x,y,-z
-x,1/2+y,1/2+z
1/2+x,1/2-y,1/2+z
loop_
_atom_site_type_symbol
_atom_site_label
_atom_site_fract_x
_atom_site_fract_y
_atom_site_fract_z
Si Si1 0.940824 0.370830 0.556442
Si Si2 0.088856 0.238571 0.843577
Si Si3 0.067229 0.697397 0.656711
Si Si4 0.414484 0.863932 0.053870
Si Si5 0.344064 0.750000 0.250000
Si Si6 0.630306 0.924006 0.698302
Si Si7 0.911646 0.518779 0.279565
O O1 0.763807 0.342427 0.556247
O O2 0.943615 0.504370 0.561733
O O3 0.030115 0.314005 0.603016
O O4 0.017069 0.339245 0.502190
O O5 0.269350 0.254789 0.843071
O O6 0.067023 0.142205 0.800785
O O7 0.986175 0.344524 0.831151
O O8 0.087480 0.568570 0.673703
O O9 0.995745 0.699365 0.600246
O O10 0.951283 0.737375 0.700248
O O11 0.230098 0.848012 0.264126
O O12 0.532805 0.000969 0.735937
O O13 0.750000 0.000000 0.667764
O O14 0.750000 0.500000 0.254687
#
# Coordination Sequence:
#
# PCOD9409561 Si02
#       7
#     8   8   8   8   4   8   8
#     4  10  20  34  56  84 115 155 191 243 299 373
#     4  11  22  37  57  82 119 160 199 244 305 361
#     4  11  23  36  56  85 119 157 195 244 300 367
#     4  10  20  34  55  83 119 149 195 240 305 364
#     4  12  24  36  56  84 116 156 204 240 294 356
#     4  12  24  38  57  83 121 160 209 250 297 361
#     4  10  21  35  56  81 119 157 196 242 300 359
#
# _framework density 18.652248
#
# number of rings (size 3 to 8) (size 9 to 14) (size 15 to 20)
#    0.000    1.231    4.615    1.846    4.308    1.231 
#    0.000    0.000    0.000    0.000    0.000    9.692 
#    0.000    0.000    0.000    0.154    0.000    0.154 
#
# Total GULP energy -290127.541380 kJ/mol
# GULP energy per Si atom -5579.375796 kJ/mol
# Density = 1.860979 g / cm^3
# Si number density = 18.652248 Si / 1000 Ang^3
#
#
#
# Elastic Constant Matrix: (Units=GPa)
#
#
# Indices 1 2 3 4 5 6 
#
# 1 152.6398 35.0785 67.7898 0.0000 0.0000 0.0000
# 2 35.0785 46.5856 14.3194 0.0000 0.0000 0.0000
# 3 67.7898 14.3194 95.5853 0.0000 0.0000 0.0000
# 4 0.0000 0.0000 0.0000 21.1821 0.0000 0.0000
# 5 0.0000 0.0000 0.0000 0.0000 23.3979 0.0000
# 6 0.0000 0.0000 0.0000 0.0000 0.0000 33.5761
#
#
#
# Elastic Compliance Matrix: (Units=1/GPa)
#
#
# Indices 1 2 3 4 5 6 
#
# 1 0.011039 -0.006191 -0.006902 0.000000 0.000000 0.000000
# 2 -0.006191 0.025974 0.000500 0.000000 0.000000 0.000000
# 3 -0.006902 0.000500 0.015282 0.000000 0.000000 0.000000
# 4 0.000000 0.000000 0.000000 0.047210 0.000000 0.000000
# 5 0.000000 0.000000 0.000000 0.000000 0.042739 0.000000
# 6 0.000000 0.000000 0.000000 0.000000 0.000000 0.029783
#
#
# Mechanical properties :
#
#
# Convention : Reuss Voigt Hill
#
# Bulk Modulus (GPa) = 36.88825 58.79846 47.84336
# Shear Modulus (GPa) = 24.24250 27.47275 25.85763
#
# Velocity S-wave (km/s) = 3.60906 3.84199 3.72735
# Velocity P-wave (km/s) = 6.09810 7.16053 6.65056
#
# Compressibility (1/GPa) = 0.02710890
#
# Stress axis : x y z
#
# Youngs Moduli (GPa) = 90.58546 38.49988 65.43757
#
# Poissons Ratio (x) = 0.23835 0.45163
# Poissons Ratio (y) = 0.56082 -0.03269
# Poissons Ratio (z) = 0.62519 -0.01923
#
# Static dielectric constant tensor:
#      x y z
#    x 1.677260 0.000000 0.000000 
#    y 0.000000 1.697640 0.000000 
#    z 0.000000 0.000000 1.608710 
# 
# From -- ./inp_files/39590.got.cif
#   From: 2010.05.17/outbox.cif.g08.bks.cpg/sg52_20_cif.got.tgz:39590.got - 2010.06.03 12:15:38.
