data_PCOD9409238
_publ_section_title
;
Structure prediction by ZEFSAII (Michael W. Deem and Ramdas Pophale) SiO2 
 PCOD9409238
Probable space group: P N N A
;
_chemical_formula_sum "Si O2"
_cell_formula_units_Z 48
_cell_length_a 16.413135
_cell_length_b 18.180673
_cell_length_c 7.952303
_cell_angle_alpha 90.000000
_cell_angle_beta 90.000000
_cell_angle_gamma 90.000000
_cell_volume 2372.981850
_symmetry_space_group_name_H-M "P N N A"
_symmetry_group_IT_number 52
_symmetry_cell_setting 'orthorhombic'
loop_
_space_group_symop_operation_xyz
x,y,z
1/2-x,-y,z
x,1/2-y,1/2-z
1/2-x,1/2+y,1/2-z
-x,-y,-z
1/2+x,y,-z
-x,1/2+y,1/2+z
1/2+x,1/2-y,1/2+z
loop_
_atom_site_type_symbol
_atom_site_label
_atom_site_fract_x
_atom_site_fract_y
_atom_site_fract_z
Si Si1 0.096275 0.062789 0.866037
Si Si2 0.840278 0.386424 0.945890
Si Si3 0.427163 0.996451 0.239725
Si Si4 0.517364 0.297615 0.486700
Si Si5 0.010458 0.354939 0.132617
Si Si6 0.250000 0.000000 0.670078
Si Si7 0.372244 0.250000 0.250000
O O1 0.175497 0.031086 0.778785
O O2 0.016694 0.032352 0.770193
O O3 0.080988 0.150089 0.890804
O O4 0.093583 0.030518 0.054130
O O5 0.864461 0.443796 0.801871
O O6 0.821333 0.308909 0.857051
O O7 0.777527 0.430008 0.059895
O O8 0.922608 0.372681 0.054127
O O9 0.433480 0.926807 0.363774
O O10 0.500045 0.332607 0.670803
O O11 0.544243 0.214466 0.528938
O O12 0.434812 0.291770 0.376869
#
# Coordination Sequence:
#
# PCOD9409238 Si02
#       7
#     8   8   8   8   8   4   4
#     4  10  21  38  60  93 125 167 207 271 317 387
#     4  11  22  37  61  96 121 164 205 266 317 397
#     4  10  19  37  66  90 117 161 229 262 302 375
#     4   9  18  34  59  92 120 152 213 267 310 362
#     4   9  18  33  61  94 117 152 210 275 305 361
#     4  12  26  36  58  96 140 168 206 266 354 386
#     4  10  20  36  66  90 114 162 222 258 306 380
#
# _framework density 20.227715
#
# number of rings (size 3 to 8) (size 9 to 14) (size 15 to 20)
#    0.000    2.000    3.333    0.500    0.000    0.667 
#    0.000    0.000    0.000   26.000    0.000    0.000 
#    0.000    0.000    0.000    0.000    0.000    0.000 
#
# Total GULP energy -268015.630548 kJ/mol
# GULP energy per Si atom -5583.658970 kJ/mol
# Density = 2.018168 g / cm^3
# Si number density = 20.227715 Si / 1000 Ang^3
#
#
#
# Elastic Constant Matrix: (Units=GPa)
#
#
# Indices 1 2 3 4 5 6 
#
# 1 59.4832 38.9061 29.8853 0.0000 0.0000 0.0000
# 2 38.9061 134.7928 44.7508 0.0000 0.0000 0.0000
# 3 29.8853 44.7508 69.8499 0.0000 0.0000 0.0000
# 4 0.0000 0.0000 0.0000 28.9906 0.0000 0.0000
# 5 0.0000 0.0000 0.0000 0.0000 11.4065 0.0000
# 6 0.0000 0.0000 0.0000 0.0000 0.0000 20.2784
#
#
#
# Elastic Compliance Matrix: (Units=1/GPa)
#
#
# Indices 1 2 3 4 5 6 
#
# 1 0.023246 -0.004328 -0.007173 0.000000 0.000000 0.000000
# 2 -0.004328 0.010229 -0.004702 0.000000 0.000000 0.000000
# 3 -0.007173 -0.004702 0.020397 0.000000 0.000000 0.000000
# 4 0.000000 0.000000 0.000000 0.034494 0.000000 0.000000
# 5 0.000000 0.000000 0.000000 0.000000 0.087670 0.000000
# 6 0.000000 0.000000 0.000000 0.000000 0.000000 0.049314
#
#
# Mechanical properties :
#
#
# Convention : Reuss Voigt Hill
#
# Bulk Modulus (GPa) = 46.58267 54.57891 50.58079
# Shear Modulus (GPa) = 18.87425 22.17400 20.52413
#
# Velocity S-wave (km/s) = 3.05796 3.31451 3.18882
# Velocity P-wave (km/s) = 5.96216 6.45669 6.21434
#
# Compressibility (1/GPa) = 0.02146721
#
# Stress axis : x y z
#
# Youngs Moduli (GPa) = 43.01763 97.76119 49.02571
#
# Poissons Ratio (x) = 0.42314 0.35166
# Poissons Ratio (y) = 0.18620 0.23050
# Poissons Ratio (z) = 0.30856 0.45963
#
# Static dielectric constant tensor:
#      x y z
#    x 1.666050 0.000000 0.000000 
#    y 0.000000 1.780880 0.000000 
#    z 0.000000 0.000000 1.732950 
# 
# From -- ./inp_files/12335.got.cif
#   From: 2010.05.17/outbox.cif.g08.bks.cpg/sg52_7_cif.got.tgz:12335.got - 2010.06.03 12:15:38.
