data_PCOD9409847
_publ_section_title
;
Structure prediction by ZEFSAII (Michael W. Deem and Ramdas Pophale) SiO2 
 PCOD9409847
Probable space group: P N N A
;
_chemical_formula_sum "Si O2"
_cell_formula_units_Z 40
_cell_length_a 11.754033
_cell_length_b 14.197772
_cell_length_c 9.260807
_cell_angle_alpha 90.000000
_cell_angle_beta 90.000000
_cell_angle_gamma 90.000000
_cell_volume 1545.453480
_symmetry_space_group_name_H-M "P N N A"
_symmetry_group_IT_number 52
_symmetry_cell_setting 'orthorhombic'
loop_
_space_group_symop_operation_xyz
x,y,z
1/2-x,-y,z
x,1/2-y,1/2-z
1/2-x,1/2+y,1/2-z
-x,-y,-z
1/2+x,y,-z
-x,1/2+y,1/2+z
1/2+x,1/2-y,1/2+z
loop_
_atom_site_type_symbol
_atom_site_label
_atom_site_fract_x
_atom_site_fract_y
_atom_site_fract_z
Si Si1 0.028981 0.746475 0.448102
Si Si2 0.910694 0.750000 0.750000
Si Si3 0.862700 0.596886 0.190943
Si Si4 0.762722 0.381361 0.898308
Si Si5 0.750000 0.000000 0.065693
Si Si6 0.928895 0.039544 0.822056
O O1 0.150789 0.796524 0.439905
O O2 0.042075 0.643930 0.380946
O O3 0.985313 0.733715 0.609605
O O4 0.938139 0.813335 0.364324
O O5 0.830049 0.662126 0.789156
O O6 0.774670 0.589276 0.326609
O O7 0.952012 0.514935 0.242591
O O8 0.793302 0.584951 0.044998
O O9 0.844135 0.450859 0.811439
O O10 0.640770 0.002007 0.957141
#
# Coordination Sequence:
#
# PCOD9409847 Si02
#       6
#     8   4   8   8   4   8
#     4  10  22  40  73 105 141 175 253 304 355 425
#     4  10  20  36  66 108 132 182 226 314 354 418
#     4  10  24  45  67 101 141 192 235 293 361 442
#     4  10  20  43  68 102 137 182 239 296 367 415
#     4  12  28  44  70 102 152 194 232 292 392 430
#     4  11  24  45  68 105 141 185 245 303 355 445
#
# _framework density 25.882373000000001
#
# number of rings (size 3 to 8) (size 9 to 14) (size 15 to 20)
#    0.000    1.600    2.000    2.400    5.600    2.400 
#    0.000    5.000    0.000    0.000    0.000    0.000 
#    0.000    0.000    0.000    0.000    0.000    0.000 
#
# Total GULP energy -223467.043269 kJ/mol
# GULP energy per Si atom -5586.676082 kJ/mol
# Density = 2.582346 g / cm^3
# Si number density = 25.882373 Si / 1000 Ang^3
#
#
#
# Elastic Constant Matrix: (Units=GPa)
#
#
# Indices 1 2 3 4 5 6 
#
# 1 77.6327 7.5143 66.0250 0.0000 0.0000 0.0000
# 2 7.5143 57.7505 33.7928 0.0000 0.0000 0.0000
# 3 66.0250 33.7928 238.9283 0.0000 0.0000 0.0000
# 4 0.0000 0.0000 0.0000 19.1619 0.0000 0.0000
# 5 0.0000 0.0000 0.0000 0.0000 60.6872 0.0000
# 6 0.0000 0.0000 0.0000 0.0000 0.0000 24.6813
#
#
#
# Elastic Compliance Matrix: (Units=1/GPa)
#
#
# Indices 1 2 3 4 5 6 
#
# 1 0.016856 0.000580 -0.004740 0.000000 0.000000 0.000000
# 2 0.000580 0.018898 -0.002833 0.000000 0.000000 0.000000
# 3 -0.004740 -0.002833 0.005896 0.000000 0.000000 0.000000
# 4 0.000000 0.000000 0.000000 0.052187 0.000000 0.000000
# 5 0.000000 0.000000 0.000000 0.000000 0.016478 0.000000
# 6 0.000000 0.000000 0.000000 0.000000 0.000000 0.040516
#
#
# Mechanical properties :
#
#
# Convention : Reuss Voigt Hill
#
# Bulk Modulus (GPa) = 36.14731 65.44175 50.79453
# Shear Modulus (GPa) = 28.72913 38.70472 33.71693
#
# Velocity S-wave (km/s) = 3.33526 3.87125 3.61321
# Velocity P-wave (km/s) = 5.36920 6.73211 6.08891
#
# Compressibility (1/GPa) = 0.02766458
#
# Stress axis : x y z
#
# Youngs Moduli (GPa) = 59.32472 52.91503 169.60764
#
# Poissons Ratio (x) = -0.03071 0.80397
# Poissons Ratio (y) = -0.03443 0.48054
# Poissons Ratio (z) = 0.28121 0.14992
#
# Static dielectric constant tensor:
#      x y z
#    x 2.231900 0.000000 0.000000 
#    y 0.000000 2.177740 0.000000 
#    z 0.000000 0.000000 2.006770 
# 
# From -- ./inp_files/8554.got.cif
#   From: 2010.05.17/outbox.cif.g08.bks.cpg/sg52_5_cif.got.tgz:8554.got - 2010.06.03 12:15:38.
