data_PCOD9409276
_publ_section_title
;
Structure prediction by ZEFSAII (Michael W. Deem and Ramdas Pophale) SiO2 
 PCOD9409276
Probable space group: P N N A
;
_chemical_formula_sum "Si O2"
_cell_formula_units_Z 56
_cell_length_a 21.333529
_cell_length_b 13.850518
_cell_length_c 9.144873
_cell_angle_alpha 90.000000
_cell_angle_beta 90.000000
_cell_angle_gamma 90.000000
_cell_volume 2702.130983
_symmetry_space_group_name_H-M "P N N A"
_symmetry_group_IT_number 52
_symmetry_cell_setting 'orthorhombic'
loop_
_space_group_symop_operation_xyz
x,y,z
1/2-x,-y,z
x,1/2-y,1/2-z
1/2-x,1/2+y,1/2-z
-x,-y,-z
1/2+x,y,-z
-x,1/2+y,1/2+z
1/2+x,1/2-y,1/2+z
loop_
_atom_site_type_symbol
_atom_site_label
_atom_site_fract_x
_atom_site_fract_y
_atom_site_fract_z
Si Si1 0.664603 0.658633 0.153702
Si Si2 0.917770 0.254579 0.925184
Si Si3 0.969364 0.605199 0.031358
Si Si4 0.581058 0.134825 0.756962
Si Si5 0.250000 0.000000 0.772801
Si Si6 0.637948 0.405441 0.453558
Si Si7 0.057031 0.919179 0.867046
Si Si8 0.592994 0.250000 0.250000
O O1 0.685071 0.750000 0.250000
O O2 0.716765 0.578139 0.170254
O O3 0.603206 0.617038 0.238122
O O4 0.643843 0.696831 0.995573
O O5 0.918161 0.250000 0.750000
O O6 0.974473 0.318473 0.990358
O O7 0.928508 0.149828 0.995353
O O8 0.942416 0.656911 0.177939
O O9 0.914443 0.604686 0.911181
O O10 0.000000 0.500000 0.000000
O O11 0.575701 0.250000 0.750000
O O12 0.514172 0.093257 0.814913
O O13 0.633760 0.103778 0.871641
O O14 0.301836 0.953074 0.879251
O O15 0.579620 0.474961 0.410725
O O16 0.629388 0.300286 0.382285
#
# Coordination Sequence:
#
# PCOD9409276 Si02
#       8
#     8   8   8   8   4   8   8   4
#     4   9  19  39  66  91 121 171 223 282 333 402
#     4  11  21  36  61  97 139 172 217 273 331 414
#     4  12  25  37  62 103 152 182 213 267 344 437
#     4  12  20  39  60  96 139 172 206 265 352 417
#     4  10  24  44  66  92 116 172 256 296 340 404
#     4  11  25  40  67  93 129 178 236 286 339 412
#     4  10  19  38  63  93 133 174 216 259 342 421
#     4  12  24  42  62 102 140 182 222 278 354 424
#
# _framework density 20.724384000000001
#
# number of rings (size 3 to 8) (size 9 to 14) (size 15 to 20)
#    0.000    1.143    5.000    1.714    5.000    0.000 
#    0.000    0.000    0.000   21.429    0.000    0.000 
#    0.000    0.000    0.000    0.000    0.000    0.000 
#
# Total GULP energy -312217.581103 kJ/mol
# GULP energy per Si atom -5575.313948 kJ/mol
# Density = 2.067721 g / cm^3
# Si number density = 20.724384 Si / 1000 Ang^3
#
#
#
# Elastic Constant Matrix: (Units=GPa)
#
#
# Indices 1 2 3 4 5 6 
#
# 1 39.7665 12.7447 11.4660 0.0000 0.0000 0.0000
# 2 12.7447 82.9757 29.2914 0.0000 0.0000 0.0000
# 3 11.4660 29.2914 131.5715 0.0000 0.0000 0.0000
# 4 0.0000 0.0000 0.0000 19.9655 0.0000 0.0000
# 5 0.0000 0.0000 0.0000 0.0000 4.2451 0.0000
# 6 0.0000 0.0000 0.0000 0.0000 0.0000 12.9380
#
#
#
# Elastic Compliance Matrix: (Units=1/GPa)
#
#
# Indices 1 2 3 4 5 6 
#
# 1 0.026732 -0.003564 -0.001536 0.000000 0.000000 0.000000
# 2 -0.003564 0.013555 -0.002707 0.000000 0.000000 0.000000
# 3 -0.001536 -0.002707 0.008337 0.000000 0.000000 0.000000
# 4 0.000000 0.000000 0.000000 0.050086 0.000000 0.000000
# 5 0.000000 0.000000 0.000000 0.000000 0.235568 0.000000
# 6 0.000000 0.000000 0.000000 0.000000 0.000000 0.077292
#
#
# Mechanical properties :
#
#
# Convention : Reuss Voigt Hill
#
# Bulk Modulus (GPa) = 30.29413 40.14643 35.22028
# Shear Modulus (GPa) = 11.41067 20.81717 16.11392
#
# Velocity S-wave (km/s) = 2.34901 3.17279 2.79146
# Velocity P-wave (km/s) = 4.69111 5.73025 5.23652
#
# Compressibility (1/GPa) = 0.03300970
#
# Stress axis : x y z
#
# Youngs Moduli (GPa) = 37.40861 73.77514 119.94747
#
# Poissons Ratio (x) = 0.26290 0.18427
# Poissons Ratio (y) = 0.13331 0.32471
# Poissons Ratio (z) = 0.05747 0.19972
#
# Static dielectric constant tensor:
#      x y z
#    x 1.763890 0.000000 0.000000 
#    y 0.000000 1.770610 0.000000 
#    z 0.000000 0.000000 1.849660 
# 
# From -- ./inp_files/13498.got.cif
#   From: 2010.05.17/outbox.cif.g08.bks.cpg/sg52_7_cif.got.tgz:13498.got - 2010.06.03 12:15:38.
