data_PCOD9409733
_publ_section_title
;
Structure prediction by ZEFSAII (Michael W. Deem and Ramdas Pophale) SiO2 
 PCOD9409733
Probable space group: P N N A
;
_chemical_formula_sum "Si O2"
_cell_formula_units_Z 64
_cell_length_a 12.185655
_cell_length_b 16.306298
_cell_length_c 14.833901
_cell_angle_alpha 90.000000
_cell_angle_beta 90.000000
_cell_angle_gamma 90.000000
_cell_volume 2947.539470
_symmetry_space_group_name_H-M "P N N A"
_symmetry_group_IT_number 52
_symmetry_cell_setting 'orthorhombic'
loop_
_space_group_symop_operation_xyz
x,y,z
1/2-x,-y,z
x,1/2-y,1/2-z
1/2-x,1/2+y,1/2-z
-x,-y,-z
1/2+x,y,-z
-x,1/2+y,1/2+z
1/2+x,1/2-y,1/2+z
loop_
_atom_site_type_symbol
_atom_site_label
_atom_site_fract_x
_atom_site_fract_y
_atom_site_fract_z
Si Si1 0.974590 0.177459 0.370468
Si Si2 0.612252 0.656879 0.758202
Si Si3 0.530148 0.345944 0.407333
Si Si4 0.634715 0.521211 0.615447
Si Si5 0.255548 0.093506 0.860117
Si Si6 0.497376 0.638906 0.332185
Si Si7 0.724865 0.172580 0.318205
Si Si8 0.508720 0.164926 0.435895
O O1 0.029688 0.267837 0.360206
O O2 0.003391 0.134009 0.276534
O O3 0.841964 0.183838 0.366634
O O4 0.006014 0.132109 0.462830
O O5 0.662042 0.750000 0.750000
O O6 0.499911 0.664336 0.699123
O O7 0.664035 0.580652 0.702795
O O8 0.580011 0.637555 0.860920
O O9 0.454585 0.422169 0.435192
O O10 0.659279 0.359939 0.414014
O O11 0.488415 0.262397 0.449525
O O12 0.750000 0.500000 0.572075
O O13 0.576820 0.435347 0.635349
O O14 0.378203 0.126329 0.866334
O O15 0.228389 0.099192 0.753309
O O16 0.250000 0.000000 0.884848
O O17 0.714682 0.250000 0.250000
O O18 0.626884 0.161481 0.388089
#
# Coordination Sequence:
#
# PCOD9409733 Si02
#       8
#     8   8   8   8   8   8   8   8
#     4  10  22  37  56  83 122 153 187 241 292 357
#     4   8  16  33  57  82 102 143 193 234 282 336
#     4   9  17  31  58  87 103 142 187 247 287 329
#     4  10  20  36  57  77 115 154 192 233 276 371
#     4  11  16  29  65  85 104 138 198 244 282 338
#     4  10  20  39  56  81 113 158 195 225 304 345
#     4  11  17  35  62  83 114 148 191 245 283 336
#     4  11  18  35  57  89 113 139 200 246 284 335
#
# _framework density 21.713025999999999
#
# number of rings (size 3 to 8) (size 9 to 14) (size 15 to 20)
#    0.750    1.250    6.250    0.375    0.000    0.000 
#    6.750    1.250    0.000    0.000    0.000    0.000 
#    0.000    0.000    0.000    0.000    0.000    0.000 
#
# Total GULP energy -356596.859227 kJ/mol
# GULP energy per Si atom -5571.825925 kJ/mol
# Density = 2.166361 g / cm^3
# Si number density = 21.713026 Si / 1000 Ang^3
#
#
#
# Elastic Constant Matrix: (Units=GPa)
#
#
# Indices 1 2 3 4 5 6 
#
# 1 73.8625 24.6309 20.9027 0.0000 0.0000 0.0000
# 2 24.6309 60.3057 4.9318 0.0000 0.0000 0.0000
# 3 20.9027 4.9318 145.0179 0.0000 0.0000 0.0000
# 4 0.0000 0.0000 0.0000 -56.8624 0.0000 0.0000
# 5 0.0000 0.0000 0.0000 0.0000 -19.4127 0.0000
# 6 0.0000 0.0000 0.0000 0.0000 0.0000 15.5111
#
#
#
# Elastic Compliance Matrix: (Units=1/GPa)
#
#
# Indices 1 2 3 4 5 6 
#
# 1 0.016304 -0.006485 -0.002129 0.000000 0.000000 0.000000
# 2 -0.006485 0.019208 0.000281 0.000000 0.000000 0.000000
# 3 -0.002129 0.000281 0.007193 0.000000 0.000000 0.000000
# 4 0.000000 0.000000 0.000000 -0.017586 0.000000 0.000000
# 5 0.000000 0.000000 0.000000 0.000000 -0.051513 0.000000
# 6 0.000000 0.000000 0.000000 0.000000 0.000000 0.064470
#
#
# Mechanical properties :
#
#
# Convention : Reuss Voigt Hill
#
# Bulk Modulus (GPa) = 38.40397 42.23522 40.31959
# Shear Modulus (GPa) = 78.83822 3.09525 40.96673
#
# Velocity S-wave (km/s) = 6.03225 1.19525 4.34837
# Velocity P-wave (km/s) = 8.13897 4.62586 6.61972
#
# Compressibility (1/GPa) = 0.02603897
#
# Stress axis : x y z
#
# Youngs Moduli (GPa) = 61.33533 52.06212 139.02279
#
# Poissons Ratio (x) = 0.33762 0.29604
# Poissons Ratio (y) = 0.39775 -0.03913
# Poissons Ratio (z) = 0.13061 -0.01466
#
# Static dielectric constant tensor:
#      x y z
#    x 1.800560 0.000000 0.000000 
#    y 0.000000 1.820140 0.000000 
#    z 0.000000 0.000000 1.853340 
# 
# From -- ./inp_files/26338.got.cif
#   From: 2010.05.17/outbox.cif.g08.bks.cpg/sg52_14_cif.got.tgz:26338.got - 2010.06.03 12:15:38.
