data_PCOD9409173
_publ_section_title
;
Structure prediction by ZEFSAII (Michael W. Deem and Ramdas Pophale) SiO2 
 PCOD9409173
Probable space group: P N N A
;
_chemical_formula_sum "Si O2"
_cell_formula_units_Z 40
_cell_length_a 9.009330
_cell_length_b 8.969909
_cell_length_c 26.433567
_cell_angle_alpha 90.000000
_cell_angle_beta 90.000000
_cell_angle_gamma 90.000000
_cell_volume 2136.172420
_symmetry_space_group_name_H-M "P N N A"
_symmetry_group_IT_number 52
_symmetry_cell_setting 'orthorhombic'
loop_
_space_group_symop_operation_xyz
x,y,z
1/2-x,-y,z
x,1/2-y,1/2-z
1/2-x,1/2+y,1/2-z
-x,-y,-z
1/2+x,y,-z
-x,1/2+y,1/2+z
1/2+x,1/2-y,1/2+z
loop_
_atom_site_type_symbol
_atom_site_label
_atom_site_fract_x
_atom_site_fract_y
_atom_site_fract_z
Si Si1 0.470187 0.249137 0.693534
Si Si2 0.750000 0.000000 0.344561
Si Si3 0.370450 0.882143 0.500995
Si Si4 0.223650 0.174970 0.386682
Si Si5 0.750000 0.000000 0.157228
Si Si6 0.439494 0.744319 0.600788
O O1 0.534663 0.250000 0.750000
O O2 0.599320 0.240478 0.651009
O O3 0.361533 0.391258 0.687143
O O4 0.361547 0.107000 0.686008
O O5 0.642939 0.109750 0.376348
O O6 0.331797 0.824386 0.445085
O O7 0.411496 0.755727 0.540808
O O8 0.250000 0.000000 0.520166
O O9 0.500000 0.000000 0.500000
O O10 0.386209 0.250267 0.385923
O O11 0.250000 0.000000 0.374018
O O12 0.644545 0.104326 0.123703
#
# Coordination Sequence:
#
# PCOD9409173 Si02
#       6
#     8   4   8   8   4   8
#     4  11  23  44  64  91 122 166 211 262 317 369
#     4  10  19  36  68  86 120 156 213 252 290 378
#     4  11  19  33  65  97 123 160 214 255 301 364
#     4  11  22  39  64  99 121 160 221 263 299 366
#     4  10  27  42  64  96 130 166 201 262 330 378
#     4  11  21  40  61  96 128 163 201 255 314 378
#
# _framework density 18.725079000000001
#
# number of rings (size 3 to 8) (size 9 to 14) (size 15 to 20)
#    0.000    1.200    7.000    0.600    2.800    0.800 
#    3.600    5.000    0.000    0.000    0.000    0.000 
#    0.000    0.000    0.000    0.000    0.000    0.000 
#
# Total GULP energy -222995.481614 kJ/mol
# GULP energy per Si atom -5574.887040 kJ/mol
# Density = 1.868246 g / cm^3
# Si number density = 18.725079 Si / 1000 Ang^3
#
#
#
# Elastic Constant Matrix: (Units=GPa)
#
#
# Indices 1 2 3 4 5 6 
#
# 1 142.1961 38.2635 44.5149 0.0000 0.0000 0.0000
# 2 38.2635 86.5237 41.9517 0.0000 0.0000 0.0000
# 3 44.5149 41.9517 113.4629 0.0000 0.0000 0.0000
# 4 0.0000 0.0000 0.0000 2.0861 0.0000 0.0000
# 5 0.0000 0.0000 0.0000 0.0000 22.0132 0.0000
# 6 0.0000 0.0000 0.0000 0.0000 0.0000 31.3856
#
#
#
# Elastic Compliance Matrix: (Units=1/GPa)
#
#
# Indices 1 2 3 4 5 6 
#
# 1 0.008472 -0.002601 -0.002362 0.000000 0.000000 0.000000
# 2 -0.002601 0.014881 -0.004481 0.000000 0.000000 0.000000
# 3 -0.002362 -0.004481 0.011397 0.000000 0.000000 0.000000
# 4 0.000000 0.000000 0.000000 0.479367 0.000000 0.000000
# 5 0.000000 0.000000 0.000000 0.000000 0.045427 0.000000
# 6 0.000000 0.000000 0.000000 0.000000 0.000000 0.031862
#
#
# Mechanical properties :
#
#
# Convention : Reuss Voigt Hill
#
# Bulk Modulus (GPa) = 63.05039 65.73808 64.39424
# Shear Modulus (GPa) = 8.12240 25.59381 16.85810
#
# Velocity S-wave (km/s) = 2.08498 3.70106 3.00375
# Velocity P-wave (km/s) = 6.28816 7.31075 6.81865
#
# Compressibility (1/GPa) = 0.01586033
#
# Stress axis : x y z
#
# Youngs Moduli (GPa) = 118.03642 67.20074 87.74165
#
# Poissons Ratio (x) = 0.17481 0.20724
# Poissons Ratio (y) = 0.30705 0.39321
# Poissons Ratio (z) = 0.27880 0.30116
#
# Static dielectric constant tensor:
#      x y z
#    x 1.621650 0.000000 0.000000 
#    y 0.000000 1.619160 0.000000 
#    z 0.000000 0.000000 1.662430 
# 
# From -- ./inp_files/39256.got.cif
#   From: 2010.05.17/outbox.cif.g08.bks.cpg/sg52_20_cif.got.tgz:39256.got - 2010.06.03 12:15:38.
