data_PCOD9409860
_publ_section_title
;
Structure prediction by ZEFSAII (Michael W. Deem and Ramdas Pophale) SiO2 
 PCOD9409860
Probable space group: P N N A
;
_chemical_formula_sum "Si O2"
_cell_formula_units_Z 56
_cell_length_a 13.275929
_cell_length_b 5.465514
_cell_length_c 32.697457
_cell_angle_alpha 90.000000
_cell_angle_beta 90.000000
_cell_angle_gamma 90.000000
_cell_volume 2372.520150
_symmetry_space_group_name_H-M "P N N A"
_symmetry_group_IT_number 52
_symmetry_cell_setting 'orthorhombic'
loop_
_space_group_symop_operation_xyz
x,y,z
1/2-x,-y,z
x,1/2-y,1/2-z
1/2-x,1/2+y,1/2-z
-x,-y,-z
1/2+x,y,-z
-x,1/2+y,1/2+z
1/2+x,1/2-y,1/2+z
loop_
_atom_site_type_symbol
_atom_site_label
_atom_site_fract_x
_atom_site_fract_y
_atom_site_fract_z
Si Si1 0.816752 0.250134 0.522399
Si Si2 0.910203 0.271301 0.894147
Si Si3 0.907210 0.251156 0.344093
Si Si4 0.576696 0.251121 0.326247
Si Si5 0.640523 0.272653 0.647191
Si Si6 0.814936 0.250090 0.429886
Si Si7 0.571883 0.750000 0.750000
Si Si8 0.250000 0.000000 0.287158
O O1 0.750000 0.500000 0.527272
O O2 0.902118 0.246687 0.557211
O O3 0.857197 0.251339 0.475937
O O4 0.750000 0.000000 0.526603
O O5 0.860962 0.530320 0.881381
O O6 0.015769 0.263135 0.869701
O O7 0.855843 0.028048 0.876656
O O8 0.862520 0.501026 0.327541
O O9 0.893128 0.248226 0.392881
O O10 0.026829 0.262247 0.334389
O O11 0.867157 0.004298 0.324525
O O12 0.497029 0.269754 0.289641
O O13 0.722077 0.220765 0.682186
O O14 0.750000 0.500000 0.425715
O O15 0.750000 0.000000 0.425745
O O16 0.651685 0.539133 0.760326
#
# Coordination Sequence:
#
# PCOD9409860 Si02
#       8
#     8   8   8   8   8   8   4   4
#     4  10  21  33  54  86 121 151 199 257 311 353
#     4  10  20  37  52  79 116 164 208 236 293 356
#     4  10  20  43  60  84 127 153 200 254 307 374
#     4  10  23  40  57  87 120 169 205 239 305 350
#     4  10  23  38  54  83 118 170 205 242 292 341
#     4  10  21  39  66  98 115 148 199 259 316 376
#     4  12  26  38  60  92 130 164 218 256 286 340
#     4  12  26  38  58  92 128 166 220 260 280 342
#
# _framework density 23.603593
#
# number of rings (size 3 to 8) (size 9 to 14) (size 15 to 20)
#    0.000    1.714    2.857    1.714    7.000    0.571 
#    0.000    5.714    0.000    0.000    0.000   10.000 
#    0.000    0.000    0.000    0.000    0.000    0.000 
#
# Total GULP energy -312758.170496 kJ/mol
# GULP energy per Si atom -5584.967330 kJ/mol
# Density = 2.354987 g / cm^3
# Si number density = 23.603593 Si / 1000 Ang^3
#
#
#
# Elastic Constant Matrix: (Units=GPa)
#
#
# Indices 1 2 3 4 5 6 
#
# 1 74.8595 15.3830 39.4991 0.0000 0.0000 0.0000
# 2 15.3830 227.3876 57.4383 0.0000 0.0000 0.0000
# 3 39.4991 57.4383 126.4831 0.0000 0.0000 0.0000
# 4 0.0000 0.0000 0.0000 30.5236 0.0000 0.0000
# 5 0.0000 0.0000 0.0000 0.0000 11.5235 0.0000
# 6 0.0000 0.0000 0.0000 0.0000 0.0000 2.6810
#
#
#
# Elastic Compliance Matrix: (Units=1/GPa)
#
#
# Indices 1 2 3 4 5 6 
#
# 1 0.016002 0.000203 -0.005089 0.000000 0.000000 0.000000
# 2 0.000203 0.004970 -0.002320 0.000000 0.000000 0.000000
# 3 -0.005089 -0.002320 0.010549 0.000000 0.000000 0.000000
# 4 0.000000 0.000000 0.000000 0.032762 0.000000 0.000000
# 5 0.000000 0.000000 0.000000 0.000000 0.086779 0.000000
# 6 0.000000 0.000000 0.000000 0.000000 0.000000 0.372996
#
#
# Mechanical properties :
#
#
# Convention : Reuss Voigt Hill
#
# Bulk Modulus (GPa) = 58.45273 72.59678 65.52476
# Shear Modulus (GPa) = 9.18823 30.03961 19.61392
#
# Velocity S-wave (km/s) = 1.97514 3.57132 2.88579
# Velocity P-wave (km/s) = 5.47902 6.91587 6.23895
#
# Compressibility (1/GPa) = 0.01710784
#
# Stress axis : x y z
#
# Youngs Moduli (GPa) = 62.49198 201.19952 94.79280
#
# Poissons Ratio (x) = -0.04085 0.48244
# Poissons Ratio (y) = -0.01269 0.21996
# Poissons Ratio (z) = 0.31805 0.46688
#
# Static dielectric constant tensor:
#      x y z
#    x 1.880790 0.000000 0.000000 
#    y 0.000000 2.060430 0.000000 
#    z 0.000000 0.000000 1.870660 
# 
# From -- ./inp_files/45025.got.cif
#   From: 2010.05.17/outbox.cif.g08.bks.cpg/sg52_23_cif.got.tgz:45025.got - 2010.06.03 12:15:38.
