data_PCOD9409489
_publ_section_title
;
Structure prediction by ZEFSAII (Michael W. Deem and Ramdas Pophale) SiO2 
 PCOD9409489
Probable space group: P N N A
;
_chemical_formula_sum "Si O2"
_cell_formula_units_Z 60
_cell_length_a 14.526649
_cell_length_b 24.292571
_cell_length_c 8.678419
_cell_angle_alpha 90.000000
_cell_angle_beta 90.000000
_cell_angle_gamma 90.000000
_cell_volume 3062.524263
_symmetry_space_group_name_H-M "P N N A"
_symmetry_group_IT_number 52
_symmetry_cell_setting 'orthorhombic'
loop_
_space_group_symop_operation_xyz
x,y,z
1/2-x,-y,z
x,1/2-y,1/2-z
1/2-x,1/2+y,1/2-z
-x,-y,-z
1/2+x,y,-z
-x,1/2+y,1/2+z
1/2+x,1/2-y,1/2+z
loop_
_atom_site_type_symbol
_atom_site_label
_atom_site_fract_x
_atom_site_fract_y
_atom_site_fract_z
Si Si1 0.241222 0.087086 0.758192
Si Si2 0.106754 0.236549 0.431024
Si Si3 0.211230 0.915168 0.246446
Si Si4 0.095681 0.600787 0.954623
Si Si5 0.250000 0.000000 0.005086
Si Si6 0.876378 0.607194 0.960633
Si Si7 0.759137 0.319179 0.503983
Si Si8 0.900894 0.269645 0.072489
O O1 0.337542 0.071788 0.671309
O O2 0.164312 0.092004 0.627184
O O3 0.207994 0.044230 0.887695
O O4 0.262332 0.142840 0.852602
O O5 0.107021 0.250000 0.250000
O O6 0.138209 0.173447 0.448745
O O7 0.165084 0.285166 0.503764
O O8 0.003118 0.238629 0.489823
O O9 0.133312 0.914456 0.376654
O O10 0.309134 0.921512 0.335883
O O11 0.224385 0.859186 0.148723
O O12 0.191643 0.962537 0.121703
O O13 0.118518 0.665819 0.937700
O O14 0.985171 0.594502 0.938608
O O15 0.832463 0.270423 0.513221
O O16 0.898579 0.250000 0.250000
#
# Coordination Sequence:
#
# PCOD9409489 Si02
#       8
#     8   8   8   8   4   8   8   8
#     4  10  22  40  61  83 114 152 195 247 294 340
#     4  10  20  33  54  87 124 158 190 226 274 345
#     4  10  22  40  61  83 114 152 195 247 294 340
#     4  10  21  38  60  88 119 152 190 232 286 351
#     4  10  24  46  62  84 112 144 196 262 306 336
#     4  10  21  38  60  88 119 152 190 232 286 351
#     4  11  20  33  58  84 118 161 194 227 284 340
#     4  10  20  33  54  87 124 158 190 226 274 345
#
# _framework density 19.591681999999999
#
# number of rings (size 3 to 8) (size 9 to 14) (size 15 to 20)
#    0.000    1.867    2.667    1.600    0.000    3.200 
#    0.000   10.667    0.000    0.000    0.000    0.000 
#    0.000    0.000    0.000    0.000    0.000    0.000 
#
# Total GULP energy -334475.548094 kJ/mol
# GULP energy per Si atom -5574.592468 kJ/mol
# Density = 1.954709 g / cm^3
# Si number density = 19.591682 Si / 1000 Ang^3
#
#
#
# Elastic Constant Matrix: (Units=GPa)
#
#
# Indices 1 2 3 4 5 6 
#
# 1 65.3805 -1.7388 24.9074 0.0000 0.0000 0.0000
# 2 -1.7388 13.6015 6.2165 0.0000 0.0000 0.0000
# 3 24.9074 6.2165 91.8957 0.0000 0.0000 0.0000
# 4 0.0000 0.0000 0.0000 13.8423 0.0000 0.0000
# 5 0.0000 0.0000 0.0000 0.0000 -41.2622 0.0000
# 6 0.0000 0.0000 0.0000 0.0000 0.0000 -17.7328
#
#
#
# Elastic Compliance Matrix: (Units=1/GPa)
#
#
# Indices 1 2 3 4 5 6 
#
# 1 0.017319 0.004498 -0.004998 0.000000 0.000000 0.000000
# 2 0.004498 0.077035 -0.006430 0.000000 0.000000 0.000000
# 3 -0.004998 -0.006430 0.012672 0.000000 0.000000 0.000000
# 4 0.000000 0.000000 0.000000 0.072242 0.000000 0.000000
# 5 0.000000 0.000000 0.000000 0.000000 -0.024235 0.000000
# 6 0.000000 0.000000 0.000000 0.000000 0.000000 -0.056393
#
#
# Mechanical properties :
#
#
# Convention : Reuss Voigt Hill
#
# Bulk Modulus (GPa) = 10.73366 25.51645 18.12506
# Shear Modulus (GPa) = 34.82959 0.40229 17.61594
#
# Velocity S-wave (km/s) = 4.22094 0.45363 3.00184
# Velocity P-wave (km/s) = 5.40793 3.65059 4.61370
#
# Compressibility (1/GPa) = 0.09316485
#
# Stress axis : x y z
#
# Youngs Moduli (GPa) = 57.74029 12.98109 78.91615
#
# Poissons Ratio (x) = -0.05839 0.39446
# Poissons Ratio (y) = -0.25974 0.50747
# Poissons Ratio (z) = 0.28861 0.08347
#
# Static dielectric constant tensor:
#      x y z
#    x 1.808130 0.000000 0.000000 
#    y 0.000000 1.913430 0.000000 
#    z 0.000000 0.000000 1.699800 
# 
# From -- ./inp_files/11055.got.cif
#   From: 2010.05.17/outbox.cif.g08.bks.cpg/sg52_6_cif.got.tgz:11055.got - 2010.06.03 12:15:38.
