data_PCOD9409666
_publ_section_title
;
Structure prediction by ZEFSAII (Michael W. Deem and Ramdas Pophale) SiO2 
 PCOD9409666
Probable space group: P N N A
;
_chemical_formula_sum "Si O2"
_cell_formula_units_Z 48
_cell_length_a 20.581064
_cell_length_b 9.057063
_cell_length_c 14.842680
_cell_angle_alpha 90.000000
_cell_angle_beta 90.000000
_cell_angle_gamma 90.000000
_cell_volume 2766.734823
_symmetry_space_group_name_H-M "P N N A"
_symmetry_group_IT_number 52
_symmetry_cell_setting 'orthorhombic'
loop_
_space_group_symop_operation_xyz
x,y,z
1/2-x,-y,z
x,1/2-y,1/2-z
1/2-x,1/2+y,1/2-z
-x,-y,-z
1/2+x,y,-z
-x,1/2+y,1/2+z
1/2+x,1/2-y,1/2+z
loop_
_atom_site_type_symbol
_atom_site_label
_atom_site_fract_x
_atom_site_fract_y
_atom_site_fract_z
Si Si1 0.639596 0.417893 0.740638
Si Si2 0.865382 0.320752 0.850952
Si Si3 0.009671 0.387893 0.917383
Si Si4 0.319175 0.051455 0.051203
Si Si5 0.982017 0.423242 0.256055
Si Si6 0.440995 0.566222 0.558545
O O1 0.658993 0.250000 0.750000
O O2 0.658181 0.514936 0.827529
O O3 0.669338 0.476499 0.648582
O O4 0.560861 0.428638 0.733660
O O5 0.866200 0.250000 0.750000
O O6 0.825612 0.223691 0.921804
O O7 0.939100 0.326079 0.887022
O O8 0.034675 0.485133 0.833584
O O9 0.052325 0.244218 0.941033
O O10 0.000000 0.500000 0.000000
O O11 0.250000 0.000000 0.016034
O O12 0.375841 0.995285 0.986264
O O13 0.964582 0.250000 0.250000
O O14 0.950771 0.502996 0.341449
O O15 0.500000 0.500000 0.500000
#
# Coordination Sequence:
#
# PCOD9409666 Si02
#       6
#     8   8   8   8   8   8
#     4   9  18  32  56  84 118 149 190 230 288 357
#     4   9  18  35  54  78 119 151 182 230 287 342
#     4  11  21  32  59  92 116 141 186 239 296 342
#     4  11  23  36  54  81 116 158 197 233 288 342
#     4  10  20  35  57  91 117 143 186 241 292 345
#     4  12  20  36  59  82 115 156 189 238 284 339
#
# _framework density 17.348970000000001
#
# number of rings (size 3 to 8) (size 9 to 14) (size 15 to 20)
#    0.000    1.667    3.333    3.500    4.667    2.000 
#    0.000    0.000    0.000    2.000    0.000    0.000 
#    0.000    0.000    0.000    0.000    0.000    0.000 
#
# Total GULP energy -267850.269670 kJ/mol
# GULP energy per Si atom -5580.213951 kJ/mol
# Density = 1.730948 g / cm^3
# Si number density = 17.348970 Si / 1000 Ang^3
#
#
#
# Elastic Constant Matrix: (Units=GPa)
#
#
# Indices 1 2 3 4 5 6 
#
# 1 70.7418 36.2933 38.6768 0.0000 0.0000 0.0000
# 2 36.2933 150.2072 54.1663 0.0000 0.0000 0.0000
# 3 38.6768 54.1663 110.6139 0.0000 0.0000 0.0000
# 4 0.0000 0.0000 0.0000 24.7381 0.0000 0.0000
# 5 0.0000 0.0000 0.0000 0.0000 10.7444 0.0000
# 6 0.0000 0.0000 0.0000 0.0000 0.0000 7.9312
#
#
#
# Elastic Compliance Matrix: (Units=1/GPa)
#
#
# Indices 1 2 3 4 5 6 
#
# 1 0.018254 -0.002561 -0.005128 0.000000 0.000000 0.000000
# 2 -0.002561 0.008445 -0.003240 0.000000 0.000000 0.000000
# 3 -0.005128 -0.003240 0.012420 0.000000 0.000000 0.000000
# 4 0.000000 0.000000 0.000000 0.040423 0.000000 0.000000
# 5 0.000000 0.000000 0.000000 0.000000 0.093072 0.000000
# 6 0.000000 0.000000 0.000000 0.000000 0.000000 0.126084
#
#
# Mechanical properties :
#
#
# Convention : Reuss Voigt Hill
#
# Bulk Modulus (GPa) = 57.93758 65.53731 61.73744
# Shear Modulus (GPa) = 15.32289 22.17785 18.75037
#
# Velocity S-wave (km/s) = 2.97512 3.57926 3.29108
# Velocity P-wave (km/s) = 6.72827 7.41211 7.07846
#
# Compressibility (1/GPa) = 0.01725996
#
# Stress axis : x y z
#
# Youngs Moduli (GPa) = 54.78337 118.41942 80.51504
#
# Poissons Ratio (x) = 0.30329 0.41291
# Poissons Ratio (y) = 0.14031 0.26084
# Poissons Ratio (z) = 0.28095 0.38364
#
# Static dielectric constant tensor:
#      x y z
#    x 1.595260 0.000000 0.000000 
#    y 0.000000 1.652870 0.000000 
#    z 0.000000 0.000000 1.579080 
# 
# From -- ./inp_files/28044.got.cif
#   From: 2010.05.17/outbox.cif.g08.bks.cpg/sg52_15_cif.got.tgz:28044.got - 2010.06.03 12:15:38.
