data_PCOD9409270
_publ_section_title
;
Structure prediction by ZEFSAII (Michael W. Deem and Ramdas Pophale) SiO2 
 PCOD9409270
Probable space group: P N N A
;
_chemical_formula_sum "Si O2"
_cell_formula_units_Z 48
_cell_length_a 14.959270
_cell_length_b 15.738768
_cell_length_c 10.553174
_cell_angle_alpha 90.000000
_cell_angle_beta 90.000000
_cell_angle_gamma 90.000000
_cell_volume 2484.644352
_symmetry_space_group_name_H-M "P N N A"
_symmetry_group_IT_number 52
_symmetry_cell_setting 'orthorhombic'
loop_
_space_group_symop_operation_xyz
x,y,z
1/2-x,-y,z
x,1/2-y,1/2-z
1/2-x,1/2+y,1/2-z
-x,-y,-z
1/2+x,y,-z
-x,1/2+y,1/2+z
1/2+x,1/2-y,1/2+z
loop_
_atom_site_type_symbol
_atom_site_label
_atom_site_fract_x
_atom_site_fract_y
_atom_site_fract_z
Si Si1 0.386426 0.750000 0.250000
Si Si2 0.026318 0.096014 0.835472
Si Si3 0.736785 0.797666 0.557274
Si Si4 0.025279 0.411977 0.374326
Si Si5 0.593934 0.750000 0.750000
Si Si6 0.653299 0.681004 0.347194
Si Si7 0.295089 0.908622 0.675065
O O1 0.323178 0.765773 0.369772
O O2 0.435497 0.661641 0.284840
O O3 0.103892 0.092951 0.728390
O O4 0.969463 0.182144 0.820258
O O5 0.061532 0.094264 0.981407
O O6 0.968753 0.008735 0.825904
O O7 0.659270 0.808375 0.662872
O O8 0.690163 0.727634 0.469353
O O9 0.772254 0.870550 0.463150
O O10 0.919413 0.389663 0.379761
O O11 0.611517 0.750000 0.250000
O O12 0.738244 0.646421 0.273393
O O13 0.250000 0.000000 0.679584
#
# Coordination Sequence:
#
# PCOD9409270 Si02
#       7
#     4   8   8   8   4   8   8
#     4  11  24  42  65  94 126 166 213 258 324 387
#     4  11  25  41  66  97 127 169 219 262 324 382
#     4  10  24  42  63  90 125 171 209 258 324 379
#     4  11  22  41  65  96 127 166 211 263 314 384
#     4  11  24  44  65  88 132 170 213 266 318 383
#     4  10  19  38  63  88 125 161 202 254 313 373
#     4  11  23  40  63  96 127 164 214 266 321 385
#
# _framework density 19.318660999999999
#
# number of rings (size 3 to 8) (size 9 to 14) (size 15 to 20)
#    0.000    1.333    4.167    1.000    5.833    1.333 
#    0.000    4.167    0.000    0.000    0.000    0.000 
#    0.000    0.000    0.000    0.000    0.000    0.000 
#
# Total GULP energy -267459.622795 kJ/mol
# GULP energy per Si atom -5572.075475 kJ/mol
# Density = 1.927469 g / cm^3
# Si number density = 19.318661 Si / 1000 Ang^3
#
#
#
# Elastic Constant Matrix: (Units=GPa)
#
#
# Indices 1 2 3 4 5 6 
#
# 1 67.1492 26.9650 24.4350 0.0000 0.0000 0.0000
# 2 26.9650 97.7488 16.2906 0.0000 0.0000 0.0000
# 3 24.4350 16.2906 71.5563 0.0000 0.0000 0.0000
# 4 0.0000 0.0000 0.0000 26.0708 0.0000 0.0000
# 5 0.0000 0.0000 0.0000 0.0000 32.8635 0.0000
# 6 0.0000 0.0000 0.0000 0.0000 0.0000 20.1208
#
#
#
# Elastic Compliance Matrix: (Units=1/GPa)
#
#
# Indices 1 2 3 4 5 6 
#
# 1 0.018541 -0.004220 -0.005371 0.000000 0.000000 0.000000
# 2 -0.004220 0.011594 -0.001199 0.000000 0.000000 0.000000
# 3 -0.005371 -0.001199 0.016082 0.000000 0.000000 0.000000
# 4 0.000000 0.000000 0.000000 0.038357 0.000000 0.000000
# 5 0.000000 0.000000 0.000000 0.000000 0.030429 0.000000
# 6 0.000000 0.000000 0.000000 0.000000 0.000000 0.049700
#
#
# Mechanical properties :
#
#
# Convention : Reuss Voigt Hill
#
# Bulk Modulus (GPa) = 40.58601 41.31507 40.95054
# Shear Modulus (GPa) = 25.70775 27.06194 26.38484
#
# Velocity S-wave (km/s) = 3.65186 3.74681 3.69964
# Velocity P-wave (km/s) = 6.23184 6.33645 6.28436
#
# Compressibility (1/GPa) = 0.02463903
#
# Stress axis : x y z
#
# Youngs Moduli (GPa) = 53.93430 86.25078 62.18179
#
# Poissons Ratio (x) = 0.36395 0.33396
# Poissons Ratio (y) = 0.22758 0.07453
# Poissons Ratio (z) = 0.28967 0.10338
#
# Static dielectric constant tensor:
#      x y z
#    x 1.676150 0.000000 0.000000 
#    y 0.000000 1.714070 0.000000 
#    z 0.000000 0.000000 1.713710 
# 
# From -- ./inp_files/19572.got.cif
#   From: 2010.05.17/outbox.cif.g08.bks.cpg/sg52_10_cif.got.tgz:19572.got - 2010.06.03 12:15:38.
