data_PCOD9409725
_publ_section_title
;
Structure prediction by ZEFSAII (Michael W. Deem and Ramdas Pophale) SiO2 
 PCOD9409725
Probable space group: P N N A
;
_chemical_formula_sum "Si O2"
_cell_formula_units_Z 44
_cell_length_a 23.812476
_cell_length_b 8.692831
_cell_length_c 10.098983
_cell_angle_alpha 90.000000
_cell_angle_beta 90.000000
_cell_angle_gamma 90.000000
_cell_volume 2090.467562
_symmetry_space_group_name_H-M "P N N A"
_symmetry_group_IT_number 52
_symmetry_cell_setting 'orthorhombic'
loop_
_space_group_symop_operation_xyz
x,y,z
1/2-x,-y,z
x,1/2-y,1/2-z
1/2-x,1/2+y,1/2-z
-x,-y,-z
1/2+x,y,-z
-x,1/2+y,1/2+z
1/2+x,1/2-y,1/2+z
loop_
_atom_site_type_symbol
_atom_site_label
_atom_site_fract_x
_atom_site_fract_y
_atom_site_fract_z
Si Si1 0.425538 0.068951 0.730831
Si Si2 0.187178 0.489140 0.092499
Si Si3 0.692494 0.072849 0.281787
Si Si4 0.539851 0.972433 0.833868
Si Si5 0.109240 0.250000 0.250000
Si Si6 0.916899 0.334153 0.940004
O O1 0.429214 0.250000 0.750000
O O2 0.432035 0.065519 0.569985
O O3 0.363729 0.010687 0.766169
O O4 0.473065 0.987608 0.817962
O O5 0.250000 0.500000 0.149710
O O6 0.149304 0.364084 0.167834
O O7 0.150145 0.645719 0.084157
O O8 0.193435 0.440555 0.940386
O O9 0.689687 0.250000 0.250000
O O10 0.750000 0.000000 0.228493
O O11 0.562196 0.842538 0.935027
O O12 0.556236 0.910495 0.688539
O O13 0.569658 0.139560 0.840589
#
# Coordination Sequence:
#
# PCOD9409725 Si02
#       6
#     8   8   8   8   4   8
#     4  11  22  37  57  87 115 153 199 236 290 350
#     4   9  20  39  60  84 113 152 192 235 293 351
#     4  10  22  41  62  85 117 152 193 241 290 347
#     4  10  20  38  55  82 118 155 192 236 295 343
#     4  10  20  36  56  86 118 144 196 252 282 348
#     4   9  21  37  57  78 118 154 189 239 290 349
#
# _framework density 21.047922
#
# number of rings (size 3 to 8) (size 9 to 14) (size 15 to 20)
#    0.000    2.182    0.909    1.091    2.545    5.091 
#    0.000    0.909    0.000    0.000    0.000    0.000 
#    0.000    0.000    0.000    0.000    0.000    0.000 
#
# Total GULP energy -245411.786825 kJ/mol
# GULP energy per Si atom -5577.540610 kJ/mol
# Density = 2.100002 g / cm^3
# Si number density = 21.047922 Si / 1000 Ang^3
#
#
#
# Elastic Constant Matrix: (Units=GPa)
#
#
# Indices 1 2 3 4 5 6 
#
# 1 182.5170 50.4270 28.7978 0.0000 0.0000 0.0000
# 2 50.4270 77.4326 6.0732 0.0000 0.0000 0.0000
# 3 28.7978 6.0732 25.1139 0.0000 0.0000 0.0000
# 4 0.0000 0.0000 0.0000 22.7638 0.0000 0.0000
# 5 0.0000 0.0000 0.0000 0.0000 -5.2074 0.0000
# 6 0.0000 0.0000 0.0000 0.0000 0.0000 31.2920
#
#
#
# Elastic Compliance Matrix: (Units=1/GPa)
#
#
# Indices 1 2 3 4 5 6 
#
# 1 0.008024 -0.004591 -0.008091 0.000000 0.000000 0.000000
# 2 -0.004591 0.015791 0.001446 0.000000 0.000000 0.000000
# 3 -0.008091 0.001446 0.048746 0.000000 0.000000 0.000000
# 4 0.000000 0.000000 0.000000 0.043929 0.000000 0.000000
# 5 0.000000 0.000000 0.000000 0.000000 -0.192036 0.000000
# 6 0.000000 0.000000 0.000000 0.000000 0.000000 0.031957
#
#
# Mechanical properties :
#
#
# Convention : Reuss Voigt Hill
#
# Bulk Modulus (GPa) = 19.96430 50.62883 35.29656
# Shear Modulus (GPa) = -1131.25869 23.08738 -554.08566
#
# Velocity S-wave (km/s) = -23.20851 3.31554 -16.24257
# Velocity P-wave (km/s) = 26.62093 6.22602 18.30179
#
# Compressibility (1/GPa) = 0.05008942
#
# Stress axis : x y z
#
# Youngs Moduli (GPa) = 124.62750 63.32782 20.51430
#
# Poissons Ratio (x) = 0.29073 0.16598
# Poissons Ratio (y) = 0.57215 -0.02966
# Poissons Ratio (z) = 1.00833 -0.09155
#
# Static dielectric constant tensor:
#      x y z
#    x 1.783050 0.000000 0.000000 
#    y 0.000000 1.769450 0.000000 
#    z 0.000000 0.000000 1.805470 
# 
# From -- ./inp_files/22232.got.cif
#   From: 2010.05.17/outbox.cif.g08.bks.cpg/sg52_12_cif.got.tgz:22232.got - 2010.06.03 12:15:38.
