data_PCOD9409137
_publ_section_title
;
Structure prediction by ZEFSAII (Michael W. Deem and Ramdas Pophale) SiO2 
 PCOD9409137
Probable space group: P N N A
;
_chemical_formula_sum "Si O2"
_cell_formula_units_Z 56
_cell_length_a 15.245271
_cell_length_b 10.829373
_cell_length_c 16.505168
_cell_angle_alpha 90.000000
_cell_angle_beta 90.000000
_cell_angle_gamma 90.000000
_cell_volume 2724.949201
_symmetry_space_group_name_H-M "P N N A"
_symmetry_group_IT_number 52
_symmetry_cell_setting 'orthorhombic'
loop_
_space_group_symop_operation_xyz
x,y,z
1/2-x,-y,z
x,1/2-y,1/2-z
1/2-x,1/2+y,1/2-z
-x,-y,-z
1/2+x,y,-z
-x,1/2+y,1/2+z
1/2+x,1/2-y,1/2+z
loop_
_atom_site_type_symbol
_atom_site_label
_atom_site_fract_x
_atom_site_fract_y
_atom_site_fract_z
Si Si1 0.025630 0.393125 0.167262
Si Si2 0.227521 0.774981 0.162765
Si Si3 0.347866 0.005986 0.620097
Si Si4 0.950475 0.755790 0.410196
Si Si5 0.946516 0.436588 0.676298
Si Si6 0.123209 0.909867 0.439700
Si Si7 0.600796 0.157189 0.917819
O O1 0.049207 0.471326 0.247556
O O2 0.076452 0.470667 0.097676
O O3 0.054871 0.255383 0.144065
O O4 0.920761 0.407080 0.160948
O O5 0.269757 0.750000 0.250000
O O6 0.141801 0.856068 0.181662
O O7 0.196953 0.650120 0.117606
O O8 0.297591 0.843228 0.107584
O O9 0.392027 0.870528 0.618564
O O10 0.250000 0.000000 0.654404
O O11 0.342643 0.056815 0.527987
O O12 0.908649 0.696690 0.489726
O O13 0.974497 0.658890 0.339426
O O14 0.044198 0.810600 0.440422
O O15 0.939976 0.524165 0.598501
#
# Coordination Sequence:
#
# PCOD9409137 Si02
#       7
#     8   8   8   8   8   8   8
#     4  11  21  39  62  87 123 158 204 256 312 363
#     4  11  22  36  59  93 125 160 200 254 307 369
#     4  11  21  38  65  90 112 155 211 267 304 359
#     4  10  21  39  62  85 119 168 202 249 315 371
#     4  11  24  39  61  86 125 170 203 241 311 390
#     4  10  19  36  61  88 121 152 204 252 305 366
#     4  12  22  38  58  90 129 161 202 250 309 376
#
# _framework density 20.550840999999998
#
# number of rings (size 3 to 8) (size 9 to 14) (size 15 to 20)
#    0.000    1.143    4.286    3.857    0.000    0.000 
#    0.000    0.000    6.286    0.000    0.000    0.000 
#    0.000    0.000    0.000    0.000    0.000    0.000 
#
# Total GULP energy -312853.582262 kJ/mol
# GULP energy per Si atom -5586.671112 kJ/mol
# Density = 2.050407 g / cm^3
# Si number density = 20.550841 Si / 1000 Ang^3
#
#
#
# Elastic Constant Matrix: (Units=GPa)
#
#
# Indices 1 2 3 4 5 6 
#
# 1 92.1716 6.4310 7.3423 0.0000 0.0000 0.0000
# 2 6.4310 67.2920 4.7143 0.0000 0.0000 0.0000
# 3 7.3423 4.7143 39.5264 0.0000 0.0000 0.0000
# 4 0.0000 0.0000 0.0000 21.6547 0.0000 0.0000
# 5 0.0000 0.0000 0.0000 0.0000 17.3929 0.0000
# 6 0.0000 0.0000 0.0000 0.0000 0.0000 9.8480
#
#
#
# Elastic Compliance Matrix: (Units=1/GPa)
#
#
# Indices 1 2 3 4 5 6 
#
# 1 0.011069 -0.000921 -0.001946 0.000000 0.000000 0.000000
# 2 -0.000921 0.015063 -0.001625 0.000000 0.000000 0.000000
# 3 -0.001946 -0.001625 0.025855 0.000000 0.000000 0.000000
# 4 0.000000 0.000000 0.000000 0.046179 0.000000 0.000000
# 5 0.000000 0.000000 0.000000 0.000000 0.057495 0.000000
# 6 0.000000 0.000000 0.000000 0.000000 0.000000 0.101543
#
#
# Mechanical properties :
#
#
# Convention : Reuss Voigt Hill
#
# Bulk Modulus (GPa) = 23.25575 26.21836 24.73706
# Shear Modulus (GPa) = 17.82388 21.81263 19.81825
#
# Velocity S-wave (km/s) = 2.94820 3.26145 3.10877
# Velocity P-wave (km/s) = 4.78852 5.19309 4.99491
#
# Compressibility (1/GPa) = 0.04300012
#
# Stress axis : x y z
#
# Youngs Moduli (GPa) = 90.34529 66.38987 38.67738
#
# Poissons Ratio (x) = 0.06118 0.07527
# Poissons Ratio (y) = 0.08325 0.06286
# Poissons Ratio (z) = 0.17583 0.10791
#
# Static dielectric constant tensor:
#      x y z
#    x 1.731640 0.000000 0.000000 
#    y 0.000000 1.743440 0.000000 
#    z 0.000000 0.000000 1.754420 
# 
# From -- ./inp_files/27293.got.cif
#   From: 2010.05.17/outbox.cif.g08.bks.cpg/sg52_14_cif.got.tgz:27293.got - 2010.06.03 12:15:38.
