data_PCOD9409217
_publ_section_title
;
Structure prediction by ZEFSAII (Michael W. Deem and Ramdas Pophale) SiO2 
 PCOD9409217
Probable space group: P N N A
;
_chemical_formula_sum "Si O2"
_cell_formula_units_Z 48
_cell_length_a 5.674565
_cell_length_b 25.122800
_cell_length_c 14.123787
_cell_angle_alpha 90.000000
_cell_angle_beta 90.000000
_cell_angle_gamma 90.000000
_cell_volume 2013.500656
_symmetry_space_group_name_H-M "P N N A"
_symmetry_group_IT_number 52
_symmetry_cell_setting 'orthorhombic'
loop_
_space_group_symop_operation_xyz
x,y,z
1/2-x,-y,z
x,1/2-y,1/2-z
1/2-x,1/2+y,1/2-z
-x,-y,-z
1/2+x,y,-z
-x,1/2+y,1/2+z
1/2+x,1/2-y,1/2+z
loop_
_atom_site_type_symbol
_atom_site_label
_atom_site_fract_x
_atom_site_fract_y
_atom_site_fract_z
Si Si1 0.250000 0.000000 0.304029
Si Si2 0.396153 0.750000 0.750000
Si Si3 0.569624 0.414959 0.273469
Si Si4 0.793700 0.330586 0.826237
Si Si5 0.944680 0.091914 0.983108
Si Si6 0.567598 0.657379 0.332998
Si Si7 0.578231 0.088951 0.552077
O O1 0.456694 0.028059 0.243993
O O2 0.123507 0.043545 0.369831
O O3 0.554828 0.722175 0.830923
O O4 0.247499 0.704031 0.697336
O O5 0.477863 0.378876 0.187371
O O6 0.460190 0.394894 0.372847
O O7 0.839952 0.399103 0.288572
O O8 0.657812 0.326600 0.726930
O O9 0.613302 0.351631 0.904222
O O10 0.694922 0.063618 0.998685
O O11 0.951719 0.142107 0.056453
O O12 0.311898 0.082544 0.514292
#
# Coordination Sequence:
#
# PCOD9409217 Si02
#       7
#     4   4   8   8   8   8   8
#     4  10  22  44  70 100 138 174 234 278 346 410
#     4  10  22  38  66 100 122 180 224 276 338 408
#     4   9  20  38  63  97 129 178 216 270 334 406
#     4  10  21  41  66  90 132 176 223 273 346 403
#     4  10  19  37  62  92 128 170 216 254 321 389
#     4  10  20  38  66  89 135 177 220 275 334 411
#     4  11  26  46  70  99 136 179 229 293 346 401
#
# _framework density 23.839079000000002
#
# number of rings (size 3 to 8) (size 9 to 14) (size 15 to 20)
#    0.000    2.000    1.667    1.000    7.000    0.000 
#    3.000    8.333    0.000    0.000    0.000    0.000 
#    0.000    0.000    0.000    0.000    0.000    0.000 
#
# Total GULP energy -267500.083798 kJ/mol
# GULP energy per Si atom -5572.918412 kJ/mol
# Density = 2.378482 g / cm^3
# Si number density = 23.839079 Si / 1000 Ang^3
#
#
#
# Elastic Constant Matrix: (Units=GPa)
#
#
# Indices 1 2 3 4 5 6 
#
# 1 124.7268 30.9047 34.5542 0.0000 0.0000 0.0000
# 2 30.9047 99.3394 38.4141 0.0000 0.0000 0.0000
# 3 34.5542 38.4141 81.5343 0.0000 0.0000 0.0000
# 4 0.0000 0.0000 0.0000 20.7330 0.0000 0.0000
# 5 0.0000 0.0000 0.0000 0.0000 41.6721 0.0000
# 6 0.0000 0.0000 0.0000 0.0000 0.0000 30.5307
#
#
#
# Elastic Compliance Matrix: (Units=1/GPa)
#
#
# Indices 1 2 3 4 5 6 
#
# 1 0.009307 -0.001675 -0.003155 0.000000 0.000000 0.000000
# 2 -0.001675 0.012611 -0.005231 0.000000 0.000000 0.000000
# 3 -0.003155 -0.005231 0.016067 0.000000 0.000000 0.000000
# 4 0.000000 0.000000 0.000000 0.048232 0.000000 0.000000
# 5 0.000000 0.000000 0.000000 0.000000 0.023997 0.000000
# 6 0.000000 0.000000 0.000000 0.000000 0.000000 0.032754
#
#
# Mechanical properties :
#
#
# Convention : Reuss Voigt Hill
#
# Bulk Modulus (GPa) = 55.98890 57.03852 56.51371
# Shear Modulus (GPa) = 29.57817 32.03566 30.80692
#
# Velocity S-wave (km/s) = 3.52624 3.66981 3.59874
# Velocity P-wave (km/s) = 6.33374 6.47573 6.40513
#
# Compressibility (1/GPa) = 0.01786068
#
# Stress axis : x y z
#
# Youngs Moduli (GPa) = 107.45004 79.29802 62.24128
#
# Poissons Ratio (x) = 0.13285 0.19636
# Poissons Ratio (y) = 0.18002 0.32561
# Poissons Ratio (z) = 0.33899 0.41484
#
# Static dielectric constant tensor:
#      x y z
#    x 2.037030 0.000000 0.000000 
#    y 0.000000 1.917940 0.000000 
#    z 0.000000 0.000000 1.957140 
# 
# From -- ./inp_files/23715.got.cif
#   From: 2010.05.17/outbox.cif.g08.bks.cpg/sg52_12_cif.got.tgz:23715.got - 2010.06.03 12:15:38.
