data_PCOD9409931
_publ_section_title
;
Structure prediction by ZEFSAII (Michael W. Deem and Ramdas Pophale) SiO2 
 PCOD9409931
Probable space group: P N N A
;
_chemical_formula_sum "Si O2"
_cell_formula_units_Z 40
_cell_length_a 20.100900
_cell_length_b 11.392159
_cell_length_c 9.423325
_cell_angle_alpha 90.000000
_cell_angle_beta 90.000000
_cell_angle_gamma 90.000000
_cell_volume 2157.872153
_symmetry_space_group_name_H-M "P N N A"
_symmetry_group_IT_number 52
_symmetry_cell_setting 'orthorhombic'
loop_
_space_group_symop_operation_xyz
x,y,z
1/2-x,-y,z
x,1/2-y,1/2-z
1/2-x,1/2+y,1/2-z
-x,-y,-z
1/2+x,y,-z
-x,1/2+y,1/2+z
1/2+x,1/2-y,1/2+z
loop_
_atom_site_type_symbol
_atom_site_label
_atom_site_fract_x
_atom_site_fract_y
_atom_site_fract_z
Si Si1 0.563301 0.462854 0.688371
Si Si2 0.661059 0.250000 0.750000
Si Si3 0.187453 0.750000 0.750000
Si Si4 0.736870 0.638718 0.969473
Si Si5 0.084939 0.665810 0.119242
Si Si6 0.573813 0.864919 0.077624
O O1 0.614758 0.356998 0.700480
O O2 0.562330 0.537969 0.833234
O O3 0.585045 0.549563 0.558273
O O4 0.489893 0.415867 0.656159
O O5 0.707913 0.296152 0.876506
O O6 0.230658 0.809637 0.627459
O O7 0.138359 0.845223 0.824873
O O8 0.750000 0.500000 0.971135
O O9 0.664416 0.660957 0.900459
O O10 0.067116 0.750000 0.250000
O O11 0.057844 0.734161 0.982595
#
# Coordination Sequence:
#
# PCOD9409931 Si02
#       6
#     8   4   4   8   8   8
#     4  10  20  37  62  91 117 149 202 253 288 356
#     4  12  23  36  64  94 115 152 210 246 288 354
#     4  10  23  40  58  82 121 160 194 238 306 356
#     4  11  22  38  57  86 119 155 197 241 293 352
#     4   9  17  35  60  83 113 154 192 237 292 346
#     4   9  20  39  60  87 119 156 194 243 310 350
#
# _framework density 18.536778999999999
#
# number of rings (size 3 to 8) (size 9 to 14) (size 15 to 20)
#    0.000    2.000    3.000    0.600    0.000    1.600 
#    3.600    3.000    2.200    0.000    0.000    0.000 
#    0.000    0.000    0.000    0.000    0.000    0.000 
#
# Total GULP energy -223133.642710 kJ/mol
# GULP energy per Si atom -5578.341068 kJ/mol
# Density = 1.849459 g / cm^3
# Si number density = 18.536779 Si / 1000 Ang^3
#
#
#
# Elastic Constant Matrix: (Units=GPa)
#
#
# Indices 1 2 3 4 5 6 
#
# 1 38.9846 45.0658 23.6236 0.0000 0.0000 0.0000
# 2 45.0658 132.3232 52.5544 0.0000 0.0000 0.0000
# 3 23.6236 52.5544 89.0729 0.0000 0.0000 0.0000
# 4 0.0000 0.0000 0.0000 26.3396 0.0000 0.0000
# 5 0.0000 0.0000 0.0000 0.0000 12.3336 0.0000
# 6 0.0000 0.0000 0.0000 0.0000 0.0000 23.3560
#
#
#
# Elastic Compliance Matrix: (Units=1/GPa)
#
#
# Indices 1 2 3 4 5 6 
#
# 1 0.043186 -0.013268 -0.003625 0.000000 0.000000 0.000000
# 2 -0.013268 0.013947 -0.004710 0.000000 0.000000 0.000000
# 3 -0.003625 -0.004710 0.014967 0.000000 0.000000 0.000000
# 4 0.000000 0.000000 0.000000 0.037966 0.000000 0.000000
# 5 0.000000 0.000000 0.000000 0.000000 0.081079 0.000000
# 6 0.000000 0.000000 0.000000 0.000000 0.000000 0.042815
#
#
# Mechanical properties :
#
#
# Convention : Reuss Voigt Hill
#
# Bulk Modulus (GPa) = 34.61021 55.87424 45.24222
# Shear Modulus (GPa) = 17.43397 21.68166 19.55781
#
# Velocity S-wave (km/s) = 3.07010 3.42373 3.25173
# Velocity P-wave (km/s) = 5.59276 6.77031 6.20951
#
# Compressibility (1/GPa) = 0.02889321
#
# Stress axis : x y z
#
# Youngs Moduli (GPa) = 23.15587 71.70211 66.81335
#
# Poissons Ratio (x) = 0.95135 0.24221
# Poissons Ratio (y) = 0.30723 0.31468
# Poissons Ratio (z) = 0.08394 0.33770
#
# Static dielectric constant tensor:
#      x y z
#    x 1.600950 0.000000 0.000000 
#    y 0.000000 1.645520 0.000000 
#    z 0.000000 0.000000 1.668210 
# 
# From -- ./inp_files/11686.got.cif
#   From: 2010.05.17/outbox.cif.g08.bks.cpg/sg52_6_cif.got.tgz:11686.got - 2010.06.03 12:15:38.
