data_PCOD9409871
_publ_section_title
;
Structure prediction by ZEFSAII (Michael W. Deem and Ramdas Pophale) SiO2 
 PCOD9409871
Probable space group: P N N A
;
_chemical_formula_sum "Si O2"
_cell_formula_units_Z 32
_cell_length_a 11.540336
_cell_length_b 4.982439
_cell_length_c 23.420205
_cell_angle_alpha 90.000000
_cell_angle_beta 90.000000
_cell_angle_gamma 90.000000
_cell_volume 1346.638839
_symmetry_space_group_name_H-M "P N N A"
_symmetry_group_IT_number 52
_symmetry_cell_setting 'orthorhombic'
loop_
_space_group_symop_operation_xyz
x,y,z
1/2-x,-y,z
x,1/2-y,1/2-z
1/2-x,1/2+y,1/2-z
-x,-y,-z
1/2+x,y,-z
-x,1/2+y,1/2+z
1/2+x,1/2-y,1/2+z
loop_
_atom_site_type_symbol
_atom_site_label
_atom_site_fract_x
_atom_site_fract_y
_atom_site_fract_z
Si Si1 0.082860 0.251734 0.489520
Si Si2 0.324289 0.740397 0.609384
Si Si3 0.376333 0.073078 0.299041
Si Si4 0.072880 0.047862 0.133194
O O1 0.175804 0.246959 0.539884
O O2 0.115669 0.301531 0.424105
O O3 0.000000 0.500000 0.500000
O O4 0.000000 0.000000 0.500000
O O5 0.250000 0.500000 0.632152
O O6 0.454251 0.632207 0.623959
O O7 0.250000 0.000000 0.628196
O O8 0.440134 0.250000 0.250000
O O9 0.349623 0.298786 0.346827
O O10 0.250000 0.000000 0.276046
O O11 0.435384 0.799778 0.322395
#
# Coordination Sequence:
#
# PCOD9409871 Si02
#       4
#     8   8   8   8
#     4  10  20  37  57  88 129 170 215 258 305 374
#     4  11  22  38  61  94 135 177 216 260 317 389
#     4  12  25  44  67  96 129 169 223 285 349 405
#     4  11  23  41  66  96 132 178 223 271 334 404
#
# _framework density 23.762868000000001
#
# number of rings (size 3 to 8) (size 9 to 14) (size 15 to 20)
#    0.000    1.000    0.000   10.500    0.000    3.000 
#    0.000    0.000    0.000    4.500    0.000    5.250 
#    0.000    0.000    0.000    0.000    0.000    0.000 
#
# Total GULP energy -178137.223035 kJ/mol
# GULP energy per Si atom -5566.788220 kJ/mol
# Density = 2.370878 g / cm^3
# Si number density = 23.762868 Si / 1000 Ang^3
#
#
#
# Elastic Constant Matrix: (Units=GPa)
#
#
# Indices 1 2 3 4 5 6 
#
# 1 56.5785 37.1731 11.9802 0.0000 0.0000 0.0000
# 2 37.1731 256.7415 47.3081 0.0000 0.0000 0.0000
# 3 11.9802 47.3081 82.5494 0.0000 0.0000 0.0000
# 4 0.0000 0.0000 0.0000 68.5599 0.0000 0.0000
# 5 0.0000 0.0000 0.0000 0.0000 22.7663 0.0000
# 6 0.0000 0.0000 0.0000 0.0000 0.0000 47.5809
#
#
#
# Elastic Compliance Matrix: (Units=1/GPa)
#
#
# Indices 1 2 3 4 5 6 
#
# 1 0.019670 -0.002596 -0.001367 0.000000 0.000000 0.000000
# 2 -0.002596 0.004697 -0.002315 0.000000 0.000000 0.000000
# 3 -0.001367 -0.002315 0.013639 0.000000 0.000000 0.000000
# 4 0.000000 0.000000 0.000000 0.014586 0.000000 0.000000
# 5 0.000000 0.000000 0.000000 0.000000 0.043925 0.000000
# 6 0.000000 0.000000 0.000000 0.000000 0.000000 0.021017
#
#
# Mechanical properties :
#
#
# Convention : Reuss Voigt Hill
#
# Bulk Modulus (GPa) = 39.29287 65.42134 52.35711
# Shear Modulus (GPa) = 36.08202 47.74197 41.91200
#
# Velocity S-wave (km/s) = 3.90092 4.48716 4.20427
# Velocity P-wave (km/s) = 6.07131 7.37813 6.75639
#
# Compressibility (1/GPa) = 0.02544991
#
# Stress axis : x y z
#
# Youngs Moduli (GPa) = 50.83973 212.88044 73.31811
#
# Poissons Ratio (x) = 0.55265 0.10021
# Poissons Ratio (y) = 0.13198 0.16975
# Poissons Ratio (z) = 0.06949 0.49288
#
# Static dielectric constant tensor:
#      x y z
#    x 1.988590 0.000000 0.000000 
#    y 0.000000 1.885420 0.000000 
#    z 0.000000 0.000000 2.096720 
# 
# From -- ./inp_files/36435.got.cif
#   From: 2010.05.17/outbox.cif.g08.bks.cpg/sg52_19_cif.got.tgz:36435.got - 2010.06.03 12:15:38.
