data_PCOD9409342
_publ_section_title
;
Structure prediction by ZEFSAII (Michael W. Deem and Ramdas Pophale) SiO2 
 PCOD9409342
Probable space group: P N N A
;
_chemical_formula_sum "Si O2"
_cell_formula_units_Z 32
_cell_length_a 18.944935
_cell_length_b 7.706428
_cell_length_c 10.305148
_cell_angle_alpha 90.000000
_cell_angle_beta 90.000000
_cell_angle_gamma 90.000000
_cell_volume 1504.528705
_symmetry_space_group_name_H-M "P N N A"
_symmetry_group_IT_number 52
_symmetry_cell_setting 'orthorhombic'
loop_
_space_group_symop_operation_xyz
x,y,z
1/2-x,-y,z
x,1/2-y,1/2-z
1/2-x,1/2+y,1/2-z
-x,-y,-z
1/2+x,y,-z
-x,1/2+y,1/2+z
1/2+x,1/2-y,1/2+z
loop_
_atom_site_type_symbol
_atom_site_label
_atom_site_fract_x
_atom_site_fract_y
_atom_site_fract_z
Si Si1 0.163332 0.250000 0.750000
Si Si2 0.928324 0.417313 0.332880
Si Si3 0.090351 0.480226 0.378687
Si Si4 0.184351 0.750000 0.250000
Si Si5 0.717956 0.196797 0.981168
O O1 0.113996 0.415731 0.719410
O O2 0.210933 0.276952 0.877258
O O3 0.907796 0.250000 0.250000
O O4 0.914606 0.407178 0.487775
O O5 0.012841 0.442195 0.327079
O O6 0.135286 0.586739 0.276492
O O7 0.138898 0.319477 0.422530
O O8 0.232709 0.782390 0.374851
O O9 0.750000 0.000000 0.995545
#
# Coordination Sequence:
#
# PCOD9409342 Si02
#       5
#     4   8   8   4   8
#     4  10  21  44  66  94 127 166 222 262 322 384
#     4  10  21  41  68  95 128 167 209 278 318 375
#     4   9  20  40  61  90 132 165 213 262 326 378
#     4  10  19  40  62  86 129 178 202 260 328 376
#     4   9  20  40  61  87 130 170 208 267 315 380
#
# _framework density 21.269119
#
# number of rings (size 3 to 8) (size 9 to 14) (size 15 to 20)
#    0.000    2.500    0.000    0.750    1.750    0.000 
#   33.750   12.500    0.000    0.000    0.000    0.000 
#    0.000    0.000    0.000    0.000    0.000    0.000 
#
# Total GULP energy -178783.168627 kJ/mol
# GULP energy per Si atom -5586.974020 kJ/mol
# Density = 2.122071 g / cm^3
# Si number density = 21.269119 Si / 1000 Ang^3
#
#
#
# Elastic Constant Matrix: (Units=GPa)
#
#
# Indices 1 2 3 4 5 6 
#
# 1 113.0886 17.0703 61.3534 0.0000 0.0000 0.0000
# 2 17.0703 77.0574 55.6976 0.0000 0.0000 0.0000
# 3 61.3534 55.6976 136.2700 0.0000 0.0000 0.0000
# 4 0.0000 0.0000 0.0000 34.3130 0.0000 0.0000
# 5 0.0000 0.0000 0.0000 0.0000 29.7377 0.0000
# 6 0.0000 0.0000 0.0000 0.0000 0.0000 7.2370
#
#
#
# Elastic Compliance Matrix: (Units=1/GPa)
#
#
# Indices 1 2 3 4 5 6 
#
# 1 0.011865 0.001750 -0.006057 0.000000 0.000000 0.000000
# 2 0.001750 0.018677 -0.008422 0.000000 0.000000 0.000000
# 3 -0.006057 -0.008422 0.013508 0.000000 0.000000 0.000000
# 4 0.000000 0.000000 0.000000 0.029143 0.000000 0.000000
# 5 0.000000 0.000000 0.000000 0.000000 0.033627 0.000000
# 6 0.000000 0.000000 0.000000 0.000000 0.000000 0.138178
#
#
# Mechanical properties :
#
#
# Convention : Reuss Voigt Hill
#
# Bulk Modulus (GPa) = 53.78847 66.07318 59.93082
# Shear Modulus (GPa) = 18.07317 27.07719 22.57518
#
# Velocity S-wave (km/s) = 2.91819 3.57189 3.26146
# Velocity P-wave (km/s) = 6.05795 6.93858 6.51317
#
# Compressibility (1/GPa) = 0.01859134
#
# Stress axis : x y z
#
# Youngs Moduli (GPa) = 84.28439 53.54199 74.03238
#
# Poissons Ratio (x) = -0.09368 0.44841
# Poissons Ratio (y) = -0.14747 0.62347
# Poissons Ratio (z) = 0.51051 0.45091
#
# Static dielectric constant tensor:
#      x y z
#    x 1.785870 0.000000 0.000000 
#    y 0.000000 1.887700 0.000000 
#    z 0.000000 0.000000 1.776550 
# 
# From -- ./inp_files/12845.got.cif
#   From: 2010.05.17/outbox.cif.g08.bks.cpg/sg52_7_cif.got.tgz:12845.got - 2010.06.03 12:15:38.
