data_PCOD9409726
_publ_section_title
;
Structure prediction by ZEFSAII (Michael W. Deem and Ramdas Pophale) SiO2 
 PCOD9409726
Probable space group: P N N A
;
_chemical_formula_sum "Si O2"
_cell_formula_units_Z 52
_cell_length_a 7.705206
_cell_length_b 11.833964
_cell_length_c 26.361976
_cell_angle_alpha 90.000000
_cell_angle_beta 90.000000
_cell_angle_gamma 90.000000
_cell_volume 2403.767496
_symmetry_space_group_name_H-M "P N N A"
_symmetry_group_IT_number 52
_symmetry_cell_setting 'orthorhombic'
loop_
_space_group_symop_operation_xyz
x,y,z
1/2-x,-y,z
x,1/2-y,1/2-z
1/2-x,1/2+y,1/2-z
-x,-y,-z
1/2+x,y,-z
-x,1/2+y,1/2+z
1/2+x,1/2-y,1/2+z
loop_
_atom_site_type_symbol
_atom_site_label
_atom_site_fract_x
_atom_site_fract_y
_atom_site_fract_z
Si Si1 0.750000 0.500000 0.241700
Si Si2 0.394177 0.295924 0.827208
Si Si3 0.314668 0.621153 0.330572
Si Si4 0.045825 0.176775 0.800123
Si Si5 0.980724 0.261131 0.976270
Si Si6 0.683249 0.625709 0.065494
Si Si7 0.670134 0.117550 0.944849
O O1 0.653308 0.595297 0.207668
O O2 0.891749 0.557097 0.278001
O O3 0.546187 0.210882 0.808765
O O4 0.214669 0.226818 0.826790
O O5 0.423529 0.335632 0.885025
O O6 0.250000 0.500000 0.307595
O O7 0.387106 0.596818 0.386997
O O8 0.126598 0.679920 0.332747
O O9 0.009736 0.250000 0.750000
O O10 0.028536 0.162547 0.016338
O O11 0.924849 0.362697 0.013604
O O12 0.147718 0.295576 0.944031
O O13 0.817643 0.214526 0.945661
O O14 0.750000 0.500000 0.074298
O O15 0.750000 0.000000 0.962849
#
# Coordination Sequence:
#
# PCOD9409726 Si02
#       7
#     4   8   8   8   8   8   8
#     4  10  22  44  68  92 124 170 214 274 342 404
#     4  11  22  42  67  92 130 169 212 274 329 401
#     4  11  23  39  62  91 126 161 208 263 324 389
#     4  10  23  40  62  90 119 157 209 260 326 396
#     4  10  21  36  59  86 124 164 211 256 311 379
#     4  11  21  38  61  89 126 169 216 264 322 382
#     4  10  20  36  56  86 119 158 202 252 308 372
#
# _framework density 21.632709999999999
#
# number of rings (size 3 to 8) (size 9 to 14) (size 15 to 20)
#    0.000    1.538    2.308    2.769    0.000    3.077 
#    0.000    2.308    0.000    0.000    0.000    0.000 
#    0.000    0.000    0.000    0.000    0.000    0.000 
#
# Total GULP energy -290080.372647 kJ/mol
# GULP energy per Si atom -5578.468705 kJ/mol
# Density = 2.158347 g / cm^3
# Si number density = 21.632710 Si / 1000 Ang^3
#
#
#
# Elastic Constant Matrix: (Units=GPa)
#
#
# Indices 1 2 3 4 5 6 
#
# 1 82.3398 29.6868 11.6068 0.0000 0.0000 0.0000
# 2 29.6868 105.7443 17.2296 0.0000 0.0000 0.0000
# 3 11.6068 17.2296 69.1974 0.0000 0.0000 0.0000
# 4 0.0000 0.0000 0.0000 -8.9726 0.0000 0.0000
# 5 0.0000 0.0000 0.0000 0.0000 21.6055 0.0000
# 6 0.0000 0.0000 0.0000 0.0000 0.0000 29.7620
#
#
#
# Elastic Compliance Matrix: (Units=1/GPa)
#
#
# Indices 1 2 3 4 5 6 
#
# 1 0.013640 -0.003603 -0.001391 0.000000 0.000000 0.000000
# 2 -0.003603 0.010808 -0.002087 0.000000 0.000000 0.000000
# 3 -0.001391 -0.002087 0.015204 0.000000 0.000000 0.000000
# 4 0.000000 0.000000 0.000000 -0.111450 0.000000 0.000000
# 5 0.000000 0.000000 0.000000 0.000000 0.046285 0.000000
# 6 0.000000 0.000000 0.000000 0.000000 0.000000 0.033600
#
#
# Mechanical properties :
#
#
# Convention : Reuss Voigt Hill
#
# Bulk Modulus (GPa) = 39.22859 41.59198 40.41029
# Shear Modulus (GPa) = 162.62955 21.72951 92.17953
#
# Velocity S-wave (km/s) = 8.67991 3.17278 6.53481
# Velocity P-wave (km/s) = 10.89163 5.71754 8.69822
#
# Compressibility (1/GPa) = 0.02549161
#
# Stress axis : x y z
#
# Youngs Moduli (GPa) = 73.31515 92.52220 65.77076
#
# Poissons Ratio (x) = 0.33332 0.09148
# Poissons Ratio (y) = 0.26413 0.13726
# Poissons Ratio (z) = 0.10197 0.19308
#
# Static dielectric constant tensor:
#      x y z
#    x 1.797670 0.000000 0.000000 
#    y 0.000000 1.815330 0.000000 
#    z 0.000000 0.000000 1.806480 
# 
# From -- ./inp_files/42287.got.cif
#   From: 2010.05.17/outbox.cif.g08.bks.cpg/sg52_22_cif.got.tgz:42287.got - 2010.06.03 12:15:38.
