data_PCOD9409263
_publ_section_title
;
Structure prediction by ZEFSAII (Michael W. Deem and Ramdas Pophale) SiO2 
 PCOD9409263
Probable space group: P N N A
;
_chemical_formula_sum "Si O2"
_cell_formula_units_Z 44
_cell_length_a 8.708381
_cell_length_b 14.102859
_cell_length_c 20.073990
_cell_angle_alpha 90.000000
_cell_angle_beta 90.000000
_cell_angle_gamma 90.000000
_cell_volume 2465.348326
_symmetry_space_group_name_H-M "P N N A"
_symmetry_group_IT_number 52
_symmetry_cell_setting 'orthorhombic'
loop_
_space_group_symop_operation_xyz
x,y,z
1/2-x,-y,z
x,1/2-y,1/2-z
1/2-x,1/2+y,1/2-z
-x,-y,-z
1/2+x,y,-z
-x,1/2+y,1/2+z
1/2+x,1/2-y,1/2+z
loop_
_atom_site_type_symbol
_atom_site_label
_atom_site_fract_x
_atom_site_fract_y
_atom_site_fract_z
Si Si1 0.274235 0.663545 0.571142
Si Si2 0.496021 0.965801 0.842570
Si Si3 0.126951 0.307693 0.819697
Si Si4 0.805878 0.222621 0.820006
Si Si5 0.750000 0.000000 0.264357
Si Si6 0.911601 0.858720 0.924455
O O1 0.364766 0.583663 0.612826
O O2 0.309739 0.757005 0.614482
O O3 0.337219 0.651220 0.496786
O O4 0.092304 0.657031 0.569052
O O5 0.603566 0.878950 0.818180
O O6 0.400123 0.015345 0.783111
O O7 0.589588 0.039358 0.887487
O O8 0.157763 0.250000 0.750000
O O9 0.201586 0.409234 0.807205
O O10 0.942575 0.299155 0.829110
O O11 0.731368 0.250000 0.750000
O O12 0.680822 0.212855 0.877057
#
# Coordination Sequence:
#
# PCOD9409263 Si02
#       6
#     8   8   8   8   4   8
#     4  11  22  37  56  86 124 157 201 253 319 361
#     4  11  20  37  58  93 120 156 206 252 308 378
#     4  10  19  38  61  87 122 164 200 257 303 370
#     4  10  21  38  55  83 129 159 195 253 315 362
#     4  12  18  36  70  88 122 158 216 246 304 378
#     4  12  23  36  59  86 120 166 201 256 308 376
#
# _framework density 17.847376000000001
#
# number of rings (size 3 to 8) (size 9 to 14) (size 15 to 20)
#    0.000    1.091    7.273    3.273    0.000    3.636 
#    0.000    0.000    0.000    4.364    0.000    0.000 
#    0.000    0.000    0.000    0.000    0.000    0.000 
#
# Total GULP energy -245311.533939 kJ/mol
# GULP energy per Si atom -5575.262135 kJ/mol
# Density = 1.780675 g / cm^3
# Si number density = 17.847376 Si / 1000 Ang^3
#
#
#
# Elastic Constant Matrix: (Units=GPa)
#
#
# Indices 1 2 3 4 5 6 
#
# 1 106.5552 40.6483 54.1812 0.0000 0.0000 0.0000
# 2 40.6483 94.5777 67.3369 0.0000 0.0000 0.0000
# 3 54.1812 67.3369 121.0203 0.0000 0.0000 0.0000
# 4 0.0000 0.0000 0.0000 21.5674 0.0000 0.0000
# 5 0.0000 0.0000 0.0000 0.0000 146.0328 0.0000
# 6 0.0000 0.0000 0.0000 0.0000 0.0000 24.7553
#
#
#
# Elastic Compliance Matrix: (Units=1/GPa)
#
#
# Indices 1 2 3 4 5 6 
#
# 1 0.012443 -0.002288 -0.004298 0.000000 0.000000 0.000000
# 2 -0.002288 0.017931 -0.008952 0.000000 0.000000 0.000000
# 3 -0.004298 -0.008952 0.015168 0.000000 0.000000 0.000000
# 4 0.000000 0.000000 0.000000 0.046366 0.000000 0.000000
# 5 0.000000 0.000000 0.000000 0.000000 0.006848 0.000000
# 6 0.000000 0.000000 0.000000 0.000000 0.000000 0.040395
#
#
# Mechanical properties :
#
#
# Convention : Reuss Voigt Hill
#
# Bulk Modulus (GPa) = 69.12899 71.83177 70.48038
# Shear Modulus (GPa) = 28.56342 49.13690 38.85016
#
# Velocity S-wave (km/s) = 4.00487 5.25276 4.67068
# Velocity P-wave (km/s) = 7.75905 8.78202 8.28633
#
# Compressibility (1/GPa) = 0.01446571
#
# Stress axis : x y z
#
# Youngs Moduli (GPa) = 80.36719 55.77079 65.92672
#
# Poissons Ratio (x) = 0.12760 0.28333
# Poissons Ratio (y) = 0.18388 0.59020
# Poissons Ratio (z) = 0.34539 0.49928
#
# Static dielectric constant tensor:
#      x y z
#    x 1.630100 0.000000 0.000000 
#    y 0.000000 1.637470 0.000000 
#    z 0.000000 0.000000 1.622090 
# 
# From -- ./inp_files/31172.got.cif
#   From: 2010.05.17/outbox.cif.g08.bks.cpg/sg52_16_cif.got.tgz:31172.got - 2010.06.03 12:15:38.
