data_PCOD9409601
_publ_section_title
;
Structure prediction by ZEFSAII (Michael W. Deem and Ramdas Pophale) SiO2 
 PCOD9409601
Probable space group: P N N A
;
_chemical_formula_sum "Si O2"
_cell_formula_units_Z 48
_cell_length_a 11.715811
_cell_length_b 17.531919
_cell_length_c 11.847698
_cell_angle_alpha 90.000000
_cell_angle_beta 90.000000
_cell_angle_gamma 90.000000
_cell_volume 2433.524864
_symmetry_space_group_name_H-M "P N N A"
_symmetry_group_IT_number 52
_symmetry_cell_setting 'orthorhombic'
loop_
_space_group_symop_operation_xyz
x,y,z
1/2-x,-y,z
x,1/2-y,1/2-z
1/2-x,1/2+y,1/2-z
-x,-y,-z
1/2+x,y,-z
-x,1/2+y,1/2+z
1/2+x,1/2-y,1/2+z
loop_
_atom_site_type_symbol
_atom_site_label
_atom_site_fract_x
_atom_site_fract_y
_atom_site_fract_z
Si Si1 0.167543 0.337231 0.298875
Si Si2 0.076954 0.389256 0.966214
Si Si3 0.227392 0.256198 0.510340
Si Si4 0.750000 0.500000 0.149446
Si Si5 0.045397 0.902669 0.697445
Si Si6 0.388060 0.180196 0.332137
Si Si7 0.321217 0.250000 0.750000
O O1 0.144550 0.250000 0.250000
O O2 0.193852 0.325686 0.429891
O O3 0.281231 0.359387 0.230194
O O4 0.064051 0.393623 0.276748
O O5 0.127385 0.306309 0.996067
O O6 0.185143 0.438644 0.928686
O O7 0.989022 0.375904 0.864339
O O8 0.006651 0.418955 0.073516
O O9 0.336319 0.217663 0.446758
O O10 0.249985 0.274804 0.640194
O O11 0.851799 0.460777 0.218805
O O12 0.103939 0.819920 0.705539
O O13 0.423590 0.250000 0.250000
#
# Coordination Sequence:
#
# PCOD9409601 Si02
#       7
#     8   8   8   4   8   8   4
#     4   9  18  38  59  87 119 162 199 251 304 369
#     4  12  20  39  54  87 134 163 197 249 312 378
#     4  10  20  34  61  96 119 151 207 251 316 361
#     4  12  28  36  56  92 132 168 204 252 312 382
#     4  12  22  39  60  85 126 167 198 256 312 370
#     4   9  19  34  58  88 122 156 201 250 298 364
#     4  12  20  36  64  94 126 152 208 268 304 358
#
# _framework density 19.724475000000002
#
# number of rings (size 3 to 8) (size 9 to 14) (size 15 to 20)
#    0.000    1.667    7.500    0.500    1.167    0.000 
#    0.000    0.000    0.000    1.000    0.000    0.000 
#    0.000    0.000    0.000    0.000    0.000    0.000 
#
# Total GULP energy -267796.147526 kJ/mol
# GULP energy per Si atom -5579.086407 kJ/mol
# Density = 1.967958 g / cm^3
# Si number density = 19.724475 Si / 1000 Ang^3
#
#
#
# Elastic Constant Matrix: (Units=GPa)
#
#
# Indices 1 2 3 4 5 6 
#
# 1 122.4611 36.2024 50.8360 0.0000 0.0000 0.0000
# 2 36.2024 26.7537 15.9330 0.0000 0.0000 0.0000
# 3 50.8360 15.9330 130.4583 0.0000 0.0000 0.0000
# 4 0.0000 0.0000 0.0000 13.2848 0.0000 0.0000
# 5 0.0000 0.0000 0.0000 0.0000 6.2795 0.0000
# 6 0.0000 0.0000 0.0000 0.0000 0.0000 37.3311
#
#
#
# Elastic Compliance Matrix: (Units=1/GPa)
#
#
# Indices 1 2 3 4 5 6 
#
# 1 0.015063 -0.018212 -0.003645 0.000000 0.000000 0.000000
# 2 -0.018212 0.062329 -0.000516 0.000000 0.000000 0.000000
# 3 -0.003645 -0.000516 0.009149 0.000000 0.000000 0.000000
# 4 0.000000 0.000000 0.000000 0.075274 0.000000 0.000000
# 5 0.000000 0.000000 0.000000 0.000000 0.159247 0.000000
# 6 0.000000 0.000000 0.000000 0.000000 0.000000 0.026787
#
#
# Mechanical properties :
#
#
# Convention : Reuss Voigt Hill
#
# Bulk Modulus (GPa) = 23.92632 53.95732 38.94182
# Shear Modulus (GPa) = 12.29932 23.15922 17.72927
#
# Velocity S-wave (km/s) = 2.49982 3.43028 3.00133
# Velocity P-wave (km/s) = 4.52645 6.56537 5.63883
#
# Compressibility (1/GPa) = 0.04179497
#
# Stress axis : x y z
#
# Youngs Moduli (GPa) = 66.38785 16.04390 109.30430
#
# Poissons Ratio (x) = 0.29219 0.39846
# Poissons Ratio (y) = 1.20905 0.05636
# Poissons Ratio (z) = 0.24201 0.00827
#
# Static dielectric constant tensor:
#      x y z
#    x 1.739510 0.000000 0.000000 
#    y 0.000000 1.709090 0.000000 
#    z 0.000000 0.000000 1.712970 
# 
# From -- ./inp_files/18246.got.cif
#   From: 2010.05.17/outbox.cif.g08.bks.cpg/sg52_10_cif.got.tgz:18246.got - 2010.06.03 12:15:38.
