data_PCOD9409983
_publ_section_title
;
Structure prediction by ZEFSAII (Michael W. Deem and Ramdas Pophale) SiO2 
 PCOD9409983
Probable space group: P N N A
;
_chemical_formula_sum "Si O2"
_cell_formula_units_Z 40
_cell_length_a 18.979492
_cell_length_b 13.465666
_cell_length_c 7.539919
_cell_angle_alpha 90.000000
_cell_angle_beta 90.000000
_cell_angle_gamma 90.000000
_cell_volume 1926.988410
_symmetry_space_group_name_H-M "P N N A"
_symmetry_group_IT_number 52
_symmetry_cell_setting 'orthorhombic'
loop_
_space_group_symop_operation_xyz
x,y,z
1/2-x,-y,z
x,1/2-y,1/2-z
1/2-x,1/2+y,1/2-z
-x,-y,-z
1/2+x,y,-z
-x,1/2+y,1/2+z
1/2+x,1/2-y,1/2+z
loop_
_atom_site_type_symbol
_atom_site_label
_atom_site_fract_x
_atom_site_fract_y
_atom_site_fract_z
Si Si1 0.671096 0.471256 0.881759
Si Si2 0.107253 0.444043 0.477703
Si Si3 0.557888 0.863726 0.498776
Si Si4 0.038010 0.856938 0.924455
Si Si5 0.404371 0.857883 0.662603
O O1 0.750000 0.500000 0.928414
O O2 0.664536 0.444610 0.674516
O O3 0.617779 0.562210 0.930730
O O4 0.643553 0.377059 0.992731
O O5 0.069548 0.550704 0.470993
O O6 0.126576 0.426982 0.681178
O O7 0.046490 0.362703 0.439535
O O8 0.551844 0.872679 0.284595
O O9 0.567363 0.744262 0.509028
O O10 0.483896 0.885253 0.599674
O O11 0.403951 0.750000 0.750000
#
# Coordination Sequence:
#
# PCOD9409983 Si02
#       5
#     8   8   8   8   8
#     4  12  28  47  64  99 148 188 220 279 353 421
#     4  11  22  40  67 103 131 176 228 286 343 395
#     4  11  21  41  71 105 133 171 234 287 343 398
#     4  10  20  37  73 105 130 165 231 297 336 396
#     4  12  24  44  74 100 132 177 236 294 337 397
#
# _framework density 20.757781000000001
#
# number of rings (size 3 to 8) (size 9 to 14) (size 15 to 20)
#    0.000    0.800    6.000    3.000    0.000    1.600 
#    3.600    2.000    0.000    0.000    0.000    0.000 
#    0.000    0.000    0.000    0.000    0.000    0.000 
#
# Total GULP energy -223346.464539 kJ/mol
# GULP energy per Si atom -5583.661613 kJ/mol
# Density = 2.071054 g / cm^3
# Si number density = 20.757781 Si / 1000 Ang^3
#
#
#
# Elastic Constant Matrix: (Units=GPa)
#
#
# Indices 1 2 3 4 5 6 
#
# 1 88.4611 29.3924 28.7842 0.0000 0.0000 0.0000
# 2 29.3924 87.4095 21.3697 0.0000 0.0000 0.0000
# 3 28.7842 21.3697 114.9196 0.0000 0.0000 0.0000
# 4 0.0000 0.0000 0.0000 25.0793 0.0000 0.0000
# 5 0.0000 0.0000 0.0000 0.0000 14.7679 0.0000
# 6 0.0000 0.0000 0.0000 0.0000 0.0000 10.6087
#
#
#
# Elastic Compliance Matrix: (Units=1/GPa)
#
#
# Indices 1 2 3 4 5 6 
#
# 1 0.013454 -0.003877 -0.002649 0.000000 0.000000 0.000000
# 2 -0.003877 0.013102 -0.001465 0.000000 0.000000 0.000000
# 3 -0.002649 -0.001465 0.009638 0.000000 0.000000 0.000000
# 4 0.000000 0.000000 0.000000 0.039873 0.000000 0.000000
# 5 0.000000 0.000000 0.000000 0.000000 0.067714 0.000000
# 6 0.000000 0.000000 0.000000 0.000000 0.000000 0.094262
#
#
# Mechanical properties :
#
#
# Convention : Reuss Voigt Hill
#
# Bulk Modulus (GPa) = 49.47501 49.98697 49.73099
# Shear Modulus (GPa) = 19.17442 24.17413 21.67428
#
# Velocity S-wave (km/s) = 3.04258 3.41630 3.23484
# Velocity P-wave (km/s) = 6.01907 6.30038 6.16133
#
# Compressibility (1/GPa) = 0.02021222
#
# Stress axis : x y z
#
# Youngs Moduli (GPa) = 74.32503 76.32310 103.75857
#
# Poissons Ratio (x) = 0.29587 0.27487
# Poissons Ratio (y) = 0.28812 0.15205
# Poissons Ratio (z) = 0.19689 0.11185
#
# Static dielectric constant tensor:
#      x y z
#    x 1.687930 0.000000 0.000000 
#    y 0.000000 1.808760 0.000000 
#    z 0.000000 0.000000 1.795420 
# 
# From -- ./inp_files/11857.got.cif
#   From: 2010.05.17/outbox.cif.g08.bks.cpg/sg52_6_cif.got.tgz:11857.got - 2010.06.03 12:15:38.
