data_PCOD9409048
_publ_section_title
;
Structure prediction by ZEFSAII (Michael W. Deem and Ramdas Pophale) SiO2 
 PCOD9409048
Probable space group: P N N A
;
_chemical_formula_sum "Si O2"
_cell_formula_units_Z 40
_cell_length_a 17.129812
_cell_length_b 12.768374
_cell_length_c 9.270677
_cell_angle_alpha 90.000000
_cell_angle_beta 90.000000
_cell_angle_gamma 90.000000
_cell_volume 2027.681047
_symmetry_space_group_name_H-M "P N N A"
_symmetry_group_IT_number 52
_symmetry_cell_setting 'orthorhombic'
loop_
_space_group_symop_operation_xyz
x,y,z
1/2-x,-y,z
x,1/2-y,1/2-z
1/2-x,1/2+y,1/2-z
-x,-y,-z
1/2+x,y,-z
-x,1/2+y,1/2+z
1/2+x,1/2-y,1/2+z
loop_
_atom_site_type_symbol
_atom_site_label
_atom_site_fract_x
_atom_site_fract_y
_atom_site_fract_z
Si Si1 0.981122 0.071331 0.638420
Si Si2 0.414519 0.480500 0.431912
Si Si3 0.359459 0.570732 0.706688
Si Si4 0.856294 0.245481 0.588161
Si Si5 0.801158 0.350574 0.181706
O O1 0.059295 0.106141 0.723417
O O2 0.928189 0.011358 0.759735
O O3 0.933901 0.174011 0.591995
O O4 0.000000 0.000000 0.500000
O O5 0.500000 0.500000 0.500000
O O6 0.362961 0.555890 0.533629
O O7 0.380350 0.363343 0.455008
O O8 0.284331 0.635755 0.751948
O O9 0.345716 0.456278 0.779332
O O10 0.824774 0.250000 0.750000
O O11 0.798986 0.181674 0.484390
O O12 0.842951 0.250000 0.250000
#
# Coordination Sequence:
#
# PCOD9409048 Si02
#       5
#     8   8   8   8   8
#     4  10  19  35  60  89 117 150 198 256 309 363
#     4   9  19  35  57  85 115 148 202 251 301 364
#     4  10  21  36  57  89 116 155 202 249 305 364
#     4  10  20  36  60  85 116 161 199 248 309 368
#     4  11  21  36  60  81 118 163 203 243 304 377
#
# _framework density 19.726967999999999
#
# number of rings (size 3 to 8) (size 9 to 14) (size 15 to 20)
#    0.000    2.000    4.000    0.000    0.000    4.000 
#    0.000    2.000    0.000    1.200    0.000    0.000 
#    0.000    0.000    0.000    0.000    0.000    0.000 
#
# Total GULP energy -222825.022615 kJ/mol
# GULP energy per Si atom -5570.625565 kJ/mol
# Density = 1.968207 g / cm^3
# Si number density = 19.726968 Si / 1000 Ang^3
#
#
#
# Elastic Constant Matrix: (Units=GPa)
#
#
# Indices 1 2 3 4 5 6 
#
# 1 59.8447 4.9557 22.9420 0.0000 0.0000 0.0000
# 2 4.9557 54.0178 22.7448 0.0000 0.0000 0.0000
# 3 22.9420 22.7448 123.2756 0.0000 0.0000 0.0000
# 4 0.0000 0.0000 0.0000 34.9059 0.0000 0.0000
# 5 0.0000 0.0000 0.0000 0.0000 36.0620 0.0000
# 6 0.0000 0.0000 0.0000 0.0000 0.0000 6.0549
#
#
#
# Elastic Compliance Matrix: (Units=1/GPa)
#
#
# Indices 1 2 3 4 5 6 
#
# 1 0.017997 -0.000261 -0.003301 0.000000 0.000000 0.000000
# 2 -0.000261 0.020076 -0.003655 0.000000 0.000000 0.000000
# 3 -0.003301 -0.003655 0.009401 0.000000 0.000000 0.000000
# 4 0.000000 0.000000 0.000000 0.028648 0.000000 0.000000
# 5 0.000000 0.000000 0.000000 0.000000 0.027730 0.000000
# 6 0.000000 0.000000 0.000000 0.000000 0.000000 0.165156
#
#
# Mechanical properties :
#
#
# Convention : Reuss Voigt Hill
#
# Bulk Modulus (GPa) = 30.26824 37.60259 33.93541
# Shear Modulus (GPa) = 16.98049 27.83759 22.40904
#
# Velocity S-wave (km/s) = 2.93708 3.76059 3.37406
# Velocity P-wave (km/s) = 5.18448 6.16109 5.69376
#
# Compressibility (1/GPa) = 0.03303793
#
# Stress axis : x y z
#
# Youngs Moduli (GPa) = 55.56466 49.81189 106.37510
#
# Poissons Ratio (x) = 0.01301 0.35116
# Poissons Ratio (y) = 0.01451 0.38885
# Poissons Ratio (z) = 0.18343 0.18208
#
# Static dielectric constant tensor:
#      x y z
#    x 1.703020 0.000000 0.000000 
#    y 0.000000 1.895320 0.000000 
#    z 0.000000 0.000000 1.812550 
# 
# From -- ./inp_files/11593.got.cif
#   From: 2010.05.17/outbox.cif.g08.bks.cpg/sg52_6_cif.got.tgz:11593.got - 2010.06.03 12:15:38.
