data_PCOD9409429
_publ_section_title
;
Structure prediction by ZEFSAII (Michael W. Deem and Ramdas Pophale) SiO2 
 PCOD9409429
Probable space group: P N N A
;
_chemical_formula_sum "Si O2"
_cell_formula_units_Z 48
_cell_length_a 25.335324
_cell_length_b 5.213864
_cell_length_c 17.122351
_cell_angle_alpha 90.000000
_cell_angle_beta 90.000000
_cell_angle_gamma 90.000000
_cell_volume 2261.775821
_symmetry_space_group_name_H-M "P N N A"
_symmetry_group_IT_number 52
_symmetry_cell_setting 'orthorhombic'
loop_
_space_group_symop_operation_xyz
x,y,z
1/2-x,-y,z
x,1/2-y,1/2-z
1/2-x,1/2+y,1/2-z
-x,-y,-z
1/2+x,y,-z
-x,1/2+y,1/2+z
1/2+x,1/2-y,1/2+z
loop_
_atom_site_type_symbol
_atom_site_label
_atom_site_fract_x
_atom_site_fract_y
_atom_site_fract_z
Si Si1 0.603707 0.250000 0.250000
Si Si2 0.497728 0.458477 0.700039
Si Si3 0.859084 0.711695 0.596528
Si Si4 0.286008 0.750000 0.250000
Si Si5 0.443797 0.199555 0.944434
Si Si6 0.625240 0.197370 0.425078
Si Si7 0.568927 0.793296 0.608751
O O1 0.560113 0.475448 0.264447
O O2 0.636820 0.227477 0.331115
O O3 0.528444 0.250000 0.750000
O O4 0.487288 0.300298 0.620888
O O5 0.528788 0.711521 0.675400
O O6 0.819121 0.731183 0.669167
O O7 0.840134 0.758322 0.505155
O O8 0.887303 0.434649 0.603181
O O9 0.900866 0.940732 0.610201
O O10 0.250000 0.500000 0.244759
O O11 0.399195 0.413835 0.929776
O O12 0.418196 0.918349 0.939060
O O13 0.464136 0.263882 0.029491
#
# Coordination Sequence:
#
# PCOD9409429 Si02
#       7
#     4   8   8   4   8   8   8
#     4  10  20  32  49  78 116 156 206 240 275 306
#     4  11  21  30  46  75 113 160 212 251 276 304
#     4  10  23  42  60  85 112 142 185 229 292 356
#     4  12  26  46  73  96 114 134 170 226 297 370
#     4   9  18  34  47  70 106 155 206 248 280 307
#     4   9  18  34  55  76 110 150 190 240 279 328
#     4  10  22  35  55  77 112 156 194 240 284 325
#
# _framework density 21.222263999999999
#
# number of rings (size 3 to 8) (size 9 to 14) (size 15 to 20)
#    0.000    2.000    1.667    1.500    3.500    0.000 
#    0.000    6.667    0.000    0.000    0.000    1.167 
#    0.000    0.000    0.000    0.000    0.000    0.000 
#
# Total GULP energy -267564.475268 kJ/mol
# GULP energy per Si atom -5574.259901 kJ/mol
# Density = 2.117396 g / cm^3
# Si number density = 21.222264 Si / 1000 Ang^3
#
#
#
# Elastic Constant Matrix: (Units=GPa)
#
#
# Indices 1 2 3 4 5 6 
#
# 1 33.1473 13.9090 40.2981 0.0000 0.0000 0.0000
# 2 13.9090 97.5247 -1.5470 0.0000 0.0000 0.0000
# 3 40.2981 -1.5470 204.7757 0.0000 0.0000 0.0000
# 4 0.0000 0.0000 0.0000 30.4914 0.0000 0.0000
# 5 0.0000 0.0000 0.0000 0.0000 16.6674 0.0000
# 6 0.0000 0.0000 0.0000 0.0000 0.0000 23.5434
#
#
#
# Elastic Compliance Matrix: (Units=1/GPa)
#
#
# Indices 1 2 3 4 5 6 
#
# 1 0.043205 -0.006298 -0.008550 0.000000 0.000000 0.000000
# 2 -0.006298 0.011173 0.001324 0.000000 0.000000 0.000000
# 3 -0.008550 0.001324 0.006576 0.000000 0.000000 0.000000
# 4 0.000000 0.000000 0.000000 0.032796 0.000000 0.000000
# 5 0.000000 0.000000 0.000000 0.000000 0.059997 0.000000
# 6 0.000000 0.000000 0.000000 0.000000 0.000000 0.042475
#
#
# Mechanical properties :
#
#
# Convention : Reuss Voigt Hill
#
# Bulk Modulus (GPa) = 29.49285 48.97421 39.23353
# Shear Modulus (GPa) = 21.31538 32.99295 27.15416
#
# Velocity S-wave (km/s) = 3.17265 3.94717 3.58091
# Velocity P-wave (km/s) = 5.22955 6.62574 5.96861
#
# Compressibility (1/GPa) = 0.03390652
#
# Stress axis : x y z
#
# Youngs Moduli (GPa) = 23.14527 89.50166 152.06887
#
# Poissons Ratio (x) = 0.56364 1.30019
# Poissons Ratio (y) = 0.14576 -0.20130
# Poissons Ratio (z) = 0.19789 -0.11848
#
# Static dielectric constant tensor:
#      x y z
#    x 1.709810 0.000000 0.000000 
#    y 0.000000 1.800260 0.000000 
#    z 0.000000 0.000000 1.945920 
# 
# From -- ./inp_files/34293.got.cif
#   From: 2010.05.17/outbox.cif.g08.bks.cpg/sg52_18_cif.got.tgz:34293.got - 2010.06.03 12:15:38.
