data_PCOD9409306
_publ_section_title
;
Structure prediction by ZEFSAII (Michael W. Deem and Ramdas Pophale) SiO2 
 PCOD9409306
Probable space group: P N N A
;
_chemical_formula_sum "Si O2"
_cell_formula_units_Z 64
_cell_length_a 24.758817
_cell_length_b 15.393772
_cell_length_c 8.732564
_cell_angle_alpha 90.000000
_cell_angle_beta 90.000000
_cell_angle_gamma 90.000000
_cell_volume 3328.255949
_symmetry_space_group_name_H-M "P N N A"
_symmetry_group_IT_number 52
_symmetry_cell_setting 'orthorhombic'
loop_
_space_group_symop_operation_xyz
x,y,z
1/2-x,-y,z
x,1/2-y,1/2-z
1/2-x,1/2+y,1/2-z
-x,-y,-z
1/2+x,y,-z
-x,1/2+y,1/2+z
1/2+x,1/2-y,1/2+z
loop_
_atom_site_type_symbol
_atom_site_label
_atom_site_fract_x
_atom_site_fract_y
_atom_site_fract_z
Si Si1 0.859228 0.995213 0.894249
Si Si2 0.617856 0.185863 0.385748
Si Si3 0.520654 0.300609 0.905403
Si Si4 0.314985 0.349709 0.198732
Si Si5 0.529939 0.005568 0.723820
Si Si6 0.082902 0.873417 0.514736
Si Si7 0.591960 0.492685 0.281104
Si Si8 0.192524 0.346247 0.179434
O O1 0.831741 0.914584 0.803097
O O2 0.830697 0.082467 0.832557
O O3 0.920976 0.995469 0.839684
O O4 0.867027 0.993112 0.076431
O O5 0.636908 0.250000 0.250000
O O6 0.563378 0.224125 0.464314
O O7 0.603790 0.094140 0.312047
O O8 0.658293 0.163589 0.524365
O O9 0.531818 0.250000 0.750000
O O10 0.528970 0.401319 0.859586
O O11 0.457767 0.293561 0.953178
O O12 0.314692 0.250000 0.250000
O O13 0.254419 0.371749 0.145442
O O14 0.361664 0.356597 0.072347
O O15 0.546853 0.935229 0.596148
O O16 0.472966 0.989781 0.806487
O O17 0.097040 0.924076 0.670244
O O18 0.191886 0.250000 0.250000
#
# Coordination Sequence:
#
# PCOD9409306 Si02
#       8
#     8   8   8   8   8   8   8   8
#     4  11  22  38  65  93 122 163 215 251 302 380
#     4  12  23  37  61  94 127 158 205 261 319 372
#     4  11  21  35  59  90 126 162 198 248 314 385
#     4  10  24  44  67  83 118 170 217 259 316 380
#     4  10  19  39  59  81 127 169 194 235 312 381
#     4  10  20  42  62  85 124 168 206 252 314 377
#     4  11  21  37  59  95 127 162 201 251 310 372
#     4  11  23  45  65  88 122 169 214 259 320 375
#
# _framework density 19.229291
#
# number of rings (size 3 to 8) (size 9 to 14) (size 15 to 20)
#    0.000    1.250    3.750    3.375    1.750    2.500 
#    0.000    5.625    0.000    0.000    0.000    0.000 
#    0.000    0.000    0.000    0.000    0.000    0.000 
#
# Total GULP energy -357125.866721 kJ/mol
# GULP energy per Si atom -5580.091668 kJ/mol
# Density = 1.918552 g / cm^3
# Si number density = 19.229291 Si / 1000 Ang^3
#
#
#
# Elastic Constant Matrix: (Units=GPa)
#
#
# Indices 1 2 3 4 5 6 
#
# 1 133.0010 42.9889 64.3169 0.0000 0.0000 0.0000
# 2 42.9889 54.9646 25.8471 0.0000 0.0000 0.0000
# 3 64.3169 25.8471 109.9975 0.0000 0.0000 0.0000
# 4 0.0000 0.0000 0.0000 18.8673 0.0000 0.0000
# 5 0.0000 0.0000 0.0000 0.0000 6.0704 0.0000
# 6 0.0000 0.0000 0.0000 0.0000 0.0000 -32.9467
#
#
#
# Elastic Compliance Matrix: (Units=1/GPa)
#
#
# Indices 1 2 3 4 5 6 
#
# 1 0.012579 -0.007172 -0.005670 0.000000 0.000000 0.000000
# 2 -0.007172 0.024543 -0.001574 0.000000 0.000000 0.000000
# 3 -0.005670 -0.001574 0.012776 0.000000 0.000000 0.000000
# 4 0.000000 0.000000 0.000000 0.053002 0.000000 0.000000
# 5 0.000000 0.000000 0.000000 0.000000 0.164734 0.000000
# 6 0.000000 0.000000 0.000000 0.000000 0.000000 -0.030352
#
#
# Mechanical properties :
#
#
# Convention : Reuss Voigt Hill
#
# Bulk Modulus (GPa) = 47.46707 62.69655 55.08181
# Shear Modulus (GPa) = 18.30610 9.38555 13.84582
#
# Velocity S-wave (km/s) = 3.08878 2.21166 2.68626
# Velocity P-wave (km/s) = 6.12039 6.26079 6.19098
#
# Compressibility (1/GPa) = 0.02106724
#
# Stress axis : x y z
#
# Youngs Moduli (GPa) = 79.50049 40.74531 78.27203
#
# Poissons Ratio (x) = 0.29222 0.44377
# Poissons Ratio (y) = 0.57016 0.12317
# Poissons Ratio (z) = 0.45074 0.06412
#
# Static dielectric constant tensor:
#      x y z
#    x 1.693460 0.000000 0.000000 
#    y 0.000000 1.675230 0.000000 
#    z 0.000000 0.000000 1.723130 
# 
# From -- ./inp_files/14488.got.cif
#   From: 2010.05.17/outbox.cif.g08.bks.cpg/sg52_8_cif.got.tgz:14488.got - 2010.06.03 12:15:38.
