data_PCOD9409918
_publ_section_title
;
Structure prediction by ZEFSAII (Michael W. Deem and Ramdas Pophale) SiO2 
 PCOD9409918
Probable space group: P N N A
;
_chemical_formula_sum "Si O2"
_cell_formula_units_Z 40
_cell_length_a 25.196060
_cell_length_b 8.247127
_cell_length_c 9.073486
_cell_angle_alpha 90.000000
_cell_angle_beta 90.000000
_cell_angle_gamma 90.000000
_cell_volume 1885.425992
_symmetry_space_group_name_H-M "P N N A"
_symmetry_group_IT_number 52
_symmetry_cell_setting 'orthorhombic'
loop_
_space_group_symop_operation_xyz
x,y,z
1/2-x,-y,z
x,1/2-y,1/2-z
1/2-x,1/2+y,1/2-z
-x,-y,-z
1/2+x,y,-z
-x,1/2+y,1/2+z
1/2+x,1/2-y,1/2+z
loop_
_atom_site_type_symbol
_atom_site_label
_atom_site_fract_x
_atom_site_fract_y
_atom_site_fract_z
Si Si1 0.418980 0.323029 0.994302
Si Si2 0.379587 0.848361 0.608248
Si Si3 0.702554 0.108374 0.645925
Si Si4 0.605624 0.536800 0.693983
Si Si5 0.026393 0.173966 0.041846
O O1 0.424258 0.398025 0.159225
O O2 0.392875 0.153290 0.049759
O O3 0.475834 0.284511 0.924143
O O4 0.388558 0.455678 0.895549
O O5 0.360526 0.750000 0.750000
O O6 0.336411 0.823467 0.479458
O O7 0.437514 0.771101 0.574597
O O8 0.723921 0.250000 0.750000
O O9 0.750000 0.000000 0.584794
O O10 0.664076 0.000254 0.748800
O O11 0.571368 0.381592 0.653957
O O12 0.000000 0.000000 0.000000
#
# Coordination Sequence:
#
# PCOD9409918 Si02
#       5
#     8   8   8   8   8
#     4   9  20  36  62  91 136 179 212 260 325 405
#     4  11  24  42  61  96 140 174 218 275 336 414
#     4  11  24  44  74  98 124 169 229 301 344 388
#     4   9  19  39  64  97 130 163 235 279 316 399
#     4  10  20  37  61  93 137 180 211 262 323 399
#
# _framework density 21.215364000000001
#
# number of rings (size 3 to 8) (size 9 to 14) (size 15 to 20)
#    0.000    2.000    2.000    0.600   11.200    0.000 
#    7.200    4.000    0.000    0.000    0.000    0.000 
#    0.000    0.000    0.000    0.000    0.000    0.000 
#
# Total GULP energy -222739.056110 kJ/mol
# GULP energy per Si atom -5568.476403 kJ/mol
# Density = 2.116708 g / cm^3
# Si number density = 21.215364 Si / 1000 Ang^3
#
#
#
# Elastic Constant Matrix: (Units=GPa)
#
#
# Indices 1 2 3 4 5 6 
#
# 1 79.2995 23.9506 32.2523 0.0000 0.0000 0.0000
# 2 23.9506 96.9120 44.8969 0.0000 0.0000 0.0000
# 3 32.2523 44.8969 55.1902 0.0000 0.0000 0.0000
# 4 0.0000 0.0000 0.0000 39.4669 0.0000 0.0000
# 5 0.0000 0.0000 0.0000 0.0000 11.2909 0.0000
# 6 0.0000 0.0000 0.0000 0.0000 0.0000 22.9978
#
#
#
# Elastic Compliance Matrix: (Units=1/GPa)
#
#
# Indices 1 2 3 4 5 6 
#
# 1 0.016566 0.000627 -0.010191 0.000000 0.000000 0.000000
# 2 0.000627 0.016583 -0.013857 0.000000 0.000000 0.000000
# 3 -0.010191 -0.013857 0.035347 0.000000 0.000000 0.000000
# 4 0.000000 0.000000 0.000000 0.025338 0.000000 0.000000
# 5 0.000000 0.000000 0.000000 0.000000 0.088567 0.000000
# 6 0.000000 0.000000 0.000000 0.000000 0.000000 0.043482
#
#
# Mechanical properties :
#
#
# Convention : Reuss Voigt Hill
#
# Bulk Modulus (GPa) = 46.17926 48.17793 47.17859
# Shear Modulus (GPa) = 17.86079 23.43791 20.64935
#
# Velocity S-wave (km/s) = 2.90466 3.32740 3.12319
# Velocity P-wave (km/s) = 5.75009 6.12539 5.94071
#
# Compressibility (1/GPa) = 0.02165474
#
# Stress axis : x y z
#
# Youngs Moduli (GPa) = 60.36511 60.30213 28.29085
#
# Poissons Ratio (x) = -0.03782 0.28831
# Poissons Ratio (y) = -0.03786 0.39202
# Poissons Ratio (z) = 0.61519 0.83560
#
# Static dielectric constant tensor:
#      x y z
#    x 1.740650 0.000000 0.000000 
#    y 0.000000 1.871040 0.000000 
#    z 0.000000 0.000000 1.896990 
# 
# From -- ./inp_files/14814.got.cif
#   From: 2010.05.17/outbox.cif.g08.bks.cpg/sg52_8_cif.got.tgz:14814.got - 2010.06.03 12:15:38.
