data_PCOD9409122
_publ_section_title
;
Structure prediction by ZEFSAII (Michael W. Deem and Ramdas Pophale) SiO2 
 PCOD9409122
Probable space group: P N N A
;
_chemical_formula_sum "Si O2"
_cell_formula_units_Z 44
_cell_length_a 10.191161
_cell_length_b 9.743331
_cell_length_c 23.099551
_cell_angle_alpha 90.000000
_cell_angle_beta 90.000000
_cell_angle_gamma 90.000000
_cell_volume 2293.689664
_symmetry_space_group_name_H-M "P N N A"
_symmetry_group_IT_number 52
_symmetry_cell_setting 'orthorhombic'
loop_
_space_group_symop_operation_xyz
x,y,z
1/2-x,-y,z
x,1/2-y,1/2-z
1/2-x,1/2+y,1/2-z
-x,-y,-z
1/2+x,y,-z
-x,1/2+y,1/2+z
1/2+x,1/2-y,1/2+z
loop_
_atom_site_type_symbol
_atom_site_label
_atom_site_fract_x
_atom_site_fract_y
_atom_site_fract_z
Si Si1 0.394485 0.750000 0.250000
Si Si2 0.250000 0.500000 0.425553
Si Si3 0.250000 0.000000 0.314121
Si Si4 0.604984 0.827924 0.020460
Si Si5 0.526376 0.325909 0.630544
Si Si6 0.044237 0.488661 0.093754
Si Si7 0.862361 0.852864 0.480819
O O1 0.306666 0.628165 0.221926
O O2 0.479227 0.675482 0.300232
O O3 0.349129 0.427098 0.469711
O O4 0.333477 0.607495 0.387449
O O5 0.137174 0.945602 0.358009
O O6 0.577504 0.888340 0.084640
O O7 0.721368 0.715845 0.024766
O O8 0.468910 0.762362 0.998553
O O9 0.516647 0.164250 0.615952
O O10 0.916782 0.574664 0.076725
O O11 0.119677 0.460704 0.033356
#
# Coordination Sequence:
#
# PCOD9409122 Si02
#       7
#     4   4   4   8   8   8   8
#     4  10  22  40  56  88 110 166 206 250 292 344
#     4  12  21  38  54  94 120 155 192 244 314 372
#     4  10  19  36  60  82 120 151 208 254 288 342
#     4  11  21  36  55  88 120 155 182 247 298 368
#     4  10  22  36  58  80 118 156 195 247 294 359
#     4   9  18  33  54  86 111 147 185 244 290 355
#     4  10  20  33  57  88 118 147 185 234 309 360
#
# _framework density 19.183064999999999
#
# number of rings (size 3 to 8) (size 9 to 14) (size 15 to 20)
#    0.000    1.818    3.636    2.182    2.545    5.818 
#    0.000    0.000    0.000    5.455    0.000    0.000 
#    0.000    0.000    0.000    0.000    0.000    0.000 
#
# Total GULP energy -245190.001583 kJ/mol
# GULP energy per Si atom -5572.500036 kJ/mol
# Density = 1.913940 g / cm^3
# Si number density = 19.183065 Si / 1000 Ang^3
#
#
#
# Elastic Constant Matrix: (Units=GPa)
#
#
# Indices 1 2 3 4 5 6 
#
# 1 70.9028 16.7598 27.2474 0.0000 0.0000 0.0000
# 2 16.7598 47.9107 22.0402 0.0000 0.0000 0.0000
# 3 27.2474 22.0402 122.2701 0.0000 0.0000 0.0000
# 4 0.0000 0.0000 0.0000 20.6019 0.0000 0.0000
# 5 0.0000 0.0000 0.0000 0.0000 38.6038 0.0000
# 6 0.0000 0.0000 0.0000 0.0000 0.0000 36.9090
#
#
#
# Elastic Compliance Matrix: (Units=1/GPa)
#
#
# Indices 1 2 3 4 5 6 
#
# 1 0.016224 -0.004375 -0.002827 0.000000 0.000000 0.000000
# 2 -0.004375 0.023939 -0.003340 0.000000 0.000000 0.000000
# 3 -0.002827 -0.003340 0.009411 0.000000 0.000000 0.000000
# 4 0.000000 0.000000 0.000000 0.048539 0.000000 0.000000
# 5 0.000000 0.000000 0.000000 0.000000 0.025904 0.000000
# 6 0.000000 0.000000 0.000000 0.000000 0.000000 0.027094
#
#
# Mechanical properties :
#
#
# Convention : Reuss Voigt Hill
#
# Bulk Modulus (GPa) = 35.10025 41.46425 38.28225
# Shear Modulus (GPa) = 27.51906 30.89203 29.20554
#
# Velocity S-wave (km/s) = 3.79165 4.01731 3.90611
# Velocity P-wave (km/s) = 6.12422 6.57117 6.35163
#
# Compressibility (1/GPa) = 0.02848982
#
# Stress axis : x y z
#
# Youngs Moduli (GPa) = 61.63585 41.77248 106.26215
#
# Poissons Ratio (x) = 0.18276 0.30039
# Poissons Ratio (y) = 0.26966 0.35494
# Poissons Ratio (z) = 0.17424 0.13953
#
# Static dielectric constant tensor:
#      x y z
#    x 1.708110 0.000000 0.000000 
#    y 0.000000 1.763890 0.000000 
#    z 0.000000 0.000000 1.726470 
# 
# From -- ./inp_files/39394.got.cif
#   From: 2010.05.17/outbox.cif.g08.bks.cpg/sg52_20_cif.got.tgz:39394.got - 2010.06.03 12:15:38.
