data_PCOD9409028
_publ_section_title
;
Structure prediction by ZEFSAII (Michael W. Deem and Ramdas Pophale) SiO2 
 PCOD9409028
Probable space group: P N N A
;
_chemical_formula_sum "Si O2"
_cell_formula_units_Z 60
_cell_length_a 24.050050
_cell_length_b 7.992936
_cell_length_c 14.406672
_cell_angle_alpha 90.000000
_cell_angle_beta 90.000000
_cell_angle_gamma 90.000000
_cell_volume 2769.401912
_symmetry_space_group_name_H-M "P N N A"
_symmetry_group_IT_number 52
_symmetry_cell_setting 'orthorhombic'
loop_
_space_group_symop_operation_xyz
x,y,z
1/2-x,-y,z
x,1/2-y,1/2-z
1/2-x,1/2+y,1/2-z
-x,-y,-z
1/2+x,y,-z
-x,1/2+y,1/2+z
1/2+x,1/2-y,1/2+z
loop_
_atom_site_type_symbol
_atom_site_label
_atom_site_fract_x
_atom_site_fract_y
_atom_site_fract_z
Si Si1 0.786544 0.649068 0.429250
Si Si2 0.809023 0.446810 0.761798
Si Si3 0.052644 0.256711 0.443511
Si Si4 0.369875 0.908117 0.600558
Si Si5 0.439870 0.291364 0.852240
Si Si6 0.887973 0.750000 0.750000
Si Si7 0.613545 0.935420 0.002507
Si Si8 0.809829 0.151898 0.535750
O O1 0.750000 0.500000 0.383836
O O2 0.826098 0.767258 0.366232
O O3 0.833629 0.557751 0.490047
O O4 0.743877 0.749713 0.496320
O O5 0.750000 0.500000 0.718910
O O6 0.819137 0.250000 0.750000
O O7 0.852333 0.583933 0.729040
O O8 0.804454 0.458043 0.872965
O O9 0.085467 0.170027 0.527965
O O10 0.079491 0.213243 0.344394
O O11 0.063511 0.455215 0.461090
O O12 0.989046 0.201890 0.428705
O O13 0.406181 0.035747 0.660809
O O14 0.329653 0.031694 0.545017
O O15 0.461732 0.250000 0.750000
O O16 0.401627 0.144729 0.897076
O O17 0.638769 0.779650 0.946777
#
# Coordination Sequence:
#
# PCOD9409028 Si02
#       8
#     8   8   8   8   8   4   8   8
#     4   9  18  34  61  91 117 154 208 250 306 387
#     4  12  24  35  52  86 132 176 212 258 314 378
#     4  11  21  41  62  87 122 172 216 259 312 375
#     4  10  20  36  63  89 121 161 207 251 311 390
#     4  11  23  41  63  90 122 163 211 278 333 371
#     4  12  24  40  60  92 136 170 220 266 316 368
#     4   9  21  37  63  89 117 160 212 257 315 388
#     4  10  19  35  58  85 119 158 207 248 310 386
#
# _framework density 21.665327999999999
#
# number of rings (size 3 to 8) (size 9 to 14) (size 15 to 20)
#    0.000    1.600    2.667    2.800    1.867    1.600 
#    0.000    2.667    0.000   24.000    0.000    0.000 
#    0.000    0.000    0.000    0.000    0.000    0.000 
#
# Total GULP energy -334290.163118 kJ/mol
# GULP energy per Si atom -5571.502719 kJ/mol
# Density = 2.161602 g / cm^3
# Si number density = 21.665328 Si / 1000 Ang^3
#
#
#
# Elastic Constant Matrix: (Units=GPa)
#
#
# Indices 1 2 3 4 5 6 
#
# 1 92.8441 36.2916 7.8337 0.0000 0.0000 0.0000
# 2 36.2916 90.9271 -2.3795 0.0000 0.0000 0.0000
# 3 7.8337 -2.3795 40.4055 0.0000 0.0000 0.0000
# 4 0.0000 0.0000 0.0000 12.9086 0.0000 0.0000
# 5 0.0000 0.0000 0.0000 0.0000 40.4398 0.0000
# 6 0.0000 0.0000 0.0000 0.0000 0.0000 33.8652
#
#
#
# Elastic Compliance Matrix: (Units=1/GPa)
#
#
# Indices 1 2 3 4 5 6 
#
# 1 0.013081 -0.005296 -0.002848 0.000000 0.000000 0.000000
# 2 -0.005296 0.013159 0.001802 0.000000 0.000000 0.000000
# 3 -0.002848 0.001802 0.025407 0.000000 0.000000 0.000000
# 4 0.000000 0.000000 0.000000 0.077468 0.000000 0.000000
# 5 0.000000 0.000000 0.000000 0.000000 0.024728 0.000000
# 6 0.000000 0.000000 0.000000 0.000000 0.000000 0.029529
#
#
# Mechanical properties :
#
#
# Convention : Reuss Voigt Hill
#
# Bulk Modulus (GPa) = 25.66529 34.18537 29.92533
# Shear Modulus (GPa) = 23.91849 29.60478 26.76163
#
# Velocity S-wave (km/s) = 3.32625 3.70057 3.51839
# Velocity P-wave (km/s) = 5.15984 5.83713 5.50890
#
# Compressibility (1/GPa) = 0.03896313
#
# Stress axis : x y z
#
# Youngs Moduli (GPa) = 76.44678 75.99617 39.35866
#
# Poissons Ratio (x) = 0.40244 0.11209
# Poissons Ratio (y) = 0.40483 -0.07091
# Poissons Ratio (z) = 0.21772 -0.13691
#
# Static dielectric constant tensor:
#      x y z
#    x 1.851850 0.000000 0.000000 
#    y 0.000000 1.811020 0.000000 
#    z 0.000000 0.000000 1.831010 
# 
# From -- ./inp_files/29194.got.cif
#   From: 2010.05.17/outbox.cif.g08.bks.cpg/sg52_15_cif.got.tgz:29194.got - 2010.06.03 12:15:38.
