data_PCOD9409118
_publ_section_title
;
Structure prediction by ZEFSAII (Michael W. Deem and Ramdas Pophale) SiO2 
 PCOD9409118
Probable space group: P N N A
;
_chemical_formula_sum "Si O2"
_cell_formula_units_Z 56
_cell_length_a 19.375160
_cell_length_b 17.831034
_cell_length_c 9.066381
_cell_angle_alpha 90.000000
_cell_angle_beta 90.000000
_cell_angle_gamma 90.000000
_cell_volume 3132.245481
_symmetry_space_group_name_H-M "P N N A"
_symmetry_group_IT_number 52
_symmetry_cell_setting 'orthorhombic'
loop_
_space_group_symop_operation_xyz
x,y,z
1/2-x,-y,z
x,1/2-y,1/2-z
1/2-x,1/2+y,1/2-z
-x,-y,-z
1/2+x,y,-z
-x,1/2+y,1/2+z
1/2+x,1/2-y,1/2+z
loop_
_atom_site_type_symbol
_atom_site_label
_atom_site_fract_x
_atom_site_fract_y
_atom_site_fract_z
Si Si1 0.172047 0.672185 0.839878
Si Si2 0.919062 0.935126 0.641265
Si Si3 0.177481 0.987348 0.809614
Si Si4 0.562272 0.057532 0.984489
Si Si5 0.460635 0.666530 0.729216
Si Si6 0.674676 0.374741 0.095958
Si Si7 0.057079 0.598016 0.027200
O O1 0.162378 0.750000 0.750000
O O2 0.164982 0.598363 0.735267
O O3 0.251329 0.665867 0.898711
O O4 0.114954 0.655355 0.967049
O O5 0.914747 0.935190 0.816471
O O6 0.861962 0.883623 0.561991
O O7 0.997076 0.911092 0.596002
O O8 0.910898 0.017514 0.568293
O O9 0.250000 0.000000 0.889427
O O10 0.183296 0.042376 0.667737
O O11 0.119618 0.020766 0.912363
O O12 0.542534 0.135529 0.063906
O O13 0.500000 0.000000 0.000000
O O14 0.485740 0.750000 0.750000
O O15 0.384104 0.661997 0.800494
O O16 0.512989 0.618118 0.827490
#
# Coordination Sequence:
#
# PCOD9409118 Si02
#       7
#     8   8   8   8   8   8   8
#     4  11  21  35  60  88 118 155 195 244 311 361
#     4  10  19  36  59  84 110 145 208 248 286 352
#     4   9  19  36  54  79 109 146 196 234 282 357
#     4  11  20  34  58  86 111 153 193 251 296 351
#     4  10  21  37  57  84 120 153 196 240 305 362
#     4   9  19  38  62  79 108 159 205 238 280 368
#     4  10  20  35  55  85 113 150 193 248 293 358
#
# _framework density 17.878547999999999
#
# number of rings (size 3 to 8) (size 9 to 14) (size 15 to 20)
#    0.000    2.000    2.857    1.286    0.000    2.286 
#    2.571    2.143    0.000    1.714    0.000    0.000 
#    0.000    0.000    0.000    0.000    0.000    0.000 
#
# Total GULP energy -312011.818089 kJ/mol
# GULP energy per Si atom -5571.639609 kJ/mol
# Density = 1.783786 g / cm^3
# Si number density = 17.878548 Si / 1000 Ang^3
#
#
#
# Elastic Constant Matrix: (Units=GPa)
#
#
# Indices 1 2 3 4 5 6 
#
# 1 86.7012 5.6343 35.0331 0.0000 0.0000 0.0000
# 2 5.6343 58.5219 9.2269 0.0000 0.0000 0.0000
# 3 35.0331 9.2269 84.8431 0.0000 0.0000 0.0000
# 4 0.0000 0.0000 0.0000 17.7413 0.0000 0.0000
# 5 0.0000 0.0000 0.0000 0.0000 13.1202 0.0000
# 6 0.0000 0.0000 0.0000 0.0000 0.0000 17.4652
#
#
#
# Elastic Compliance Matrix: (Units=1/GPa)
#
#
# Indices 1 2 3 4 5 6 
#
# 1 0.013855 -0.000439 -0.005673 0.000000 0.000000 0.000000
# 2 -0.000439 0.017400 -0.001711 0.000000 0.000000 0.000000
# 3 -0.005673 -0.001711 0.014315 0.000000 0.000000 0.000000
# 4 0.000000 0.000000 0.000000 0.056366 0.000000 0.000000
# 5 0.000000 0.000000 0.000000 0.000000 0.076219 0.000000
# 6 0.000000 0.000000 0.000000 0.000000 0.000000 0.057257
#
#
# Mechanical properties :
#
#
# Convention : Reuss Voigt Hill
#
# Bulk Modulus (GPa) = 33.41931 36.65051 35.03491
# Shear Modulus (GPa) = 19.15480 21.67679 20.41580
#
# Velocity S-wave (km/s) = 3.27675 3.48580 3.38289
# Velocity P-wave (km/s) = 5.74884 6.06179 5.90739
#
# Compressibility (1/GPa) = 0.02992282
#
# Stress axis : x y z
#
# Youngs Moduli (GPa) = 72.17751 57.47236 69.85668
#
# Poissons Ratio (x) = 0.02526 0.39630
# Poissons Ratio (y) = 0.03172 0.11951
# Poissons Ratio (z) = 0.40947 0.09832
#
# Static dielectric constant tensor:
#      x y z
#    x 1.582900 0.000000 0.000000 
#    y 0.000000 1.644050 0.000000 
#    z 0.000000 0.000000 1.611000 
# 
# From -- ./inp_files/13546.got.cif
#   From: 2010.05.17/outbox.cif.g08.bks.cpg/sg52_7_cif.got.tgz:13546.got - 2010.06.03 12:15:38.
