data_PCOD9409346
_publ_section_title
;
Structure prediction by ZEFSAII (Michael W. Deem and Ramdas Pophale) SiO2 
 PCOD9409346
Probable space group: P N N A
;
_chemical_formula_sum "Si O2"
_cell_formula_units_Z 40
_cell_length_a 26.361047
_cell_length_b 7.817975
_cell_length_c 7.452713
_cell_angle_alpha 90.000000
_cell_angle_beta 90.000000
_cell_angle_gamma 90.000000
_cell_volume 1535.929670
_symmetry_space_group_name_H-M "P N N A"
_symmetry_group_IT_number 52
_symmetry_cell_setting 'orthorhombic'
loop_
_space_group_symop_operation_xyz
x,y,z
1/2-x,-y,z
x,1/2-y,1/2-z
1/2-x,1/2+y,1/2-z
-x,-y,-z
1/2+x,y,-z
-x,1/2+y,1/2+z
1/2+x,1/2-y,1/2+z
loop_
_atom_site_type_symbol
_atom_site_label
_atom_site_fract_x
_atom_site_fract_y
_atom_site_fract_z
Si Si1 0.584814 0.489654 0.610142
Si Si2 0.249056 0.750000 0.750000
Si Si3 0.928558 0.617088 0.026004
Si Si4 0.820739 0.011943 0.418767
Si Si5 0.013608 0.750000 0.250000
Si Si6 0.197111 0.943600 0.187117
O O1 0.576493 0.323667 0.490106
O O2 0.548851 0.656193 0.599909
O O3 0.643949 0.531074 0.590233
O O4 0.573741 0.440070 0.818511
O O5 0.290312 0.899969 0.724560
O O6 0.206960 0.694756 0.897709
O O7 0.880257 0.516609 0.107402
O O8 0.978289 0.610679 0.148771
O O9 0.808507 0.951197 0.622520
O O10 0.199206 0.750000 0.250000
O O11 0.250000 0.000000 0.101141
#
# Coordination Sequence:
#
# PCOD9409346 Si02
#       6
#     8   4   8   8   4   8
#     4  10  23  43  67  95 131 172 221 277 330 405
#     4  10  19  40  64  88 142 165 218 264 322 404
#     4  10  23  42  67  93 133 172 218 278 338 395
#     4  10  22  42  60  96 129 177 213 267 328 403
#     4  12  21  44  64  98 126 169 230 274 342 392
#     4  11  23  41  63  95 127 167 217 263 319 393
#
# _framework density 26.042857999999999
#
# number of rings (size 3 to 8) (size 9 to 14) (size 15 to 20)
#    0.000    1.600    3.000    1.800    5.600    0.000 
#   14.400    4.000    0.000    0.000    0.000    0.000 
#    0.000    0.000    0.000    0.000    0.000    0.000 
#
# Total GULP energy -223172.234922 kJ/mol
# GULP energy per Si atom -5579.305873 kJ/mol
# Density = 2.598358 g / cm^3
# Si number density = 26.042858 Si / 1000 Ang^3
#
#
#
# Elastic Constant Matrix: (Units=GPa)
#
#
# Indices 1 2 3 4 5 6 
#
# 1 209.7047 34.2098 24.7800 0.0000 0.0000 0.0000
# 2 34.2098 54.9664 1.1231 0.0000 0.0000 0.0000
# 3 24.7800 1.1231 71.7195 0.0000 0.0000 0.0000
# 4 0.0000 0.0000 0.0000 23.4546 0.0000 0.0000
# 5 0.0000 0.0000 0.0000 0.0000 13.2127 0.0000
# 6 0.0000 0.0000 0.0000 0.0000 0.0000 61.6105
#
#
#
# Elastic Compliance Matrix: (Units=1/GPa)
#
#
# Indices 1 2 3 4 5 6 
#
# 1 0.005546 -0.003413 -0.001863 0.000000 0.000000 0.000000
# 2 -0.003413 0.020300 0.000861 0.000000 0.000000 0.000000
# 3 -0.001863 0.000861 0.014573 0.000000 0.000000 0.000000
# 4 0.000000 0.000000 0.000000 0.042636 0.000000 0.000000
# 5 0.000000 0.000000 0.000000 0.000000 0.075685 0.000000
# 6 0.000000 0.000000 0.000000 0.000000 0.000000 0.016231
#
#
# Mechanical properties :
#
#
# Convention : Reuss Voigt Hill
#
# Bulk Modulus (GPa) = 31.65603 50.73515 41.19559
# Shear Modulus (GPa) = 25.72958 38.07407 31.90182
#
# Velocity S-wave (km/s) = 3.14661 3.82773 3.50376
# Velocity P-wave (km/s) = 5.03818 6.24972 5.67637
#
# Compressibility (1/GPa) = 0.03158956
#
# Stress axis : x y z
#
# Youngs Moduli (GPa) = 180.32512 49.26177 68.61875
#
# Poissons Ratio (x) = 0.16815 0.12781
# Poissons Ratio (y) = 0.61551 -0.05911
# Poissons Ratio (z) = 0.33587 -0.04244
#
# Static dielectric constant tensor:
#      x y z
#    x 2.057440 0.000000 0.000000 
#    y 0.000000 2.133850 0.000000 
#    z 0.000000 0.000000 2.143920 
# 
# From -- ./inp_files/14030.got.cif
#   From: 2010.05.17/outbox.cif.g08.bks.cpg/sg52_8_cif.got.tgz:14030.got - 2010.06.03 12:15:38.
