data_PCOD9409553
_publ_section_title
;
Structure prediction by ZEFSAII (Michael W. Deem and Ramdas Pophale) SiO2 
 PCOD9409553
Probable space group: P N N A
;
_chemical_formula_sum "Si O2"
_cell_formula_units_Z 60
_cell_length_a 5.334734
_cell_length_b 27.270926
_cell_length_c 19.614176
_cell_angle_alpha 90.000000
_cell_angle_beta 90.000000
_cell_angle_gamma 90.000000
_cell_volume 2853.531837
_symmetry_space_group_name_H-M "P N N A"
_symmetry_group_IT_number 52
_symmetry_cell_setting 'orthorhombic'
loop_
_space_group_symop_operation_xyz
x,y,z
1/2-x,-y,z
x,1/2-y,1/2-z
1/2-x,1/2+y,1/2-z
-x,-y,-z
1/2+x,y,-z
-x,1/2+y,1/2+z
1/2+x,1/2-y,1/2+z
loop_
_atom_site_type_symbol
_atom_site_label
_atom_site_fract_x
_atom_site_fract_y
_atom_site_fract_z
Si Si1 0.533612 0.250000 0.750000
Si Si2 0.792469 0.947868 0.259372
Si Si3 0.198187 0.339673 0.806143
Si Si4 0.808973 0.569936 0.680122
Si Si5 0.417954 0.694347 0.540636
Si Si6 0.723053 0.555343 0.526023
Si Si7 0.839149 0.324632 0.680106
Si Si8 0.074567 0.187441 0.540758
O O1 0.385424 0.295782 0.783257
O O2 0.693358 0.273927 0.688668
O O3 0.722948 0.896686 0.296667
O O4 0.578829 0.950909 0.200501
O O5 0.077929 0.942252 0.231411
O O6 0.750000 0.000000 0.297007
O O7 0.978649 0.331811 0.751404
O O8 0.111489 0.332372 0.883201
O O9 0.719617 0.552724 0.606573
O O10 0.838350 0.628558 0.673493
O O11 0.153773 0.681456 0.507261
O O12 0.472791 0.674904 0.616561
O O13 0.420901 0.753532 0.546194
O O14 0.750000 0.500000 0.496252
O O15 0.476072 0.580069 0.498326
O O16 0.811888 0.172928 0.506143
#
# Coordination Sequence:
#
# PCOD9409553 Si02
#       8
#     4   8   8   8   8   8   8   8
#     4  12  22  40  64  92 136 160 222 268 318 390
#     4  11  23  42  66  93 123 161 209 269 328 385
#     4  11  25  41  67  98 130 170 218 268 329 387
#     4  11  23  40  60  90 123 161 213 267 325 374
#     4  10  23  38  58  87 131 178 220 260 315 374
#     4  10  20  34  55  80 111 158 207 256 310 363
#     4  11  25  39  62  93 129 173 218 263 325 376
#     4  10  23  40  63  91 127 166 211 256 321 396
#
# _framework density 21.026575999999999
#
# number of rings (size 3 to 8) (size 9 to 14) (size 15 to 20)
#    0.000    1.333    1.333    4.000    9.333    2.133 
#    0.000    0.000    0.000    0.800    0.000    0.000 
#    0.000    0.000    0.000    0.000    0.000    0.000 
#
# Total GULP energy -335231.013992 kJ/mol
# GULP energy per Si atom -5587.183567 kJ/mol
# Density = 2.097872 g / cm^3
# Si number density = 21.026576 Si / 1000 Ang^3
#
#
#
# Elastic Constant Matrix: (Units=GPa)
#
#
# Indices 1 2 3 4 5 6 
#
# 1 97.2012 32.4624 25.8921 0.0000 0.0000 0.0000
# 2 32.4624 127.4084 25.5991 0.0000 0.0000 0.0000
# 3 25.8921 25.5991 112.0219 0.0000 0.0000 0.0000
# 4 0.0000 0.0000 0.0000 44.6638 0.0000 0.0000
# 5 0.0000 0.0000 0.0000 0.0000 30.6113 0.0000
# 6 0.0000 0.0000 0.0000 0.0000 0.0000 19.8547
#
#
#
# Elastic Compliance Matrix: (Units=1/GPa)
#
#
# Indices 1 2 3 4 5 6 
#
# 1 0.011707 -0.002557 -0.002122 0.000000 0.000000 0.000000
# 2 -0.002557 0.008785 -0.001417 0.000000 0.000000 0.000000
# 3 -0.002122 -0.001417 0.009741 0.000000 0.000000 0.000000
# 4 0.000000 0.000000 0.000000 0.022390 0.000000 0.000000
# 5 0.000000 0.000000 0.000000 0.000000 0.032668 0.000000
# 6 0.000000 0.000000 0.000000 0.000000 0.000000 0.050366
#
#
# Mechanical properties :
#
#
# Convention : Reuss Voigt Hill
#
# Bulk Modulus (GPa) = 55.42287 56.05985 55.74136
# Shear Modulus (GPa) = 32.49714 35.87113 34.18414
#
# Velocity S-wave (km/s) = 3.93558 4.13484 4.03644
# Velocity P-wave (km/s) = 6.86057 7.03671 6.94920
#
# Compressibility (1/GPa) = 0.01804309
#
# Stress axis : x y z
#
# Youngs Moduli (GPa) = 85.41964 113.83333 102.65958
#
# Poissons Ratio (x) = 0.29102 0.21781
# Poissons Ratio (y) = 0.21838 0.14543
# Poissons Ratio (z) = 0.18123 0.16125
#
# Static dielectric constant tensor:
#      x y z
#    x 1.807640 0.000000 0.000000 
#    y 0.000000 1.839900 0.000000 
#    z 0.000000 0.000000 1.710810 
# 
# From -- ./inp_files/30382.got.cif
#   From: 2010.05.17/outbox.cif.g08.bks.cpg/sg52_16_cif.got.tgz:30382.got - 2010.06.03 12:15:38.
