data_PCOD9409422
_publ_section_title
;
Structure prediction by ZEFSAII (Michael W. Deem and Ramdas Pophale) SiO2 
 PCOD9409422
Probable space group: P N N A
;
_chemical_formula_sum "Si O2"
_cell_formula_units_Z 48
_cell_length_a 12.294436
_cell_length_b 5.163270
_cell_length_c 28.604769
_cell_angle_alpha 90.000000
_cell_angle_beta 90.000000
_cell_angle_gamma 90.000000
_cell_volume 1815.816221
_symmetry_space_group_name_H-M "P N N A"
_symmetry_group_IT_number 52
_symmetry_cell_setting 'orthorhombic'
loop_
_space_group_symop_operation_xyz
x,y,z
1/2-x,-y,z
x,1/2-y,1/2-z
1/2-x,1/2+y,1/2-z
-x,-y,-z
1/2+x,y,-z
-x,1/2+y,1/2+z
1/2+x,1/2-y,1/2+z
loop_
_atom_site_type_symbol
_atom_site_label
_atom_site_fract_x
_atom_site_fract_y
_atom_site_fract_z
Si Si1 0.126398 0.974317 0.784074
Si Si2 0.133542 0.704943 0.978930
Si Si3 0.398544 0.855024 0.361076
Si Si4 0.378151 0.697343 0.463463
Si Si5 0.347880 0.321989 0.875322
Si Si6 0.901497 0.331477 0.699260
O O1 0.078039 0.750000 0.750000
O O2 0.144169 0.898220 0.837483
O O3 0.250000 0.000000 0.765237
O O4 0.032966 0.187449 0.792504
O O5 0.184200 0.748327 0.928088
O O6 0.008385 0.771139 0.966614
O O7 0.151022 0.414583 0.997901
O O8 0.152743 0.908488 0.020532
O O9 0.347882 0.770589 0.410610
O O10 0.526779 0.918320 0.373464
O O11 0.387550 0.617564 0.323687
O O12 0.361136 0.120909 0.337741
O O13 0.250000 0.500000 0.857678
O O14 0.854226 0.250000 0.750000
#
# Coordination Sequence:
#
# PCOD9409422 Si02
#       6
#     8   8   8   8   8   8
#     4  11  21  32  46  62  88 126 169 207 243 282
#     4   9  18  30  48  66  87 111 145 198 241 281
#     4  10  20  32  50  67  90 123 157 197 236 281
#     4   9  17  32  48  67  85 111 152 190 235 284
#     4  10  20  32  46  68  92 120 158 203 248 284
#     4  11  20  32  46  67  92 119 155 196 239 280
#
# _framework density 26.434396
#
# number of rings (size 3 to 8) (size 9 to 14) (size 15 to 20)
#    0.000    2.000    0.000    5.500    0.000    9.333 
#    0.000    0.000    0.000    0.000    0.000    0.000 
#    0.000    0.000    0.000    0.000    0.000   46.667 
#
# Total GULP energy -267959.230117 kJ/mol
# GULP energy per Si atom -5582.483961 kJ/mol
# Density = 2.637423 g / cm^3
# Si number density = 26.434396 Si / 1000 Ang^3
#
#
#
# Elastic Constant Matrix: (Units=GPa)
#
#
# Indices 1 2 3 4 5 6 
#
# 1 50.4139 -9.0323 -9.3451 0.0000 0.0000 0.0000
# 2 -9.0323 133.1338 68.6026 0.0000 0.0000 0.0000
# 3 -9.3451 68.6026 211.1445 0.0000 0.0000 0.0000
# 4 0.0000 0.0000 0.0000 79.6981 0.0000 0.0000
# 5 0.0000 0.0000 0.0000 0.0000 28.7363 0.0000
# 6 0.0000 0.0000 0.0000 0.0000 0.0000 29.1687
#
#
#
# Elastic Compliance Matrix: (Units=1/GPa)
#
#
# Indices 1 2 3 4 5 6 
#
# 1 0.020130 0.001089 0.000537 0.000000 0.000000 0.000000
# 2 0.001089 0.009081 -0.002902 0.000000 0.000000 0.000000
# 3 0.000537 -0.002902 0.005703 0.000000 0.000000 0.000000
# 4 0.000000 0.000000 0.000000 0.012547 0.000000 0.000000
# 5 0.000000 0.000000 0.000000 0.000000 0.034799 0.000000
# 6 0.000000 0.000000 0.000000 0.000000 0.000000 0.034283
#
#
# Mechanical properties :
#
#
# Convention : Reuss Voigt Hill
#
# Bulk Modulus (GPa) = 30.90072 55.01583 42.95828
# Shear Modulus (GPa) = 38.49616 50.48508 44.49062
#
# Velocity S-wave (km/s) = 3.82028 4.37490 4.10696
# Velocity P-wave (km/s) = 5.58340 6.81007 6.22701
#
# Compressibility (1/GPa) = 0.03236170
#
# Stress axis : x y z
#
# Youngs Moduli (GPa) = 49.67597 110.12521 175.35240
#
# Poissons Ratio (x) = -0.11992 -0.09419
# Poissons Ratio (y) = -0.05409 0.50890
# Poissons Ratio (z) = -0.02668 0.31960
#
# Static dielectric constant tensor:
#      x y z
#    x 2.297600 0.000000 0.000000 
#    y 0.000000 2.036480 0.000000 
#    z 0.000000 0.000000 1.674360 
# 
# From -- ./inp_files/42991.got.cif
#   From: 2010.05.17/outbox.cif.g08.bks.cpg/sg52_22_cif.got.tgz:42991.got - 2010.06.03 12:15:38.
