data_PCOD9409899
_publ_section_title
;
Structure prediction by ZEFSAII (Michael W. Deem and Ramdas Pophale) SiO2 
 PCOD9409899
Probable space group: P N N A
;
_chemical_formula_sum "Si O2"
_cell_formula_units_Z 64
_cell_length_a 13.347753
_cell_length_b 27.341753
_cell_length_c 8.031746
_cell_angle_alpha 90.000000
_cell_angle_beta 90.000000
_cell_angle_gamma 90.000000
_cell_volume 2931.193458
_symmetry_space_group_name_H-M "P N N A"
_symmetry_group_IT_number 52
_symmetry_cell_setting 'orthorhombic'
loop_
_space_group_symop_operation_xyz
x,y,z
1/2-x,-y,z
x,1/2-y,1/2-z
1/2-x,1/2+y,1/2-z
-x,-y,-z
1/2+x,y,-z
-x,1/2+y,1/2+z
1/2+x,1/2-y,1/2+z
loop_
_atom_site_type_symbol
_atom_site_label
_atom_site_fract_x
_atom_site_fract_y
_atom_site_fract_z
Si Si1 0.327291 0.400024 0.676032
Si Si2 0.000788 0.531828 0.235068
Si Si3 0.657341 0.531388 0.022538
Si Si4 0.813550 0.640393 0.586143
Si Si5 0.139974 0.807391 0.294108
Si Si6 0.458789 0.936257 0.080952
Si Si7 0.706235 0.804171 0.330073
Si Si8 0.082552 0.192325 0.785488
O O1 0.303040 0.428580 0.846106
O O2 0.243786 0.397386 0.535752
O O3 0.425283 0.425301 0.608309
O O4 0.348192 0.343060 0.712734
O O5 0.058664 0.488506 0.335005
O O6 0.915573 0.506130 0.122848
O O7 0.949347 0.562800 0.380711
O O8 0.084797 0.555041 0.116046
O O9 0.750000 0.500000 0.955027
O O10 0.730345 0.665622 0.699027
O O11 0.895397 0.605820 0.670328
O O12 0.873872 0.678636 0.467911
O O13 0.145241 0.750000 0.250000
O O14 0.158238 0.808344 0.490578
O O15 0.029351 0.827193 0.244946
O O16 0.702334 0.750000 0.250000
O O17 0.823027 0.821682 0.331699
O O18 0.072768 0.250000 0.750000
#
# Coordination Sequence:
#
# PCOD9409899 Si02
#       8
#     8   8   8   8   8   8   8   8
#     4  10  22  37  57  85 119 159 201 252 312 370
#     4   9  21  39  60  83 116 156 196 246 307 381
#     4  10  20  37  60  88 118 153 198 250 311 373
#     4  11  22  37  60  89 122 159 207 261 310 371
#     4  11  22  38  64  91 118 164 213 252 312 376
#     4  10  21  39  59  85 117 153 200 254 310 369
#     4  10  22  42  61  86 128 166 206 260 312 372
#     4   9  20  39  58  83 123 161 199 254 306 359
#
# _framework density 21.834112000000001
#
# number of rings (size 3 to 8) (size 9 to 14) (size 15 to 20)
#    0.000    2.000    0.000    3.750    0.000    6.000 
#    0.000    7.500    0.000    0.750    0.000    0.000 
#    0.000    0.000    0.000    0.000    0.000    0.000 
#
# Total GULP energy -357115.698004 kJ/mol
# GULP energy per Si atom -5579.932781 kJ/mol
# Density = 2.178442 g / cm^3
# Si number density = 21.834112 Si / 1000 Ang^3
#
#
#
# Elastic Constant Matrix: (Units=GPa)
#
#
# Indices 1 2 3 4 5 6 
#
# 1 76.5057 21.1474 34.0007 0.0000 0.0000 0.0000
# 2 21.1474 50.7534 -8.2750 0.0000 0.0000 0.0000
# 3 34.0007 -8.2750 54.7359 0.0000 0.0000 0.0000
# 4 0.0000 0.0000 0.0000 29.4403 0.0000 0.0000
# 5 0.0000 0.0000 0.0000 0.0000 -19.2303 0.0000
# 6 0.0000 0.0000 0.0000 0.0000 0.0000 33.5648
#
#
#
# Elastic Compliance Matrix: (Units=1/GPa)
#
#
# Indices 1 2 3 4 5 6 
#
# 1 0.024140 -0.012819 -0.016933 0.000000 0.000000 0.000000
# 2 -0.012819 0.027008 0.012046 0.000000 0.000000 0.000000
# 3 -0.016933 0.012046 0.030609 0.000000 0.000000 0.000000
# 4 0.000000 0.000000 0.000000 0.033967 0.000000 0.000000
# 5 0.000000 0.000000 0.000000 0.000000 -0.052001 0.000000
# 6 0.000000 0.000000 0.000000 0.000000 0.000000 0.029793
#
#
# Mechanical properties :
#
#
# Convention : Reuss Voigt Hill
#
# Bulk Modulus (GPa) = 21.57721 30.63790 26.10755
# Shear Modulus (GPa) = 34.63162 17.76308 26.19735
#
# Velocity S-wave (km/s) = 3.98694 2.85537 3.46762
# Velocity P-wave (km/s) = 5.57656 4.99334 5.29299
#
# Compressibility (1/GPa) = 0.04634520
#
# Stress axis : x y z
#
# Youngs Moduli (GPa) = 41.42555 37.02544 32.67001
#
# Poissons Ratio (x) = 0.47463 0.55320
# Poissons Ratio (y) = 0.53104 -0.39355
# Poissons Ratio (z) = 0.70146 -0.44601
#
# Static dielectric constant tensor:
#      x y z
#    x 1.824120 0.000000 0.000000 
#    y 0.000000 1.840550 0.000000 
#    z 0.000000 0.000000 1.763860 
# 
# From -- ./inp_files/9126.got.cif
#   From: 2010.05.17/outbox.cif.g08.bks.cpg/sg52_5_cif.got.tgz:9126.got - 2010.06.03 12:15:38.
