data_PCOD9409099
_publ_section_title
;
Structure prediction by ZEFSAII (Michael W. Deem and Ramdas Pophale) SiO2 
 PCOD9409099
Probable space group: P N N A
;
_chemical_formula_sum "Si O2"
_cell_formula_units_Z 48
_cell_length_a 8.985969
_cell_length_b 32.942120
_cell_length_c 9.263249
_cell_angle_alpha 90.000000
_cell_angle_beta 90.000000
_cell_angle_gamma 90.000000
_cell_volume 2742.077967
_symmetry_space_group_name_H-M "P N N A"
_symmetry_group_IT_number 52
_symmetry_cell_setting 'orthorhombic'
loop_
_space_group_symop_operation_xyz
x,y,z
1/2-x,-y,z
x,1/2-y,1/2-z
1/2-x,1/2+y,1/2-z
-x,-y,-z
1/2+x,y,-z
-x,1/2+y,1/2+z
1/2+x,1/2-y,1/2+z
loop_
_atom_site_type_symbol
_atom_site_label
_atom_site_fract_x
_atom_site_fract_y
_atom_site_fract_z
Si Si1 0.783993 0.293612 0.177844
Si Si2 0.617342 0.115439 0.832476
Si Si3 0.913004 0.669896 0.930586
Si Si4 0.753536 0.451940 0.853145
Si Si5 0.236936 0.872753 0.858728
Si Si6 0.427443 0.588254 0.890744
O O1 0.767042 0.250000 0.250000
O O2 0.743209 0.327571 0.296009
O O3 0.951488 0.303668 0.128488
O O4 0.687184 0.303041 0.035395
O O5 0.661381 0.148450 0.708951
O O6 0.665806 0.071863 0.771829
O O7 0.438898 0.117601 0.850505
O O8 0.699719 0.123910 0.981379
O O9 0.964318 0.630646 0.025509
O O10 0.750000 0.500000 0.836840
O O11 0.920963 0.434813 0.855834
O O12 0.672632 0.438201 0.000757
O O13 0.330860 0.900923 0.749670
#
# Coordination Sequence:
#
# PCOD9409099 Si02
#       6
#     8   8   8   8   8   8
#     4  10  21  36  56  84 111 139 182 230 270 315
#     4  10  20  37  57  79 109 147 185 220 271 335
#     4   9  19  37  57  77 108 147 180 215 267 331
#     4  11  21  35  56  84 110 141 183 231 274 319
#     4  10  21  37  58  81 108 147 186 221 272 334
#     4  10  19  36  58  79 108 145 184 221 270 334
#
# _framework density 17.504971999999999
#
# number of rings (size 3 to 8) (size 9 to 14) (size 15 to 20)
#    0.000    2.000    0.000    6.500    0.000    4.000 
#    0.000    5.000    0.000    0.000    0.000    0.000 
#    0.000    0.000    0.000    0.000    0.000    0.000 
#
# Total GULP energy -267897.268541 kJ/mol
# GULP energy per Si atom -5581.193095 kJ/mol
# Density = 1.746513 g / cm^3
# Si number density = 17.504972 Si / 1000 Ang^3
#
#
#
# Elastic Constant Matrix: (Units=GPa)
#
#
# Indices 1 2 3 4 5 6 
#
# 1 94.0180 72.8006 61.4550 0.0000 0.0000 0.0000
# 2 72.8006 121.1401 78.5904 0.0000 0.0000 0.0000
# 3 61.4550 78.5904 158.1344 0.0000 0.0000 0.0000
# 4 0.0000 0.0000 0.0000 14.2935 0.0000 0.0000
# 5 0.0000 0.0000 0.0000 0.0000 32.2107 0.0000
# 6 0.0000 0.0000 0.0000 0.0000 0.0000 6.9981
#
#
#
# Elastic Compliance Matrix: (Units=1/GPa)
#
#
# Indices 1 2 3 4 5 6 
#
# 1 0.020670 -0.010642 -0.002744 0.000000 0.000000 0.000000
# 2 -0.010642 0.017662 -0.004642 0.000000 0.000000 0.000000
# 3 -0.002744 -0.004642 0.009697 0.000000 0.000000 0.000000
# 4 0.000000 0.000000 0.000000 0.069962 0.000000 0.000000
# 5 0.000000 0.000000 0.000000 0.000000 0.031046 0.000000
# 6 0.000000 0.000000 0.000000 0.000000 0.000000 0.142896
#
#
# Mechanical properties :
#
#
# Convention : Reuss Voigt Hill
#
# Bulk Modulus (GPa) = 83.51885 88.77606 86.14745
# Shear Modulus (GPa) = 15.06119 21.39689 18.22904
#
# Velocity S-wave (km/s) = 2.93643 3.49998 3.23052
# Velocity P-wave (km/s) = 7.70142 8.19500 7.95204
#
# Compressibility (1/GPa) = 0.01197335
#
# Stress axis : x y z
#
# Youngs Moduli (GPa) = 48.37904 56.61990 103.12276
#
# Poissons Ratio (x) = 0.60253 0.28299
# Poissons Ratio (y) = 0.51483 0.47869
# Poissons Ratio (z) = 0.13276 0.26283
#
# Static dielectric constant tensor:
#      x y z
#    x 1.595160 0.000000 0.000000 
#    y 0.000000 1.572980 0.000000 
#    z 0.000000 0.000000 1.589490 
# 
# From -- ./inp_files/7670.got.cif
#   From: 2010.05.17/outbox.cif.g08.bks.cpg/sg52_4_cif.got.tgz:7670.got - 2010.06.03 12:15:38.
