data_PCOD9409545
_publ_section_title
;
Structure prediction by ZEFSAII (Michael W. Deem and Ramdas Pophale) SiO2 
 PCOD9409545
Probable space group: P N N A
;
_chemical_formula_sum "Si O2"
_cell_formula_units_Z 48
_cell_length_a 8.927761
_cell_length_b 19.978030
_cell_length_c 12.721456
_cell_angle_alpha 90.000000
_cell_angle_beta 90.000000
_cell_angle_gamma 90.000000
_cell_volume 2268.987151
_symmetry_space_group_name_H-M "P N N A"
_symmetry_group_IT_number 52
_symmetry_cell_setting 'orthorhombic'
loop_
_space_group_symop_operation_xyz
x,y,z
1/2-x,-y,z
x,1/2-y,1/2-z
1/2-x,1/2+y,1/2-z
-x,-y,-z
1/2+x,y,-z
-x,1/2+y,1/2+z
1/2+x,1/2-y,1/2+z
loop_
_atom_site_type_symbol
_atom_site_label
_atom_site_fract_x
_atom_site_fract_y
_atom_site_fract_z
Si Si1 0.028599 0.936075 0.924741
Si Si2 0.727206 0.340511 0.500286
Si Si3 0.032799 0.397540 0.854720
Si Si4 0.991932 0.194274 0.839311
Si Si5 0.413329 0.967570 0.297638
Si Si6 0.245712 0.083257 0.476915
O O1 0.909140 0.877091 0.942858
O O2 0.003936 0.952862 0.805116
O O3 0.186546 0.902343 0.946409
O O4 0.000000 0.000000 0.000000
O O5 0.640749 0.297112 0.411532
O O6 0.847366 0.310652 0.583514
O O7 0.012218 0.477013 0.853706
O O8 0.892952 0.380846 0.931366
O O9 0.012367 0.370904 0.736441
O O10 0.185546 0.384750 0.916357
O O11 0.975046 0.250000 0.750000
O O12 0.373425 0.910339 0.380646
O O13 0.250000 0.000000 0.267317
O O14 0.250000 0.000000 0.485383
#
# Coordination Sequence:
#
# PCOD9409545 Si02
#       6
#     8   8   8   8   8   8
#     4  11  19  33  59  92 127 164 196 242 317 395
#     4  10  23  41  60  90 123 152 205 262 304 375
#     4  10  20  34  54  81 115 152 195 241 294 357
#     4  11  25  45  64  83 115 159 207 265 313 352
#     4   9  16  29  50  81 121 159 190 235 299 367
#     4   9  18  32  51  81 119 152 187 235 288 364
#
# _framework density 21.154814999999999
#
# number of rings (size 3 to 8) (size 9 to 14) (size 15 to 20)
#    0.000    2.333    0.000    7.500    0.000    4.000 
#    0.000    3.333    0.000    0.000    0.000    0.000 
#    0.000    0.000    0.000    0.000    0.000    0.000 
#
# Total GULP energy -267212.362784 kJ/mol
# GULP energy per Si atom -5566.924225 kJ/mol
# Density = 2.110667 g / cm^3
# Si number density = 21.154815 Si / 1000 Ang^3
#
#
#
# Elastic Constant Matrix: (Units=GPa)
#
#
# Indices 1 2 3 4 5 6 
#
# 1 67.5144 5.5929 50.0511 0.0000 0.0000 0.0000
# 2 5.5929 25.4454 15.2118 0.0000 0.0000 0.0000
# 3 50.0511 15.2118 116.6254 0.0000 0.0000 0.0000
# 4 0.0000 0.0000 0.0000 27.3964 0.0000 0.0000
# 5 0.0000 0.0000 0.0000 0.0000 36.5621 0.0000
# 6 0.0000 0.0000 0.0000 0.0000 0.0000 6.8872
#
#
#
# Elastic Compliance Matrix: (Units=1/GPa)
#
#
# Indices 1 2 3 4 5 6 
#
# 1 0.021740 0.000867 -0.009443 0.000000 0.000000 0.000000
# 2 0.000867 0.042658 -0.005936 0.000000 0.000000 0.000000
# 3 -0.009443 -0.005936 0.013401 0.000000 0.000000 0.000000
# 4 0.000000 0.000000 0.000000 0.036501 0.000000 0.000000
# 5 0.000000 0.000000 0.000000 0.000000 0.027351 0.000000
# 6 0.000000 0.000000 0.000000 0.000000 0.000000 0.145197
#
#
# Mechanical properties :
#
#
# Convention : Reuss Voigt Hill
#
# Bulk Modulus (GPa) = 20.50229 39.03297 29.76763
# Shear Modulus (GPa) = 15.05427 23.41777 19.23602
#
# Velocity S-wave (km/s) = 2.67052 3.33073 3.01873
# Velocity P-wave (km/s) = 4.38423 5.76913 5.12369
#
# Compressibility (1/GPa) = 0.04877504
#
# Stress axis : x y z
#
# Youngs Moduli (GPa) = 45.99712 23.44223 74.61920
#
# Poissons Ratio (x) = -0.02032 0.70465
# Poissons Ratio (y) = -0.03987 0.44294
# Poissons Ratio (z) = 0.43436 0.13915
#
# Static dielectric constant tensor:
#      x y z
#    x 1.969490 0.000000 0.000000 
#    y 0.000000 1.757900 0.000000 
#    z 0.000000 0.000000 1.874300 
# 
# From -- ./inp_files/16954.got.cif
#   From: 2010.05.17/outbox.cif.g08.bks.cpg/sg52_9_cif.got.tgz:16954.got - 2010.06.03 12:15:38.
