data_PCOD9409251
_publ_section_title
;
Structure prediction by ZEFSAII (Michael W. Deem and Ramdas Pophale) SiO2 
 PCOD9409251
Probable space group: P N N A
;
_chemical_formula_sum "Si O2"
_cell_formula_units_Z 40
_cell_length_a 8.795105
_cell_length_b 14.070729
_cell_length_c 16.235915
_cell_angle_alpha 90.000000
_cell_angle_beta 90.000000
_cell_angle_gamma 90.000000
_cell_volume 2009.251940
_symmetry_space_group_name_H-M "P N N A"
_symmetry_group_IT_number 52
_symmetry_cell_setting 'orthorhombic'
loop_
_space_group_symop_operation_xyz
x,y,z
1/2-x,-y,z
x,1/2-y,1/2-z
1/2-x,1/2+y,1/2-z
-x,-y,-z
1/2+x,y,-z
-x,1/2+y,1/2+z
1/2+x,1/2-y,1/2+z
loop_
_atom_site_type_symbol
_atom_site_label
_atom_site_fract_x
_atom_site_fract_y
_atom_site_fract_z
Si Si1 0.436945 0.297241 0.665214
Si Si2 0.641576 0.407021 0.285929
Si Si3 0.120441 0.625974 0.951148
Si Si4 0.956004 0.919375 0.394927
Si Si5 0.069083 0.009723 0.091178
O O1 0.495520 0.250000 0.750000
O O2 0.262736 0.329066 0.684842
O O3 0.436925 0.219425 0.593835
O O4 0.524173 0.390275 0.633788
O O5 0.750000 0.500000 0.272245
O O6 0.556652 0.390623 0.199758
O O7 0.517165 0.431051 0.354156
O O8 0.043268 0.533628 0.907835
O O9 0.298378 0.614498 0.935311
O O10 0.086517 0.622697 0.047900
O O11 0.250000 0.000000 0.088770
O O12 0.000000 0.000000 0.000000
#
# Coordination Sequence:
#
# PCOD9409251 Si02
#       5
#     8   8   8   8   8
#     4  11  21  41  71  95 128 176 234 277 330 405
#     4  10  19  40  68  89 127 175 217 270 339 406
#     4  10  20  35  60  91 126 165 211 268 317 404
#     4  10  19  38  57  93 131 168 208 260 346 387
#     4  11  25  46  70  98 135 181 226 284 350 408
#
# _framework density 19.907907000000002
#
# number of rings (size 3 to 8) (size 9 to 14) (size 15 to 20)
#    0.000    1.600    4.000    3.000    0.000    3.200 
#   10.800    1.000    0.000    0.000    0.000    0.000 
#    0.000    0.000    0.000    0.000    0.000    0.000 
#
# Total GULP energy -223431.474778 kJ/mol
# GULP energy per Si atom -5585.786869 kJ/mol
# Density = 1.986260 g / cm^3
# Si number density = 19.907907 Si / 1000 Ang^3
#
#
#
# Elastic Constant Matrix: (Units=GPa)
#
#
# Indices 1 2 3 4 5 6 
#
# 1 85.9478 39.7272 85.6941 0.0000 0.0000 0.0000
# 2 39.7272 68.7239 26.8476 0.0000 0.0000 0.0000
# 3 85.6941 26.8476 177.3618 0.0000 0.0000 0.0000
# 4 0.0000 0.0000 0.0000 32.1949 0.0000 0.0000
# 5 0.0000 0.0000 0.0000 0.0000 40.2332 0.0000
# 6 0.0000 0.0000 0.0000 0.0000 0.0000 -7.0016
#
#
#
# Elastic Compliance Matrix: (Units=1/GPa)
#
#
# Indices 1 2 3 4 5 6 
#
# 1 0.029875 -0.012362 -0.012563 0.000000 0.000000 0.000000
# 2 -0.012362 0.020581 0.002857 0.000000 0.000000 0.000000
# 3 -0.012563 0.002857 0.011276 0.000000 0.000000 0.000000
# 4 0.000000 0.000000 0.000000 0.031061 0.000000 0.000000
# 5 0.000000 0.000000 0.000000 0.000000 0.024855 0.000000
# 6 0.000000 0.000000 0.000000 0.000000 0.000000 -0.142825
#
#
# Mechanical properties :
#
#
# Convention : Reuss Voigt Hill
#
# Bulk Modulus (GPa) = 56.83065 70.73015 63.78040
# Shear Modulus (GPa) = 201.42364 25.06961 113.24662
#
# Velocity S-wave (km/s) = 10.06963 3.55248 7.55041
# Velocity P-wave (km/s) = 12.79864 7.24104 10.39803
#
# Compressibility (1/GPa) = 0.01759614
#
# Stress axis : x y z
#
# Youngs Moduli (GPa) = 33.47268 48.58898 88.68636
#
# Poissons Ratio (x) = 0.60066 1.11418
# Poissons Ratio (y) = 0.41379 -0.25342
# Poissons Ratio (z) = 0.42052 -0.13884
#
# Static dielectric constant tensor:
#      x y z
#    x 1.680500 0.000000 0.000000 
#    y 0.000000 1.658520 0.000000 
#    z 0.000000 0.000000 1.711990 
# 
# From -- ./inp_files/24446.got.cif
#   From: 2010.05.17/outbox.cif.g08.bks.cpg/sg52_13_cif.got.tgz:24446.got - 2010.06.03 12:15:38.
