data_PCOD9409136
_publ_section_title
;
Structure prediction by ZEFSAII (Michael W. Deem and Ramdas Pophale) SiO2 
 PCOD9409136
Probable space group: P N N A
;
_chemical_formula_sum "Si O2"
_cell_formula_units_Z 52
_cell_length_a 14.649237
_cell_length_b 17.755624
_cell_length_c 10.683576
_cell_angle_alpha 90.000000
_cell_angle_beta 90.000000
_cell_angle_gamma 90.000000
_cell_volume 2778.865895
_symmetry_space_group_name_H-M "P N N A"
_symmetry_group_IT_number 52
_symmetry_cell_setting 'orthorhombic'
loop_
_space_group_symop_operation_xyz
x,y,z
1/2-x,-y,z
x,1/2-y,1/2-z
1/2-x,1/2+y,1/2-z
-x,-y,-z
1/2+x,y,-z
-x,1/2+y,1/2+z
1/2+x,1/2-y,1/2+z
loop_
_atom_site_type_symbol
_atom_site_label
_atom_site_fract_x
_atom_site_fract_y
_atom_site_fract_z
Si Si1 0.939932 0.731678 0.895878
Si Si2 0.927241 0.021657 0.833842
Si Si3 0.561651 0.473392 0.117845
Si Si4 0.038348 0.878072 0.938471
Si Si5 0.250000 0.000000 0.329428
Si Si6 0.286595 0.864261 0.515329
Si Si7 0.884918 0.361593 0.174619
O O1 0.925390 0.750000 0.750000
O O2 0.846187 0.699626 0.948875
O O3 0.976036 0.805754 0.966748
O O4 0.024175 0.672058 0.891357
O O5 0.837629 0.999102 0.758859
O O6 0.996905 0.052710 0.729899
O O7 0.913453 0.082679 0.943517
O O8 0.973707 0.945287 0.886354
O O9 0.613411 0.548708 0.159369
O O10 0.500000 0.500000 0.000000
O O11 0.636311 0.411817 0.087161
O O12 0.102683 0.849786 0.823786
O O13 0.247529 0.925222 0.415552
O O14 0.206260 0.835177 0.605214
#
# Coordination Sequence:
#
# PCOD9409136 Si02
#       7
#     8   8   8   8   4   8   8
#     4  10  21  40  61  84 125 169 199 248 316 374
#     4  10  21  39  64  85 120 160 202 255 309 360
#     4  11  17  35  60  86 119 151 199 253 295 353
#     4   9  21  44  59  83 122 170 200 246 312 377
#     4  12  20  34  60 100 118 146 208 262 304 368
#     4  12  21  35  65  95 118 155 211 256 303 364
#     4  10  19  36  61  88 118 160 200 250 306 360
#
# _framework density 18.712669999999999
#
# number of rings (size 3 to 8) (size 9 to 14) (size 15 to 20)
#    0.000    1.538    4.615    1.846    0.000    0.000 
#   13.846    3.846    0.000    0.000    0.000    0.000 
#    0.000    0.000    0.000    0.000    0.000    0.000 
#
# Total GULP energy -290062.191929 kJ/mol
# GULP energy per Si atom -5578.119076 kJ/mol
# Density = 1.867008 g / cm^3
# Si number density = 18.712670 Si / 1000 Ang^3
#
#
#
# Elastic Constant Matrix: (Units=GPa)
#
#
# Indices 1 2 3 4 5 6 
#
# 1 99.5238 10.0373 44.8317 0.0000 0.0000 0.0000
# 2 10.0373 55.3965 19.9438 0.0000 0.0000 0.0000
# 3 44.8317 19.9438 76.5290 0.0000 0.0000 0.0000
# 4 0.0000 0.0000 0.0000 24.4354 0.0000 0.0000
# 5 0.0000 0.0000 0.0000 0.0000 26.1547 0.0000
# 6 0.0000 0.0000 0.0000 0.0000 0.0000 25.0204
#
#
#
# Elastic Compliance Matrix: (Units=1/GPa)
#
#
# Indices 1 2 3 4 5 6 
#
# 1 0.013660 0.000448 -0.008119 0.000000 0.000000 0.000000
# 2 0.000448 0.019935 -0.005458 0.000000 0.000000 0.000000
# 3 -0.008119 -0.005458 0.019245 0.000000 0.000000 0.000000
# 4 0.000000 0.000000 0.000000 0.040924 0.000000 0.000000
# 5 0.000000 0.000000 0.000000 0.000000 0.038234 0.000000
# 6 0.000000 0.000000 0.000000 0.000000 0.000000 0.039967
#
#
# Mechanical properties :
#
#
# Convention : Reuss Voigt Hill
#
# Bulk Modulus (GPa) = 37.61740 42.34167 39.97953
# Shear Modulus (GPa) = 24.14470 25.56453 24.85462
#
# Velocity S-wave (km/s) = 3.59595 3.70017 3.64843
# Velocity P-wave (km/s) = 6.11453 6.39777 6.25775
#
# Compressibility (1/GPa) = 0.02658344
#
# Stress axis : x y z
#
# Youngs Moduli (GPa) = 73.20678 50.16208 51.96052
#
# Poissons Ratio (x) = -0.02247 0.42186
# Poissons Ratio (y) = -0.03279 0.28358
# Poissons Ratio (z) = 0.59436 0.27377
#
# Static dielectric constant tensor:
#      x y z
#    x 1.656680 0.000000 0.000000 
#    y 0.000000 1.668630 0.000000 
#    z 0.000000 0.000000 1.678520 
# 
# From -- ./inp_files/19790.got.cif
#   From: 2010.05.17/outbox.cif.g08.bks.cpg/sg52_10_cif.got.tgz:19790.got - 2010.06.03 12:15:38.
