data_PCOD9409197
_publ_section_title
;
Structure prediction by ZEFSAII (Michael W. Deem and Ramdas Pophale) SiO2 
 PCOD9409197
Probable space group: P N N A
;
_chemical_formula_sum "Si O2"
_cell_formula_units_Z 60
_cell_length_a 27.661294
_cell_length_b 19.193404
_cell_length_c 5.468190
_cell_angle_alpha 90.000000
_cell_angle_beta 90.000000
_cell_angle_gamma 90.000000
_cell_volume 2903.140763
_symmetry_space_group_name_H-M "P N N A"
_symmetry_group_IT_number 52
_symmetry_cell_setting 'orthorhombic'
loop_
_space_group_symop_operation_xyz
x,y,z
1/2-x,-y,z
x,1/2-y,1/2-z
1/2-x,1/2+y,1/2-z
-x,-y,-z
1/2+x,y,-z
-x,1/2+y,1/2+z
1/2+x,1/2-y,1/2+z
loop_
_atom_site_type_symbol
_atom_site_label
_atom_site_fract_x
_atom_site_fract_y
_atom_site_fract_z
Si Si1 0.035115 0.163349 0.517161
Si Si2 0.353366 0.640157 0.942798
Si Si3 0.305511 0.750000 0.250000
Si Si4 0.732362 0.172908 0.131046
Si Si5 0.997162 0.319189 0.489096
Si Si6 0.191936 0.001952 0.372860
Si Si7 0.176682 0.576802 0.634991
Si Si8 0.116376 0.789904 0.994807
O O1 0.089349 0.138703 0.567679
O O2 0.029055 0.247941 0.502914
O O3 0.004881 0.141845 0.755450
O O4 0.013912 0.141075 0.254625
O O5 0.319460 0.641110 0.704152
O O6 0.340075 0.715171 0.055282
O O7 0.331762 0.577967 0.103620
O O8 0.270677 0.690072 0.346459
O O9 0.740123 0.250000 0.250000
O O10 0.774427 0.120315 0.184299
O O11 0.941696 0.295606 0.480065
O O12 0.167747 0.960150 0.603244
O O13 0.250000 0.000000 0.414982
O O14 0.184017 0.973264 0.098716
O O15 0.138203 0.633419 0.538524
O O16 0.128967 0.750000 0.250000
O O17 0.133346 0.750000 0.750000
#
# Coordination Sequence:
#
# PCOD9409197 Si02
#       8
#     8   8   4   8   8   8   8   8
#     4  10  20  33  60  94 125 158 211 256 344 392
#     4  11  24  39  66  94 136 175 220 282 333 417
#     4  10  22  36  60  92 126 158 210 276 358 364
#     4  10  23  39  59  98 131 167 212 288 342 390
#     4  10  19  37  60  99 130 163 205 273 351 409
#     4  12  26  47  66  91 137 193 234 266 323 409
#     4  12  27  43  68  95 132 186 234 268 330 411
#     4  12  22  42  71 102 136 173 223 296 348 395
#
# _framework density 20.667272000000001
#
# number of rings (size 3 to 8) (size 9 to 14) (size 15 to 20)
#    0.000    1.067    4.000    3.200   12.133    0.000 
#    0.000    0.000    0.000    4.800    0.000    0.000 
#    0.000    0.000    0.000    0.000    0.000    0.000 
#
# Total GULP energy -334491.662656 kJ/mol
# GULP energy per Si atom -5574.861044 kJ/mol
# Density = 2.062023 g / cm^3
# Si number density = 20.667272 Si / 1000 Ang^3
#
#
#
# Elastic Constant Matrix: (Units=GPa)
#
#
# Indices 1 2 3 4 5 6 
#
# 1 57.9970 19.6616 16.4072 0.0000 0.0000 0.0000
# 2 19.6616 62.0550 24.0758 0.0000 0.0000 0.0000
# 3 16.4072 24.0758 140.4475 0.0000 0.0000 0.0000
# 4 0.0000 0.0000 0.0000 37.3594 0.0000 0.0000
# 5 0.0000 0.0000 0.0000 0.0000 28.8089 0.0000
# 6 0.0000 0.0000 0.0000 0.0000 0.0000 -19.5937
#
#
#
# Elastic Compliance Matrix: (Units=1/GPa)
#
#
# Indices 1 2 3 4 5 6 
#
# 1 0.019539 -0.005683 -0.001308 0.000000 0.000000 0.000000
# 2 -0.005683 0.018916 -0.002579 0.000000 0.000000 0.000000
# 3 -0.001308 -0.002579 0.007715 0.000000 0.000000 0.000000
# 4 0.000000 0.000000 0.000000 0.026767 0.000000 0.000000
# 5 0.000000 0.000000 0.000000 0.000000 0.034712 0.000000
# 6 0.000000 0.000000 0.000000 0.000000 0.000000 -0.051037
#
#
# Mechanical properties :
#
#
# Convention : Reuss Voigt Hill
#
# Bulk Modulus (GPa) = 36.99665 42.30987 39.65326
# Shear Modulus (GPa) = 58.98875 22.67190 40.83033
#
# Velocity S-wave (km/s) = 5.34828 3.31569 4.44960
# Velocity P-wave (km/s) = 7.48857 5.93083 6.75475
#
# Compressibility (1/GPa) = 0.02702947
#
# Stress axis : x y z
#
# Youngs Moduli (GPa) = 51.17953 52.86565 129.61785
#
# Poissons Ratio (x) = 0.30045 0.16958
# Poissons Ratio (y) = 0.29086 0.33424
# Poissons Ratio (z) = 0.06696 0.13632
#
# Static dielectric constant tensor:
#      x y z
#    x 1.742880 0.000000 0.000000 
#    y 0.000000 1.760940 0.000000 
#    z 0.000000 0.000000 1.881540 
# 
# From -- ./inp_files/5947.got.cif
#   From: 2010.05.17/outbox.cif.g08.bks.cpg/sg52_3_cif.got.tgz:5947.got - 2010.06.03 12:15:38.
