data_PCOD9409861
_publ_section_title
;
Structure prediction by ZEFSAII (Michael W. Deem and Ramdas Pophale) SiO2 
 PCOD9409861
Probable space group: P N N A
;
_chemical_formula_sum "Si O2"
_cell_formula_units_Z 56
_cell_length_a 7.599980
_cell_length_b 22.065519
_cell_length_c 12.250832
_cell_angle_alpha 90.000000
_cell_angle_beta 90.000000
_cell_angle_gamma 90.000000
_cell_volume 2054.433937
_symmetry_space_group_name_H-M "P N N A"
_symmetry_group_IT_number 52
_symmetry_cell_setting 'orthorhombic'
loop_
_space_group_symop_operation_xyz
x,y,z
1/2-x,-y,z
x,1/2-y,1/2-z
1/2-x,1/2+y,1/2-z
-x,-y,-z
1/2+x,y,-z
-x,1/2+y,1/2+z
1/2+x,1/2-y,1/2+z
loop_
_atom_site_type_symbol
_atom_site_label
_atom_site_fract_x
_atom_site_fract_y
_atom_site_fract_z
Si Si1 0.056304 0.378177 0.183708
Si Si2 0.552654 0.643650 0.872341
Si Si3 0.054414 0.487442 0.840182
Si Si4 0.088497 0.306727 0.403973
Si Si5 0.735291 0.715932 0.138086
Si Si6 0.071882 0.968057 0.106763
Si Si7 0.049130 0.666178 0.377026
O O1 0.236077 0.351199 0.132476
O O2 0.050395 0.449260 0.157579
O O3 0.058130 0.359903 0.313448
O O4 0.877414 0.346390 0.144757
O O5 0.516198 0.573072 0.898865
O O6 0.414994 0.692482 0.921188
O O7 0.498464 0.651971 0.745205
O O8 0.250000 0.500000 0.879682
O O9 0.056662 0.472278 0.709924
O O10 0.925846 0.261461 0.392154
O O11 0.095531 0.319920 0.533160
O O12 0.287632 0.287502 0.375437
O O13 0.792001 0.750000 0.250000
O O14 0.117444 0.898864 0.079850
O O15 0.250000 0.000000 0.142582
O O16 0.000000 0.000000 0.000000
#
# Coordination Sequence:
#
# PCOD9409861 Si02
#       7
#     8   8   8   8   8   8   8
#     4  10  20  37  54  79 117 147 195 241 292 349
#     4  10  21  36  56  82 111 152 188 242 298 352
#     4  11  19  31  54  79 110 145 183 235 293 350
#     4  10  22  36  54  79 112 159 205 248 286 351
#     4  10  22  37  54  77 108 155 203 245 292 337
#     4  11  20  30  45  77 113 155 197 236 281 345
#     4  10  21  34  54  79 114 157 200 244 297 340
#
# _framework density 27.258116000000001
#
# number of rings (size 3 to 8) (size 9 to 14) (size 15 to 20)
#    0.000    1.714    1.429    5.143    4.000    4.000 
#    0.000    0.000    0.000    0.000    0.000    0.000 
#    0.000    4.571    0.000    0.000    0.000    0.000 
#
# Total GULP energy -312885.711122 kJ/mol
# GULP energy per Si atom -5587.244841 kJ/mol
# Density = 2.719608 g / cm^3
# Si number density = 27.258116 Si / 1000 Ang^3
#
#
#
# Elastic Constant Matrix: (Units=GPa)
#
#
# Indices 1 2 3 4 5 6 
#
# 1 153.8799 84.4871 7.4438 0.0000 0.0000 0.0000
# 2 84.4871 174.5293 19.1208 0.0000 0.0000 0.0000
# 3 7.4438 19.1208 96.9283 0.0000 0.0000 0.0000
# 4 0.0000 0.0000 0.0000 17.7933 0.0000 0.0000
# 5 0.0000 0.0000 0.0000 0.0000 9.4960 0.0000
# 6 0.0000 0.0000 0.0000 0.0000 0.0000 51.2327
#
#
#
# Elastic Compliance Matrix: (Units=1/GPa)
#
#
# Indices 1 2 3 4 5 6 
#
# 1 0.008854 -0.004305 0.000169 0.000000 0.000000 0.000000
# 2 -0.004305 0.007949 -0.001238 0.000000 0.000000 0.000000
# 3 0.000169 -0.001238 0.010548 0.000000 0.000000 0.000000
# 4 0.000000 0.000000 0.000000 0.056201 0.000000 0.000000
# 5 0.000000 0.000000 0.000000 0.000000 0.105307 0.000000
# 6 0.000000 0.000000 0.000000 0.000000 0.000000 0.019519
#
#
# Mechanical properties :
#
#
# Convention : Reuss Voigt Hill
#
# Bulk Modulus (GPa) = 60.22220 71.93786 66.08003
# Shear Modulus (GPa) = 22.25602 36.65681 29.45641
#
# Velocity S-wave (km/s) = 2.86053 3.67113 3.29089
# Velocity P-wave (km/s) = 5.74904 6.66470 6.22373
#
# Compressibility (1/GPa) = 0.01660517
#
# Stress axis : x y z
#
# Youngs Moduli (GPa) = 112.94629 125.80150 94.80442
#
# Poissons Ratio (x) = 0.54151 -0.01604
# Poissons Ratio (y) = 0.48618 0.11732
# Poissons Ratio (z) = -0.01911 0.15568
#
# Static dielectric constant tensor:
#      x y z
#    x 2.091140 0.000000 0.000000 
#    y 0.000000 2.229340 0.000000 
#    z 0.000000 0.000000 2.175370 
# 
# From -- ./inp_files/31548.got.cif
#   From: 2010.05.17/outbox.cif.g08.bks.cpg/sg52_16_cif.got.tgz:31548.got - 2010.06.03 12:15:38.
