data_PCOD9409093
_publ_section_title
;
Structure prediction by ZEFSAII (Michael W. Deem and Ramdas Pophale) SiO2 
 PCOD9409093
Probable space group: P N N A
;
_chemical_formula_sum "Si O2"
_cell_formula_units_Z 60
_cell_length_a 10.123195
_cell_length_b 15.617579
_cell_length_c 18.835147
_cell_angle_alpha 90.000000
_cell_angle_beta 90.000000
_cell_angle_gamma 90.000000
_cell_volume 2977.832929
_symmetry_space_group_name_H-M "P N N A"
_symmetry_group_IT_number 52
_symmetry_cell_setting 'orthorhombic'
loop_
_space_group_symop_operation_xyz
x,y,z
1/2-x,-y,z
x,1/2-y,1/2-z
1/2-x,1/2+y,1/2-z
-x,-y,-z
1/2+x,y,-z
-x,1/2+y,1/2+z
1/2+x,1/2-y,1/2+z
loop_
_atom_site_type_symbol
_atom_site_label
_atom_site_fract_x
_atom_site_fract_y
_atom_site_fract_z
Si Si1 0.513736 0.686637 0.916860
Si Si2 0.457703 0.000000 0.374412
Si Si3 0.249999 0.686821 0.817866
Si Si4 0.513737 0.313364 0.916860
Si Si5 0.097100 0.500000 0.292211
Si Si6 0.599126 0.685425 0.690717
Si Si7 0.750000 0.500000 0.170403
Si Si8 0.400873 0.814574 0.190717
O O1 0.577680 0.592074 0.906469
O O2 0.376965 0.692328 0.870879
O O3 0.597204 0.761999 0.881312
O O4 0.500000 0.700084 1.000000
O O5 0.422319 0.907927 0.406470
O O6 0.617555 0.000000 0.375817
O O7 0.411074 0.999999 0.293139
O O8 0.249999 0.750000 0.750000
O O9 0.123033 0.692328 0.870879
O O10 0.250000 0.589222 0.788366
O O11 0.597206 0.238002 0.881312
O O12 0.250000 0.500000 0.317416
O O13 0.036256 0.591392 0.314423
O O14 0.036256 0.408608 0.314423
O O15 0.542210 0.750000 0.750000
O O16 0.750000 0.669487 0.714628
O O17 0.457789 0.750000 0.250000
#
# Coordination Sequence:
#
# PCOD9409093 Si02
#       8
#     8   8   8   8   8   8   4   8
#     4  11  23  37  58  87 121 156 189 241 298 349
#     4  10  19  36  57  83 118 150 188 234 296 351
#     4  10  22  40  60  84 117 155 202 238 282 347
#     4  11  23  37  58  87 121 156 189 241 298 349
#     4  10  20  35  58  89 112 144 192 243 286 342
#     4  10  20  36  59  84 113 149 192 236 284 348
#     4   8  20  34  56  80 110 148 192 244 274 334
#     4  10  20  36  59  84 113 149 192 236 284 348
#
# _framework density 20.148879999999998
#
# number of rings (size 3 to 8) (size 9 to 14) (size 15 to 20)
#    0.000    1.867    2.667    1.200    5.600    0.000 
#    0.000    0.667    0.000    0.000    0.000    0.000 
#    0.000    0.000    0.000    0.000    0.000    0.000 
#
# Total GULP energy -334253.688760 kJ/mol
# GULP energy per Si atom -5570.894813 kJ/mol
# Density = 2.010302 g / cm^3
# Si number density = 20.148880 Si / 1000 Ang^3
#
#
#
# Elastic Constant Matrix: (Units=GPa)
#
#
# Indices 1 2 3 4 5 6 
#
# 1 60.5867 3.8791 -4.5470 0.0000 0.0000 0.0000
# 2 3.8791 218.4804 78.2384 0.0000 0.0000 0.0000
# 3 -4.5470 78.2384 136.0225 0.0000 0.0000 0.0000
# 4 0.0000 0.0000 0.0000 20.9683 0.0000 0.0000
# 5 0.0000 0.0000 0.0000 0.0000 9.6892 0.0000
# 6 0.0000 0.0000 0.0000 0.0000 0.0000 -14.7273
#
#
#
# Elastic Compliance Matrix: (Units=1/GPa)
#
#
# Indices 1 2 3 4 5 6 
#
# 1 0.016614 -0.000622 0.000913 0.000000 0.000000 0.000000
# 2 -0.000622 0.005788 -0.003350 0.000000 0.000000 0.000000
# 3 0.000913 -0.003350 0.009309 0.000000 0.000000 0.000000
# 4 0.000000 0.000000 0.000000 0.047691 0.000000 0.000000
# 5 0.000000 0.000000 0.000000 0.000000 0.103208 0.000000
# 6 0.000000 0.000000 0.000000 0.000000 0.000000 -0.067901
#
#
# Mechanical properties :
#
#
# Convention : Reuss Voigt Hill
#
# Bulk Modulus (GPa) = 39.07312 63.35894 51.21603
# Shear Modulus (GPa) = 38.65286 25.68731 32.17008
#
# Velocity S-wave (km/s) = 4.38466 3.57441 4.00011
# Velocity P-wave (km/s) = 6.71327 6.96770 6.84167
#
# Compressibility (1/GPa) = 0.02559304
#
# Stress axis : x y z
#
# Youngs Moduli (GPa) = 60.19152 172.78081 107.42286
#
# Poissons Ratio (x) = 0.10746 -0.09809
# Poissons Ratio (y) = 0.03744 0.35984
# Poissons Ratio (z) = -0.05496 0.57878
#
# Static dielectric constant tensor:
#      x y z
#    x 1.866230 0.000000 0.000000 
#    y 0.000000 1.802800 0.000000 
#    z 0.000000 0.000000 1.652790 
# 
# From -- ./inp_files/32371.got.cif
#   From: 2010.05.17/outbox.cif.g08.bks.cpg/sg52_17_cif.got.tgz:32371.got - 2010.06.03 12:15:38.
