data_PCOD9409163
_publ_section_title
;
Structure prediction by ZEFSAII (Michael W. Deem and Ramdas Pophale) SiO2 
 PCOD9409163
Probable space group: P N N A
;
_chemical_formula_sum "Si O2"
_cell_formula_units_Z 64
_cell_length_a 19.030768
_cell_length_b 9.290618
_cell_length_c 17.317198
_cell_angle_alpha 90.000000
_cell_angle_beta 90.000000
_cell_angle_gamma 90.000000
_cell_volume 3061.812143
_symmetry_space_group_name_H-M "P N N A"
_symmetry_group_IT_number 52
_symmetry_cell_setting 'orthorhombic'
loop_
_space_group_symop_operation_xyz
x,y,z
1/2-x,-y,z
x,1/2-y,1/2-z
1/2-x,1/2+y,1/2-z
-x,-y,-z
1/2+x,y,-z
-x,1/2+y,1/2+z
1/2+x,1/2-y,1/2+z
loop_
_atom_site_type_symbol
_atom_site_label
_atom_site_fract_x
_atom_site_fract_y
_atom_site_fract_z
Si Si1 0.449401 0.063192 0.847388
Si Si2 0.923419 0.272519 0.024829
Si Si3 0.926569 0.824621 0.028994
Si Si4 0.101913 0.047440 0.603174
Si Si5 0.972188 0.083777 0.718897
Si Si6 0.332304 0.468432 0.434917
Si Si7 0.181052 0.583288 0.252086
Si Si8 0.819170 0.421776 0.244019
O O1 0.434241 0.215766 0.886624
O O2 0.380835 0.026462 0.799313
O O3 0.454157 0.953994 0.917820
O O4 0.510380 0.030131 0.787111
O O5 0.903284 0.438229 0.031657
O O6 0.868165 0.170225 0.978676
O O7 0.002025 0.255084 0.993699
O O8 0.881721 0.708574 0.076173
O O9 0.880823 0.898286 0.962414
O O10 0.028125 0.057693 0.651002
O O11 0.159507 0.980169 0.660096
O O12 0.981075 0.250000 0.750000
O O13 0.889869 0.064039 0.702262
O O14 0.250000 0.500000 0.455536
O O15 0.334953 0.451621 0.342351
O O16 0.250000 0.500000 0.225983
O O17 0.199023 0.750000 0.250000
O O18 0.750000 0.500000 0.270483
O O19 0.813570 0.250000 0.250000
#
# Coordination Sequence:
#
# PCOD9409163 Si02
#       8
#     8   8   8   8   8   8   8   8
#     4  10  20  38  61  89 121 163 213 250 302 368
#     4  11  22  40  63  92 127 159 208 264 312 364
#     4  11  22  39  66  90 124 169 207 251 309 383
#     4  11  24  40  59  99 129 156 215 258 311 368
#     4  10  19  36  65  87 125 164 203 256 311 361
#     4  10  23  43  66  90 124 167 212 248 309 387
#     4  10  22  44  66  94 123 158 210 258 319 379
#     4  11  25  41  62  91 130 171 209 263 307 365
#
# _framework density 20.902653999999998
#
# number of rings (size 3 to 8) (size 9 to 14) (size 15 to 20)
#    0.000    1.500    2.500    3.375    3.500    3.000 
#    6.750    0.000    0.000    0.000    0.000    0.000 
#    0.000    0.000    0.000    0.000    0.000    0.000 
#
# Total GULP energy -357230.629422 kJ/mol
# GULP energy per Si atom -5581.728585 kJ/mol
# Density = 2.085508 g / cm^3
# Si number density = 20.902654 Si / 1000 Ang^3
#
#
#
# Elastic Constant Matrix: (Units=GPa)
#
#
# Indices 1 2 3 4 5 6 
#
# 1 85.4737 8.7570 -9.3018 0.0000 0.0000 0.0000
# 2 8.7570 55.1435 4.5184 0.0000 0.0000 0.0000
# 3 -9.3018 4.5184 32.4087 0.0000 0.0000 0.0000
# 4 0.0000 0.0000 0.0000 28.0607 0.0000 0.0000
# 5 0.0000 0.0000 0.0000 0.0000 11.1819 0.0000
# 6 0.0000 0.0000 0.0000 0.0000 0.0000 19.6676
#
#
#
# Elastic Compliance Matrix: (Units=1/GPa)
#
#
# Indices 1 2 3 4 5 6 
#
# 1 0.012353 -0.002278 0.003863 0.000000 0.000000 0.000000
# 2 -0.002278 0.018764 -0.003270 0.000000 0.000000 0.000000
# 3 0.003863 -0.003270 0.032421 0.000000 0.000000 0.000000
# 4 0.000000 0.000000 0.000000 0.035637 0.000000 0.000000
# 5 0.000000 0.000000 0.000000 0.000000 0.089430 0.000000
# 6 0.000000 0.000000 0.000000 0.000000 0.000000 0.050845
#
#
# Mechanical properties :
#
#
# Convention : Reuss Voigt Hill
#
# Bulk Modulus (GPa) = 16.62010 20.10811 18.36411
# Shear Modulus (GPa) = 19.02032 23.05221 21.03627
#
# Velocity S-wave (km/s) = 3.01981 3.32450 3.17581
# Velocity P-wave (km/s) = 4.48636 4.93732 4.71723
#
# Compressibility (1/GPa) = 0.06016810
#
# Stress axis : x y z
#
# Youngs Moduli (GPa) = 80.94971 53.29283 30.84456
#
# Poissons Ratio (x) = 0.12142 -0.11916
# Poissons Ratio (y) = 0.18443 0.10086
# Poissons Ratio (z) = -0.31273 0.17427
#
# Static dielectric constant tensor:
#      x y z
#    x 1.753630 0.000000 0.000000 
#    y 0.000000 1.788760 0.000000 
#    z 0.000000 0.000000 1.823900 
# 
# From -- ./inp_files/34138.got.cif
#   From: 2010.05.17/outbox.cif.g08.bks.cpg/sg52_18_cif.got.tgz:34138.got - 2010.06.03 12:15:38.
