data_PCOD9409056
_publ_section_title
;
Structure prediction by ZEFSAII (Michael W. Deem and Ramdas Pophale) SiO2 
 PCOD9409056
Probable space group: P N N A
;
_chemical_formula_sum "Si O2"
_cell_formula_units_Z 40
_cell_length_a 22.529490
_cell_length_b 5.952394
_cell_length_c 14.754513
_cell_angle_alpha 90.000000
_cell_angle_beta 90.000000
_cell_angle_gamma 90.000000
_cell_volume 1978.645129
_symmetry_space_group_name_H-M "P N N A"
_symmetry_group_IT_number 52
_symmetry_cell_setting 'orthorhombic'
loop_
_space_group_symop_operation_xyz
x,y,z
1/2-x,-y,z
x,1/2-y,1/2-z
1/2-x,1/2+y,1/2-z
-x,-y,-z
1/2+x,y,-z
-x,1/2+y,1/2+z
1/2+x,1/2-y,1/2+z
loop_
_atom_site_type_symbol
_atom_site_label
_atom_site_fract_x
_atom_site_fract_y
_atom_site_fract_z
Si Si1 0.085191 0.603321 0.379450
Si Si2 0.250000 0.000000 0.970531
Si Si3 0.029724 0.371931 0.847434
Si Si4 0.193870 0.886610 0.402191
Si Si5 0.971488 0.750000 0.750000
Si Si6 0.635994 0.230468 0.028539
O O1 0.140765 0.758568 0.353625
O O2 0.068273 0.434076 0.299306
O O3 0.103587 0.456152 0.466361
O O4 0.027021 0.755324 0.394982
O O5 0.192715 0.111264 0.923402
O O6 0.276768 0.197872 0.033073
O O7 0.036756 0.250000 0.750000
O O8 0.088449 0.337838 0.904818
O O9 0.011959 0.626421 0.824384
O O10 0.250000 0.000000 0.351419
O O11 0.162215 0.078309 0.462393
#
# Coordination Sequence:
#
# PCOD9409056 Si02
#       6
#     8   4   8   8   4   8
#     4  10  20  35  57  87 113 148 191 239 292 342
#     4   8  18  34  56  84 110 144 184 236 282 334
#     4  10  22  37  55  85 119 152 185 238 295 345
#     4   9  18  33  56  88 107 145 189 237 282 337
#     4  10  22  36  50  84 120 160 184 232 300 348
#     4  10  19  35  61  87 111 146 195 239 286 347
#
# _framework density 20.215852000000002
#
# number of rings (size 3 to 8) (size 9 to 14) (size 15 to 20)
#    0.000    2.400    0.000    1.800    0.000    9.600 
#    0.000    0.000    6.600    0.000  618.800    0.000 
#    0.000    0.000    0.000    0.000    0.000    0.000 
#
# Total GULP energy -223190.041379 kJ/mol
# GULP energy per Si atom -5579.751034 kJ/mol
# Density = 2.016984 g / cm^3
# Si number density = 20.215852 Si / 1000 Ang^3
#
#
#
# Elastic Constant Matrix: (Units=GPa)
#
#
# Indices 1 2 3 4 5 6 
#
# 1 190.1369 72.8445 53.4700 0.0000 0.0000 0.0000
# 2 72.8445 109.0512 24.6657 0.0000 0.0000 0.0000
# 3 53.4700 24.6657 42.6340 0.0000 0.0000 0.0000
# 4 0.0000 0.0000 0.0000 7.5926 0.0000 0.0000
# 5 0.0000 0.0000 0.0000 0.0000 -21.8795 0.0000
# 6 0.0000 0.0000 0.0000 0.0000 0.0000 25.1566
#
#
#
# Elastic Compliance Matrix: (Units=1/GPa)
#
#
# Indices 1 2 3 4 5 6 
#
# 1 0.009565 -0.004229 -0.009549 0.000000 0.000000 0.000000
# 2 -0.004229 0.012421 -0.001882 0.000000 0.000000 0.000000
# 3 -0.009549 -0.001882 0.036521 0.000000 0.000000 0.000000
# 4 0.000000 0.000000 0.000000 0.131708 0.000000 0.000000
# 5 0.000000 0.000000 0.000000 0.000000 -0.045705 0.000000
# 6 0.000000 0.000000 0.000000 0.000000 0.000000 0.039751
#
#
# Mechanical properties :
#
#
# Convention : Reuss Voigt Hill
#
# Bulk Modulus (GPa) = 36.78398 71.53140 54.15769
# Shear Modulus (GPa) = 22.25750 14.89672 18.57711
#
# Velocity S-wave (km/s) = 3.32172 2.71750 3.03469
# Velocity P-wave (km/s) = 5.73994 6.73105 6.25516
#
# Compressibility (1/GPa) = 0.02718575
#
# Stress axis : x y z
#
# Youngs Moduli (GPa) = 104.54535 80.51008 27.38182
#
# Poissons Ratio (x) = 0.34052 0.26148
# Poissons Ratio (y) = 0.44217 0.05152
# Poissons Ratio (z) = 0.99835 0.15148
#
# Static dielectric constant tensor:
#      x y z
#    x 1.737470 0.000000 0.000000 
#    y 0.000000 1.755820 0.000000 
#    z 0.000000 0.000000 1.690250 
# 
# From -- ./inp_files/29051.got.cif
#   From: 2010.05.17/outbox.cif.g08.bks.cpg/sg52_15_cif.got.tgz:29051.got - 2010.06.03 12:15:38.
