data_PCOD9409738
_publ_section_title
;
Structure prediction by ZEFSAII (Michael W. Deem and Ramdas Pophale) SiO2 
 PCOD9409738
Probable space group: P N N A
;
_chemical_formula_sum "Si O2"
_cell_formula_units_Z 56
_cell_length_a 20.669843
_cell_length_b 6.091092
_cell_length_c 22.403975
_cell_angle_alpha 90.000000
_cell_angle_beta 90.000000
_cell_angle_gamma 90.000000
_cell_volume 2820.703364
_symmetry_space_group_name_H-M "P N N A"
_symmetry_group_IT_number 52
_symmetry_cell_setting 'orthorhombic'
loop_
_space_group_symop_operation_xyz
x,y,z
1/2-x,-y,z
x,1/2-y,1/2-z
1/2-x,1/2+y,1/2-z
-x,-y,-z
1/2+x,y,-z
-x,1/2+y,1/2+z
1/2+x,1/2-y,1/2+z
loop_
_atom_site_type_symbol
_atom_site_label
_atom_site_fract_x
_atom_site_fract_y
_atom_site_fract_z
Si Si1 0.181006 0.116309 0.482883
Si Si2 0.534192 0.841119 0.813643
Si Si3 0.325338 0.941010 0.910664
Si Si4 0.598264 0.407060 0.593009
Si Si5 0.588238 0.745599 0.495426
Si Si6 0.486998 0.436384 0.890141
Si Si7 0.093269 0.868040 0.809054
O O1 0.170333 0.218009 0.549684
O O2 0.163391 0.310948 0.436397
O O3 0.250000 0.000000 0.478903
O O4 0.129970 0.924897 0.470139
O O5 0.554619 0.750000 0.750000
O O6 0.503886 0.668345 0.861133
O O7 0.595059 0.946518 0.847957
O O8 0.474075 0.002911 0.798019
O O9 0.363264 0.118083 0.951102
O O10 0.359637 0.970287 0.846346
O O11 0.250000 0.000000 0.906169
O O12 0.565230 0.557120 0.540889
O O13 0.551152 0.210497 0.611612
O O14 0.538604 0.887145 0.456546
O O15 0.430326 0.331805 0.850372
O O16 0.120085 0.750000 0.750000
#
# Coordination Sequence:
#
# PCOD9409738 Si02
#       7
#     8   8   8   8   8   8   8
#     4  11  21  37  59  85 122 157 194 246 307 371
#     4  11  21  37  58  83 122 159 199 243 302 375
#     4  10  20  36  57  83 116 160 211 253 293 348
#     4  10  23  34  56  91 119 151 195 246 305 375
#     4  10  20  36  58  86 124 156 191 247 308 360
#     4  10  20  36  58  85 123 157 191 246 303 359
#     4  10  20  36  57  82 116 160 208 253 295 346
#
# _framework density 19.853202
#
# number of rings (size 3 to 8) (size 9 to 14) (size 15 to 20)
#    0.000    1.714    2.857    2.143    0.000    4.571 
#    0.000    0.714    0.000    0.000    0.000    0.000 
#   60.000    0.000    0.000    0.000    0.000    0.000 
#
# Total GULP energy -311898.639538 kJ/mol
# GULP energy per Si atom -5569.618563 kJ/mol
# Density = 1.980802 g / cm^3
# Si number density = 19.853202 Si / 1000 Ang^3
#
#
#
# Elastic Constant Matrix: (Units=GPa)
#
#
# Indices 1 2 3 4 5 6 
#
# 1 29.3994 21.5377 37.3971 0.0000 0.0000 0.0000
# 2 21.5377 62.4555 25.6874 0.0000 0.0000 0.0000
# 3 37.3971 25.6874 95.3237 0.0000 0.0000 0.0000
# 4 0.0000 0.0000 0.0000 41.5822 0.0000 0.0000
# 5 0.0000 0.0000 0.0000 0.0000 10.3847 0.0000
# 6 0.0000 0.0000 0.0000 0.0000 0.0000 8.2953
#
#
#
# Elastic Compliance Matrix: (Units=1/GPa)
#
#
# Indices 1 2 3 4 5 6 
#
# 1 0.080887 -0.016692 -0.027235 0.000000 0.000000 0.000000
# 2 -0.016692 0.021452 0.000768 0.000000 0.000000 0.000000
# 3 -0.027235 0.000768 0.020969 0.000000 0.000000 0.000000
# 4 0.000000 0.000000 0.000000 0.024049 0.000000 0.000000
# 5 0.000000 0.000000 0.000000 0.000000 0.096296 0.000000
# 6 0.000000 0.000000 0.000000 0.000000 0.000000 0.120551
#
#
# Mechanical properties :
#
#
# Convention : Reuss Voigt Hill
#
# Bulk Modulus (GPa) = 27.03552 39.60257 33.31904
# Shear Modulus (GPa) = 10.80260 18.88952 14.84606
#
# Velocity S-wave (km/s) = 2.33518 3.08792 2.73754
# Velocity P-wave (km/s) = 4.57362 5.71880 5.17797
#
# Compressibility (1/GPa) = 0.03698838
#
# Stress axis : x y z
#
# Youngs Moduli (GPa) = 12.36287 46.61593 47.69053
#
# Poissons Ratio (x) = 0.77813 1.29887
# Poissons Ratio (y) = 0.20636 -0.03662
# Poissons Ratio (z) = 0.33671 -0.03580
#
# Static dielectric constant tensor:
#      x y z
#    x 1.679830 0.000000 0.000000 
#    y 0.000000 1.759940 0.000000 
#    z 0.000000 0.000000 1.731750 
# 
# From -- ./inp_files/40983.got.cif
#   From: 2010.05.17/outbox.cif.g08.bks.cpg/sg52_21_cif.got.tgz:40983.got - 2010.06.03 12:15:38.
