data_PCOD9409146
_publ_section_title
;
Structure prediction by ZEFSAII (Michael W. Deem and Ramdas Pophale) SiO2 
 PCOD9409146
Probable space group: P N N A
;
_chemical_formula_sum "Si O2"
_cell_formula_units_Z 52
_cell_length_a 5.640549
_cell_length_b 20.020489
_cell_length_c 23.048988
_cell_angle_alpha 90.000000
_cell_angle_beta 90.000000
_cell_angle_gamma 90.000000
_cell_volume 2602.842678
_symmetry_space_group_name_H-M "P N N A"
_symmetry_group_IT_number 52
_symmetry_cell_setting 'orthorhombic'
loop_
_space_group_symop_operation_xyz
x,y,z
1/2-x,-y,z
x,1/2-y,1/2-z
1/2-x,1/2+y,1/2-z
-x,-y,-z
1/2+x,y,-z
-x,1/2+y,1/2+z
1/2+x,1/2-y,1/2+z
loop_
_atom_site_type_symbol
_atom_site_label
_atom_site_fract_x
_atom_site_fract_y
_atom_site_fract_z
Si Si1 0.507564 0.038786 0.400639
Si Si2 0.014524 0.788446 0.135238
Si Si3 0.741297 0.429076 0.347776
Si Si4 0.010031 0.680593 0.034600
Si Si5 0.111454 0.348396 0.291166
Si Si6 0.757540 0.750000 0.250000
Si Si7 0.940527 0.059256 0.731774
O O1 0.489167 0.108465 0.434170
O O2 0.544856 0.054938 0.332175
O O3 0.250000 0.000000 0.406299
O O4 0.750000 0.000000 0.419665
O O5 0.889348 0.862108 0.127770
O O6 0.007178 0.741652 0.080124
O O7 0.892120 0.752007 0.189632
O O8 0.276238 0.800503 0.160812
O O9 0.750000 0.500000 0.380764
O O10 0.610543 0.443717 0.286799
O O11 0.004538 0.408045 0.329103
O O12 0.760533 0.684907 0.999763
O O13 0.303418 0.372284 0.245155
O O14 0.906026 0.314675 0.254892
O O15 0.750000 0.000000 0.734902
#
# Coordination Sequence:
#
# PCOD9409146 Si02
#       7
#     8   8   8   8   8   4   8
#     4  11  26  44  70 101 133 181 238 293 345 403
#     4  10  25  40  62 104 130 181 228 286 354 417
#     4  10  19  36  62  96 140 179 212 263 345 427
#     4  12  30  51  75  96 135 188 243 305 347 404
#     4  10  21  34  59  92 138 181 212 270 334 428
#     4  10  22  36  62  96 134 172 216 286 342 426
#     4  10  20  33  57  97 141 178 211 268 339 417
#
# _framework density 19.978155999999998
#
# number of rings (size 3 to 8) (size 9 to 14) (size 15 to 20)
#    0.000    1.538    1.538    1.846   15.077    1.846 
#    0.000    0.000    0.000    0.923    0.000    0.000 
#    0.000    0.000    0.000    0.000    0.000    0.000 
#
# Total GULP energy -289964.715633 kJ/mol
# GULP energy per Si atom -5576.244531 kJ/mol
# Density = 1.993268 g / cm^3
# Si number density = 19.978156 Si / 1000 Ang^3
#
#
#
# Elastic Constant Matrix: (Units=GPa)
#
#
# Indices 1 2 3 4 5 6 
#
# 1 105.5184 48.4418 49.6091 0.0000 0.0000 0.0000
# 2 48.4418 142.6809 68.1079 0.0000 0.0000 0.0000
# 3 49.6091 68.1079 91.2619 0.0000 0.0000 0.0000
# 4 0.0000 0.0000 0.0000 5.6542 0.0000 0.0000
# 5 0.0000 0.0000 0.0000 0.0000 -54.2603 0.0000
# 6 0.0000 0.0000 0.0000 0.0000 0.0000 34.2157
#
#
#
# Elastic Compliance Matrix: (Units=1/GPa)
#
#
# Indices 1 2 3 4 5 6 
#
# 1 0.012965 -0.001612 -0.005845 0.000000 0.000000 0.000000
# 2 -0.001612 0.011087 -0.007398 0.000000 0.000000 0.000000
# 3 -0.005845 -0.007398 0.019656 0.000000 0.000000 0.000000
# 4 0.000000 0.000000 0.000000 0.176860 0.000000 0.000000
# 5 0.000000 0.000000 0.000000 0.000000 -0.018430 0.000000
# 6 0.000000 0.000000 0.000000 0.000000 0.000000 0.029226
#
#
# Mechanical properties :
#
#
# Convention : Reuss Voigt Hill
#
# Bulk Modulus (GPa) = 71.43582 74.64208 73.03895
# Shear Modulus (GPa) = 18.81539 8.67542 13.74540
#
# Velocity S-wave (km/s) = 3.07220 2.08612 2.62586
# Velocity P-wave (km/s) = 6.95839 6.57613 6.76996
#
# Compressibility (1/GPa) = 0.01399858
#
# Stress axis : x y z
#
# Youngs Moduli (GPa) = 77.13181 90.19266 50.87544
#
# Poissons Ratio (x) = 0.14537 0.29735
# Poissons Ratio (y) = 0.12432 0.37639
# Poissons Ratio (z) = 0.45081 0.66727
#
# Static dielectric constant tensor:
#      x y z
#    x 1.810950 0.000000 0.000000 
#    y 0.000000 1.792110 0.000000 
#    z 0.000000 0.000000 1.659180 
# 
# From -- ./inp_files/35188.got.cif
#   From: 2010.05.17/outbox.cif.g08.bks.cpg/sg52_18_cif.got.tgz:35188.got - 2010.06.03 12:15:38.
