data_PCOD9409594
_publ_section_title
;
Structure prediction by ZEFSAII (Michael W. Deem and Ramdas Pophale) SiO2 
 PCOD9409594
Probable space group: P N N A
;
_chemical_formula_sum "Si O2"
_cell_formula_units_Z 60
_cell_length_a 18.668030
_cell_length_b 11.932112
_cell_length_c 12.153144
_cell_angle_alpha 90.000000
_cell_angle_beta 90.000000
_cell_angle_gamma 90.000000
_cell_volume 2707.100974
_symmetry_space_group_name_H-M "P N N A"
_symmetry_group_IT_number 52
_symmetry_cell_setting 'orthorhombic'
loop_
_space_group_symop_operation_xyz
x,y,z
1/2-x,-y,z
x,1/2-y,1/2-z
1/2-x,1/2+y,1/2-z
-x,-y,-z
1/2+x,y,-z
-x,1/2+y,1/2+z
1/2+x,1/2-y,1/2+z
loop_
_atom_site_type_symbol
_atom_site_label
_atom_site_fract_x
_atom_site_fract_y
_atom_site_fract_z
Si Si1 0.029199 0.014446 0.724944
Si Si2 0.349162 0.838001 0.103845
Si Si3 0.080446 0.528652 0.540970
Si Si4 0.298523 0.725948 0.905328
Si Si5 0.389350 0.610546 0.173167
Si Si6 0.144220 0.990171 0.547757
Si Si7 0.068283 0.250000 0.750000
Si Si8 0.649085 0.739599 0.373471
O O1 0.016880 0.145450 0.736176
O O2 0.081561 0.991919 0.827467
O O3 0.068344 0.999985 0.609666
O O4 0.959824 0.939056 0.729661
O O5 0.405522 0.734392 0.123253
O O6 0.332957 0.875632 0.227579
O O7 0.293797 0.768069 0.031108
O O8 0.372072 0.944389 0.031462
O O9 0.107414 0.657095 0.544144
O O10 0.000000 0.500000 0.500000
O O11 0.306818 0.590471 0.901540
O O12 0.374985 0.761105 0.851116
O O13 0.232316 0.793583 0.853416
O O14 0.364560 0.527039 0.078034
O O15 0.160989 0.861318 0.571705
O O16 0.615784 0.750000 0.250000
#
# Coordination Sequence:
#
# PCOD9409594 Si02
#       8
#     8   8   8   8   8   8   4   8
#     4  11  21  37  63  99 131 179 221 283 354 411
#     4  10  22  42  66  93 129 182 228 275 339 410
#     4  12  25  39  63 100 139 171 220 284 350 414
#     4  10  21  42  67  95 131 170 225 284 349 418
#     4  10  22  41  69  87 131 187 229 270 335 419
#     4  10  23  41  65  99 127 176 231 279 347 409
#     4  10  20  34  60 100 138 162 216 294 350 412
#     4  12  25  42  69 101 137 178 222 291 360 420
#
# _framework density 22.163931999999999
#
# number of rings (size 3 to 8) (size 9 to 14) (size 15 to 20)
#    0.000    1.333    4.667    0.800    1.867    1.600 
#    2.400    0.000   20.533    0.000    0.000    0.000 
#    0.000    0.000    0.000    0.000    0.000    0.000 
#
# Total GULP energy -334022.568362 kJ/mol
# GULP energy per Si atom -5567.042806 kJ/mol
# Density = 2.211349 g / cm^3
# Si number density = 22.163932 Si / 1000 Ang^3
#
#
#
# Elastic Constant Matrix: (Units=GPa)
#
#
# Indices 1 2 3 4 5 6 
#
# 1 28.0052 32.0072 1.2976 0.0000 0.0000 0.0000
# 2 32.0072 105.7706 17.2660 0.0000 0.0000 0.0000
# 3 1.2976 17.2660 121.3558 0.0000 0.0000 0.0000
# 4 0.0000 0.0000 0.0000 41.7313 0.0000 0.0000
# 5 0.0000 0.0000 0.0000 0.0000 16.2045 0.0000
# 6 0.0000 0.0000 0.0000 0.0000 0.0000 18.7279
#
#
#
# Elastic Compliance Matrix: (Units=1/GPa)
#
#
# Indices 1 2 3 4 5 6 
#
# 1 0.054977 -0.016934 0.001821 0.000000 0.000000 0.000000
# 2 -0.016934 0.014895 -0.001938 0.000000 0.000000 0.000000
# 3 0.001821 -0.001938 0.008497 0.000000 0.000000 0.000000
# 4 0.000000 0.000000 0.000000 0.023963 0.000000 0.000000
# 5 0.000000 0.000000 0.000000 0.000000 0.061711 0.000000
# 6 0.000000 0.000000 0.000000 0.000000 0.000000 0.053396
#
#
# Mechanical properties :
#
#
# Convention : Reuss Voigt Hill
#
# Bulk Modulus (GPa) = 22.58995 39.58589 31.08792
# Shear Modulus (GPa) = 18.77609 28.97013 23.87311
#
# Velocity S-wave (km/s) = 2.91374 3.61928 3.28550
# Velocity P-wave (km/s) = 4.64049 5.94684 5.33381
#
# Compressibility (1/GPa) = 0.04426748
#
# Stress axis : x y z
#
# Youngs Moduli (GPa) = 18.18943 67.13588 117.69535
#
# Poissons Ratio (x) = 1.13687 -0.21438
# Poissons Ratio (y) = 0.30802 0.22811
# Poissons Ratio (z) = -0.03313 0.13012
#
# Static dielectric constant tensor:
#      x y z
#    x 1.931690 0.000000 0.000000 
#    y 0.000000 1.858000 0.000000 
#    z 0.000000 0.000000 1.899720 
# 
# From -- ./inp_files/21755.got.cif
#   From: 2010.05.17/outbox.cif.g08.bks.cpg/sg52_11_cif.got.tgz:21755.got - 2010.06.03 12:15:38.
