data_PCOD9409699
_publ_section_title
;
Structure prediction by ZEFSAII (Michael W. Deem and Ramdas Pophale) SiO2 
 PCOD9409699
Probable space group: P N N A
;
_chemical_formula_sum "Si O2"
_cell_formula_units_Z 48
_cell_length_a 9.094450
_cell_length_b 8.862883
_cell_length_c 31.225968
_cell_angle_alpha 90.000000
_cell_angle_beta 90.000000
_cell_angle_gamma 90.000000
_cell_volume 2516.908144
_symmetry_space_group_name_H-M "P N N A"
_symmetry_group_IT_number 52
_symmetry_cell_setting 'orthorhombic'
loop_
_space_group_symop_operation_xyz
x,y,z
1/2-x,-y,z
x,1/2-y,1/2-z
1/2-x,1/2+y,1/2-z
-x,-y,-z
1/2+x,y,-z
-x,1/2+y,1/2+z
1/2+x,1/2-y,1/2+z
loop_
_atom_site_type_symbol
_atom_site_label
_atom_site_fract_x
_atom_site_fract_y
_atom_site_fract_z
Si Si1 0.783328 0.821029 0.630723
Si Si2 0.449795 0.751379 0.626294
Si Si3 0.121198 0.096168 0.954675
Si Si4 0.644606 0.131857 0.950184
Si Si5 0.250000 0.500000 0.831163
Si Si6 0.969443 0.246774 0.297765
Si Si7 0.750000 0.500000 0.328190
O O1 0.621061 0.751023 0.638874
O O2 0.844920 0.763609 0.584475
O O3 0.903689 0.773051 0.666307
O O4 0.750000 0.000000 0.630503
O O5 0.440782 0.726123 0.575328
O O6 0.361880 0.900001 0.640566
O O7 0.357138 0.614908 0.646686
O O8 0.250000 0.000000 0.933723
O O9 0.180002 0.163133 0.999803
O O10 0.004358 0.960633 0.956573
O O11 0.750000 0.000000 0.933231
O O12 0.145418 0.609131 0.803870
O O13 0.033209 0.250000 0.250000
O O14 0.866841 0.393670 0.303879
#
# Coordination Sequence:
#
# PCOD9409699 Si02
#       7
#     8   8   8   8   4   8   4
#     4  12  25  43  61  95 136 175 200 261 339 387
#     4  11  21  41  63  94 128 167 209 260 314 380
#     4  10  20  35  63  93 121 165 224 261 298 356
#     4  10  21  38  61  88 127 168 214 264 302 371
#     4  10  23  42  66  92 132 164 206 260 323 382
#     4  11  24  45  67  95 125 165 215 264 320 388
#     4  10  23  40  70  96 118 166 216 264 315 372
#
# _framework density 19.071019
#
# number of rings (size 3 to 8) (size 9 to 14) (size 15 to 20)
#    0.000    1.333    4.167    1.500    2.333    0.000 
#    4.500    1.667    0.000    0.000    0.000    0.000 
#    0.000    0.000    0.000    0.000    0.000    0.000 
#
# Total GULP energy -267219.394387 kJ/mol
# GULP energy per Si atom -5567.070716 kJ/mol
# Density = 1.902761 g / cm^3
# Si number density = 19.071019 Si / 1000 Ang^3
#
#
#
# Elastic Constant Matrix: (Units=GPa)
#
#
# Indices 1 2 3 4 5 6 
#
# 1 120.5547 31.5005 42.8862 0.0000 0.0000 0.0000
# 2 31.5005 92.7216 57.0459 0.0000 0.0000 0.0000
# 3 42.8862 57.0459 118.3146 0.0000 0.0000 0.0000
# 4 0.0000 0.0000 0.0000 5.4237 0.0000 0.0000
# 5 0.0000 0.0000 0.0000 0.0000 22.4835 0.0000
# 6 0.0000 0.0000 0.0000 0.0000 0.0000 29.0884
#
#
#
# Elastic Compliance Matrix: (Units=1/GPa)
#
#
# Indices 1 2 3 4 5 6 
#
# 1 0.009689 -0.001608 -0.002737 0.000000 0.000000 0.000000
# 2 -0.001608 0.015600 -0.006939 0.000000 0.000000 0.000000
# 3 -0.002737 -0.006939 0.012790 0.000000 0.000000 0.000000
# 4 0.000000 0.000000 0.000000 0.184375 0.000000 0.000000
# 5 0.000000 0.000000 0.000000 0.000000 0.044477 0.000000
# 6 0.000000 0.000000 0.000000 0.000000 0.000000 0.034378
#
#
# Mechanical properties :
#
#
# Convention : Reuss Voigt Hill
#
# Bulk Modulus (GPa) = 64.46747 66.05068 65.25907
# Shear Modulus (GPa) = 15.19542 24.74302 19.96922
#
# Velocity S-wave (km/s) = 2.82579 3.60587 3.23940
# Velocity P-wave (km/s) = 6.67264 7.21427 6.94873
#
# Compressibility (1/GPa) = 0.01551170
#
# Stress axis : x y z
#
# Youngs Moduli (GPa) = 103.21346 64.10127 78.18808
#
# Poissons Ratio (x) = 0.10306 0.21398
# Poissons Ratio (y) = 0.16595 0.54254
# Poissons Ratio (z) = 0.28246 0.44480
#
# Static dielectric constant tensor:
#      x y z
#    x 1.681350 0.000000 0.000000 
#    y 0.000000 1.655630 0.000000 
#    z 0.000000 0.000000 1.700750 
# 
# From -- ./inp_files/44445.got.cif
#   From: 2010.05.17/outbox.cif.g08.bks.cpg/sg52_23_cif.got.tgz:44445.got - 2010.06.03 12:15:38.
