data_PCOD9409714
_publ_section_title
;
Structure prediction by ZEFSAII (Michael W. Deem and Ramdas Pophale) SiO2 
 PCOD9409714
Probable space group: P N N A
;
_chemical_formula_sum "Si O2"
_cell_formula_units_Z 48
_cell_length_a 25.104169
_cell_length_b 9.059582
_cell_length_c 11.739037
_cell_angle_alpha 90.000000
_cell_angle_beta 90.000000
_cell_angle_gamma 90.000000
_cell_volume 2669.847661
_symmetry_space_group_name_H-M "P N N A"
_symmetry_group_IT_number 52
_symmetry_cell_setting 'orthorhombic'
loop_
_space_group_symop_operation_xyz
x,y,z
1/2-x,-y,z
x,1/2-y,1/2-z
1/2-x,1/2+y,1/2-z
-x,-y,-z
1/2+x,y,-z
-x,1/2+y,1/2+z
1/2+x,1/2-y,1/2+z
loop_
_atom_site_type_symbol
_atom_site_label
_atom_site_fract_x
_atom_site_fract_y
_atom_site_fract_z
Si Si1 0.569380 0.916395 0.718742
Si Si2 0.386958 0.173005 0.504581
Si Si3 0.564540 0.997285 0.973767
Si Si4 0.198749 0.902944 0.691277
Si Si5 0.028502 0.907230 0.685703
Si Si6 0.611555 0.401606 0.316626
O O1 0.549288 0.750000 0.750000
O O2 0.614909 0.883317 0.625564
O O3 0.575676 0.000968 0.838631
O O4 0.526587 0.017659 0.656536
O O5 0.406599 0.342801 0.506381
O O6 0.335177 0.138531 0.579109
O O7 0.434494 0.100543 0.576269
O O8 0.500000 0.000000 0.000000
O O9 0.596964 0.115021 0.050133
O O10 0.214658 0.750000 0.750000
O O11 0.250000 0.000000 0.665059
O O12 0.160140 0.992427 0.778686
O O13 0.023800 0.750000 0.750000
O O14 0.058902 0.015953 0.771483
O O15 0.618713 0.250000 0.250000
#
# Coordination Sequence:
#
# PCOD9409714 Si02
#       6
#     8   8   8   8   8   8
#     4  10  21  32  52  79 112 164 199 223 299 372
#     4  10  20  36  55  83 117 154 198 251 302 365
#     4  11  19  34  55  85 125 164 201 237 293 377
#     4  11  22  42  66  87 111 145 200 267 327 361
#     4  11  18  33  49  76 119 158 195 244 288 341
#     4  11  21  35  56  86 117 153 199 251 296 364
#
# _framework density 17.978553999999999
#
# number of rings (size 3 to 8) (size 9 to 14) (size 15 to 20)
#    0.000    1.333    5.000    2.500    2.333    0.000 
#    6.000    0.000    0.000    1.000    4.333    0.000 
#    0.000    0.000    0.000    0.000    0.000    0.000 
#
# Total GULP energy -267341.963720 kJ/mol
# GULP energy per Si atom -5569.624244 kJ/mol
# Density = 1.793763 g / cm^3
# Si number density = 17.978554 Si / 1000 Ang^3
#
#
#
# Elastic Constant Matrix: (Units=GPa)
#
#
# Indices 1 2 3 4 5 6 
#
# 1 88.0715 35.1247 42.5327 0.0000 0.0000 0.0000
# 2 35.1247 76.7756 30.3722 0.0000 0.0000 0.0000
# 3 42.5327 30.3722 122.4678 0.0000 0.0000 0.0000
# 4 0.0000 0.0000 0.0000 26.7827 0.0000 0.0000
# 5 0.0000 0.0000 0.0000 0.0000 11.8216 0.0000
# 6 0.0000 0.0000 0.0000 0.0000 0.0000 24.3017
#
#
#
# Elastic Compliance Matrix: (Units=1/GPa)
#
#
# Indices 1 2 3 4 5 6 
#
# 1 0.015485 -0.005496 -0.004015 0.000000 0.000000 0.000000
# 2 -0.005496 0.016393 -0.002157 0.000000 0.000000 0.000000
# 3 -0.004015 -0.002157 0.010095 0.000000 0.000000 0.000000
# 4 0.000000 0.000000 0.000000 0.037338 0.000000 0.000000
# 5 0.000000 0.000000 0.000000 0.000000 0.084591 0.000000
# 6 0.000000 0.000000 0.000000 0.000000 0.000000 0.041149
#
#
# Mechanical properties :
#
#
# Convention : Reuss Voigt Hill
#
# Bulk Modulus (GPa) = 53.65635 55.93044 54.79339
# Shear Modulus (GPa) = 21.31304 24.53356 22.92330
#
# Velocity S-wave (km/s) = 3.44680 3.69806 3.57464
# Velocity P-wave (km/s) = 6.76388 7.02931 6.89787
#
# Compressibility (1/GPa) = 0.01863712
#
# Stress axis : x y z
#
# Youngs Moduli (GPa) = 64.57707 61.00304 99.06257
#
# Poissons Ratio (x) = 0.33529 0.39773
# Poissons Ratio (y) = 0.35493 0.21364
# Poissons Ratio (z) = 0.25927 0.13156
#
# Static dielectric constant tensor:
#      x y z
#    x 1.592130 0.000000 0.000000 
#    y 0.000000 1.667820 0.000000 
#    z 0.000000 0.000000 1.747270 
# 
# From -- ./inp_files/22272.got.cif
#   From: 2010.05.17/outbox.cif.g08.bks.cpg/sg52_12_cif.got.tgz:22272.got - 2010.06.03 12:15:38.
