data_PCOD9409480
_publ_section_title
;
Structure prediction by ZEFSAII (Michael W. Deem and Ramdas Pophale) SiO2 
 PCOD9409480
Probable space group: P N N A
;
_chemical_formula_sum "Si O2"
_cell_formula_units_Z 40
_cell_length_a 14.874490
_cell_length_b 4.896642
_cell_length_c 26.988266
_cell_angle_alpha 90.000000
_cell_angle_beta 90.000000
_cell_angle_gamma 90.000000
_cell_volume 1965.691770
_symmetry_space_group_name_H-M "P N N A"
_symmetry_group_IT_number 52
_symmetry_cell_setting 'orthorhombic'
loop_
_space_group_symop_operation_xyz
x,y,z
1/2-x,-y,z
x,1/2-y,1/2-z
1/2-x,1/2+y,1/2-z
-x,-y,-z
1/2+x,y,-z
-x,1/2+y,1/2+z
1/2+x,1/2-y,1/2+z
loop_
_atom_site_type_symbol
_atom_site_label
_atom_site_fract_x
_atom_site_fract_y
_atom_site_fract_z
Si Si1 0.989368 0.578540 0.591637
Si Si2 0.450533 0.178709 0.803901
Si Si3 0.688975 0.264142 0.962510
Si Si4 0.165249 0.320587 0.828208
Si Si5 0.105598 0.092819 0.567076
O O1 0.896565 0.681995 0.569948
O O2 0.989083 0.566365 0.651492
O O3 0.018338 0.288538 0.569471
O O4 0.069538 0.788215 0.576602
O O5 0.488383 0.250000 0.750000
O O6 0.416587 0.473493 0.820758
O O7 0.365363 0.964094 0.803286
O O8 0.750000 0.500000 0.938883
O O9 0.750000 0.000000 0.971194
O O10 0.652846 0.376879 0.014824
O O11 0.250000 0.500000 0.810639
O O12 0.168538 0.294908 0.887965
#
# Coordination Sequence:
#
# PCOD9409480 Si02
#       5
#     8   8   8   8   8
#     4  10  21  38  57  78 109 144 183 222 261 321
#     4  10  21  36  55  76 101 143 186 220 263 315
#     4  12  23  35  56  84 112 140 177 225 273 317
#     4  10  20  33  52  79 110 137 173 221 262 309
#     4  10  20  36  56  79 109 148 180 208 261 328
#
# _framework density 20.349072
#
# number of rings (size 3 to 8) (size 9 to 14) (size 15 to 20)
#    0.000    1.600    0.000    5.400    0.000    4.800 
#    0.000    0.000    0.000    2.400    0.000    0.000 
#    0.000    0.000    0.000    0.000    0.000    0.000 
#
# Total GULP energy -223345.095773 kJ/mol
# GULP energy per Si atom -5583.627394 kJ/mol
# Density = 2.030276 g / cm^3
# Si number density = 20.349072 Si / 1000 Ang^3
#
#
#
# Elastic Constant Matrix: (Units=GPa)
#
#
# Indices 1 2 3 4 5 6 
#
# 1 51.2430 4.7203 33.1301 0.0000 0.0000 0.0000
# 2 4.7203 95.8072 0.0276 0.0000 0.0000 0.0000
# 3 33.1301 0.0276 88.6350 0.0000 0.0000 0.0000
# 4 0.0000 0.0000 0.0000 10.2058 0.0000 0.0000
# 5 0.0000 0.0000 0.0000 0.0000 0.8010 0.0000
# 6 0.0000 0.0000 0.0000 0.0000 0.0000 30.3870
#
#
#
# Elastic Compliance Matrix: (Units=1/GPa)
#
#
# Indices 1 2 3 4 5 6 
#
# 1 0.025888 -0.001273 -0.009676 0.000000 0.000000 0.000000
# 2 -0.001273 0.010500 0.000472 0.000000 0.000000 0.000000
# 3 -0.009676 0.000472 0.014899 0.000000 0.000000 0.000000
# 4 0.000000 0.000000 0.000000 0.097984 0.000000 0.000000
# 5 0.000000 0.000000 0.000000 0.000000 1.248460 0.000000
# 6 0.000000 0.000000 0.000000 0.000000 0.000000 0.032909
#
#
# Mechanical properties :
#
#
# Convention : Reuss Voigt Hill
#
# Bulk Modulus (GPa) = 32.96588 34.60456 33.78522
# Shear Modulus (GPa) = 3.42066 21.46589 12.44328
#
# Velocity S-wave (km/s) = 1.29794 3.25142 2.47552
# Velocity P-wave (km/s) = 4.29902 5.58015 4.98094
#
# Compressibility (1/GPa) = 0.03033440
#
# Stress axis : x y z
#
# Youngs Moduli (GPa) = 38.62800 95.23632 67.11951
#
# Poissons Ratio (x) = 0.12120 0.64945
# Poissons Ratio (y) = 0.04916 -0.03171
# Poissons Ratio (z) = 0.37377 -0.04499
#
# Static dielectric constant tensor:
#      x y z
#    x 1.729870 0.000000 0.000000 
#    y 0.000000 1.730310 0.000000 
#    z 0.000000 0.000000 1.811550 
# 
# From -- ./inp_files/42520.got.cif
#   From: 2010.05.17/outbox.cif.g08.bks.cpg/sg52_22_cif.got.tgz:42520.got - 2010.06.03 12:15:38.
