data_PCOD9409027
_publ_section_title
;
Structure prediction by ZEFSAII (Michael W. Deem and Ramdas Pophale) SiO2 
 PCOD9409027
Probable space group: P N N A
;
_chemical_formula_sum "Si O2"
_cell_formula_units_Z 48
_cell_length_a 23.522565
_cell_length_b 8.737839
_cell_length_c 11.596931
_cell_angle_alpha 90.000000
_cell_angle_beta 90.000000
_cell_angle_gamma 90.000000
_cell_volume 2383.591285
_symmetry_space_group_name_H-M "P N N A"
_symmetry_group_IT_number 52
_symmetry_cell_setting 'orthorhombic'
loop_
_space_group_symop_operation_xyz
x,y,z
1/2-x,-y,z
x,1/2-y,1/2-z
1/2-x,1/2+y,1/2-z
-x,-y,-z
1/2+x,y,-z
-x,1/2+y,1/2+z
1/2+x,1/2-y,1/2+z
loop_
_atom_site_type_symbol
_atom_site_label
_atom_site_fract_x
_atom_site_fract_y
_atom_site_fract_z
Si Si1 0.254226 0.177359 0.621886
Si Si2 0.636046 0.672761 0.372926
Si Si3 0.523821 0.798490 0.441478
Si Si4 0.810539 0.919166 0.006200
Si Si5 0.494807 0.089490 0.305156
Si Si6 0.583385 0.377311 0.654783
O O1 0.251340 0.250000 0.750000
O O2 0.315219 0.224166 0.567581
O O3 0.205425 0.249362 0.543671
O O4 0.250000 0.000000 0.632609
O O5 0.630690 0.750000 0.250000
O O6 0.574407 0.678841 0.426761
O O7 0.663624 0.506482 0.382218
O O8 0.528874 0.864776 0.569364
O O9 0.464089 0.711684 0.422333
O O10 0.530134 0.936310 0.345937
O O11 0.750000 0.000000 0.976705
O O12 0.860168 0.925533 0.912737
O O13 0.518236 0.250000 0.250000
O O14 0.448612 0.018487 0.217405
O O15 0.599011 0.250000 0.750000
#
# Coordination Sequence:
#
# PCOD9409027 Si02
#       6
#     8   8   8   8   8   8
#     4  10  20  36  57  85 119 153 195 248 301 359
#     4  10  19  35  58  84 117 153 192 243 302 359
#     4  10  22  38  58  88 121 155 197 247 306 365
#     4  10  22  40  60  84 117 162 208 249 300 357
#     4  10  21  37  58  86 122 158 196 242 298 359
#     4  10  22  42  61  82 120 157 199 255 302 361
#
# _framework density 20.137682000000002
#
# number of rings (size 3 to 8) (size 9 to 14) (size 15 to 20)
#    0.000    2.000    0.000    5.000    0.000    8.000 
#    0.000    8.333    0.000    0.000    0.000    0.000 
#    0.000    0.000    0.000    0.000    0.000    0.000 
#
# Total GULP energy -267379.975450 kJ/mol
# GULP energy per Si atom -5570.416155 kJ/mol
# Density = 2.009185 g / cm^3
# Si number density = 20.137682 Si / 1000 Ang^3
#
#
#
# Elastic Constant Matrix: (Units=GPa)
#
#
# Indices 1 2 3 4 5 6 
#
# 1 93.2935 40.1540 26.4707 0.0000 0.0000 0.0000
# 2 40.1540 124.3436 27.9060 0.0000 0.0000 0.0000
# 3 26.4707 27.9060 62.0249 0.0000 0.0000 0.0000
# 4 0.0000 0.0000 0.0000 27.8118 0.0000 0.0000
# 5 0.0000 0.0000 0.0000 0.0000 24.4604 0.0000
# 6 0.0000 0.0000 0.0000 0.0000 0.0000 6.1928
#
#
#
# Elastic Compliance Matrix: (Units=1/GPa)
#
#
# Indices 1 2 3 4 5 6 
#
# 1 0.013358 -0.003375 -0.004182 0.000000 0.000000 0.000000
# 2 -0.003375 0.009798 -0.002968 0.000000 0.000000 0.000000
# 3 -0.004182 -0.002968 0.019243 0.000000 0.000000 0.000000
# 4 0.000000 0.000000 0.000000 0.035956 0.000000 0.000000
# 5 0.000000 0.000000 0.000000 0.000000 0.040882 0.000000
# 6 0.000000 0.000000 0.000000 0.000000 0.000000 0.161478
#
#
# Mechanical properties :
#
#
# Convention : Reuss Voigt Hill
#
# Bulk Modulus (GPa) = 46.84216 52.08038 49.46127
# Shear Modulus (GPa) = 16.18735 24.03509 20.11122
#
# Velocity S-wave (km/s) = 2.83827 3.45851 3.16363
# Velocity P-wave (km/s) = 5.83545 6.47045 6.16114
#
# Compressibility (1/GPa) = 0.02134829
#
# Stress axis : x y z
#
# Youngs Moduli (GPa) = 74.86021 102.05921 51.96727
#
# Poissons Ratio (x) = 0.34446 0.21735
# Poissons Ratio (y) = 0.25266 0.15424
# Poissons Ratio (z) = 0.31310 0.30291
#
# Static dielectric constant tensor:
#      x y z
#    x 1.719890 0.000000 0.000000 
#    y 0.000000 1.764040 0.000000 
#    z 0.000000 0.000000 1.746510 
# 
# From -- ./inp_files/22281.got.cif
#   From: 2010.05.17/outbox.cif.g08.bks.cpg/sg52_12_cif.got.tgz:22281.got - 2010.06.03 12:15:38.
