data_PCOD9409044
_publ_section_title
;
Structure prediction by ZEFSAII (Michael W. Deem and Ramdas Pophale) SiO2 
 PCOD9409044
Probable space group: P N N A
;
_chemical_formula_sum "Si O2"
_cell_formula_units_Z 56
_cell_length_a 15.494235
_cell_length_b 11.558461
_cell_length_c 14.400385
_cell_angle_alpha 90.000000
_cell_angle_beta 90.000000
_cell_angle_gamma 90.000000
_cell_volume 2578.957907
_symmetry_space_group_name_H-M "P N N A"
_symmetry_group_IT_number 52
_symmetry_cell_setting 'orthorhombic'
loop_
_space_group_symop_operation_xyz
x,y,z
1/2-x,-y,z
x,1/2-y,1/2-z
1/2-x,1/2+y,1/2-z
-x,-y,-z
1/2+x,y,-z
-x,1/2+y,1/2+z
1/2+x,1/2-y,1/2+z
loop_
_atom_site_type_symbol
_atom_site_label
_atom_site_fract_x
_atom_site_fract_y
_atom_site_fract_z
Si Si1 0.389807 0.888396 0.552639
Si Si2 0.654761 0.461140 0.256406
Si Si3 0.990628 0.885679 0.758300
Si Si4 0.906764 0.863251 0.059356
Si Si5 0.707296 0.626113 0.746078
Si Si6 0.593432 0.956860 0.915577
Si Si7 0.582582 0.950287 0.603538
O O1 0.348753 0.910809 0.652785
O O2 0.373629 0.757920 0.519821
O O3 0.367278 0.990626 0.481420
O O4 0.493914 0.894843 0.567321
O O5 0.750000 0.500000 0.280375
O O6 0.588504 0.568433 0.259918
O O7 0.619086 0.372522 0.333037
O O8 0.985473 0.750000 0.750000
O O9 0.947227 0.944079 0.668978
O O10 0.943972 0.942557 0.847206
O O11 0.010866 0.879776 0.055935
O O12 0.871370 0.974295 0.004007
O O13 0.750000 0.500000 0.762581
O O14 0.755994 0.750000 0.750000
O O15 0.662046 0.610740 0.646110
O O16 0.635969 0.631471 0.828078
#
# Coordination Sequence:
#
# PCOD9409044 Si02
#       7
#     8   8   8   8   8   8   8
#     4  10  19  35  60  83 108 148 194 240 287 337
#     4  10  22  35  48  77 115 152 195 235 283 342
#     4   9  17  32  54  77 107 145 189 248 303 346
#     4  10  19  35  60  83 108 148 194 240 287 337
#     4  11  24  41  61  88 123 159 191 233 293 358
#     4   9  20  36  57  86 112 141 190 242 290 346
#     4   9  20  36  57  86 112 141 190 242 290 346
#
# _framework density 21.714196000000001
#
# number of rings (size 3 to 8) (size 9 to 14) (size 15 to 20)
#    0.000    2.286    0.000    3.000    0.000    5.714 
#    0.000    1.429    0.000    0.000    0.000    0.000 
#    0.000    0.000    0.000    0.000    0.000    0.000 
#
# Total GULP energy -312660.894529 kJ/mol
# GULP energy per Si atom -5583.230259 kJ/mol
# Density = 2.166477 g / cm^3
# Si number density = 21.714196 Si / 1000 Ang^3
#
#
#
# Elastic Constant Matrix: (Units=GPa)
#
#
# Indices 1 2 3 4 5 6 
#
# 1 30.9160 -2.5284 -12.3693 0.0000 0.0000 0.0000
# 2 -2.5284 110.3635 -8.9636 0.0000 0.0000 0.0000
# 3 -12.3693 -8.9636 79.9843 0.0000 0.0000 0.0000
# 4 0.0000 0.0000 0.0000 4.3646 0.0000 0.0000
# 5 0.0000 0.0000 0.0000 0.0000 -30.8986 0.0000
# 6 0.0000 0.0000 0.0000 0.0000 0.0000 8.0721
#
#
#
# Elastic Compliance Matrix: (Units=1/GPa)
#
#
# Indices 1 2 3 4 5 6 
#
# 1 0.034647 0.001240 0.005497 0.000000 0.000000 0.000000
# 2 0.001240 0.009189 0.001222 0.000000 0.000000 0.000000
# 3 0.005497 0.001222 0.013489 0.000000 0.000000 0.000000
# 4 0.000000 0.000000 0.000000 0.229115 0.000000 0.000000
# 5 0.000000 0.000000 0.000000 0.000000 -0.032364 0.000000
# 6 0.000000 0.000000 0.000000 0.000000 0.000000 0.123884
#
#
# Mechanical properties :
#
#
# Convention : Reuss Voigt Hill
#
# Bulk Modulus (GPa) = 13.65338 19.28234 16.46786
# Shear Modulus (GPa) = 12.93807 12.64930 12.79368
#
# Velocity S-wave (km/s) = 2.44362 2.41620 2.42995
# Velocity P-wave (km/s) = 3.77666 4.08453 3.93360
#
# Compressibility (1/GPa) = 0.07324194
#
# Stress axis : x y z
#
# Youngs Moduli (GPa) = 28.86294 108.83062 74.13207
#
# Poissons Ratio (x) = -0.13497 -0.40750
# Poissons Ratio (y) = -0.03580 -0.09055
# Poissons Ratio (z) = -0.15866 -0.13294
#
# Static dielectric constant tensor:
#      x y z
#    x 1.806910 0.000000 0.000000 
#    y 0.000000 1.837140 0.000000 
#    z 0.000000 0.000000 1.834420 
# 
# From -- ./inp_files/27255.got.cif
#   From: 2010.05.17/outbox.cif.g08.bks.cpg/sg52_14_cif.got.tgz:27255.got - 2010.06.03 12:15:38.
