data_PCOD9409295
_publ_section_title
;
Structure prediction by ZEFSAII (Michael W. Deem and Ramdas Pophale) SiO2 
 PCOD9409295
Probable space group: P N N A
;
_chemical_formula_sum "Si O2"
_cell_formula_units_Z 60
_cell_length_a 17.135227
_cell_length_b 19.338610
_cell_length_c 7.661371
_cell_angle_alpha 90.000000
_cell_angle_beta 90.000000
_cell_angle_gamma 90.000000
_cell_volume 2538.759787
_symmetry_space_group_name_H-M "P N N A"
_symmetry_group_IT_number 52
_symmetry_cell_setting 'orthorhombic'
loop_
_space_group_symop_operation_xyz
x,y,z
1/2-x,-y,z
x,1/2-y,1/2-z
1/2-x,1/2+y,1/2-z
-x,-y,-z
1/2+x,y,-z
-x,1/2+y,1/2+z
1/2+x,1/2-y,1/2+z
loop_
_atom_site_type_symbol
_atom_site_label
_atom_site_fract_x
_atom_site_fract_y
_atom_site_fract_z
Si Si1 0.323583 0.352323 0.063020
Si Si2 0.704734 0.242977 0.051385
Si Si3 0.547846 0.481384 0.214139
Si Si4 0.163017 0.493133 0.495647
Si Si5 0.645478 0.656565 0.542703
Si Si6 0.875498 0.497424 0.868862
Si Si7 0.587399 0.250000 0.750000
Si Si8 0.546376 0.648702 0.226413
O O1 0.352271 0.326911 0.252772
O O2 0.318653 0.435337 0.074737
O O3 0.244414 0.314482 0.012490
O O4 0.386600 0.335593 0.914380
O O5 0.677731 0.250000 0.250000
O O6 0.775380 0.187790 0.038567
O O7 0.639725 0.225036 0.911005
O O8 0.597836 0.459733 0.381511
O O9 0.458071 0.460619 0.191434
O O10 0.540730 0.565348 0.225868
O O11 0.597275 0.463169 0.041840
O O12 0.250000 0.500000 0.570791
O O13 0.145156 0.573917 0.470079
O O14 0.158199 0.463508 0.299248
O O15 0.574871 0.676215 0.415490
O O16 0.533129 0.312821 0.813661
#
# Coordination Sequence:
#
# PCOD9409295 Si02
#       8
#     8   8   8   8   8   8   4   8
#     4  10  19  38  67  84 111 161 206 233 295 377
#     4  12  23  39  60  86 121 155 196 255 309 358
#     4   9  19  38  60  86 120 160 199 246 295 356
#     4  10  21  35  58  92 123 156 197 243 294 357
#     4  10  20  39  64  86 113 167 205 235 298 374
#     4   9  19  36  60  85 114 155 202 241 291 348
#     4  12  26  38  56  96 126 146 200 270 310 342
#     4  10  21  38  63  88 120 160 206 245 298 368
#
# _framework density 23.633586000000001
#
# number of rings (size 3 to 8) (size 9 to 14) (size 15 to 20)
#    0.000    1.867    2.667    1.200    0.000    2.667 
#    0.000    4.000    0.000    0.000    0.000    0.000 
#    0.000    0.000    0.000    0.000    0.000    0.000 
#
# Total GULP energy -335374.504485 kJ/mol
# GULP energy per Si atom -5589.575075 kJ/mol
# Density = 2.357979 g / cm^3
# Si number density = 23.633586 Si / 1000 Ang^3
#
#
#
# Elastic Constant Matrix: (Units=GPa)
#
#
# Indices 1 2 3 4 5 6 
#
# 1 55.4305 -4.3528 18.5365 0.0000 0.0000 0.0000
# 2 -4.3528 31.2984 10.9069 0.0000 0.0000 0.0000
# 3 18.5365 10.9069 105.0966 0.0000 0.0000 0.0000
# 4 0.0000 0.0000 0.0000 12.9490 0.0000 0.0000
# 5 0.0000 0.0000 0.0000 0.0000 33.4119 0.0000
# 6 0.0000 0.0000 0.0000 0.0000 0.0000 6.2689
#
#
#
# Elastic Compliance Matrix: (Units=1/GPa)
#
#
# Indices 1 2 3 4 5 6 
#
# 1 0.019664 0.004091 -0.003893 0.000000 0.000000 0.000000
# 2 0.004091 0.034001 -0.004250 0.000000 0.000000 0.000000
# 3 -0.003893 -0.004250 0.010643 0.000000 0.000000 0.000000
# 4 0.000000 0.000000 0.000000 0.077226 0.000000 0.000000
# 5 0.000000 0.000000 0.000000 0.000000 0.029929 0.000000
# 6 0.000000 0.000000 0.000000 0.000000 0.000000 0.159517
#
#
# Mechanical properties :
#
#
# Convention : Reuss Voigt Hill
#
# Bulk Modulus (GPa) = 17.79243 26.88963 22.34103
# Shear Modulus (GPa) = 13.97362 21.64162 17.80762
#
# Velocity S-wave (km/s) = 2.43422 3.02936 2.74795
# Velocity P-wave (km/s) = 3.93006 4.86194 4.42062
#
# Compressibility (1/GPa) = 0.05620369
#
# Stress axis : x y z
#
# Youngs Moduli (GPa) = 50.85522 29.41121 93.96080
#
# Poissons Ratio (x) = -0.12033 0.36577
# Poissons Ratio (y) = -0.20806 0.39935
# Poissons Ratio (z) = 0.19797 0.12500
#
# Static dielectric constant tensor:
#      x y z
#    x 1.861980 0.000000 0.000000 
#    y 0.000000 1.935090 0.000000 
#    z 0.000000 0.000000 1.959370 
# 
# From -- ./inp_files/10933.got.cif
#   From: 2010.05.17/outbox.cif.g08.bks.cpg/sg52_6_cif.got.tgz:10933.got - 2010.06.03 12:15:38.
