data_PCOD9409368
_publ_section_title
;
Structure prediction by ZEFSAII (Michael W. Deem and Ramdas Pophale) SiO2 
 PCOD9409368
Probable space group: P N N A
;
_chemical_formula_sum "Si O2"
_cell_formula_units_Z 32
_cell_length_a 14.924681
_cell_length_b 9.830527
_cell_length_c 9.814029
_cell_angle_alpha 90.000000
_cell_angle_beta 90.000000
_cell_angle_gamma 90.000000
_cell_volume 1439.889599
_symmetry_space_group_name_H-M "P N N A"
_symmetry_group_IT_number 52
_symmetry_cell_setting 'orthorhombic'
loop_
_space_group_symop_operation_xyz
x,y,z
1/2-x,-y,z
x,1/2-y,1/2-z
1/2-x,1/2+y,1/2-z
-x,-y,-z
1/2+x,y,-z
-x,1/2+y,1/2+z
1/2+x,1/2-y,1/2+z
loop_
_atom_site_type_symbol
_atom_site_label
_atom_site_fract_x
_atom_site_fract_y
_atom_site_fract_z
Si Si1 0.580509 0.610177 0.013124
Si Si2 0.145856 0.250000 0.250000
Si Si3 0.250000 0.500000 0.152725
Si Si4 0.071212 0.272530 0.550441
Si Si5 0.353973 0.531824 0.755256
O O1 0.603355 0.600020 0.172706
O O2 0.500000 0.500000 0.000000
O O3 0.671170 0.566133 0.938202
O O4 0.534606 0.740022 0.943751
O O5 0.206072 0.383191 0.240988
O O6 0.093311 0.259260 0.391693
O O7 0.098688 0.413533 0.619729
O O8 0.127105 0.156520 0.635994
O O9 0.250000 0.500000 0.734366
#
# Coordination Sequence:
#
# PCOD9409368 Si02
#       5
#     8   4   4   8   8
#     4  10  19  43  68  96 138 185 229 290 371 423
#     4  12  24  44  64 110 140 188 238 296 366 426
#     4  12  24  42  78  98 146 196 228 300 376 438
#     4  10  23  39  70  96 145 179 239 298 362 428
#     4  10  19  40  69  99 133 190 235 283 354 438
#
# _framework density 22.223927
#
# number of rings (size 3 to 8) (size 9 to 14) (size 15 to 20)
#    0.000    1.500    6.250    0.000    1.750    4.000 
#    0.000    6.250    0.000    0.000    0.000    0.000 
#    0.000    0.000    0.000    0.000    0.000    0.000 
#
# Total GULP energy -178517.020308 kJ/mol
# GULP energy per Si atom -5578.656885 kJ/mol
# Density = 2.217334 g / cm^3
# Si number density = 22.223927 Si / 1000 Ang^3
#
#
#
# Elastic Constant Matrix: (Units=GPa)
#
#
# Indices 1 2 3 4 5 6 
#
# 1 162.6990 41.9711 45.8666 0.0000 0.0000 0.0000
# 2 41.9711 58.2949 32.5826 0.0000 0.0000 0.0000
# 3 45.8666 32.5826 116.7857 0.0000 0.0000 0.0000
# 4 0.0000 0.0000 0.0000 22.6469 0.0000 0.0000
# 5 0.0000 0.0000 0.0000 0.0000 -0.0497 0.0000
# 6 0.0000 0.0000 0.0000 0.0000 0.0000 16.8313
#
#
#
# Elastic Compliance Matrix: (Units=1/GPa)
#
#
# Indices 1 2 3 4 5 6 
#
# 1 0.007850 -0.004655 -0.001784 0.000000 0.000000 0.000000
# 2 -0.004655 0.023083 -0.004612 0.000000 0.000000 0.000000
# 3 -0.001784 -0.004612 0.010550 0.000000 0.000000 0.000000
# 4 0.000000 0.000000 0.000000 0.044156 0.000000 0.000000
# 5 0.000000 0.000000 0.000000 0.000000-20.133435 0.000000
# 6 0.000000 0.000000 0.000000 0.000000 0.000000 0.059413
#
#
# Mechanical properties :
#
#
# Convention : Reuss Voigt Hill
#
# Bulk Modulus (GPa) = 51.59587 64.29115 57.94351
# Shear Modulus (GPa) = -0.25050 22.37634 11.06292
#
# Velocity S-wave (km/s) = -0.33610 3.17654 2.23355
# Velocity P-wave (km/s) = 4.80793 6.51502 5.72545
#
# Compressibility (1/GPa) = 0.01938140
#
# Stress axis : x y z
#
# Youngs Moduli (GPa) = 127.38692 43.32175 94.78433
#
# Poissons Ratio (x) = 0.20164 0.16914
# Poissons Ratio (y) = 0.59292 0.43715
# Poissons Ratio (z) = 0.22732 0.19980
#
# Static dielectric constant tensor:
#      x y z
#    x 1.819200 0.000000 0.000000 
#    y 0.000000 -2.856440 0.000000 
#    z 0.000000 0.000000 1.872710 
# 
# From -- ./inp_files/9647.got.cif
#   From: 2010.05.17/outbox.cif.g08.bks.cpg/sg52_5_cif.got.tgz:9647.got - 2010.06.03 12:15:38.
