data_PCOD9409677
_publ_section_title
;
Structure prediction by ZEFSAII (Michael W. Deem and Ramdas Pophale) SiO2 
 PCOD9409677
Probable space group: P N N A
;
_chemical_formula_sum "Si O2"
_cell_formula_units_Z 52
_cell_length_a 24.420389
_cell_length_b 10.865580
_cell_length_c 8.723230
_cell_angle_alpha 90.000000
_cell_angle_beta 90.000000
_cell_angle_gamma 90.000000
_cell_volume 2314.636593
_symmetry_space_group_name_H-M "P N N A"
_symmetry_group_IT_number 52
_symmetry_cell_setting 'orthorhombic'
loop_
_space_group_symop_operation_xyz
x,y,z
1/2-x,-y,z
x,1/2-y,1/2-z
1/2-x,1/2+y,1/2-z
-x,-y,-z
1/2+x,y,-z
-x,1/2+y,1/2+z
1/2+x,1/2-y,1/2+z
loop_
_atom_site_type_symbol
_atom_site_label
_atom_site_fract_x
_atom_site_fract_y
_atom_site_fract_z
Si Si1 0.662162 0.302364 0.094542
Si Si2 0.414967 0.497001 0.034463
Si Si3 0.468401 0.889453 0.195003
Si Si4 0.750000 0.000000 0.428874
Si Si5 0.852239 0.549635 0.540134
Si Si6 0.821824 0.381453 0.812456
Si Si7 0.588773 0.610243 0.300623
O O1 0.634269 0.250000 0.250000
O O2 0.624004 0.381836 0.981081
O O3 0.710135 0.397711 0.146135
O O4 0.677129 0.176259 0.007535
O O5 0.463469 0.531329 0.148306
O O6 0.383442 0.387403 0.121928
O O7 0.419456 0.460120 0.859086
O O8 0.465447 0.750000 0.250000
O O9 0.413844 0.916870 0.098542
O O10 0.528640 0.899045 0.120312
O O11 0.786763 0.080697 0.542313
O O12 0.820980 0.481309 0.676873
O O13 0.864633 0.453824 0.402337
O O14 0.806614 0.250000 0.750000
O O15 0.601207 0.750000 0.250000
#
# Coordination Sequence:
#
# PCOD9409677 Si02
#       7
#     8   8   8   4   8   8   8
#     4  11  22  44  67  93 126 164 213 260 331 385
#     4  10  20  38  62  86 127 172 208 257 312 374
#     4  10  20  35  59  94 128 167 217 264 300 367
#     4  10  26  42  66  96 122 154 208 276 318 400
#     4  11  22  39  68  88 126 172 210 257 319 383
#     4  10  23  41  62  91 123 158 208 260 321 384
#     4  11  22  36  58  93 132 170 217 259 308 363
#
# _framework density 22.465729
#
# number of rings (size 3 to 8) (size 9 to 14) (size 15 to 20)
#    0.000    1.538    3.077    1.846    2.154    0.000 
#    2.769    1.538    3.385    0.000    0.000    0.000 
#    0.000    0.000    0.000    0.000    0.000    0.000 
#
# Total GULP energy -290050.341148 kJ/mol
# GULP energy per Si atom -5577.891176 kJ/mol
# Density = 2.241460 g / cm^3
# Si number density = 22.465729 Si / 1000 Ang^3
#
#
#
# Elastic Constant Matrix: (Units=GPa)
#
#
# Indices 1 2 3 4 5 6 
#
# 1 37.1397 15.8933 -1.7030 0.0000 0.0000 0.0000
# 2 15.8933 103.0058 8.7410 0.0000 0.0000 0.0000
# 3 -1.7030 8.7410 50.3325 0.0000 0.0000 0.0000
# 4 0.0000 0.0000 0.0000 22.2375 0.0000 0.0000
# 5 0.0000 0.0000 0.0000 0.0000 -8.4534 0.0000
# 6 0.0000 0.0000 0.0000 0.0000 0.0000 34.1679
#
#
#
# Elastic Compliance Matrix: (Units=1/GPa)
#
#
# Indices 1 2 3 4 5 6 
#
# 1 0.028986 -0.004624 0.001784 0.000000 0.000000 0.000000
# 2 -0.004624 0.010591 -0.001996 0.000000 0.000000 0.000000
# 3 0.001784 -0.001996 0.020275 0.000000 0.000000 0.000000
# 4 0.000000 0.000000 0.000000 0.044969 0.000000 0.000000
# 5 0.000000 0.000000 0.000000 0.000000 -0.118296 0.000000
# 6 0.000000 0.000000 0.000000 0.000000 0.000000 0.029267
#
#
# Mechanical properties :
#
#
# Convention : Reuss Voigt Hill
#
# Bulk Modulus (GPa) = 19.92822 26.26006 23.09414
# Shear Modulus (GPa) = 118.51139 20.76019 69.63579
#
# Velocity S-wave (km/s) = 7.27094 3.04317 5.57349
# Velocity P-wave (km/s) = 8.90946 4.90532 7.19169
#
# Compressibility (1/GPa) = 0.05018009
#
# Stress axis : x y z
#
# Youngs Moduli (GPa) = 34.49964 94.42010 49.32224
#
# Poissons Ratio (x) = 0.43657 -0.08798
# Poissons Ratio (y) = 0.15952 0.09843
# Poissons Ratio (z) = -0.06154 0.18844
#
# Static dielectric constant tensor:
#      x y z
#    x 2.027580 0.000000 0.000000 
#    y 0.000000 1.840620 0.000000 
#    z 0.000000 0.000000 1.868680 
# 
# From -- ./inp_files/14995.got.cif
#   From: 2010.05.17/outbox.cif.g08.bks.cpg/sg52_8_cif.got.tgz:14995.got - 2010.06.03 12:15:38.
