data_PCOD9409922
_publ_section_title
;
Structure prediction by ZEFSAII (Michael W. Deem and Ramdas Pophale) SiO2 
 PCOD9409922
Probable space group: P N N A
;
_chemical_formula_sum "Si O2"
_cell_formula_units_Z 32
_cell_length_a 9.470118
_cell_length_b 7.389529
_cell_length_c 15.952954
_cell_angle_alpha 90.000000
_cell_angle_beta 90.000000
_cell_angle_gamma 90.000000
_cell_volume 1116.383120
_symmetry_space_group_name_H-M "P N N A"
_symmetry_group_IT_number 52
_symmetry_cell_setting 'orthorhombic'
loop_
_space_group_symop_operation_xyz
x,y,z
1/2-x,-y,z
x,1/2-y,1/2-z
1/2-x,1/2+y,1/2-z
-x,-y,-z
1/2+x,y,-z
-x,1/2+y,1/2+z
1/2+x,1/2-y,1/2+z
loop_
_atom_site_type_symbol
_atom_site_label
_atom_site_fract_x
_atom_site_fract_y
_atom_site_fract_z
Si Si1 0.671890 0.195471 0.149236
Si Si2 0.607753 0.453697 0.784395
Si Si3 0.908571 0.003351 0.899802
Si Si4 0.935526 0.119351 0.425616
O O1 0.665590 0.250000 0.250000
O O2 0.776130 0.315451 0.090132
O O3 0.750000 0.000000 0.156874
O O4 0.536312 0.143776 0.089393
O O5 0.750000 0.500000 0.833875
O O6 0.604043 0.250000 0.750000
O O7 0.613966 0.559328 0.698121
O O8 0.475587 0.491087 0.841394
O O9 0.973612 0.804890 0.913452
O O10 0.750000 0.000000 0.936434
O O11 0.000000 0.000000 0.500000
#
# Coordination Sequence:
#
# PCOD9409922 Si02
#       4
#     8   8   8   8
#     4  10  20  38  67 109 150 194 256 320 379 453
#     4   9  18  36  65  99 131 174 240 303 357 438
#     4   9  19  37  67 104 142 192 256 317 372 447
#     4  10  20  37  62 102 152 198 243 300 382 468
#
# _framework density 28.663993000000001
#
# number of rings (size 3 to 8) (size 9 to 14) (size 15 to 20)
#    0.000    2.500    0.000    3.750    0.000    8.000 
#    0.000    5.000    0.000    4.500    0.000  108.500 
#    0.000    0.000    0.000    0.750    0.000    0.000 
#
# Total GULP energy -178616.486637 kJ/mol
# GULP energy per Si atom -5581.765207 kJ/mol
# Density = 2.859875 g / cm^3
# Si number density = 28.663993 Si / 1000 Ang^3
#
#
#
# Elastic Constant Matrix: (Units=GPa)
#
#
# Indices 1 2 3 4 5 6 
#
# 1 242.2829 56.7847 82.8727 0.0000 0.0000 0.0000
# 2 56.7847 159.2592 64.6729 0.0000 0.0000 0.0000
# 3 82.8727 64.6729 150.2024 0.0000 0.0000 0.0000
# 4 0.0000 0.0000 0.0000 40.2488 0.0000 0.0000
# 5 0.0000 0.0000 0.0000 0.0000 27.8116 0.0000
# 6 0.0000 0.0000 0.0000 0.0000 0.0000 53.0847
#
#
#
# Elastic Compliance Matrix: (Units=1/GPa)
#
#
# Indices 1 2 3 4 5 6 
#
# 1 0.005177 -0.000831 -0.002498 0.000000 0.000000 0.000000
# 2 -0.000831 0.007743 -0.002875 0.000000 0.000000 0.000000
# 3 -0.002498 -0.002875 0.009274 0.000000 0.000000 0.000000
# 4 0.000000 0.000000 0.000000 0.024845 0.000000 0.000000
# 5 0.000000 0.000000 0.000000 0.000000 0.035956 0.000000
# 6 0.000000 0.000000 0.000000 0.000000 0.000000 0.018838
#
#
# Mechanical properties :
#
#
# Convention : Reuss Voigt Hill
#
# Bulk Modulus (GPa) = 102.20555 106.71168 104.45861
# Shear Modulus (GPa) = 42.55150 47.38997 44.97074
#
# Velocity S-wave (km/s) = 3.85709 4.07048 3.96522
# Velocity P-wave (km/s) = 7.45453 7.70721 7.58192
#
# Compressibility (1/GPa) = 0.00978420
#
# Stress axis : x y z
#
# Youngs Moduli (GPa) = 193.17011 129.14737 107.82675
#
# Poissons Ratio (x) = 0.10736 0.26939
# Poissons Ratio (y) = 0.16058 0.31004
# Poissons Ratio (z) = 0.48260 0.37134
#
# Static dielectric constant tensor:
#      x y z
#    x 2.574480 0.000000 0.000000 
#    y 0.000000 2.375030 0.000000 
#    z 0.000000 0.000000 2.368880 
# 
# From -- ./inp_files/25516.got.cif
#   From: 2010.05.17/outbox.cif.g08.bks.cpg/sg52_13_cif.got.tgz:25516.got - 2010.06.03 12:15:38.
