data_PCOD9409930
_publ_section_title
;
Structure prediction by ZEFSAII (Michael W. Deem and Ramdas Pophale) SiO2 
 PCOD9409930
Probable space group: P N N A
;
_chemical_formula_sum "Si O2"
_cell_formula_units_Z 60
_cell_length_a 14.950610
_cell_length_b 8.725529
_cell_length_c 21.153893
_cell_angle_alpha 90.000000
_cell_angle_beta 90.000000
_cell_angle_gamma 90.000000
_cell_volume 2759.567250
_symmetry_space_group_name_H-M "P N N A"
_symmetry_group_IT_number 52
_symmetry_cell_setting 'orthorhombic'
loop_
_space_group_symop_operation_xyz
x,y,z
1/2-x,-y,z
x,1/2-y,1/2-z
1/2-x,1/2+y,1/2-z
-x,-y,-z
1/2+x,y,-z
-x,1/2+y,1/2+z
1/2+x,1/2-y,1/2+z
loop_
_atom_site_type_symbol
_atom_site_label
_atom_site_fract_x
_atom_site_fract_y
_atom_site_fract_z
Si Si1 0.031000 0.924768 0.741641
Si Si2 0.947668 0.047459 0.620371
Si Si3 0.274668 0.322881 0.164594
Si Si4 0.051165 0.476348 0.378372
Si Si5 0.750000 0.500000 0.660335
Si Si6 0.595000 0.222869 0.083378
Si Si7 0.309520 0.642451 0.803019
Si Si8 0.634863 0.289530 0.945822
O O1 0.063239 0.750000 0.750000
O O2 0.976133 0.537079 0.695098
O O3 0.105417 0.055743 0.729268
O O4 0.970902 0.934871 0.678493
O O5 0.880680 0.168395 0.652853
O O6 0.034267 0.126676 0.592895
O O7 0.898986 0.962141 0.563408
O O8 0.250000 0.500000 0.181583
O O9 0.248590 0.161482 0.197978
O O10 0.222313 0.291671 0.098253
O O11 0.157355 0.515902 0.378439
O O12 0.056928 0.315824 0.415213
O O13 0.976428 0.585202 0.409525
O O14 0.662494 0.242269 0.141434
O O15 0.644451 0.231880 0.016716
O O16 0.250000 0.500000 0.825791
O O17 0.266274 0.750000 0.750000
#
# Coordination Sequence:
#
# PCOD9409930 Si02
#       8
#     8   8   8   8   4   8   8   8
#     4  11  22  41  67  93 128 172 219 269 338 401
#     4  10  20  37  62  90 124 166 214 265 321 393
#     4   9  19  36  59  83 127 168 209 265 318 379
#     4  11  21  40  64  92 133 170 221 271 324 402
#     4  10  20  38  60  92 130 176 210 270 326 382
#     4  11  22  39  66  95 125 170 216 266 339 401
#     4  11  24  43  69  93 128 167 218 284 340 399
#     4  10  21  37  62  90 130 170 211 266 322 394
#
# _framework density 21.742539000000001
#
# number of rings (size 3 to 8) (size 9 to 14) (size 15 to 20)
#    0.000    1.600    4.000    1.200    0.000    1.600 
#    3.600    0.000    5.867    0.000    0.000    0.000 
#    0.000    0.000    0.000    0.000    0.000    0.000 
#
# Total GULP energy -334299.721929 kJ/mol
# GULP energy per Si atom -5571.662032 kJ/mol
# Density = 2.169305 g / cm^3
# Si number density = 21.742539 Si / 1000 Ang^3
#
#
#
# Elastic Constant Matrix: (Units=GPa)
#
#
# Indices 1 2 3 4 5 6 
#
# 1 56.1863 9.8004 17.8599 0.0000 0.0000 0.0000
# 2 9.8004 117.6624 37.8344 0.0000 0.0000 0.0000
# 3 17.8599 37.8344 92.3406 0.0000 0.0000 0.0000
# 4 0.0000 0.0000 0.0000 19.5645 0.0000 0.0000
# 5 0.0000 0.0000 0.0000 0.0000 148.6542 0.0000
# 6 0.0000 0.0000 0.0000 0.0000 0.0000 28.0278
#
#
#
# Elastic Compliance Matrix: (Units=1/GPa)
#
#
# Indices 1 2 3 4 5 6 
#
# 1 0.018986 -0.000461 -0.003483 0.000000 0.000000 0.000000
# 2 -0.000461 0.009800 -0.003926 0.000000 0.000000 0.000000
# 3 -0.003483 -0.003926 0.013112 0.000000 0.000000 0.000000
# 4 0.000000 0.000000 0.000000 0.051113 0.000000 0.000000
# 5 0.000000 0.000000 0.000000 0.000000 0.006727 0.000000
# 6 0.000000 0.000000 0.000000 0.000000 0.000000 0.035679
#
#
# Mechanical properties :
#
#
# Convention : Reuss Voigt Hill
#
# Bulk Modulus (GPa) = 38.23181 44.13098 41.18140
# Shear Modulus (GPa) = 31.27437 52.62894 41.95166
#
# Velocity S-wave (km/s) = 3.79673 4.92525 4.39734
# Velocity P-wave (km/s) = 6.06979 7.25846 6.69057
#
# Compressibility (1/GPa) = 0.02615623
#
# Stress axis : x y z
#
# Youngs Moduli (GPa) = 52.67167 102.04378 76.26772
#
# Poissons Ratio (x) = 0.04708 0.26564
# Poissons Ratio (y) = 0.02430 0.29942
# Poissons Ratio (z) = 0.18346 0.40062
#
# Static dielectric constant tensor:
#      x y z
#    x 1.796040 0.000000 0.000000 
#    y 0.000000 1.875790 0.000000 
#    z 0.000000 0.000000 1.785360 
# 
# From -- ./inp_files/40659.got.cif
#   From: 2010.05.17/outbox.cif.g08.bks.cpg/sg52_21_cif.got.tgz:40659.got - 2010.06.03 12:15:38.
