data_PCOD9409260
_publ_section_title
;
Structure prediction by ZEFSAII (Michael W. Deem and Ramdas Pophale) SiO2 
 PCOD9409260
Probable space group: P N N A
;
_chemical_formula_sum "Si O2"
_cell_formula_units_Z 40
_cell_length_a 18.473465
_cell_length_b 7.860354
_cell_length_c 14.528359
_cell_angle_alpha 90.000000
_cell_angle_beta 90.000000
_cell_angle_gamma 90.000000
_cell_volume 2109.633583
_symmetry_space_group_name_H-M "P N N A"
_symmetry_group_IT_number 52
_symmetry_cell_setting 'orthorhombic'
loop_
_space_group_symop_operation_xyz
x,y,z
1/2-x,-y,z
x,1/2-y,1/2-z
1/2-x,1/2+y,1/2-z
-x,-y,-z
1/2+x,y,-z
-x,1/2+y,1/2+z
1/2+x,1/2-y,1/2+z
loop_
_atom_site_type_symbol
_atom_site_label
_atom_site_fract_x
_atom_site_fract_y
_atom_site_fract_z
Si Si1 0.101337 0.978023 0.910607
Si Si2 0.444045 0.250000 0.750000
Si Si3 0.512545 0.758255 0.944489
Si Si4 0.223199 0.308937 0.147296
Si Si5 0.939761 0.915656 0.618871
Si Si6 0.250000 0.500000 0.489364
O O1 0.102168 0.855626 0.822894
O O2 0.045269 0.130220 0.888689
O O3 0.064596 0.880570 0.997146
O O4 0.180080 0.024332 0.946394
O O5 0.498021 0.132632 0.690855
O O6 0.559440 0.619548 0.890289
O O7 0.464426 0.660093 0.020687
O O8 0.250000 0.500000 0.127377
O O9 0.244210 0.250000 0.250000
O O10 0.135944 0.328384 0.143136
O O11 0.251622 0.167036 0.076071
#
# Coordination Sequence:
#
# PCOD9409260 Si02
#       6
#     8   4   8   8   8   4
#     4  10  21  40  62  91 123 167 211 261 319 382
#     4  10  22  38  62  88 122 158 218 266 296 368
#     4   9  19  36  65  86 115 161 212 252 315 377
#     4  12  24  39  62  98 131 166 209 267 337 402
#     4  10  19  38  60  89 119 156 209 265 309 375
#     4  12  24  44  66  90 134 176 208 266 336 398
#
# _framework density 18.960639
#
# number of rings (size 3 to 8) (size 9 to 14) (size 15 to 20)
#    0.000    1.600    4.000    1.200    0.000    0.800 
#    3.600    2.000    0.000    0.000    0.000    0.000 
#    0.000    0.000    0.000    0.000    0.000    0.000 
#
# Total GULP energy -223198.943861 kJ/mol
# GULP energy per Si atom -5579.973597 kJ/mol
# Density = 1.891748 g / cm^3
# Si number density = 18.960639 Si / 1000 Ang^3
#
#
#
# Elastic Constant Matrix: (Units=GPa)
#
#
# Indices 1 2 3 4 5 6 
#
# 1 31.9607 5.5934 10.9613 0.0000 0.0000 0.0000
# 2 5.5934 77.5705 8.4002 0.0000 0.0000 0.0000
# 3 10.9613 8.4002 60.7796 0.0000 0.0000 0.0000
# 4 0.0000 0.0000 0.0000 -2.8600 0.0000 0.0000
# 5 0.0000 0.0000 0.0000 0.0000 8.0571 0.0000
# 6 0.0000 0.0000 0.0000 0.0000 0.0000 28.8057
#
#
#
# Elastic Compliance Matrix: (Units=1/GPa)
#
#
# Indices 1 2 3 4 5 6 
#
# 1 0.033595 -0.001793 -0.005811 0.000000 0.000000 0.000000
# 2 -0.001793 0.013183 -0.001499 0.000000 0.000000 0.000000
# 3 -0.005811 -0.001499 0.017708 0.000000 0.000000 0.000000
# 4 0.000000 0.000000 0.000000 -0.349656 0.000000 0.000000
# 5 0.000000 0.000000 0.000000 0.000000 0.124115 0.000000
# 6 0.000000 0.000000 0.000000 0.000000 0.000000 0.034715
#
#
# Mechanical properties :
#
#
# Convention : Reuss Voigt Hill
#
# Bulk Modulus (GPa) = 21.60721 24.46895 23.03808
# Shear Modulus (GPa) = -53.93302 16.49095 -18.72103
#
# Velocity S-wave (km/s) = -5.33915 2.95235 -3.14564
# Velocity P-wave (km/s) = 5.15636 4.95529 1.00825
#
# Compressibility (1/GPa) = 0.04628086
#
# Stress axis : x y z
#
# Youngs Moduli (GPa) = 29.76623 75.85478 56.47174
#
# Poissons Ratio (x) = 0.13602 0.32815
# Poissons Ratio (y) = 0.05338 0.08463
# Poissons Ratio (z) = 0.17297 0.11368
#
# Static dielectric constant tensor:
#      x y z
#    x 1.644690 0.000000 0.000000 
#    y 0.000000 1.705920 0.000000 
#    z 0.000000 0.000000 1.633890 
# 
# From -- ./inp_files/20388.got.cif
#   From: 2010.05.17/outbox.cif.g08.bks.cpg/sg52_11_cif.got.tgz:20388.got - 2010.06.03 12:15:38.
