data_PCOD9409864
_publ_section_title
;
Structure prediction by ZEFSAII (Michael W. Deem and Ramdas Pophale) SiO2 
 PCOD9409864
Probable space group: P N N A
;
_chemical_formula_sum "Si O2"
_cell_formula_units_Z 44
_cell_length_a 31.465264
_cell_length_b 13.425058
_cell_length_c 5.169479
_cell_angle_alpha 90.000000
_cell_angle_beta 90.000000
_cell_angle_gamma 90.000000
_cell_volume 2183.706798
_symmetry_space_group_name_H-M "P N N A"
_symmetry_group_IT_number 52
_symmetry_cell_setting 'orthorhombic'
loop_
_space_group_symop_operation_xyz
x,y,z
1/2-x,-y,z
x,1/2-y,1/2-z
1/2-x,1/2+y,1/2-z
-x,-y,-z
1/2+x,y,-z
-x,1/2+y,1/2+z
1/2+x,1/2-y,1/2+z
loop_
_atom_site_type_symbol
_atom_site_label
_atom_site_fract_x
_atom_site_fract_y
_atom_site_fract_z
Si Si1 0.009842 0.363915 0.771188
Si Si2 0.137120 0.903376 0.634597
Si Si3 0.822771 0.487863 0.662833
Si Si4 0.744637 0.355442 0.614962
Si Si5 0.800878 0.250000 0.250000
Si Si6 0.958043 0.419313 0.275482
O O1 0.026108 0.250000 0.750000
O O2 0.973114 0.378285 0.552990
O O3 0.040470 0.459109 0.717640
O O4 0.991053 0.382787 0.056823
O O5 0.145207 0.980107 0.401585
O O6 0.165012 0.805087 0.565792
O O7 0.088034 0.883671 0.685828
O O8 0.155586 0.944817 0.905531
O O9 0.781028 0.423533 0.742131
O O10 0.800655 0.592755 0.602781
O O11 0.741739 0.250000 0.750000
O O12 0.767979 0.333274 0.345041
#
# Coordination Sequence:
#
# PCOD9409864 Si02
#       6
#     8   8   8   8   4   8
#     4  10  21  39  63  91 117 168 194 234 296 372
#     4  11  22  39  55  91 119 149 188 257 292 344
#     4  10  23  36  58  79 117 151 193 237 301 333
#     4  10  20  37  56  79 111 155 196 242 282 362
#     4  10  22  34  60  86 116 150 200 246 306 332
#     4  10  22  39  61  90 128 149 202 245 295 358
#
# _framework density 20.149222999999999
#
# number of rings (size 3 to 8) (size 9 to 14) (size 15 to 20)
#    0.000    1.818    1.818    1.636    5.091    1.455 
#    0.000    1.818    0.000    0.000    0.000    0.000 
#    0.000    0.000    0.000    0.000    0.000    0.000 
#
# Total GULP energy -245049.980965 kJ/mol
# GULP energy per Si atom -5569.317749 kJ/mol
# Density = 2.010336 g / cm^3
# Si number density = 20.149223 Si / 1000 Ang^3
#
#
#
# Elastic Constant Matrix: (Units=GPa)
#
#
# Indices 1 2 3 4 5 6 
#
# 1 21.3839 -13.9633 3.8444 0.0000 0.0000 0.0000
# 2 -13.9633 83.3251 -2.4849 0.0000 0.0000 0.0000
# 3 3.8444 -2.4849 74.3378 0.0000 0.0000 0.0000
# 4 0.0000 0.0000 0.0000 8.6554 0.0000 0.0000
# 5 0.0000 0.0000 0.0000 0.0000 40.1019 0.0000
# 6 0.0000 0.0000 0.0000 0.0000 0.0000 2.0384
#
#
#
# Elastic Compliance Matrix: (Units=1/GPa)
#
#
# Indices 1 2 3 4 5 6 
#
# 1 0.052950 0.008800 -0.002444 0.000000 0.000000 0.000000
# 2 0.008800 0.013476 -0.000005 0.000000 0.000000 0.000000
# 3 -0.002444 -0.000005 0.013578 0.000000 0.000000 0.000000
# 4 0.000000 0.000000 0.000000 0.115534 0.000000 0.000000
# 5 0.000000 0.000000 0.000000 0.000000 0.024936 0.000000
# 6 0.000000 0.000000 0.000000 0.000000 0.000000 0.490571
#
#
# Mechanical properties :
#
#
# Convention : Reuss Voigt Hill
#
# Bulk Modulus (GPa) = 10.78666 17.09324 13.93995
# Shear Modulus (GPa) = 6.85640 22.93585 14.89612
#
# Velocity S-wave (km/s) = 1.84667 3.37753 2.72194
# Velocity P-wave (km/s) = 3.14832 4.86950 4.10024
#
# Compressibility (1/GPa) = 0.09270708
#
# Stress axis : x y z
#
# Youngs Moduli (GPa) = 18.88573 74.20723 73.64660
#
# Poissons Ratio (x) = -0.65305 0.18001
# Poissons Ratio (y) = -0.16620 0.00034
# Poissons Ratio (z) = 0.04616 0.00035
#
# Static dielectric constant tensor:
#      x y z
#    x 1.677590 0.000000 0.000000 
#    y 0.000000 1.811220 0.000000 
#    z 0.000000 0.000000 2.858760 
# 
# From -- ./inp_files/5734.got.cif
#   From: 2010.05.17/outbox.cif.g08.bks.cpg/sg52_3_cif.got.tgz:5734.got - 2010.06.03 12:15:38.
