data_PCOD9409917
_publ_section_title
;
Structure prediction by ZEFSAII (Michael W. Deem and Ramdas Pophale) SiO2 
 PCOD9409917
Probable space group: P N N A
;
_chemical_formula_sum "Si O2"
_cell_formula_units_Z 40
_cell_length_a 19.711466
_cell_length_b 8.199798
_cell_length_c 11.210631
_cell_angle_alpha 90.000000
_cell_angle_beta 90.000000
_cell_angle_gamma 90.000000
_cell_volume 1811.974731
_symmetry_space_group_name_H-M "P N N A"
_symmetry_group_IT_number 52
_symmetry_cell_setting 'orthorhombic'
loop_
_space_group_symop_operation_xyz
x,y,z
1/2-x,-y,z
x,1/2-y,1/2-z
1/2-x,1/2+y,1/2-z
-x,-y,-z
1/2+x,y,-z
-x,1/2+y,1/2+z
1/2+x,1/2-y,1/2+z
loop_
_atom_site_type_symbol
_atom_site_label
_atom_site_fract_x
_atom_site_fract_y
_atom_site_fract_z
Si Si1 0.901738 0.903779 0.463882
Si Si2 0.070026 0.567161 0.204660
Si Si3 0.304890 0.871947 0.340849
Si Si4 0.457222 0.934654 0.889928
Si Si5 0.326834 0.946572 0.763573
O O1 0.844976 0.808657 0.543989
O O2 0.948441 0.761301 0.408700
O O3 0.861697 0.999702 0.361167
O O4 0.067046 0.974867 0.436750
O O5 0.083243 0.750000 0.250000
O O6 0.135486 0.457714 0.236781
O O7 0.002577 0.518438 0.275334
O O8 0.270262 0.750000 0.250000
O O9 0.250000 0.000000 0.384258
O O10 0.380867 0.995016 0.865422
O O11 0.500000 0.000000 0.000000
O O12 0.327127 0.750000 0.750000
O O13 0.250000 0.000000 0.780319
#
# Coordination Sequence:
#
# PCOD9409917 Si02
#       5
#     8   8   8   8   8
#     4   9  22  41  68  88 139 172 217 282 341 398
#     4  10  22  40  65  98 129 175 225 268 349 414
#     4  10  20  37  61  93 133 171 217 278 334 405
#     4  11  23  42  67  97 136 175 224 287 346 405
#     4  10  22  46  68  96 135 181 228 277 342 417
#
# _framework density 22.075361999999998
#
# number of rings (size 3 to 8) (size 9 to 14) (size 15 to 20)
#    1.200    0.800    0.000    4.200    0.000    3.200 
#    7.200    7.000    0.000    0.000    0.000    0.000 
#    0.000    0.000    0.000    0.000    0.000    0.000 
#
# Total GULP energy -222750.400366 kJ/mol
# GULP energy per Si atom -5568.760009 kJ/mol
# Density = 2.202512 g / cm^3
# Si number density = 22.075362 Si / 1000 Ang^3
#
#
#
# Elastic Constant Matrix: (Units=GPa)
#
#
# Indices 1 2 3 4 5 6 
#
# 1 163.1283 26.5965 74.7378 0.0000 0.0000 0.0000
# 2 26.5965 18.9288 19.6418 0.0000 0.0000 0.0000
# 3 74.7378 19.6418 126.2439 0.0000 0.0000 0.0000
# 4 0.0000 0.0000 0.0000 36.0352 0.0000 0.0000
# 5 0.0000 0.0000 0.0000 0.0000 17.2537 0.0000
# 6 0.0000 0.0000 0.0000 0.0000 0.0000 36.7010
#
#
#
# Elastic Compliance Matrix: (Units=1/GPa)
#
#
# Indices 1 2 3 4 5 6 
#
# 1 0.009545 -0.009001 -0.004250 0.000000 0.000000 0.000000
# 2 -0.009001 0.071489 -0.005794 0.000000 0.000000 0.000000
# 3 -0.004250 -0.005794 0.011339 0.000000 0.000000 0.000000
# 4 0.000000 0.000000 0.000000 0.027751 0.000000 0.000000
# 5 0.000000 0.000000 0.000000 0.000000 0.057959 0.000000
# 6 0.000000 0.000000 0.000000 0.000000 0.000000 0.027247
#
#
# Mechanical properties :
#
#
# Convention : Reuss Voigt Hill
#
# Bulk Modulus (GPa) = 18.42222 61.13925 39.78073
# Shear Modulus (GPa) = 19.11941 30.48628 24.80285
#
# Velocity S-wave (km/s) = 2.94615 3.72023 3.35558
# Velocity P-wave (km/s) = 4.46501 6.79774 5.75089
#
# Compressibility (1/GPa) = 0.05428228
#
# Stress axis : x y z
#
# Youngs Moduli (GPa) = 104.76714 13.98814 88.19240
#
# Poissons Ratio (x) = 0.12591 0.37484
# Poissons Ratio (y) = 0.94302 0.51098
# Poissons Ratio (z) = 0.44529 0.08105
#
# Static dielectric constant tensor:
#      x y z
#    x 1.853750 0.000000 0.000000 
#    y 0.000000 1.876150 0.000000 
#    z 0.000000 0.000000 1.859830 
# 
# From -- ./inp_files/20330.got.cif
#   From: 2010.05.17/outbox.cif.g08.bks.cpg/sg52_11_cif.got.tgz:20330.got - 2010.06.03 12:15:38.
