data_PCOD9409529
_publ_section_title
;
Structure prediction by ZEFSAII (Michael W. Deem and Ramdas Pophale) SiO2 
 PCOD9409529
Probable space group: P N N A
;
_chemical_formula_sum "Si O2"
_cell_formula_units_Z 40
_cell_length_a 5.647991
_cell_length_b 9.924635
_cell_length_c 29.713676
_cell_angle_alpha 90.000000
_cell_angle_beta 90.000000
_cell_angle_gamma 90.000000
_cell_volume 1665.577798
_symmetry_space_group_name_H-M "P N N A"
_symmetry_group_IT_number 52
_symmetry_cell_setting 'orthorhombic'
loop_
_space_group_symop_operation_xyz
x,y,z
1/2-x,-y,z
x,1/2-y,1/2-z
1/2-x,1/2+y,1/2-z
-x,-y,-z
1/2+x,y,-z
-x,1/2+y,1/2+z
1/2+x,1/2-y,1/2+z
loop_
_atom_site_type_symbol
_atom_site_label
_atom_site_fract_x
_atom_site_fract_y
_atom_site_fract_z
Si Si1 0.013185 0.696381 0.662543
Si Si2 0.500064 0.001955 0.365137
Si Si3 0.615479 0.138431 0.936742
Si Si4 0.511972 0.770271 0.803119
Si Si5 0.886021 0.186176 0.509250
O O1 0.007316 0.860547 0.661644
O O2 0.005312 0.647080 0.611280
O O3 0.759931 0.658715 0.683943
O O4 0.263460 0.658696 0.684412
O O5 0.250000 0.000000 0.390849
O O6 0.493714 0.129339 0.331492
O O7 0.750000 0.000000 0.391155
O O8 0.822546 0.250993 0.942411
O O9 0.750000 0.000000 0.943441
O O10 0.431384 0.186171 0.975020
O O11 0.513959 0.750000 0.750000
O O12 0.641176 0.121234 0.493342
#
# Coordination Sequence:
#
# PCOD9409529 Si02
#       5
#     8   8   8   8   8
#     4  10  21  34  55  82 106 139 180 224 272 329
#     4   8  16  33  53  74  96 131 172 215 262 317
#     4  10  20  34  52  80 114 143 180 219 269 327
#     4  10  20  37  57  78 103 137 184 228 276 329
#     4   8  19  32  52  74 105 148 177 216 268 322
#
# _framework density 24.015691
#
# number of rings (size 3 to 8) (size 9 to 14) (size 15 to 20)
#    1.200    1.600    0.000    1.200    2.800    0.000 
#    0.000    9.000    0.000    0.000    0.000   37.800 
#    0.000    0.000    0.000    0.000    0.000    0.000 
#
# Total GULP energy -222831.450503 kJ/mol
# GULP energy per Si atom -5570.786263 kJ/mol
# Density = 2.396103 g / cm^3
# Si number density = 24.015691 Si / 1000 Ang^3
#
#
#
# Elastic Constant Matrix: (Units=GPa)
#
#
# Indices 1 2 3 4 5 6 
#
# 1 263.7782 32.8424 33.1473 0.0000 0.0000 0.0000
# 2 32.8424 92.4711 12.5626 0.0000 0.0000 0.0000
# 3 33.1473 12.5626 113.8728 0.0000 0.0000 0.0000
# 4 0.0000 0.0000 0.0000 21.1355 0.0000 0.0000
# 5 0.0000 0.0000 0.0000 0.0000 27.3836 0.0000
# 6 0.0000 0.0000 0.0000 0.0000 0.0000 -3.5473
#
#
#
# Elastic Compliance Matrix: (Units=1/GPa)
#
#
# Indices 1 2 3 4 5 6 
#
# 1 0.004085 -0.001309 -0.001045 0.000000 0.000000 0.000000
# 2 -0.001309 0.011398 -0.000876 0.000000 0.000000 0.000000
# 3 -0.001045 -0.000876 0.009183 0.000000 0.000000 0.000000
# 4 0.000000 0.000000 0.000000 0.047314 0.000000 0.000000
# 5 0.000000 0.000000 0.000000 0.000000 0.036518 0.000000
# 6 0.000000 0.000000 0.000000 0.000000 0.000000 -0.281908
#
#
# Mechanical properties :
#
#
# Convention : Reuss Voigt Hill
#
# Bulk Modulus (GPa) = 54.92818 69.69186 62.31002
# Shear Modulus (GPa) = -31.07885 35.09903 2.01009
#
# Velocity S-wave (km/s) = -3.60127 3.82711 0.91586
# Velocity P-wave (km/s) = 2.37260 6.97218 5.20771
#
# Compressibility (1/GPa) = 0.01820559
#
# Stress axis : x y z
#
# Youngs Moduli (GPa) = 244.77775 87.73337 108.90232
#
# Poissons Ratio (x) = 0.11485 0.11378
# Poissons Ratio (y) = 0.32042 0.09544
# Poissons Ratio (z) = 0.25574 0.07689
#
# Static dielectric constant tensor:
#      x y z
#    x 1.999670 0.000000 0.000000 
#    y 0.000000 1.933450 0.000000 
#    z 0.000000 0.000000 1.814550 
# 
# From -- ./inp_files/41590.got.cif
#   From: 2010.05.17/outbox.cif.g08.bks.cpg/sg52_21_cif.got.tgz:41590.got - 2010.06.03 12:15:38.
