data_PCOD9409485
_publ_section_title
;
Structure prediction by ZEFSAII (Michael W. Deem and Ramdas Pophale) SiO2 
 PCOD9409485
Probable space group: P N N A
;
_chemical_formula_sum "Si O2"
_cell_formula_units_Z 32
_cell_length_a 13.976160
_cell_length_b 4.993743
_cell_length_c 20.977682
_cell_angle_alpha 90.000000
_cell_angle_beta 90.000000
_cell_angle_gamma 90.000000
_cell_volume 1464.102726
_symmetry_space_group_name_H-M "P N N A"
_symmetry_group_IT_number 52
_symmetry_cell_setting 'orthorhombic'
loop_
_space_group_symop_operation_xyz
x,y,z
1/2-x,-y,z
x,1/2-y,1/2-z
1/2-x,1/2+y,1/2-z
-x,-y,-z
1/2+x,y,-z
-x,1/2+y,1/2+z
1/2+x,1/2-y,1/2+z
loop_
_atom_site_type_symbol
_atom_site_label
_atom_site_fract_x
_atom_site_fract_y
_atom_site_fract_z
Si Si1 0.852759 0.622323 0.027707
Si Si2 0.187441 0.264495 0.659446
Si Si3 0.472611 0.688665 0.092092
Si Si4 0.971813 0.287804 0.679314
O O1 0.750000 0.500000 0.010560
O O2 0.904788 0.751581 0.967554
O O3 0.835031 0.827235 0.085398
O O4 0.926480 0.405724 0.059906
O O5 0.250000 0.500000 0.689167
O O6 0.083646 0.211228 0.686766
O O7 0.250000 0.000000 0.659596
O O8 0.433065 0.426004 0.128548
O O9 0.473825 0.923070 0.144828
O O10 0.928555 0.250000 0.750000
#
# Coordination Sequence:
#
# PCOD9409485 Si02
#       4
#     8   8   8   8
#     4   9  19  36  59  86 116 143 180 238 297 345
#     4  10  20  33  53  83 112 141 180 227 285 351
#     4  10  22  36  57  86 112 146 190 231 285 347
#     4  11  22  37  54  76 113 155 191 231 275 331
#
# _framework density 21.856390000000001
#
# number of rings (size 3 to 8) (size 9 to 14) (size 15 to 20)
#    0.000    2.000    0.000    5.250    0.000   14.000 
#    0.000    0.000    0.000    3.000    0.000    0.000 
#    0.000    0.000    0.000    0.000    0.000    0.000 
#
# Total GULP energy -178557.189293 kJ/mol
# GULP energy per Si atom -5579.912165 kJ/mol
# Density = 2.180664 g / cm^3
# Si number density = 21.856390 Si / 1000 Ang^3
#
#
#
# Elastic Constant Matrix: (Units=GPa)
#
#
# Indices 1 2 3 4 5 6 
#
# 1 40.2144 -16.1632 25.9323 0.0000 0.0000 0.0000
# 2 -16.1632 74.7367 11.6705 0.0000 0.0000 0.0000
# 3 25.9323 11.6705 137.1757 0.0000 0.0000 0.0000
# 4 0.0000 0.0000 0.0000 103.8610 0.0000 0.0000
# 5 0.0000 0.0000 0.0000 0.0000 206.1143 0.0000
# 6 0.0000 0.0000 0.0000 0.0000 0.0000 13.9688
#
#
#
# Elastic Compliance Matrix: (Units=1/GPa)
#
#
# Indices 1 2 3 4 5 6 
#
# 1 0.032535 0.008104 -0.006840 0.000000 0.000000 0.000000
# 2 0.008104 0.015579 -0.002858 0.000000 0.000000 0.000000
# 3 -0.006840 -0.002858 0.008826 0.000000 0.000000 0.000000
# 4 0.000000 0.000000 0.000000 0.009628 0.000000 0.000000
# 5 0.000000 0.000000 0.000000 0.000000 0.004852 0.000000
# 6 0.000000 0.000000 0.000000 0.000000 0.000000 0.071588
#
#
# Mechanical properties :
#
#
# Convention : Reuss Voigt Hill
#
# Bulk Modulus (GPa) = 18.60327 32.77842 25.69085
# Shear Modulus (GPa) = 30.46690 80.16797 55.31743
#
# Velocity S-wave (km/s) = 3.73763 6.06292 5.03631
# Velocity P-wave (km/s) = 5.21119 8.00261 6.75272
#
# Compressibility (1/GPa) = 0.05375398
#
# Stress axis : x y z
#
# Youngs Moduli (GPa) = 30.73621 64.18786 113.30032
#
# Poissons Ratio (x) = -0.52020 0.77498
# Poissons Ratio (y) = -0.24910 0.32376
# Poissons Ratio (z) = 0.21024 0.18342
#
# Static dielectric constant tensor:
#      x y z
#    x 1.718530 0.000000 0.000000 
#    y 0.000000 0.501390 0.000000 
#    z 0.000000 0.000000 1.877340 
# 
# From -- ./inp_files/32712.got.cif
#   From: 2010.05.17/outbox.cif.g08.bks.cpg/sg52_17_cif.got.tgz:32712.got - 2010.06.03 12:15:38.
