data_PCOD9409522
_publ_section_title
;
Structure prediction by ZEFSAII (Michael W. Deem and Ramdas Pophale) SiO2 
 PCOD9409522
Probable space group: P N N A
;
_chemical_formula_sum "Si O2"
_cell_formula_units_Z 32
_cell_length_a 21.444045
_cell_length_b 4.889549
_cell_length_c 15.188514
_cell_angle_alpha 90.000000
_cell_angle_beta 90.000000
_cell_angle_gamma 90.000000
_cell_volume 1592.541647
_symmetry_space_group_name_H-M "P N N A"
_symmetry_group_IT_number 52
_symmetry_cell_setting 'orthorhombic'
loop_
_space_group_symop_operation_xyz
x,y,z
1/2-x,-y,z
x,1/2-y,1/2-z
1/2-x,1/2+y,1/2-z
-x,-y,-z
1/2+x,y,-z
-x,1/2+y,1/2+z
1/2+x,1/2-y,1/2+z
loop_
_atom_site_type_symbol
_atom_site_label
_atom_site_fract_x
_atom_site_fract_y
_atom_site_fract_z
Si Si1 0.310483 0.348235 0.151820
Si Si2 0.023392 0.570776 0.661175
Si Si3 0.940358 0.947107 0.435852
Si Si4 0.615705 0.332067 0.593670
O O1 0.250000 0.500000 0.113129
O O2 0.294782 0.250000 0.250000
O O3 0.362687 0.583025 0.155710
O O4 0.337636 0.086182 0.101672
O O5 0.020774 0.750000 0.750000
O O6 0.043715 0.258717 0.644449
O O7 0.953124 0.574309 0.622349
O O8 0.070281 0.752383 0.601456
O O9 0.889743 0.807080 0.498013
O O10 0.000000 0.000000 0.500000
#
# Coordination Sequence:
#
# PCOD9409522 Si02
#       4
#     8   8   8   8
#     4  12  23  36  51  74 104 139 182 224 255 296
#     4  11  20  33  53  80 109 141 178 213 260 323
#     4  10  20  34  51  76 107 140 177 218 258 315
#     4  11  21  35  53  72 104 146 178 209 262 312
#
# _framework density 20.093664
#
# number of rings (size 3 to 8) (size 9 to 14) (size 15 to 20)
#    0.000    1.000    0.000   12.750    0.000    0.000 
#    0.000    0.000    0.000    0.000    0.000    0.000 
#    0.000   56.000    0.000    0.000    0.000    0.000 
#
# Total GULP energy -178500.180213 kJ/mol
# GULP energy per Si atom -5578.130632 kJ/mol
# Density = 2.004793 g / cm^3
# Si number density = 20.093664 Si / 1000 Ang^3
#
#
#
# Elastic Constant Matrix: (Units=GPa)
#
#
# Indices 1 2 3 4 5 6 
#
# 1 48.5230 36.5160 16.2090 0.0000 0.0000 0.0000
# 2 36.5160 160.7097 20.8859 0.0000 0.0000 0.0000
# 3 16.2090 20.8859 53.8409 0.0000 0.0000 0.0000
# 4 0.0000 0.0000 0.0000 34.8860 0.0000 0.0000
# 5 0.0000 0.0000 0.0000 0.0000 18.0723 0.0000
# 6 0.0000 0.0000 0.0000 0.0000 0.0000 35.2238
#
#
#
# Elastic Compliance Matrix: (Units=1/GPa)
#
#
# Indices 1 2 3 4 5 6 
#
# 1 0.026556 -0.005260 -0.005954 0.000000 0.000000 0.000000
# 2 -0.005260 0.007595 -0.001363 0.000000 0.000000 0.000000
# 3 -0.005954 -0.001363 0.020894 0.000000 0.000000 0.000000
# 4 0.000000 0.000000 0.000000 0.028665 0.000000 0.000000
# 5 0.000000 0.000000 0.000000 0.000000 0.055333 0.000000
# 6 0.000000 0.000000 0.000000 0.000000 0.000000 0.028390
#
#
# Mechanical properties :
#
#
# Convention : Reuss Voigt Hill
#
# Bulk Modulus (GPa) = 33.45458 45.58836 39.52147
# Shear Modulus (GPa) = 24.68509 30.26726 27.47618
#
# Velocity S-wave (km/s) = 3.50880 3.88533 3.70186
# Velocity P-wave (km/s) = 5.75335 6.54713 6.16303
#
# Compressibility (1/GPa) = 0.02989127
#
# Stress axis : x y z
#
# Youngs Moduli (GPa) = 37.65574 131.67106 47.85980
#
# Poissons Ratio (x) = 0.69262 0.28497
# Poissons Ratio (y) = 0.19808 0.06521
# Poissons Ratio (z) = 0.22421 0.17940
#
# Static dielectric constant tensor:
#      x y z
#    x 1.720270 0.000000 0.000000 
#    y 0.000000 1.747970 0.000000 
#    z 0.000000 0.000000 1.813070 
# 
# From -- ./inp_files/28947.got.cif
#   From: 2010.05.17/outbox.cif.g08.bks.cpg/sg52_15_cif.got.tgz:28947.got - 2010.06.03 12:15:38.
