data_PCOD9409939
_publ_section_title
;
Structure prediction by ZEFSAII (Michael W. Deem and Ramdas Pophale) SiO2 
 PCOD9409939
Probable space group: P N N A
;
_chemical_formula_sum "Si O2"
_cell_formula_units_Z 28
_cell_length_a 12.130882
_cell_length_b 10.607795
_cell_length_c 7.986239
_cell_angle_alpha 90.000000
_cell_angle_beta 90.000000
_cell_angle_gamma 90.000000
_cell_volume 1027.684484
_symmetry_space_group_name_H-M "P N N A"
_symmetry_group_IT_number 52
_symmetry_cell_setting 'orthorhombic'
loop_
_space_group_symop_operation_xyz
x,y,z
1/2-x,-y,z
x,1/2-y,1/2-z
1/2-x,1/2+y,1/2-z
-x,-y,-z
1/2+x,y,-z
-x,1/2+y,1/2+z
1/2+x,1/2-y,1/2+z
loop_
_atom_site_type_symbol
_atom_site_label
_atom_site_fract_x
_atom_site_fract_y
_atom_site_fract_z
Si Si1 0.985721 0.836122 0.484390
Si Si2 0.593412 0.413078 0.680427
Si Si3 0.805618 0.750000 0.250000
Si Si4 0.175569 0.668799 0.429562
O O1 0.960739 0.702675 0.581899
O O2 0.964694 0.930745 0.638727
O O3 0.888887 0.842714 0.348219
O O4 0.105126 0.798479 0.412053
O O5 0.720450 0.366478 0.688575
O O6 0.600745 0.545081 0.587005
O O7 0.730667 0.681392 0.386647
#
# Coordination Sequence:
#
# PCOD9409939 Si02
#       4
#     8   8   4   8
#     4  10  20  37  62  94 130 172 221 277 338 398
#     4   9  20  38  61  92 128 176 222 262 345 411
#     4  10  22  36  60  98 128 172 232 276 338 400
#     4  10  20  39  63  92 136 174 218 284 330 401
#
# _framework density 27.245715000000001
#
# number of rings (size 3 to 8) (size 9 to 14) (size 15 to 20)
#    0.000    2.286    0.000    2.571    0.000    4.571 
#    0.000   12.857    0.000    0.000    0.000    6.000 
#    0.000    0.000    0.000    0.000    0.000    0.000 
#
# Total GULP energy -156617.882803 kJ/mol
# GULP energy per Si atom -5593.495814 kJ/mol
# Density = 2.718370 g / cm^3
# Si number density = 27.245715 Si / 1000 Ang^3
#
#
#
# Elastic Constant Matrix: (Units=GPa)
#
#
# Indices 1 2 3 4 5 6 
#
# 1 134.1001 31.3530 56.8418 0.0000 0.0000 0.0000
# 2 31.3530 93.3936 22.7402 0.0000 0.0000 0.0000
# 3 56.8418 22.7402 118.7685 0.0000 0.0000 0.0000
# 4 0.0000 0.0000 0.0000 47.3888 0.0000 0.0000
# 5 0.0000 0.0000 0.0000 0.0000 54.7885 0.0000
# 6 0.0000 0.0000 0.0000 0.0000 0.0000 53.3212
#
#
#
# Elastic Compliance Matrix: (Units=1/GPa)
#
#
# Indices 1 2 3 4 5 6 
#
# 1 0.009786 -0.002250 -0.004253 0.000000 0.000000 0.000000
# 2 -0.002250 0.011748 -0.001173 0.000000 0.000000 0.000000
# 3 -0.004253 -0.001173 0.010680 0.000000 0.000000 0.000000
# 4 0.000000 0.000000 0.000000 0.021102 0.000000 0.000000
# 5 0.000000 0.000000 0.000000 0.000000 0.018252 0.000000
# 6 0.000000 0.000000 0.000000 0.000000 0.000000 0.018754
#
#
# Mechanical properties :
#
#
# Convention : Reuss Voigt Hill
#
# Bulk Modulus (GPa) = 59.30010 63.12581 61.21295
# Shear Modulus (GPa) = 44.92655 46.78819 45.85737
#
# Velocity S-wave (km/s) = 4.06512 4.14849 4.10702
# Velocity P-wave (km/s) = 6.62161 6.79456 6.70864
#
# Compressibility (1/GPa) = 0.01686338
#
# Stress axis : x y z
#
# Youngs Moduli (GPa) = 102.19012 85.11987 93.63687
#
# Poissons Ratio (x) = 0.19149 0.39820
# Poissons Ratio (y) = 0.22989 0.10981
# Poissons Ratio (z) = 0.43458 0.09982
#
# Static dielectric constant tensor:
#      x y z
#    x 2.164300 0.000000 0.000000 
#    y 0.000000 2.230840 0.000000 
#    z 0.000000 0.000000 2.250750 
# 
# From -- ./inp_files/8136.got.cif
#   From: 2010.05.17/outbox.cif.g08.bks.cpg/sg52_5_cif.got.tgz:8136.got - 2010.06.03 12:15:38.
