data_PCOD9409412
_publ_section_title
;
Structure prediction by ZEFSAII (Michael W. Deem and Ramdas Pophale) SiO2 
 PCOD9409412
Probable space group: P N N A
;
_chemical_formula_sum "Si O2"
_cell_formula_units_Z 60
_cell_length_a 5.309533
_cell_length_b 21.805059
_cell_length_c 22.784011
_cell_angle_alpha 90.000000
_cell_angle_beta 90.000000
_cell_angle_gamma 90.000000
_cell_volume 2637.811590
_symmetry_space_group_name_H-M "P N N A"
_symmetry_group_IT_number 52
_symmetry_cell_setting 'orthorhombic'
loop_
_space_group_symop_operation_xyz
x,y,z
1/2-x,-y,z
x,1/2-y,1/2-z
1/2-x,1/2+y,1/2-z
-x,-y,-z
1/2+x,y,-z
-x,1/2+y,1/2+z
1/2+x,1/2-y,1/2+z
loop_
_atom_site_type_symbol
_atom_site_label
_atom_site_fract_x
_atom_site_fract_y
_atom_site_fract_z
Si Si1 0.730401 0.687807 0.681901
Si Si2 0.416791 0.087015 0.784243
Si Si3 0.579934 0.400687 0.385418
Si Si4 0.869828 0.189031 0.038364
Si Si5 0.946120 0.319997 0.810692
Si Si6 0.750000 0.500000 0.633852
Si Si7 0.846905 0.169159 0.461455
Si Si8 0.550753 0.619579 0.158095
O O1 0.621106 0.652521 0.626525
O O2 0.564518 0.678964 0.740503
O O3 0.696254 0.758660 0.669007
O O4 0.988812 0.657282 0.703866
O O5 0.165212 0.078047 0.820550
O O6 0.611592 0.046574 0.821681
O O7 0.398394 0.075607 0.714753
O O8 0.808427 0.367212 0.417861
O O9 0.440117 0.461136 0.407091
O O10 0.860827 0.259518 0.061773
O O11 0.636148 0.183462 0.993427
O O12 0.749002 0.369774 0.834987
O O13 0.234507 0.328618 0.827593
O O14 0.573340 0.163743 0.491394
O O15 0.895245 0.117975 0.411337
#
# Coordination Sequence:
#
# PCOD9409412 Si02
#       8
#     8   8   8   8   8   4   8   8
#     4   9  20  30  51  83 119 154 189 233 307 364
#     4  10  22  38  60  88 121 157 202 255 326 377
#     4  11  21  40  63  82 117 161 203 265 318 369
#     4  10  24  40  60  87 121 165 211 252 299 362
#     4  10  20  31  49  86 126 151 190 240 285 368
#     4  10  24  42  62  90 118 154 204 272 340 370
#     4  10  21  38  57  86 127 169 205 242 288 354
#     4  11  21  36  58  88 122 164 202 237 297 377
#
# _framework density 22.746126
#
# number of rings (size 3 to 8) (size 9 to 14) (size 15 to 20)
#    0.000    1.867    1.333    2.000    7.467    2.133 
#    0.000    0.667    0.000    0.000    0.000    0.933 
#    0.000    0.000    0.000    0.000    0.000    0.000 
#
# Total GULP energy -334094.485459 kJ/mol
# GULP energy per Si atom -5568.241424 kJ/mol
# Density = 2.269435 g / cm^3
# Si number density = 22.746126 Si / 1000 Ang^3
#
#
#
# Elastic Constant Matrix: (Units=GPa)
#
#
# Indices 1 2 3 4 5 6 
#
# 1 96.0675 14.6815 19.7495 0.0000 0.0000 0.0000
# 2 14.6815 8.6577 -0.1160 0.0000 0.0000 0.0000
# 3 19.7495 -0.1160 68.1217 0.0000 0.0000 0.0000
# 4 0.0000 0.0000 0.0000 11.2728 0.0000 0.0000
# 5 0.0000 0.0000 0.0000 0.0000 28.9108 0.0000
# 6 0.0000 0.0000 0.0000 0.0000 0.0000 21.0234
#
#
#
# Elastic Compliance Matrix: (Units=1/GPa)
#
#
# Indices 1 2 3 4 5 6 
#
# 1 0.015307 -0.026017 -0.004482 0.000000 0.000000 0.000000
# 2 -0.026017 0.159728 0.007815 0.000000 0.000000 0.000000
# 3 -0.004482 0.007815 0.015992 0.000000 0.000000 0.000000
# 4 0.000000 0.000000 0.000000 0.088709 0.000000 0.000000
# 5 0.000000 0.000000 0.000000 0.000000 0.034589 0.000000
# 6 0.000000 0.000000 0.000000 0.000000 0.000000 0.047566
#
#
# Mechanical properties :
#
#
# Convention : Reuss Voigt Hill
#
# Bulk Modulus (GPa) = 6.86537 26.83076 16.84807
# Shear Modulus (GPa) = 10.96943 21.47687 16.22315
#
# Velocity S-wave (km/s) = 2.19841 3.07612 2.67353
# Velocity P-wave (km/s) = 3.07715 4.94348 4.11745
#
# Compressibility (1/GPa) = 0.14565854
#
# Stress axis : x y z
#
# Youngs Moduli (GPa) = 65.33059 6.26065 62.53011
#
# Poissons Ratio (x) = 0.16288 0.28026
# Poissons Ratio (y) = 1.69970 -0.48866
# Poissons Ratio (z) = 0.29281 -0.04893
#
# Static dielectric constant tensor:
#      x y z
#    x 1.888520 0.000000 0.000000 
#    y 0.000000 1.957530 0.000000 
#    z 0.000000 0.000000 1.918860 
# 
# From -- ./inp_files/35288.got.cif
#   From: 2010.05.17/outbox.cif.g08.bks.cpg/sg52_18_cif.got.tgz:35288.got - 2010.06.03 12:15:38.
