data_PCOD9409891
_publ_section_title
;
Structure prediction by ZEFSAII (Michael W. Deem and Ramdas Pophale) SiO2 
 PCOD9409891
Probable space group: P N N A
;
_chemical_formula_sum "Si O2"
_cell_formula_units_Z 48
_cell_length_a 7.895456
_cell_length_b 18.138185
_cell_length_c 16.651937
_cell_angle_alpha 90.000000
_cell_angle_beta 90.000000
_cell_angle_gamma 90.000000
_cell_volume 2384.711269
_symmetry_space_group_name_H-M "P N N A"
_symmetry_group_IT_number 52
_symmetry_cell_setting 'orthorhombic'
loop_
_space_group_symop_operation_xyz
x,y,z
1/2-x,-y,z
x,1/2-y,1/2-z
1/2-x,1/2+y,1/2-z
-x,-y,-z
1/2+x,y,-z
-x,1/2+y,1/2+z
1/2+x,1/2-y,1/2+z
loop_
_atom_site_type_symbol
_atom_site_label
_atom_site_fract_x
_atom_site_fract_y
_atom_site_fract_z
Si Si1 0.848050 0.828351 0.784274
Si Si2 0.955614 0.639200 0.242508
Si Si3 0.060727 0.481587 0.254476
Si Si4 0.575407 0.536675 0.423056
Si Si5 0.661662 0.258623 0.382992
Si Si6 0.994131 0.300964 0.448521
O O1 0.898922 0.750000 0.750000
O O2 0.653267 0.845409 0.763348
O O3 0.961864 0.893353 0.743875
O O4 0.865241 0.818372 0.880562
O O5 0.855059 0.673987 0.318493
O O6 0.907559 0.687932 0.165316
O O7 0.943430 0.550759 0.230125
O O8 0.250000 0.500000 0.225238
O O9 0.052539 0.479858 0.351059
O O10 0.750000 0.500000 0.398577
O O11 0.500000 0.500000 0.500000
O O12 0.602333 0.620843 0.448517
O O13 0.854870 0.246975 0.410650
O O14 0.560398 0.277074 0.464926
#
# Coordination Sequence:
#
# PCOD9409891 Si02
#       6
#     8   8   8   8   8   8
#     4  10  20  37  59  85 112 143 191 241 294 348
#     4  10  20  38  58  84 115 153 194 234 290 346
#     4   9  19  34  56  80 106 145 184 231 285 345
#     4  11  20  32  49  78 116 148 180 229 286 354
#     4  11  22  36  56  82 121 156 194 237 281 351
#     4  11  23  35  56  83 116 155 192 238 295 349
#
# _framework density 20.128222999999998
#
# number of rings (size 3 to 8) (size 9 to 14) (size 15 to 20)
#    0.000    1.667    1.667    4.500    2.333    2.667 
#    0.000    0.000    0.000    1.000    0.000    0.000 
#    0.000    0.000    0.000    0.000    0.000    0.000 
#
# Total GULP energy -267557.750430 kJ/mol
# GULP energy per Si atom -5574.119801 kJ/mol
# Density = 2.008241 g / cm^3
# Si number density = 20.128223 Si / 1000 Ang^3
#
#
#
# Elastic Constant Matrix: (Units=GPa)
#
#
# Indices 1 2 3 4 5 6 
#
# 1 59.8347 12.2607 28.9345 0.0000 0.0000 0.0000
# 2 12.2607 137.1184 41.0014 0.0000 0.0000 0.0000
# 3 28.9345 41.0014 92.9765 0.0000 0.0000 0.0000
# 4 0.0000 0.0000 0.0000 29.1507 0.0000 0.0000
# 5 0.0000 0.0000 0.0000 0.0000 16.9108 0.0000
# 6 0.0000 0.0000 0.0000 0.0000 0.0000 18.2920
#
#
#
# Elastic Compliance Matrix: (Units=1/GPa)
#
#
# Indices 1 2 3 4 5 6 
#
# 1 0.019674 0.000082 -0.006159 0.000000 0.000000 0.000000
# 2 0.000082 0.008401 -0.003730 0.000000 0.000000 0.000000
# 3 -0.006159 -0.003730 0.014317 0.000000 0.000000 0.000000
# 4 0.000000 0.000000 0.000000 0.034305 0.000000 0.000000
# 5 0.000000 0.000000 0.000000 0.000000 0.059134 0.000000
# 6 0.000000 0.000000 0.000000 0.000000 0.000000 0.054669
#
#
# Mechanical properties :
#
#
# Convention : Reuss Voigt Hill
#
# Bulk Modulus (GPa) = 43.90110 50.48031 47.19071
# Shear Modulus (GPa) = 22.96675 26.71957 24.84316
#
# Velocity S-wave (km/s) = 3.38157 3.64740 3.51699
# Velocity P-wave (km/s) = 6.09137 6.54766 6.32363
#
# Compressibility (1/GPa) = 0.02277847
#
# Stress axis : x y z
#
# Youngs Moduli (GPa) = 50.82812 119.03249 69.84621
#
# Poissons Ratio (x) = -0.00982 0.43018
# Poissons Ratio (y) = -0.00419 0.26056
# Poissons Ratio (z) = 0.31305 0.44404
#
# Static dielectric constant tensor:
#      x y z
#    x 1.758080 0.000000 0.000000 
#    y 0.000000 1.706780 0.000000 
#    z 0.000000 0.000000 1.671140 
# 
# From -- ./inp_files/31366.got.cif
#   From: 2010.05.17/outbox.cif.g08.bks.cpg/sg52_16_cif.got.tgz:31366.got - 2010.06.03 12:15:38.
