data_PCOD9409637
_publ_section_title
;
Structure prediction by ZEFSAII (Michael W. Deem and Ramdas Pophale) SiO2 
 PCOD9409637
Probable space group: P N N A
;
_chemical_formula_sum "Si O2"
_cell_formula_units_Z 48
_cell_length_a 6.978193
_cell_length_b 15.583213
_cell_length_c 22.756216
_cell_angle_alpha 90.000000
_cell_angle_beta 90.000000
_cell_angle_gamma 90.000000
_cell_volume 2474.571639
_symmetry_space_group_name_H-M "P N N A"
_symmetry_group_IT_number 52
_symmetry_cell_setting 'orthorhombic'
loop_
_space_group_symop_operation_xyz
x,y,z
1/2-x,-y,z
x,1/2-y,1/2-z
1/2-x,1/2+y,1/2-z
-x,-y,-z
1/2+x,y,-z
-x,1/2+y,1/2+z
1/2+x,1/2-y,1/2+z
loop_
_atom_site_type_symbol
_atom_site_label
_atom_site_fract_x
_atom_site_fract_y
_atom_site_fract_z
Si Si1 0.381847 0.378485 0.544132
Si Si2 0.609878 0.219920 0.311979
Si Si3 0.503257 0.760022 0.377351
Si Si4 0.470505 0.436953 0.420213
Si Si5 0.272920 0.098590 0.322399
Si Si6 0.730065 0.638440 0.687405
O O1 0.477386 0.287633 0.559829
O O2 0.359647 0.392828 0.474521
O O3 0.495569 0.463502 0.565118
O O4 0.177522 0.390430 0.576454
O O5 0.701427 0.250000 0.250000
O O6 0.492988 0.131614 0.320654
O O7 0.434002 0.287683 0.313634
O O8 0.782184 0.219854 0.357366
O O9 0.361615 0.839402 0.362522
O O10 0.418377 0.682213 0.338440
O O11 0.367387 0.425999 0.358424
O O12 0.222853 0.108041 0.252886
O O13 0.250000 0.000000 0.339930
#
# Coordination Sequence:
#
# PCOD9409637 Si02
#       6
#     8   8   8   8   8   8
#     4  10  21  34  58  85 123 159 193 242 292 358
#     4   9  18  36  54  77 113 146 193 245 284 350
#     4  11  20  36  57  81 112 163 197 242 305 350
#     4  10  20  37  53  90 123 155 198 237 289 363
#     4  10  23  37  54  85 114 158 205 247 297 353
#     4  10  20  35  55  80 120 153 195 239 286 357
#
# _framework density 19.397296999999998
#
# number of rings (size 3 to 8) (size 9 to 14) (size 15 to 20)
#    0.000    2.000    1.667    3.500    2.333    2.000 
#    0.000    0.000    0.000    0.000    0.000   10.500 
#    0.000    0.167    0.000    0.000    0.000    0.000 
#
# Total GULP energy -267381.328001 kJ/mol
# GULP energy per Si atom -5570.444333 kJ/mol
# Density = 1.935315 g / cm^3
# Si number density = 19.397297 Si / 1000 Ang^3
#
#
#
# Elastic Constant Matrix: (Units=GPa)
#
#
# Indices 1 2 3 4 5 6 
#
# 1 73.0709 36.5973 21.8642 0.0000 0.0000 0.0000
# 2 36.5973 98.1627 29.2174 0.0000 0.0000 0.0000
# 3 21.8642 29.2174 46.8107 0.0000 0.0000 0.0000
# 4 0.0000 0.0000 0.0000 15.1166 0.0000 0.0000
# 5 0.0000 0.0000 0.0000 0.0000 237.2619 0.0000
# 6 0.0000 0.0000 0.0000 0.0000 0.0000 23.8368
#
#
#
# Elastic Compliance Matrix: (Units=1/GPa)
#
#
# Indices 1 2 3 4 5 6 
#
# 1 0.017772 -0.005103 -0.005116 0.000000 0.000000 0.000000
# 2 -0.005103 0.013977 -0.006340 0.000000 0.000000 0.000000
# 3 -0.005116 -0.006340 0.027709 0.000000 0.000000 0.000000
# 4 0.000000 0.000000 0.000000 0.066153 0.000000 0.000000
# 5 0.000000 0.000000 0.000000 0.000000 0.004215 0.000000
# 6 0.000000 0.000000 0.000000 0.000000 0.000000 0.041952
#
#
# Mechanical properties :
#
#
# Convention : Reuss Voigt Hill
#
# Bulk Modulus (GPa) = 37.96503 43.71136 40.83819
# Shear Modulus (GPa) = 23.39994 63.93406 43.66700
#
# Velocity S-wave (km/s) = 3.47702 5.74733 4.74982
# Velocity P-wave (km/s) = 5.97783 8.16248 7.15404
#
# Compressibility (1/GPa) = 0.02634003
#
# Stress axis : x y z
#
# Youngs Moduli (GPa) = 56.26841 71.54669 36.08883
#
# Poissons Ratio (x) = 0.36511 0.18462
# Poissons Ratio (y) = 0.28715 0.22881
# Poissons Ratio (z) = 0.28785 0.45363
#
# Static dielectric constant tensor:
#      x y z
#    x 1.722360 0.000000 0.000000 
#    y 0.000000 1.734370 0.000000 
#    z 0.000000 0.000000 1.738880 
# 
# From -- ./inp_files/41756.got.cif
#   From: 2010.05.17/outbox.cif.g08.bks.cpg/sg52_21_cif.got.tgz:41756.got - 2010.06.03 12:15:38.
