data_PCOD9409794
_publ_section_title
;
Structure prediction by ZEFSAII (Michael W. Deem and Ramdas Pophale) SiO2 
 PCOD9409794
Probable space group: P N N A
;
_chemical_formula_sum "Si O2"
_cell_formula_units_Z 32
_cell_length_a 23.425324
_cell_length_b 8.537873
_cell_length_c 7.812005
_cell_angle_alpha 90.000000
_cell_angle_beta 90.000000
_cell_angle_gamma 90.000000
_cell_volume 1562.420071
_symmetry_space_group_name_H-M "P N N A"
_symmetry_group_IT_number 52
_symmetry_cell_setting 'orthorhombic'
loop_
_space_group_symop_operation_xyz
x,y,z
1/2-x,-y,z
x,1/2-y,1/2-z
1/2-x,1/2+y,1/2-z
-x,-y,-z
1/2+x,y,-z
-x,1/2+y,1/2+z
1/2+x,1/2-y,1/2+z
loop_
_atom_site_type_symbol
_atom_site_label
_atom_site_fract_x
_atom_site_fract_y
_atom_site_fract_z
Si Si1 0.688963 0.429599 0.814756
Si Si2 0.082574 0.923197 0.126707
Si Si3 0.131126 0.860392 0.585769
Si Si4 0.543901 0.073462 0.227683
O O1 0.750000 0.500000 0.765487
O O2 0.693063 0.250000 0.750000
O O3 0.633993 0.488376 0.713584
O O4 0.674622 0.510602 0.003293
O O5 0.024628 0.923486 0.237617
O O6 0.109141 0.760433 0.058286
O O7 0.062706 0.015282 0.957955
O O8 0.150260 0.750000 0.750000
O O9 0.075630 0.956456 0.645854
O O10 0.564595 0.250000 0.250000
#
# Coordination Sequence:
#
# PCOD9409794 Si02
#       4
#     8   8   8   8
#     4  12  25  43  67  92 121 162 213 262 311 372
#     4  10  22  38  61  92 125 163 208 256 309 372
#     4  10  22  41  62  89 127 164 203 254 313 373
#     4  10  20  36  60  92 128 163 202 254 315 373
#
# _framework density 20.481048000000001
#
# number of rings (size 3 to 8) (size 9 to 14) (size 15 to 20)
#    0.000    1.500    0.000    5.250    0.000    9.000 
#    0.000   11.250    0.000    0.000    0.000    0.000 
#    0.000    0.000    0.000    0.000    0.000    0.000 
#
# Total GULP energy -178240.742560 kJ/mol
# GULP energy per Si atom -5570.023205 kJ/mol
# Density = 2.043443 g / cm^3
# Si number density = 20.481048 Si / 1000 Ang^3
#
#
#
# Elastic Constant Matrix: (Units=GPa)
#
#
# Indices 1 2 3 4 5 6 
#
# 1 110.9250 50.8712 25.8207 0.0000 0.0000 0.0000
# 2 50.8712 176.9599 45.2284 0.0000 0.0000 0.0000
# 3 25.8207 45.2284 62.0007 0.0000 0.0000 0.0000
# 4 0.0000 0.0000 0.0000 25.9008 0.0000 0.0000
# 5 0.0000 0.0000 0.0000 0.0000 -52.5160 0.0000
# 6 0.0000 0.0000 0.0000 0.0000 0.0000 35.4956
#
#
#
# Elastic Compliance Matrix: (Units=1/GPa)
#
#
# Indices 1 2 3 4 5 6 
#
# 1 0.010748 -0.002392 -0.002731 0.000000 0.000000 0.000000
# 2 -0.002392 0.007478 -0.004459 0.000000 0.000000 0.000000
# 3 -0.002731 -0.004459 0.020519 0.000000 0.000000 0.000000
# 4 0.000000 0.000000 0.000000 0.038609 0.000000 0.000000
# 5 0.000000 0.000000 0.000000 0.000000 -0.019042 0.000000
# 6 0.000000 0.000000 0.000000 0.000000 0.000000 0.028173
#
#
# Mechanical properties :
#
#
# Convention : Reuss Voigt Hill
#
# Bulk Modulus (GPa) = 51.07029 65.96959 58.51994
# Shear Modulus (GPa) = 44.57281 16.97376 30.77328
#
# Velocity S-wave (km/s) = 4.67014 2.88193 3.88045
# Velocity P-wave (km/s) = 7.35322 6.58438 6.97939
#
# Compressibility (1/GPa) = 0.01958085
#
# Stress axis : x y z
#
# Youngs Moduli (GPa) = 93.04315 133.72150 48.73465
#
# Poissons Ratio (x) = 0.31981 0.13311
# Poissons Ratio (y) = 0.22252 0.21732
# Poissons Ratio (z) = 0.25413 0.59630
#
# Static dielectric constant tensor:
#      x y z
#    x 1.660220 0.000000 0.000000 
#    y 0.000000 1.788540 0.000000 
#    z 0.000000 0.000000 1.822610 
# 
# From -- ./inp_files/12816.got.cif
#   From: 2010.05.17/outbox.cif.g08.bks.cpg/sg52_7_cif.got.tgz:12816.got - 2010.06.03 12:15:38.
