data_PCOD9409169
_publ_section_title
;
Structure prediction by ZEFSAII (Michael W. Deem and Ramdas Pophale) SiO2 
 PCOD9409169
Probable space group: P N N A
;
_chemical_formula_sum "Si O2"
_cell_formula_units_Z 28
_cell_length_a 11.425100
_cell_length_b 13.665958
_cell_length_c 7.179014
_cell_angle_alpha 90.000000
_cell_angle_beta 90.000000
_cell_angle_gamma 90.000000
_cell_volume 1120.894897
_symmetry_space_group_name_H-M "P N N A"
_symmetry_group_IT_number 52
_symmetry_cell_setting 'orthorhombic'
loop_
_space_group_symop_operation_xyz
x,y,z
1/2-x,-y,z
x,1/2-y,1/2-z
1/2-x,1/2+y,1/2-z
-x,-y,-z
1/2+x,y,-z
-x,1/2+y,1/2+z
1/2+x,1/2-y,1/2+z
loop_
_atom_site_type_symbol
_atom_site_label
_atom_site_fract_x
_atom_site_fract_y
_atom_site_fract_z
Si Si1 0.026133 0.241267 0.027820
Si Si2 0.623951 0.040860 0.935076
Si Si3 0.823071 0.914232 0.536804
Si Si4 0.670620 0.750000 0.750000
O O1 0.000629 0.250000 0.250000
O O2 0.120737 0.155558 0.012916
O O3 0.078761 0.343528 0.950136
O O4 0.913710 0.210334 0.912014
O O5 0.618584 0.030784 0.710918
O O6 0.750000 0.000000 0.994399
O O7 0.500000 0.000000 0.000000
O O8 0.741375 0.834538 0.642962
O O9 0.750000 0.000000 0.434812
#
# Coordination Sequence:
#
# PCOD9409169 Si02
#       4
#     8   8   8   4
#     4  10  22  41  63  96 127 180 225 277 338 407
#     4  10  19  36  67  96 131 176 225 278 337 399
#     4  10  21  41  64  94 137 175 218 292 338 399
#     4  12  22  44  68  92 142 174 226 282 346 400
#
# _framework density 24.980041
#
# number of rings (size 3 to 8) (size 9 to 14) (size 15 to 20)
#    0.000    1.714    4.286    3.429    0.000    1.143 
#    2.571    1.429    0.000    1.714    0.000    0.000 
#    0.000    0.000    0.000    0.000    0.000    0.000 
#
# Total GULP energy -156343.222361 kJ/mol
# GULP energy per Si atom -5583.686513 kJ/mol
# Density = 2.492318 g / cm^3
# Si number density = 24.980041 Si / 1000 Ang^3
#
#
#
# Elastic Constant Matrix: (Units=GPa)
#
#
# Indices 1 2 3 4 5 6 
#
# 1 128.4203 38.5678 20.3159 0.0000 0.0000 0.0000
# 2 38.5678 112.9634 1.2499 0.0000 0.0000 0.0000
# 3 20.3159 1.2499 63.7965 0.0000 0.0000 0.0000
# 4 0.0000 0.0000 0.0000 13.3337 0.0000 0.0000
# 5 0.0000 0.0000 0.0000 0.0000 5.4735 0.0000
# 6 0.0000 0.0000 0.0000 0.0000 0.0000 49.7913
#
#
#
# Elastic Compliance Matrix: (Units=1/GPa)
#
#
# Indices 1 2 3 4 5 6 
#
# 1 0.009170 -0.003099 -0.002859 0.000000 0.000000 0.000000
# 2 -0.003099 0.009902 0.000793 0.000000 0.000000 0.000000
# 3 -0.002859 0.000793 0.016570 0.000000 0.000000 0.000000
# 4 0.000000 0.000000 0.000000 0.074998 0.000000 0.000000
# 5 0.000000 0.000000 0.000000 0.000000 0.182699 0.000000
# 6 0.000000 0.000000 0.000000 0.000000 0.000000 0.020084
#
#
# Mechanical properties :
#
#
# Convention : Reuss Voigt Hill
#
# Bulk Modulus (GPa) = 39.50965 47.27194 43.39079
# Shear Modulus (GPa) = 15.05157 30.05614 22.55386
#
# Velocity S-wave (km/s) = 2.45734 3.47249 3.00805
# Velocity P-wave (km/s) = 4.88899 5.91967 5.42885
#
# Compressibility (1/GPa) = 0.02531027
#
# Stress axis : x y z
#
# Youngs Moduli (GPa) = 109.05063 100.99206 60.35039
#
# Poissons Ratio (x) = 0.31299 0.17257
# Poissons Ratio (y) = 0.33797 -0.04785
# Poissons Ratio (z) = 0.31183 -0.08008
#
# Static dielectric constant tensor:
#      x y z
#    x 2.050550 0.000000 0.000000 
#    y 0.000000 2.082980 0.000000 
#    z 0.000000 0.000000 1.992290 
# 
# From -- ./inp_files/7107.got.cif
#   From: 2010.05.17/outbox.cif.g08.bks.cpg/sg52_4_cif.got.tgz:7107.got - 2010.06.03 12:15:38.
