data_PCOD9409702
_publ_section_title
;
Structure prediction by ZEFSAII (Michael W. Deem and Ramdas Pophale) SiO2 
 PCOD9409702
Probable space group: P N N A
;
_chemical_formula_sum "Si O2"
_cell_formula_units_Z 48
_cell_length_a 8.732492
_cell_length_b 17.178536
_cell_length_c 14.916130
_cell_angle_alpha 90.000000
_cell_angle_beta 90.000000
_cell_angle_gamma 90.000000
_cell_volume 2237.589964
_symmetry_space_group_name_H-M "P N N A"
_symmetry_group_IT_number 52
_symmetry_cell_setting 'orthorhombic'
loop_
_space_group_symop_operation_xyz
x,y,z
1/2-x,-y,z
x,1/2-y,1/2-z
1/2-x,1/2+y,1/2-z
-x,-y,-z
1/2+x,y,-z
-x,1/2+y,1/2+z
1/2+x,1/2-y,1/2+z
loop_
_atom_site_type_symbol
_atom_site_label
_atom_site_fract_x
_atom_site_fract_y
_atom_site_fract_z
Si Si1 0.928755 0.404131 0.065088
Si Si2 0.343007 0.581850 0.215862
Si Si3 0.905854 0.589432 0.108539
Si Si4 0.045754 0.662717 0.277465
Si Si5 0.043466 0.575827 0.611450
Si Si6 0.877275 0.897440 0.061232
O O1 0.909911 0.497461 0.084116
O O2 0.761215 0.374662 0.091238
O O3 0.075534 0.386411 0.126762
O O4 0.970012 0.381110 0.963714
O O5 0.250000 0.500000 0.200585
O O6 0.219555 0.639661 0.257777
O O7 0.478049 0.573683 0.288758
O O8 0.950945 0.606580 0.210106
O O9 0.014079 0.750000 0.250000
O O10 0.994184 0.650829 0.378758
O O11 0.081792 0.486865 0.585577
O O12 0.203966 0.618746 0.592127
O O13 0.914119 0.607996 0.543760
#
# Coordination Sequence:
#
# PCOD9409702 Si02
#       6
#     8   8   8   8   8   8
#     4  10  20  35  65  93 120 149 212 261 302 347
#     4  12  21  37  62  93 122 165 209 258 299 367
#     4  10  20  37  61  94 120 158 200 259 308 364
#     4  12  25  41  59  89 131 168 200 252 323 377
#     4  10  20  35  65  93 120 149 212 261 302 347
#     4  10  20  37  61  94 120 158 200 259 308 364
#
# _framework density 21.451651999999999
#
# number of rings (size 3 to 8) (size 9 to 14) (size 15 to 20)
#    0.000    1.333    3.333    3.000    4.667    2.667 
#    0.000   10.000    0.000    0.000    0.000    0.000 
#    0.000    0.000    0.000    0.000    0.000    0.000 
#
# Total GULP energy -267926.195881 kJ/mol
# GULP energy per Si atom -5581.795748 kJ/mol
# Density = 2.140283 g / cm^3
# Si number density = 21.451652 Si / 1000 Ang^3
#
#
#
# Elastic Constant Matrix: (Units=GPa)
#
#
# Indices 1 2 3 4 5 6 
#
# 1 96.5031 -8.1371 -7.2406 0.0000 0.0000 0.0000
# 2 -8.1371 20.9011 -5.1977 0.0000 0.0000 0.0000
# 3 -7.2406 -5.1977 56.9711 0.0000 0.0000 0.0000
# 4 0.0000 0.0000 0.0000 -3.4322 0.0000 0.0000
# 5 0.0000 0.0000 0.0000 0.0000 33.9538 0.0000
# 6 0.0000 0.0000 0.0000 0.0000 0.0000 2.6364
#
#
#
# Elastic Compliance Matrix: (Units=1/GPa)
#
#
# Indices 1 2 3 4 5 6 
#
# 1 0.010894 0.004692 0.001813 0.000000 0.000000 0.000000
# 2 0.004692 0.050976 0.005247 0.000000 0.000000 0.000000
# 3 0.001813 0.005247 0.018262 0.000000 0.000000 0.000000
# 4 0.000000 0.000000 0.000000 -0.291355 0.000000 0.000000
# 5 0.000000 0.000000 0.000000 0.000000 0.029452 0.000000
# 6 0.000000 0.000000 0.000000 0.000000 0.000000 0.379309
#
#
# Mechanical properties :
#
#
# Convention : Reuss Voigt Hill
#
# Bulk Modulus (GPa) = 9.64928 14.80273 12.22600
# Shear Modulus (GPa) = 23.97179 19.62831 21.80005
#
# Velocity S-wave (km/s) = 3.34650 3.02818 3.19131
# Velocity P-wave (km/s) = 4.40908 4.37516 4.39215
#
# Compressibility (1/GPa) = 0.10363470
#
# Stress axis : x y z
#
# Youngs Moduli (GPa) = 91.79385 19.61718 54.75902
#
# Poissons Ratio (x) = -0.09204 -0.09926
# Poissons Ratio (y) = -0.43069 -0.28732
# Poissons Ratio (z) = -0.16639 -0.10293
#
# Static dielectric constant tensor:
#      x y z
#    x 1.822970 0.000000 0.000000 
#    y 0.000000 1.883800 0.000000 
#    z 0.000000 0.000000 1.762800 
# 
# From -- ./inp_files/24742.got.cif
#   From: 2010.05.17/outbox.cif.g08.bks.cpg/sg52_13_cif.got.tgz:24742.got - 2010.06.03 12:15:38.
