data_PCOD9409805
_publ_section_title
;
Structure prediction by ZEFSAII (Michael W. Deem and Ramdas Pophale) SiO2 
 PCOD9409805
Probable space group: P N N A
;
_chemical_formula_sum "Si O2"
_cell_formula_units_Z 28
_cell_length_a 11.276086
_cell_length_b 12.458959
_cell_length_c 9.563021
_cell_angle_alpha 90.000000
_cell_angle_beta 90.000000
_cell_angle_gamma 90.000000
_cell_volume 1343.492498
_symmetry_space_group_name_H-M "P N N A"
_symmetry_group_IT_number 52
_symmetry_cell_setting 'orthorhombic'
loop_
_space_group_symop_operation_xyz
x,y,z
1/2-x,-y,z
x,1/2-y,1/2-z
1/2-x,1/2+y,1/2-z
-x,-y,-z
1/2+x,y,-z
-x,1/2+y,1/2+z
1/2+x,1/2-y,1/2+z
loop_
_atom_site_type_symbol
_atom_site_label
_atom_site_fract_x
_atom_site_fract_y
_atom_site_fract_z
Si Si1 0.436997 0.842078 0.928054
Si Si2 0.991986 0.330774 0.127625
Si Si3 0.610368 0.496609 0.695141
Si Si4 0.237601 0.750000 0.750000
O O1 0.320459 0.830462 0.835024
O O2 0.547784 0.892076 0.845615
O O3 0.467406 0.723853 0.985623
O O4 0.411572 0.920609 0.059012
O O5 0.039863 0.250000 0.250000
O O6 0.851167 0.315947 0.148867
O O7 0.042337 0.444452 0.173120
O O8 0.750000 0.500000 0.720878
#
# Coordination Sequence:
#
# PCOD9409805 Si02
#       4
#     8   8   8   4
#     4  10  20  37  63  87 116 166 202 247 316 365
#     4   8  19  38  55  88 124 151 201 264 295 362
#     4  10  20  36  61  90 116 154 211 253 304 376
#     4  10  20  38  58  88 120 162 200 248 316 370
#
# _framework density 20.841204000000001
#
# number of rings (size 3 to 8) (size 9 to 14) (size 15 to 20)
#    0.857    1.714    0.000    1.714    4.000    0.000 
#   12.857    1.429    0.000    0.000    0.000    0.000 
#    0.000    0.000    0.000    0.000    0.000    0.000 
#
# Total GULP energy -156047.909502 kJ/mol
# GULP energy per Si atom -5573.139625 kJ/mol
# Density = 2.079377 g / cm^3
# Si number density = 20.841204 Si / 1000 Ang^3
#
#
#
# Elastic Constant Matrix: (Units=GPa)
#
#
# Indices 1 2 3 4 5 6 
#
# 1 140.2013 27.3181 19.9946 0.0000 0.0000 0.0000
# 2 27.3181 51.4615 29.9691 0.0000 0.0000 0.0000
# 3 19.9946 29.9691 25.9205 0.0000 0.0000 0.0000
# 4 0.0000 0.0000 0.0000 20.1317 0.0000 0.0000
# 5 0.0000 0.0000 0.0000 0.0000 -53.2181 0.0000
# 6 0.0000 0.0000 0.0000 0.0000 0.0000 32.6452
#
#
#
# Elastic Compliance Matrix: (Units=1/GPa)
#
#
# Indices 1 2 3 4 5 6 
#
# 1 0.008082 -0.002019 -0.003900 0.000000 0.000000 0.000000
# 2 -0.002019 0.059987 -0.067799 0.000000 0.000000 0.000000
# 3 -0.003900 -0.067799 0.119976 0.000000 0.000000 0.000000
# 4 0.000000 0.000000 0.000000 0.049673 0.000000 0.000000
# 5 0.000000 0.000000 0.000000 0.000000 -0.018791 0.000000
# 6 0.000000 0.000000 0.000000 0.000000 0.000000 0.030632
#
#
# Mechanical properties :
#
#
# Convention : Reuss Voigt Hill
#
# Bulk Modulus (GPa) = 24.62474 41.34966 32.98720
# Shear Modulus (GPa) = 12.17926 9.26519 10.72222
#
# Velocity S-wave (km/s) = 2.42003 2.11075 2.27066
# Velocity P-wave (km/s) = 4.43281 5.08171 4.76831
#
# Compressibility (1/GPa) = 0.04060957
#
# Stress axis : x y z
#
# Youngs Moduli (GPa) = 123.72822 16.67015 8.33497
#
# Poissons Ratio (x) = 0.03366 0.03250
# Poissons Ratio (y) = 0.24986 0.56510
# Poissons Ratio (z) = 0.48250 1.13022
#
# Static dielectric constant tensor:
#      x y z
#    x 1.701350 0.000000 0.000000 
#    y 0.000000 1.767290 0.000000 
#    z 0.000000 0.000000 1.779830 
# 
# From -- ./inp_files/8059.got.cif
#   From: 2010.05.17/outbox.cif.g08.bks.cpg/sg52_5_cif.got.tgz:8059.got - 2010.06.03 12:15:38.
