data_PCOD9409828
_publ_section_title
;
Structure prediction by ZEFSAII (Michael W. Deem and Ramdas Pophale) SiO2 
 PCOD9409828
Probable space group: P N N A
;
_chemical_formula_sum "Si O2"
_cell_formula_units_Z 40
_cell_length_a 23.053140
_cell_length_b 14.101226
_cell_length_c 6.707986
_cell_angle_alpha 90.000000
_cell_angle_beta 90.000000
_cell_angle_gamma 90.000000
_cell_volume 2180.615568
_symmetry_space_group_name_H-M "P N N A"
_symmetry_group_IT_number 52
_symmetry_cell_setting 'orthorhombic'
loop_
_space_group_symop_operation_xyz
x,y,z
1/2-x,-y,z
x,1/2-y,1/2-z
1/2-x,1/2+y,1/2-z
-x,-y,-z
1/2+x,y,-z
-x,1/2+y,1/2+z
1/2+x,1/2-y,1/2+z
loop_
_atom_site_type_symbol
_atom_site_label
_atom_site_fract_x
_atom_site_fract_y
_atom_site_fract_z
Si Si1 0.765286 0.154385 0.627920
Si Si2 0.343238 0.979770 0.272973
Si Si3 0.449061 0.750000 0.250000
Si Si4 0.045738 0.083645 0.523790
Si Si5 0.215748 0.250000 0.750000
Si Si6 0.614445 0.378766 0.424224
O O1 0.773628 0.250000 0.750000
O O2 0.707627 0.098177 0.699467
O O3 0.753902 0.190845 0.405099
O O4 0.816724 0.080093 0.663678
O O5 0.395323 0.950113 0.416503
O O6 0.366452 0.972464 0.045890
O O7 0.478398 0.826604 0.396751
O O8 0.411273 0.689718 0.405917
O O9 0.067429 0.107607 0.748119
O O10 0.000000 0.000000 0.500000
O O11 0.171726 0.326414 0.654495
#
# Coordination Sequence:
#
# PCOD9409828 Si02
#       6
#     8   8   4   8   4   8
#     4  11  22  38  59  93 125 164 210 266 323 379
#     4  10  23  39  59  91 131 158 214 270 316 391
#     4  10  20  36  63  90 118 159 220 270 310 380
#     4  11  23  40  63  93 126 166 220 269 327 390
#     4  12  18  34  67  90 116 169 216 254 312 380
#     4  11  19  38  65  90 119 163 213 267 315 379
#
# _framework density 18.343443000000001
#
# number of rings (size 3 to 8) (size 9 to 14) (size 15 to 20)
#    0.000    1.200    6.000    1.200    1.400    4.800 
#    0.000    5.000    0.000    0.000    0.000    0.000 
#    0.000    0.000    0.000    0.000    0.000    0.000 
#
# Total GULP energy -223020.616063 kJ/mol
# GULP energy per Si atom -5575.515402 kJ/mol
# Density = 1.830169 g / cm^3
# Si number density = 18.343443 Si / 1000 Ang^3
#
#
#
# Elastic Constant Matrix: (Units=GPa)
#
#
# Indices 1 2 3 4 5 6 
#
# 1 30.4887 26.3668 27.2613 0.0000 0.0000 0.0000
# 2 26.3668 120.4890 60.3150 0.0000 0.0000 0.0000
# 3 27.2613 60.3150 146.3774 0.0000 0.0000 0.0000
# 4 0.0000 0.0000 0.0000 34.8869 0.0000 0.0000
# 5 0.0000 0.0000 0.0000 0.0000 -38.7655 0.0000
# 6 0.0000 0.0000 0.0000 0.0000 0.0000 27.7507
#
#
#
# Elastic Compliance Matrix: (Units=1/GPa)
#
#
# Indices 1 2 3 4 5 6 
#
# 1 0.043447 -0.006875 -0.005259 0.000000 0.000000 0.000000
# 2 -0.006875 0.011544 -0.003476 0.000000 0.000000 0.000000
# 3 -0.005259 -0.003476 0.009243 0.000000 0.000000 0.000000
# 4 0.000000 0.000000 0.000000 0.028664 0.000000 0.000000
# 5 0.000000 0.000000 0.000000 0.000000 -0.025796 0.000000
# 6 0.000000 0.000000 0.000000 0.000000 0.000000 0.036035
#
#
# Mechanical properties :
#
#
# Convention : Reuss Voigt Hill
#
# Bulk Modulus (GPa) = 30.29005 58.36014 44.32509
# Shear Modulus (GPa) = 34.39680 17.00190 25.69935
#
# Velocity S-wave (km/s) = 4.33500 3.04775 3.74707
# Velocity P-wave (km/s) = 6.45019 6.65352 6.55264
#
# Compressibility (1/GPa) = 0.03301415
#
# Stress axis : x y z
#
# Youngs Moduli (GPa) = 23.01672 86.62334 108.18449
#
# Poissons Ratio (x) = 0.59555 0.56890
# Poissons Ratio (y) = 0.15824 0.37609
# Poissons Ratio (z) = 0.12104 0.30114
#
# Static dielectric constant tensor:
#      x y z
#    x 1.608760 0.000000 0.000000 
#    y 0.000000 1.628020 0.000000 
#    z 0.000000 0.000000 1.720210 
# 
# From -- ./inp_files/5045.got.cif
#   From: 2010.05.17/outbox.cif.g08.bks.cpg/sg52_3_cif.got.tgz:5045.got - 2010.06.03 12:15:38.
