data_PCOD9409187
_publ_section_title
;
Structure prediction by ZEFSAII (Michael W. Deem and Ramdas Pophale) SiO2 
 PCOD9409187
Probable space group: P N N A
;
_chemical_formula_sum "Si O2"
_cell_formula_units_Z 48
_cell_length_a 8.551570
_cell_length_b 30.507825
_cell_length_c 9.296966
_cell_angle_alpha 90.000000
_cell_angle_beta 90.000000
_cell_angle_gamma 90.000000
_cell_volume 2425.483610
_symmetry_space_group_name_H-M "P N N A"
_symmetry_group_IT_number 52
_symmetry_cell_setting 'orthorhombic'
loop_
_space_group_symop_operation_xyz
x,y,z
1/2-x,-y,z
x,1/2-y,1/2-z
1/2-x,1/2+y,1/2-z
-x,-y,-z
1/2+x,y,-z
-x,1/2+y,1/2+z
1/2+x,1/2-y,1/2+z
loop_
_atom_site_type_symbol
_atom_site_label
_atom_site_fract_x
_atom_site_fract_y
_atom_site_fract_z
Si Si1 0.371040 0.467940 0.066180
Si Si2 0.404451 0.669106 0.159370
Si Si3 0.087929 0.716779 0.068756
Si Si4 0.637126 0.094467 0.426643
Si Si5 0.113478 0.333087 0.704052
Si Si6 0.929319 0.184466 0.043865
O O1 0.250000 0.500000 0.149755
O O2 0.474888 0.427971 0.123624
O O3 0.500000 0.500000 0.000000
O O4 0.263912 0.443201 0.949444
O O5 0.255781 0.701103 0.128981
O O6 0.452900 0.672253 0.325753
O O7 0.551322 0.688756 0.072820
O O8 0.376079 0.622496 0.076868
O O9 0.958678 0.701761 0.184554
O O10 0.062261 0.766446 0.020915
O O11 0.676429 0.127983 0.302068
O O12 0.256150 0.317962 0.606631
O O13 0.974324 0.345089 0.593342
#
# Coordination Sequence:
#
# PCOD9409187 Si02
#       6
#     8   8   8   8   8   8
#     4   9  18  33  60  93 116 140 175 226 282 344
#     4  11  22  37  60  82 113 158 194 243 292 330
#     4  11  23  39  54  78 114 156 205 251 285 323
#     4  10  19  37  58  89 121 142 182 233 288 350
#     4  11  24  39  58  82 116 158 195 247 297 334
#     4  12  24  39  56  82 112 156 208 242 284 341
#
# _framework density 19.789867999999998
#
# number of rings (size 3 to 8) (size 9 to 14) (size 15 to 20)
#    0.000    1.333    0.000    8.000    0.000    4.000 
#    0.000    1.667    0.000    0.000    0.000   73.500 
#    0.000    0.000    0.000    0.000    0.000    0.000 
#
# Total GULP energy -267603.653563 kJ/mol
# GULP energy per Si atom -5575.076116 kJ/mol
# Density = 1.974483 g / cm^3
# Si number density = 19.789868 Si / 1000 Ang^3
#
#
#
# Elastic Constant Matrix: (Units=GPa)
#
#
# Indices 1 2 3 4 5 6 
#
# 1 88.3800 27.6955 20.4022 0.0000 0.0000 0.0000
# 2 27.6955 83.3283 33.9029 0.0000 0.0000 0.0000
# 3 20.4022 33.9029 104.4243 0.0000 0.0000 0.0000
# 4 0.0000 0.0000 0.0000 -45.8119 0.0000 0.0000
# 5 0.0000 0.0000 0.0000 0.0000 24.3485 0.0000
# 6 0.0000 0.0000 0.0000 0.0000 0.0000 35.0660
#
#
#
# Elastic Compliance Matrix: (Units=1/GPa)
#
#
# Indices 1 2 3 4 5 6 
#
# 1 0.012779 -0.003723 -0.001288 0.000000 0.000000 0.000000
# 2 -0.003723 0.014912 -0.004114 0.000000 0.000000 0.000000
# 3 -0.001288 -0.004114 0.011164 0.000000 0.000000 0.000000
# 4 0.000000 0.000000 0.000000 -0.021828 0.000000 0.000000
# 5 0.000000 0.000000 0.000000 0.000000 0.041070 0.000000
# 6 0.000000 0.000000 0.000000 0.000000 0.000000 0.028518
#
#
# Mechanical properties :
#
#
# Convention : Reuss Voigt Hill
#
# Bulk Modulus (GPa) = 48.53374 48.90374 48.71874
# Shear Modulus (GPa) = 44.74983 15.66266 30.20624
#
# Velocity S-wave (km/s) = 4.76042 2.81632 3.91109
# Velocity P-wave (km/s) = 7.40224 5.94480 6.71319
#
# Compressibility (1/GPa) = 0.02060422
#
# Stress axis : x y z
#
# Youngs Moduli (GPa) = 78.25435 67.06006 89.57687
#
# Poissons Ratio (x) = 0.24968 0.11536
# Poissons Ratio (y) = 0.29136 0.36852
# Poissons Ratio (z) = 0.10078 0.27588
#
# Static dielectric constant tensor:
#      x y z
#    x 1.790860 0.000000 0.000000 
#    y 0.000000 1.762300 0.000000 
#    z 0.000000 0.000000 1.695380 
# 
# From -- ./inp_files/7712.got.cif
#   From: 2010.05.17/outbox.cif.g08.bks.cpg/sg52_4_cif.got.tgz:7712.got - 2010.06.03 12:15:38.
