data_PCOD9409571
_publ_section_title
;
Structure prediction by ZEFSAII (Michael W. Deem and Ramdas Pophale) SiO2 
 PCOD9409571
Probable space group: P N N A
;
_chemical_formula_sum "Si O2"
_cell_formula_units_Z 56
_cell_length_a 9.482925
_cell_length_b 18.946029
_cell_length_c 14.716131
_cell_angle_alpha 90.000000
_cell_angle_beta 90.000000
_cell_angle_gamma 90.000000
_cell_volume 2643.955606
_symmetry_space_group_name_H-M "P N N A"
_symmetry_group_IT_number 52
_symmetry_cell_setting 'orthorhombic'
loop_
_space_group_symop_operation_xyz
x,y,z
1/2-x,-y,z
x,1/2-y,1/2-z
1/2-x,1/2+y,1/2-z
-x,-y,-z
1/2+x,y,-z
-x,1/2+y,1/2+z
1/2+x,1/2-y,1/2+z
loop_
_atom_site_type_symbol
_atom_site_label
_atom_site_fract_x
_atom_site_fract_y
_atom_site_fract_z
Si Si1 0.205675 0.917784 0.430008
Si Si2 0.456480 0.119331 0.983687
Si Si3 0.029682 0.458775 0.807758
Si Si4 0.512648 0.888854 0.399777
Si Si5 0.594499 0.499294 0.627953
Si Si6 0.235040 0.339723 0.815138
Si Si7 0.811394 0.804497 0.104974
O O1 0.349615 0.874927 0.418041
O O2 0.105354 0.889834 0.509316
O O3 0.109154 0.916863 0.340183
O O4 0.250000 0.000000 0.448407
O O5 0.546952 0.077077 0.907994
O O6 0.331247 0.165569 0.941214
O O7 0.559148 0.164698 0.047701
O O8 0.396642 0.054892 0.045245
O O9 0.020681 0.532563 0.858946
O O10 0.165539 0.414882 0.837193
O O11 0.018802 0.474172 0.701143
O O12 0.596917 0.840992 0.328492
O O13 0.750000 0.500000 0.671169
O O14 0.180610 0.279665 0.882953
O O15 0.192726 0.327561 0.710873
#
# Coordination Sequence:
#
# PCOD9409571 Si02
#       7
#     8   8   8   8   8   8   8
#     4  10  20  34  56  89 127 160 202 266 332 389
#     4  11  23  42  66  96 134 168 221 279 339 405
#     4  11  21  37  63  97 132 167 218 282 340 395
#     4  11  21  37  60  92 127 166 222 277 329 396
#     4  11  21  37  69 103 130 164 215 288 355 390
#     4  11  24  42  64  89 129 180 224 264 333 400
#     4  11  25  45  62  91 133 178 222 270 327 419
#
# _framework density 21.180387
#
# number of rings (size 3 to 8) (size 9 to 14) (size 15 to 20)
#    0.000    1.143    2.857    6.000    0.000    2.286 
#    0.000    0.000    0.000    3.429    0.000    0.000 
#    0.000    0.000    0.000    0.000    0.000    0.000 
#
# Total GULP energy -312888.739178 kJ/mol
# GULP energy per Si atom -5587.298914 kJ/mol
# Density = 2.113218 g / cm^3
# Si number density = 21.180387 Si / 1000 Ang^3
#
#
#
# Elastic Constant Matrix: (Units=GPa)
#
#
# Indices 1 2 3 4 5 6 
#
# 1 79.3891 4.1852 4.8972 0.0000 0.0000 0.0000
# 2 4.1852 51.0716 19.9514 0.0000 0.0000 0.0000
# 3 4.8972 19.9514 65.7458 0.0000 0.0000 0.0000
# 4 0.0000 0.0000 0.0000 16.2504 0.0000 0.0000
# 5 0.0000 0.0000 0.0000 0.0000 34.8257 0.0000
# 6 0.0000 0.0000 0.0000 0.0000 0.0000 16.8794
#
#
#
# Elastic Compliance Matrix: (Units=1/GPa)
#
#
# Indices 1 2 3 4 5 6 
#
# 1 0.012680 -0.000760 -0.000714 0.000000 0.000000 0.000000
# 2 -0.000760 0.022259 -0.006698 0.000000 0.000000 0.000000
# 3 -0.000714 -0.006698 0.017296 0.000000 0.000000 0.000000
# 4 0.000000 0.000000 0.000000 0.061537 0.000000 0.000000
# 5 0.000000 0.000000 0.000000 0.000000 0.028714 0.000000
# 6 0.000000 0.000000 0.000000 0.000000 0.000000 0.059244
#
#
# Mechanical properties :
#
#
# Convention : Reuss Voigt Hill
#
# Bulk Modulus (GPa) = 27.86219 28.25268 28.05743
# Shear Modulus (GPa) = 21.73543 24.73595 23.23569
#
# Velocity S-wave (km/s) = 3.20692 3.42112 3.31575
# Velocity P-wave (km/s) = 5.18611 5.38270 5.28532
#
# Compressibility (1/GPa) = 0.03589094
#
# Stress axis : x y z
#
# Youngs Moduli (GPa) = 78.86251 44.92490 57.81709
#
# Poissons Ratio (x) = 0.03416 0.04127
# Poissons Ratio (y) = 0.05996 0.38727
# Poissons Ratio (z) = 0.05629 0.30092
#
# Static dielectric constant tensor:
#      x y z
#    x 1.791890 0.000000 0.000000 
#    y 0.000000 1.782850 0.000000 
#    z 0.000000 0.000000 1.785570 
# 
# From -- ./inp_files/24957.got.cif
#   From: 2010.05.17/outbox.cif.g08.bks.cpg/sg52_13_cif.got.tgz:24957.got - 2010.06.03 12:15:38.
