data_PCOD9409065
_publ_section_title
;
Structure prediction by ZEFSAII (Michael W. Deem and Ramdas Pophale) SiO2 
 PCOD9409065
Probable space group: P N N A
;
_chemical_formula_sum "Si O2"
_cell_formula_units_Z 44
_cell_length_a 15.445422
_cell_length_b 17.279176
_cell_length_c 7.795939
_cell_angle_alpha 90.000000
_cell_angle_beta 90.000000
_cell_angle_gamma 90.000000
_cell_volume 2080.612671
_symmetry_space_group_name_H-M "P N N A"
_symmetry_group_IT_number 52
_symmetry_cell_setting 'orthorhombic'
loop_
_space_group_symop_operation_xyz
x,y,z
1/2-x,-y,z
x,1/2-y,1/2-z
1/2-x,1/2+y,1/2-z
-x,-y,-z
1/2+x,y,-z
-x,1/2+y,1/2+z
1/2+x,1/2-y,1/2+z
loop_
_atom_site_type_symbol
_atom_site_label
_atom_site_fract_x
_atom_site_fract_y
_atom_site_fract_z
Si Si1 0.928087 0.463984 0.378983
Si Si2 0.329806 0.750000 0.750000
Si Si3 0.552948 0.380706 0.212509
Si Si4 0.002773 0.672712 0.845549
Si Si5 0.353710 0.130798 0.160049
Si Si6 0.311077 0.299907 0.012576
O O1 0.909469 0.533615 0.246041
O O2 0.979973 0.395351 0.287512
O O3 0.852326 0.430247 0.502670
O O4 0.000000 0.500000 0.500000
O O5 0.391855 0.682206 0.682632
O O6 0.269171 0.791572 0.612458
O O7 0.453857 0.372618 0.277540
O O8 0.550262 0.355112 0.012576
O O9 0.970041 0.750000 0.750000
O O10 0.100477 0.686466 0.911271
O O11 0.327740 0.214033 0.086407
O O12 0.301978 0.133980 0.340744
#
# Coordination Sequence:
#
# PCOD9409065 Si02
#       6
#     8   4   8   8   8   8
#     4  10  20  36  61  92 121 149 207 266 311 361
#     4  12  22  38  56  94 128 162 200 272 322 362
#     4  10  23  36  61  92 128 153 204 275 326 354
#     4  11  19  37  65  86 114 169 212 240 308 399
#     4   9  18  39  63  87 112 166 210 252 296 391
#     4  10  19  35  62  85 116 163 216 234 295 391
#
# _framework density 21.147618999999999
#
# number of rings (size 3 to 8) (size 9 to 14) (size 15 to 20)
#    0.000    1.818    2.727    2.727    2.545    0.000 
#    3.273    3.636    0.000    8.727    0.000    0.000 
#    0.000    0.000    0.000    0.000    0.000    0.000 
#
# Total GULP energy -245102.290494 kJ/mol
# GULP energy per Si atom -5570.506602 kJ/mol
# Density = 2.109949 g / cm^3
# Si number density = 21.147619 Si / 1000 Ang^3
#
#
#
# Elastic Constant Matrix: (Units=GPa)
#
#
# Indices 1 2 3 4 5 6 
#
# 1 35.6735 7.7858 23.8704 0.0000 0.0000 0.0000
# 2 7.7858 86.5924 32.1586 0.0000 0.0000 0.0000
# 3 23.8704 32.1586 96.7317 0.0000 0.0000 0.0000
# 4 0.0000 0.0000 0.0000 25.0423 0.0000 0.0000
# 5 0.0000 0.0000 0.0000 0.0000 7.4234 0.0000
# 6 0.0000 0.0000 0.0000 0.0000 0.0000 0.8900
#
#
#
# Elastic Compliance Matrix: (Units=1/GPa)
#
#
# Indices 1 2 3 4 5 6 
#
# 1 0.033577 0.000066 -0.008308 0.000000 0.000000 0.000000
# 2 0.000066 0.013175 -0.004396 0.000000 0.000000 0.000000
# 3 -0.008308 -0.004396 0.013850 0.000000 0.000000 0.000000
# 4 0.000000 0.000000 0.000000 0.039932 0.000000 0.000000
# 5 0.000000 0.000000 0.000000 0.000000 0.134710 0.000000
# 6 0.000000 0.000000 0.000000 0.000000 0.000000 1.123568
#
#
# Mechanical properties :
#
#
# Convention : Reuss Voigt Hill
#
# Bulk Modulus (GPa) = 28.30808 38.51414 33.41111
# Shear Modulus (GPa) = 3.58202 17.01666 10.29934
#
# Velocity S-wave (km/s) = 1.30288 2.83973 2.20925
# Velocity P-wave (km/s) = 3.95959 5.38551 4.72663
#
# Compressibility (1/GPa) = 0.03532560
#
# Stress axis : x y z
#
# Youngs Moduli (GPa) = 29.78267 75.90043 72.20436
#
# Poissons Ratio (x) = -0.00504 0.59985
# Poissons Ratio (y) = -0.00198 0.31744
# Poissons Ratio (z) = 0.24743 0.33369
#
# Static dielectric constant tensor:
#      x y z
#    x 1.726890 0.000000 0.000000 
#    y 0.000000 1.804270 0.000000 
#    z 0.000000 0.000000 1.923700 
# 
# From -- ./inp_files/10338.got.cif
#   From: 2010.05.17/outbox.cif.g08.bks.cpg/sg52_6_cif.got.tgz:10338.got - 2010.06.03 12:15:38.
