data_PCOD9409280
_publ_section_title
;
Structure prediction by ZEFSAII (Michael W. Deem and Ramdas Pophale) SiO2 
 PCOD9409280
Probable space group: P N N A
;
_chemical_formula_sum "Si O2"
_cell_formula_units_Z 40
_cell_length_a 11.939644
_cell_length_b 9.685605
_cell_length_c 16.337582
_cell_angle_alpha 90.000000
_cell_angle_beta 90.000000
_cell_angle_gamma 90.000000
_cell_volume 1889.321696
_symmetry_space_group_name_H-M "P N N A"
_symmetry_group_IT_number 52
_symmetry_cell_setting 'orthorhombic'
loop_
_space_group_symop_operation_xyz
x,y,z
1/2-x,-y,z
x,1/2-y,1/2-z
1/2-x,1/2+y,1/2-z
-x,-y,-z
1/2+x,y,-z
-x,1/2+y,1/2+z
1/2+x,1/2-y,1/2+z
loop_
_atom_site_type_symbol
_atom_site_label
_atom_site_fract_x
_atom_site_fract_y
_atom_site_fract_z
Si Si1 0.946601 0.088083 0.263039
Si Si2 0.716149 0.641475 0.096188
Si Si3 0.581261 0.173340 0.164551
Si Si4 0.121404 0.043122 0.392331
Si Si5 0.518986 0.787648 0.511434
O O1 0.939465 0.250000 0.250000
O O2 0.856829 0.067300 0.334292
O O3 0.067580 0.060238 0.302436
O O4 0.911969 0.985611 0.191250
O O5 0.750000 0.500000 0.048013
O O6 0.809377 0.740204 0.135293
O O7 0.629531 0.731216 0.043041
O O8 0.543543 0.250000 0.250000
O O9 0.507081 0.179236 0.082248
O O10 0.083952 0.174505 0.449620
O O11 0.250000 0.000000 0.383797
O O12 0.049527 0.921525 0.434145
#
# Coordination Sequence:
#
# PCOD9409280 Si02
#       5
#     8   8   8   8   8
#     4  11  25  41  61 101 141 175 231 287 334 406
#     4  11  21  37  68 103 136 177 226 285 351 417
#     4  12  21  40  68 102 131 174 228 285 341 395
#     4  10  19  38  64  91 134 182 217 271 345 420
#     4  10  20  36  64 102 131 163 231 279 335 419
#
# _framework density 21.171620999999998
#
# number of rings (size 3 to 8) (size 9 to 14) (size 15 to 20)
#    0.000    1.200    4.000    4.800    0.000    0.000 
#    3.600    4.000    0.000    9.600    0.000    0.000 
#    0.000    0.000    0.000    0.000    0.000    0.000 
#
# Total GULP energy -222919.740216 kJ/mol
# GULP energy per Si atom -5572.993505 kJ/mol
# Density = 2.112343 g / cm^3
# Si number density = 21.171621 Si / 1000 Ang^3
#
#
#
# Elastic Constant Matrix: (Units=GPa)
#
#
# Indices 1 2 3 4 5 6 
#
# 1 111.5600 34.8789 44.8566 0.0000 0.0000 0.0000
# 2 34.8789 106.5402 42.5961 0.0000 0.0000 0.0000
# 3 44.8566 42.5961 100.3016 0.0000 0.0000 0.0000
# 4 0.0000 0.0000 0.0000 28.1467 0.0000 0.0000
# 5 0.0000 0.0000 0.0000 0.0000 11.3934 0.0000
# 6 0.0000 0.0000 0.0000 0.0000 0.0000 14.9839
#
#
#
# Elastic Compliance Matrix: (Units=1/GPa)
#
#
# Indices 1 2 3 4 5 6 
#
# 1 0.011278 -0.002018 -0.004187 0.000000 0.000000 0.000000
# 2 -0.002018 0.011667 -0.004052 0.000000 0.000000 0.000000
# 3 -0.004187 -0.004052 0.013563 0.000000 0.000000 0.000000
# 4 0.000000 0.000000 0.000000 0.035528 0.000000 0.000000
# 5 0.000000 0.000000 0.000000 0.000000 0.087770 0.000000
# 6 0.000000 0.000000 0.000000 0.000000 0.000000 0.066738
#
#
# Mechanical properties :
#
#
# Convention : Reuss Voigt Hill
#
# Bulk Modulus (GPa) = 62.52307 62.56279 62.54293
# Shear Modulus (GPa) = 19.81054 23.97613 21.89334
#
# Velocity S-wave (km/s) = 3.06226 3.36886 3.21921
# Velocity P-wave (km/s) = 6.48837 6.68930 6.58960
#
# Compressibility (1/GPa) = 0.01599410
#
# Stress axis : x y z
#
# Youngs Moduli (GPa) = 88.66650 85.71209 73.72938
#
# Poissons Ratio (x) = 0.17300 0.30868
# Poissons Ratio (y) = 0.17896 0.29876
# Poissons Ratio (z) = 0.37122 0.34731
#
# Static dielectric constant tensor:
#      x y z
#    x 1.868440 0.000000 0.000000 
#    y 0.000000 1.857740 0.000000 
#    z 0.000000 0.000000 1.874060 
# 
# From -- ./inp_files/31982.got.cif
#   From: 2010.05.17/outbox.cif.g08.bks.cpg/sg52_16_cif.got.tgz:31982.got - 2010.06.03 12:15:38.
