data_PCOD9409009
_publ_section_title
;
Structure prediction by ZEFSAII (Michael W. Deem and Ramdas Pophale) SiO2 
 PCOD9409009
Probable space group: P N N A
;
_chemical_formula_sum "Si O2"
_cell_formula_units_Z 36
_cell_length_a 11.645853
_cell_length_b 16.841088
_cell_length_c 7.011164
_cell_angle_alpha 90.000000
_cell_angle_beta 90.000000
_cell_angle_gamma 90.000000
_cell_volume 1375.091429
_symmetry_space_group_name_H-M "P N N A"
_symmetry_group_IT_number 52
_symmetry_cell_setting 'orthorhombic'
loop_
_space_group_symop_operation_xyz
x,y,z
1/2-x,-y,z
x,1/2-y,1/2-z
1/2-x,1/2+y,1/2-z
-x,-y,-z
1/2+x,y,-z
-x,1/2+y,1/2+z
1/2+x,1/2-y,1/2+z
loop_
_atom_site_type_symbol
_atom_site_label
_atom_site_fract_x
_atom_site_fract_y
_atom_site_fract_z
Si Si1 0.450094 0.994339 0.786672
Si Si2 0.266002 0.110185 0.880426
Si Si3 0.501136 0.750000 0.750000
Si Si4 0.804101 0.724638 0.969225
Si Si5 0.155070 0.600953 0.212331
O O1 0.349574 0.927557 0.791053
O O2 0.562544 0.967763 0.665648
O O3 0.378100 0.075994 0.773610
O O4 0.500000 0.000000 0.000000
O O5 0.256435 0.204159 0.912500
O O6 0.270565 0.080593 0.101568
O O7 0.425865 0.776685 0.570861
O O8 0.577623 0.673815 0.709700
O O9 0.818699 0.750000 0.750000
O O10 0.733760 0.642644 0.947895
#
# Coordination Sequence:
#
# PCOD9409009 Si02
#       5
#     8   8   4   8   8
#     4   9  17  29  57  91 116 164 209 255 311 380
#     4   9  16  31  55  91 116 156 218 247 307 391
#     4  12  20  36  62  84 126 170 196 268 336 368
#     4  10  21  37  58  93 124 159 215 265 309 395
#     4  10  19  35  56  86 131 157 211 272 312 378
#
# _framework density 26.180078000000002
#
# number of rings (size 3 to 8) (size 9 to 14) (size 15 to 20)
#    0.000    2.222    5.556    0.000    0.000    0.000 
#    2.000    0.000    0.000    1.333   57.778    0.000 
#    0.000    0.000    0.000    0.000    0.000    0.000 
#
# Total GULP energy -201062.218039 kJ/mol
# GULP energy per Si atom -5585.061612 kJ/mol
# Density = 2.612049 g / cm^3
# Si number density = 26.180078 Si / 1000 Ang^3
#
#
#
# Elastic Constant Matrix: (Units=GPa)
#
#
# Indices 1 2 3 4 5 6 
#
# 1 101.4582 18.3398 35.1555 0.0000 0.0000 0.0000
# 2 18.3398 86.3357 61.1300 0.0000 0.0000 0.0000
# 3 35.1555 61.1300 78.5791 0.0000 0.0000 0.0000
# 4 0.0000 0.0000 0.0000 36.0611 0.0000 0.0000
# 5 0.0000 0.0000 0.0000 0.0000 38.2543 0.0000
# 6 0.0000 0.0000 0.0000 0.0000 0.0000 60.6296
#
#
#
# Elastic Compliance Matrix: (Units=1/GPa)
#
#
# Indices 1 2 3 4 5 6 
#
# 1 0.011956 0.002778 -0.007510 0.000000 0.000000 0.000000
# 2 0.002778 0.026432 -0.021805 0.000000 0.000000 0.000000
# 3 -0.007510 -0.021805 0.033049 0.000000 0.000000 0.000000
# 4 0.000000 0.000000 0.000000 0.027731 0.000000 0.000000
# 5 0.000000 0.000000 0.000000 0.000000 0.026141 0.000000
# 6 0.000000 0.000000 0.000000 0.000000 0.000000 0.016494
#
#
# Mechanical properties :
#
#
# Convention : Reuss Voigt Hill
#
# Bulk Modulus (GPa) = 54.45944 55.06930 54.76437
# Shear Modulus (GPa) = 24.87583 37.10550 30.99067
#
# Velocity S-wave (km/s) = 3.08585 3.76881 3.44430
# Velocity P-wave (km/s) = 5.79169 6.32606 6.06476
#
# Compressibility (1/GPa) = 0.01836229
#
# Stress axis : x y z
#
# Youngs Moduli (GPa) = 83.63696 37.83326 30.25801
#
# Poissons Ratio (x) = -0.10509 0.22724
# Poissons Ratio (y) = -0.23232 0.65978
# Poissons Ratio (z) = 0.62812 0.82496
#
# Static dielectric constant tensor:
#      x y z
#    x 2.092650 0.000000 0.000000 
#    y 0.000000 2.879040 0.000000 
#    z 0.000000 0.000000 2.054620 
# 
# From -- ./inp_files/2127.got.cif
#   From: 2010.05.17/outbox.cif.g08.bks.cpg/sg52_2_cif.got.tgz:2127.got - 2010.06.03 12:15:38.
