data_PCOD9409933
_publ_section_title
;
Structure prediction by ZEFSAII (Michael W. Deem and Ramdas Pophale) SiO2 
 PCOD9409933
Probable space group: P N N A
;
_chemical_formula_sum "Si O2"
_cell_formula_units_Z 56
_cell_length_a 14.309406
_cell_length_b 11.697157
_cell_length_c 15.317792
_cell_angle_alpha 90.000000
_cell_angle_beta 90.000000
_cell_angle_gamma 90.000000
_cell_volume 2563.882353
_symmetry_space_group_name_H-M "P N N A"
_symmetry_group_IT_number 52
_symmetry_cell_setting 'orthorhombic'
loop_
_space_group_symop_operation_xyz
x,y,z
1/2-x,-y,z
x,1/2-y,1/2-z
1/2-x,1/2+y,1/2-z
-x,-y,-z
1/2+x,y,-z
-x,1/2+y,1/2+z
1/2+x,1/2-y,1/2+z
loop_
_atom_site_type_symbol
_atom_site_label
_atom_site_fract_x
_atom_site_fract_y
_atom_site_fract_z
Si Si1 0.859464 0.872737 0.516750
Si Si2 0.349745 0.708830 0.651916
Si Si3 0.852926 0.363168 0.977762
Si Si4 0.553739 0.286824 0.651426
Si Si5 0.601467 0.998585 0.952286
Si Si6 0.945658 0.202038 0.845828
Si Si7 0.650783 0.651698 0.394006
O O1 0.853501 0.802811 0.425730
O O2 0.754383 0.862244 0.556621
O O3 0.933040 0.820215 0.585439
O O4 0.876290 0.006539 0.499922
O O5 0.359050 0.750000 0.750000
O O6 0.450371 0.650604 0.639977
O O7 0.249912 0.647945 0.652995
O O8 0.924347 0.307789 0.909505
O O9 0.852333 0.274699 0.057466
O O10 0.580282 0.250000 0.750000
O O11 0.613523 0.381846 0.597163
O O12 0.448872 0.342559 0.655709
O O13 0.616254 0.902528 0.878216
O O14 0.656980 0.947226 0.033694
O O15 0.500000 0.000000 0.000000
O O16 0.931574 0.250000 0.750000
#
# Coordination Sequence:
#
# PCOD9409933 Si02
#       7
#     8   8   8   8   8   8   8
#     4  10  21  39  63  87 126 157 208 255 310 369
#     4  10  20  37  62  92 125 161 208 251 306 379
#     4   9  20  39  63  87 116 164 199 256 315 362
#     4  11  23  37  61  92 125 163 207 258 309 372
#     4   9  19  39  59  84 122 163 206 250 304 370
#     4  10  21  36  61  89 123 159 204 253 303 366
#     4   9  19  39  63  86 126 162 202 256 312 372
#
# _framework density 21.841877
#
# number of rings (size 3 to 8) (size 9 to 14) (size 15 to 20)
#    0.000    2.286    0.000    3.000    2.000    2.857 
#    2.571   16.429   31.429    0.000    0.000    0.000 
#    0.000    0.000    0.000    0.000    0.000    0.000 
#
# Total GULP energy -311833.531390 kJ/mol
# GULP energy per Si atom -5568.455918 kJ/mol
# Density = 2.179216 g / cm^3
# Si number density = 21.841877 Si / 1000 Ang^3
#
#
#
# Elastic Constant Matrix: (Units=GPa)
#
#
# Indices 1 2 3 4 5 6 
#
# 1 64.6671 -13.7362 4.2914 0.0000 0.0000 0.0000
# 2 -13.7362 68.1615 34.5498 0.0000 0.0000 0.0000
# 3 4.2914 34.5498 110.5007 0.0000 0.0000 0.0000
# 4 0.0000 0.0000 0.0000 19.0678 0.0000 0.0000
# 5 0.0000 0.0000 0.0000 0.0000 27.2969 0.0000
# 6 0.0000 0.0000 0.0000 0.0000 0.0000 0.4127
#
#
#
# Elastic Compliance Matrix: (Units=1/GPa)
#
#
# Indices 1 2 3 4 5 6 
#
# 1 0.016519 0.004342 -0.001999 0.000000 0.000000 0.000000
# 2 0.004342 0.018576 -0.005977 0.000000 0.000000 0.000000
# 3 -0.001999 -0.005977 0.010996 0.000000 0.000000 0.000000
# 4 0.000000 0.000000 0.000000 0.052444 0.000000 0.000000
# 5 0.000000 0.000000 0.000000 0.000000 0.036634 0.000000
# 6 0.000000 0.000000 0.000000 0.000000 0.000000 2.423230
#
#
# Mechanical properties :
#
#
# Convention : Reuss Voigt Hill
#
# Bulk Modulus (GPa) = 25.75763 32.61550 29.18656
# Shear Modulus (GPa) = 1.93903 23.90376 12.92139
#
# Velocity S-wave (km/s) = 0.94323 3.31176 2.43490
# Velocity P-wave (km/s) = 3.60619 5.43955 4.61483
#
# Compressibility (1/GPa) = 0.03882345
#
# Stress axis : x y z
#
# Youngs Moduli (GPa) = 60.53690 53.83423 90.94185
#
# Poissons Ratio (x) = -0.23377 0.18181
# Poissons Ratio (y) = -0.26287 0.54352
# Poissons Ratio (z) = 0.12103 0.32174
#
# Static dielectric constant tensor:
#      x y z
#    x 1.912320 0.000000 0.000000 
#    y 0.000000 1.852000 0.000000 
#    z 0.000000 0.000000 1.751750 
# 
# From -- ./inp_files/27263.got.cif
#   From: 2010.05.17/outbox.cif.g08.bks.cpg/sg52_14_cif.got.tgz:27263.got - 2010.06.03 12:15:38.
