data_PCOD9409471
_publ_section_title
;
Structure prediction by ZEFSAII (Michael W. Deem and Ramdas Pophale) SiO2 
 PCOD9409471
Probable space group: P N N A
;
_chemical_formula_sum "Si O2"
_cell_formula_units_Z 48
_cell_length_a 22.842340
_cell_length_b 8.847769
_cell_length_c 14.646364
_cell_angle_alpha 90.000000
_cell_angle_beta 90.000000
_cell_angle_gamma 90.000000
_cell_volume 2960.085055
_symmetry_space_group_name_H-M "P N N A"
_symmetry_group_IT_number 52
_symmetry_cell_setting 'orthorhombic'
loop_
_space_group_symop_operation_xyz
x,y,z
1/2-x,-y,z
x,1/2-y,1/2-z
1/2-x,1/2+y,1/2-z
-x,-y,-z
1/2+x,y,-z
-x,1/2+y,1/2+z
1/2+x,1/2-y,1/2+z
loop_
_atom_site_type_symbol
_atom_site_label
_atom_site_fract_x
_atom_site_fract_y
_atom_site_fract_z
Si Si1 0.001819 0.426437 0.225712
Si Si2 0.250000 0.000000 0.841649
Si Si3 0.546369 0.584851 0.934574
Si Si4 0.324690 0.250000 0.750000
Si Si5 0.852944 0.724385 0.360727
Si Si6 0.018490 0.100295 0.911887
Si Si7 0.384812 0.443422 0.894341
O O1 0.004544 0.250000 0.250000
O O2 0.051917 0.487243 0.157436
O O3 0.998460 0.511522 0.320808
O O4 0.943195 0.467138 0.168048
O O5 0.287866 0.106978 0.778011
O O6 0.202191 0.115808 0.885873
O O7 0.518775 0.746467 0.914042
O O8 0.500000 0.500000 0.000000
O O9 0.601128 0.598359 0.001718
O O10 0.358175 0.302376 0.840243
O O11 0.855702 0.750000 0.250000
O O12 0.912943 0.648291 0.399509
O O13 0.850563 0.897712 0.395063
O O14 0.000000 0.000000 0.000000
#
# Coordination Sequence:
#
# PCOD9409471 Si02
#       7
#     8   4   8   4   8   8   8
#     4  11  20  33  49  77 112 150 184 223 273 338
#     4  12  24  34  54  78 106 156 198 222 280 338
#     4  10  20  33  50  78 106 150 187 221 280 340
#     4  12  20  36  52  76 108 148 194 224 270 334
#     4  12  21  38  51  75 113 154 186 233 273 331
#     4  12  22  33  55  80 111 155 187 231 289 341
#     4  11  21  33  56  74 113 149 185 228 275 330
#
# _framework density 16.215751000000001
#
# number of rings (size 3 to 8) (size 9 to 14) (size 15 to 20)
#    0.000    0.667    8.333    2.500    2.333    0.000 
#    0.000    0.000    0.000    0.000    0.000    0.000 
#    0.000    6.667    0.000    0.000    0.000    0.000 
#
# Total GULP energy -267315.461902 kJ/mol
# GULP energy per Si atom -5569.072123 kJ/mol
# Density = 1.617884 g / cm^3
# Si number density = 16.215751 Si / 1000 Ang^3
#
#
#
# Elastic Constant Matrix: (Units=GPa)
#
#
# Indices 1 2 3 4 5 6 
#
# 1 49.8915 26.7279 26.1547 0.0000 0.0000 0.0000
# 2 26.7279 125.5615 47.7507 0.0000 0.0000 0.0000
# 3 26.1547 47.7507 101.4537 0.0000 0.0000 0.0000
# 4 0.0000 0.0000 0.0000 30.3751 0.0000 0.0000
# 5 0.0000 0.0000 0.0000 0.0000 7.0410 0.0000
# 6 0.0000 0.0000 0.0000 0.0000 0.0000 28.7500
#
#
#
# Elastic Compliance Matrix: (Units=1/GPa)
#
#
# Indices 1 2 3 4 5 6 
#
# 1 0.024312 -0.003400 -0.004667 0.000000 0.000000 0.000000
# 2 -0.003400 0.010176 -0.003913 0.000000 0.000000 0.000000
# 3 -0.004667 -0.003913 0.012902 0.000000 0.000000 0.000000
# 4 0.000000 0.000000 0.000000 0.032922 0.000000 0.000000
# 5 0.000000 0.000000 0.000000 0.000000 0.142025 0.000000
# 6 0.000000 0.000000 0.000000 0.000000 0.000000 0.034783
#
#
# Mechanical properties :
#
#
# Convention : Reuss Voigt Hill
#
# Bulk Modulus (GPa) = 42.68269 53.13037 47.90653
# Shear Modulus (GPa) = 17.30768 24.98478 21.14623
#
# Velocity S-wave (km/s) = 3.27056 3.92953 3.61509
# Velocity P-wave (km/s) = 6.37503 7.30917 6.85802
#
# Compressibility (1/GPa) = 0.02342870
#
# Stress axis : x y z
#
# Youngs Moduli (GPa) = 41.13233 98.26939 77.50969
#
# Poissons Ratio (x) = 0.33414 0.36175
# Poissons Ratio (y) = 0.13986 0.30329
# Poissons Ratio (z) = 0.19197 0.38452
#
# Static dielectric constant tensor:
#      x y z
#    x 1.617970 0.000000 0.000000 
#    y 0.000000 6.870320 0.000000 
#    z 0.000000 0.000000 1.546880 
# 
# From -- ./inp_files/28646.got.cif
#   From: 2010.05.17/outbox.cif.g08.bks.cpg/sg52_15_cif.got.tgz:28646.got - 2010.06.03 12:15:38.
