data_PCOD9409172
_publ_section_title
;
Structure prediction by ZEFSAII (Michael W. Deem and Ramdas Pophale) SiO2 
 PCOD9409172
Probable space group: P N N A
;
_chemical_formula_sum "Si O2"
_cell_formula_units_Z 48
_cell_length_a 13.569769
_cell_length_b 25.894116
_cell_length_c 5.764776
_cell_angle_alpha 90.000000
_cell_angle_beta 90.000000
_cell_angle_gamma 90.000000
_cell_volume 2025.610691
_symmetry_space_group_name_H-M "P N N A"
_symmetry_group_IT_number 52
_symmetry_cell_setting 'orthorhombic'
loop_
_space_group_symop_operation_xyz
x,y,z
1/2-x,-y,z
x,1/2-y,1/2-z
1/2-x,1/2+y,1/2-z
-x,-y,-z
1/2+x,y,-z
-x,1/2+y,1/2+z
1/2+x,1/2-y,1/2+z
loop_
_atom_site_type_symbol
_atom_site_label
_atom_site_fract_x
_atom_site_fract_y
_atom_site_fract_z
Si Si1 0.354043 0.131587 0.121381
Si Si2 0.274283 0.798184 0.412586
Si Si3 0.616922 0.988690 0.977612
Si Si4 0.589367 0.696853 0.212893
Si Si5 0.552447 0.356403 0.093692
Si Si6 0.892701 0.973275 0.477217
O O1 0.262218 0.149566 0.279272
O O2 0.463161 0.146303 0.222241
O O3 0.359163 0.071205 0.069418
O O4 0.346041 0.167546 0.899666
O O5 0.301659 0.750000 0.250000
O O6 0.170239 0.783973 0.528511
O O7 0.360189 0.814660 0.589995
O O8 0.650927 0.002842 0.239216
O O9 0.500000 0.000000 0.000000
O O10 0.649041 0.018382 0.739357
O O11 0.532254 0.750000 0.250000
O O12 0.509706 0.654918 0.138058
O O13 0.595404 0.413310 0.082350
O O14 0.000000 0.000000 0.500000
#
# Coordination Sequence:
#
# PCOD9409172 Si02
#       6
#     8   8   8   8   8   8
#     4  11  23  42  72  98 139 194 235 292 370 429
#     4  11  25  47  64 104 145 182 238 310 365 433
#     4  10  19  36  68 102 138 181 230 292 352 430
#     4  11  23  44  68  96 136 186 235 293 361 432
#     4  11  24  40  73 100 137 185 243 289 365 438
#     4  10  19  38  66 103 141 177 230 296 352 423
#
# _framework density 23.696556999999999
#
# number of rings (size 3 to 8) (size 9 to 14) (size 15 to 20)
#    0.000    1.333    5.000    2.500    2.333    1.333 
#    3.000    0.833    0.000    0.000    0.000    0.000 
#    0.000    0.000    0.000    0.000    0.000    0.000 
#
# Total GULP energy -267514.413474 kJ/mol
# GULP energy per Si atom -5573.216947 kJ/mol
# Density = 2.364262 g / cm^3
# Si number density = 23.696557 Si / 1000 Ang^3
#
#
#
# Elastic Constant Matrix: (Units=GPa)
#
#
# Indices 1 2 3 4 5 6 
#
# 1 118.5131 19.9683 14.4051 0.0000 0.0000 0.0000
# 2 19.9683 99.4385 -0.6126 0.0000 0.0000 0.0000
# 3 14.4051 -0.6126 94.2461 0.0000 0.0000 0.0000
# 4 0.0000 0.0000 0.0000 37.0353 0.0000 0.0000
# 5 0.0000 0.0000 0.0000 0.0000 -19.7322 0.0000
# 6 0.0000 0.0000 0.0000 0.0000 0.0000 19.1617
#
#
#
# Elastic Compliance Matrix: (Units=1/GPa)
#
#
# Indices 1 2 3 4 5 6 
#
# 1 0.008908 -0.001797 -0.001373 0.000000 0.000000 0.000000
# 2 -0.001797 0.010419 0.000342 0.000000 0.000000 0.000000
# 3 -0.001373 0.000342 0.010823 0.000000 0.000000 0.000000
# 4 0.000000 0.000000 0.000000 0.027001 0.000000 0.000000
# 5 0.000000 0.000000 0.000000 0.000000 -0.050679 0.000000
# 6 0.000000 0.000000 0.000000 0.000000 0.000000 0.052188
#
#
# Mechanical properties :
#
#
# Convention : Reuss Voigt Hill
#
# Bulk Modulus (GPa) = 40.82662 42.19101 41.50882
# Shear Modulus (GPa) = 68.98427 25.85544 47.41985
#
# Velocity S-wave (km/s) = 5.40136 3.30677 4.47825
# Velocity P-wave (km/s) = 7.49439 5.69412 6.65541
#
# Compressibility (1/GPa) = 0.02449382
#
# Stress axis : x y z
#
# Youngs Moduli (GPa) = 112.26366 95.97416 92.39905
#
# Poissons Ratio (x) = 0.17248 0.12688
# Poissons Ratio (y) = 0.20176 -0.03164
# Poissons Ratio (z) = 0.15416 -0.03286
#
# Static dielectric constant tensor:
#      x y z
#    x 1.830940 0.000000 0.000000 
#    y 0.000000 1.985870 0.000000 
#    z 0.000000 0.000000 2.050230 
# 
# From -- ./inp_files/2466.got.cif
#   From: 2010.05.17/outbox.cif.g08.bks.cpg/sg52_2_cif.got.tgz:2466.got - 2010.06.03 12:15:38.
