data_PCOD9409134
_publ_section_title
;
Structure prediction by ZEFSAII (Michael W. Deem and Ramdas Pophale) SiO2 
 PCOD9409134
Probable space group: P N N A
;
_chemical_formula_sum "Si O2"
_cell_formula_units_Z 48
_cell_length_a 8.521046
_cell_length_b 29.459937
_cell_length_c 8.852338
_cell_angle_alpha 90.000000
_cell_angle_beta 90.000000
_cell_angle_gamma 90.000000
_cell_volume 2222.197790
_symmetry_space_group_name_H-M "P N N A"
_symmetry_group_IT_number 52
_symmetry_cell_setting 'orthorhombic'
loop_
_space_group_symop_operation_xyz
x,y,z
1/2-x,-y,z
x,1/2-y,1/2-z
1/2-x,1/2+y,1/2-z
-x,-y,-z
1/2+x,y,-z
-x,1/2+y,1/2+z
1/2+x,1/2-y,1/2+z
loop_
_atom_site_type_symbol
_atom_site_label
_atom_site_fract_x
_atom_site_fract_y
_atom_site_fract_z
Si Si1 0.709900 0.750000 0.250000
Si Si2 0.756349 0.812741 0.528382
Si Si3 0.197334 0.663116 0.592778
Si Si4 0.949878 0.157167 0.781454
Si Si5 0.250000 0.000000 0.532242
Si Si6 0.001465 0.435136 0.902100
Si Si7 0.467182 0.370516 0.843404
O O1 0.783468 0.773735 0.402747
O O2 0.623338 0.708849 0.333751
O O3 0.618217 0.808300 0.653796
O O4 0.692774 0.854527 0.426919
O O5 0.907261 0.831216 0.616186
O O6 0.378694 0.666149 0.645924
O O7 0.174444 0.659364 0.416372
O O8 0.090360 0.624981 0.673121
O O9 0.962644 0.107581 0.703948
O O10 0.363543 0.029084 0.425476
O O11 0.154541 0.035762 0.633775
O O12 0.026798 0.414318 0.070306
#
# Coordination Sequence:
#
# PCOD9409134 Si02
#       7
#     4   8   8   8   4   8   8
#     4  10  22  38  58  90 122 150 208 260 296 354
#     4  10  20  36  60  85 119 161 200 249 302 346
#     4  11  24  38  60  87 118 163 206 249 306 354
#     4  11  23  41  61  86 120 167 207 246 308 382
#     4  10  20  32  62  96 114 146 190 258 314 348
#     4  10  19  36  61  88 118 148 198 246 301 375
#     4  10  19  37  60  85 117 159 198 239 296 370
#
# _framework density 21.600237
#
# number of rings (size 3 to 8) (size 9 to 14) (size 15 to 20)
#    0.000    1.667    0.000    8.000    0.000    4.667 
#    0.000    0.000    0.000   18.000    0.000    0.000 
#    0.000    0.000    0.000    0.000    0.000    0.000 
#
# Total GULP energy -267282.954182 kJ/mol
# GULP energy per Si atom -5568.394879 kJ/mol
# Density = 2.155107 g / cm^3
# Si number density = 21.600237 Si / 1000 Ang^3
#
#
#
# Elastic Constant Matrix: (Units=GPa)
#
#
# Indices 1 2 3 4 5 6 
#
# 1 103.2377 31.0458 43.5537 0.0000 0.0000 0.0000
# 2 31.0458 84.1588 30.4713 0.0000 0.0000 0.0000
# 3 43.5537 30.4713 136.8029 0.0000 0.0000 0.0000
# 4 0.0000 0.0000 0.0000 19.2967 0.0000 0.0000
# 5 0.0000 0.0000 0.0000 0.0000 25.8830 0.0000
# 6 0.0000 0.0000 0.0000 0.0000 0.0000 17.1048
#
#
#
# Elastic Compliance Matrix: (Units=1/GPa)
#
#
# Indices 1 2 3 4 5 6 
#
# 1 0.011978 -0.003305 -0.003078 0.000000 0.000000 0.000000
# 2 -0.003305 0.013836 -0.002030 0.000000 0.000000 0.000000
# 3 -0.003078 -0.002030 0.008742 0.000000 0.000000 0.000000
# 4 0.000000 0.000000 0.000000 0.051822 0.000000 0.000000
# 5 0.000000 0.000000 0.000000 0.000000 0.038635 0.000000
# 6 0.000000 0.000000 0.000000 0.000000 0.000000 0.058463
#
#
# Mechanical properties :
#
#
# Convention : Reuss Voigt Hill
#
# Bulk Modulus (GPa) = 56.39302 59.37123 57.88212
# Shear Modulus (GPa) = 24.24692 27.06548 25.65620
#
# Velocity S-wave (km/s) = 3.35405 3.54364 3.45015
# Velocity P-wave (km/s) = 6.41590 6.65501 6.53655
#
# Compressibility (1/GPa) = 0.01773269
#
# Stress axis : x y z
#
# Youngs Moduli (GPa) = 83.48317 72.27392 114.39437
#
# Poissons Ratio (x) = 0.23883 0.35205
# Poissons Ratio (y) = 0.27587 0.23220
# Poissons Ratio (z) = 0.25692 0.14670
#
# Static dielectric constant tensor:
#      x y z
#    x 1.906650 0.000000 0.000000 
#    y 0.000000 1.853350 0.000000 
#    z 0.000000 0.000000 1.830850 
# 
# From -- ./inp_files/7736.got.cif
#   From: 2010.05.17/outbox.cif.g08.bks.cpg/sg52_4_cif.got.tgz:7736.got - 2010.06.03 12:15:38.
