data_PCOD9409189
_publ_section_title
;
Structure prediction by ZEFSAII (Michael W. Deem and Ramdas Pophale) SiO2 
 PCOD9409189
Probable space group: P N N A
;
_chemical_formula_sum "Si O2"
_cell_formula_units_Z 56
_cell_length_a 20.462656
_cell_length_b 15.803496
_cell_length_c 8.355956
_cell_angle_alpha 90.000000
_cell_angle_beta 90.000000
_cell_angle_gamma 90.000000
_cell_volume 2702.161604
_symmetry_space_group_name_H-M "P N N A"
_symmetry_group_IT_number 52
_symmetry_cell_setting 'orthorhombic'
loop_
_space_group_symop_operation_xyz
x,y,z
1/2-x,-y,z
x,1/2-y,1/2-z
1/2-x,1/2+y,1/2-z
-x,-y,-z
1/2+x,y,-z
-x,1/2+y,1/2+z
1/2+x,1/2-y,1/2+z
loop_
_atom_site_type_symbol
_atom_site_label
_atom_site_fract_x
_atom_site_fract_y
_atom_site_fract_z
Si Si1 0.565711 0.500418 0.392610
Si Si2 0.629981 0.519258 0.720953
Si Si3 0.976692 0.762795 0.060968
Si Si4 0.602961 0.819809 0.113916
Si Si5 0.499619 0.919661 0.611873
Si Si6 0.134609 0.161796 0.156361
Si Si7 0.283182 0.333137 0.362437
O O1 0.500000 0.500000 0.500000
O O2 0.619824 0.498255 0.531155
O O3 0.580896 0.590723 0.312527
O O4 0.553943 0.434689 0.251566
O O5 0.570133 0.572327 0.798227
O O6 0.628539 0.420688 0.772941
O O7 0.691467 0.582065 0.729138
O O8 0.967510 0.750000 0.250000
O O9 0.983860 0.664276 0.011915
O O10 0.922909 0.820420 0.972551
O O11 0.046629 0.801155 0.016115
O O12 0.603981 0.750000 0.250000
O O13 0.669991 0.823155 0.015517
O O14 0.500000 0.000000 0.500000
O O15 0.132669 0.250000 0.250000
O O16 0.208005 0.156442 0.088245
O O17 0.289654 0.250000 0.250000
#
# Coordination Sequence:
#
# PCOD9409189 Si02
#       7
#     8   8   8   8   8   8   8
#     4   9  18  33  50  74 107 143 181 225 277 340
#     4  10  19  37  59  79 111 156 200 234 285 361
#     4  12  22  35  57  85 117 151 191 242 298 357
#     4  11  21  36  58  83 111 147 192 241 293 357
#     4  11  20  31  52  84 116 143 181 239 297 344
#     4  11  23  39  58  85 119 156 199 249 304 360
#     4  10  22  39  60  84 114 154 201 250 301 361
#
# _framework density 20.724148
#
# number of rings (size 3 to 8) (size 9 to 14) (size 15 to 20)
#    0.000    1.429    0.000    9.000    0.000    0.571 
#    0.000    0.000    0.000    0.000    0.000    6.000 
#    0.000    0.000    0.000    0.000    0.000    0.000 
#
# Total GULP energy -312096.143396 kJ/mol
# GULP energy per Si atom -5573.145418 kJ/mol
# Density = 2.067698 g / cm^3
# Si number density = 20.724148 Si / 1000 Ang^3
#
#
#
# Elastic Constant Matrix: (Units=GPa)
#
#
# Indices 1 2 3 4 5 6 
#
# 1 111.4800 26.3033 28.2738 0.0000 0.0000 0.0000
# 2 26.3033 126.6575 -1.7414 0.0000 0.0000 0.0000
# 3 28.2738 -1.7414 32.5180 0.0000 0.0000 0.0000
# 4 0.0000 0.0000 0.0000 43.8807 0.0000 0.0000
# 5 0.0000 0.0000 0.0000 0.0000 24.7495 0.0000
# 6 0.0000 0.0000 0.0000 0.0000 0.0000 32.9886
#
#
#
# Elastic Compliance Matrix: (Units=1/GPa)
#
#
# Indices 1 2 3 4 5 6 
#
# 1 0.012379 -0.002721 -0.010909 0.000000 0.000000 0.000000
# 2 -0.002721 0.008499 0.002821 0.000000 0.000000 0.000000
# 3 -0.010909 0.002821 0.040388 0.000000 0.000000 0.000000
# 4 0.000000 0.000000 0.000000 0.022789 0.000000 0.000000
# 5 0.000000 0.000000 0.000000 0.000000 0.040405 0.000000
# 6 0.000000 0.000000 0.000000 0.000000 0.000000 0.030314
#
#
# Mechanical properties :
#
#
# Convention : Reuss Voigt Hill
#
# Bulk Modulus (GPa) = 25.22157 41.81411 33.51784
# Shear Modulus (GPa) = 26.37019 34.84506 30.60763
#
# Velocity S-wave (km/s) = 3.57099 4.10491 3.84722
# Velocity P-wave (km/s) = 5.40363 6.53355 5.99527
#
# Compressibility (1/GPa) = 0.03964861
#
# Stress axis : x y z
#
# Youngs Moduli (GPa) = 80.78246 117.65929 24.75958
#
# Poissons Ratio (x) = 0.32012 0.27010
# Poissons Ratio (y) = 0.21979 -0.06984
# Poissons Ratio (z) = 0.88125 -0.33189
#
# Static dielectric constant tensor:
#      x y z
#    x 1.735900 0.000000 0.000000 
#    y 0.000000 1.972740 0.000000 
#    z 0.000000 0.000000 1.798390 
# 
# From -- ./inp_files/13448.got.cif
#   From: 2010.05.17/outbox.cif.g08.bks.cpg/sg52_7_cif.got.tgz:13448.got - 2010.06.03 12:15:38.
