data_PCOD9409914
_publ_section_title
;
Structure prediction by ZEFSAII (Michael W. Deem and Ramdas Pophale) SiO2 
 PCOD9409914
Probable space group: P N N A
;
_chemical_formula_sum "Si O2"
_cell_formula_units_Z 32
_cell_length_a 14.877576
_cell_length_b 8.879706
_cell_length_c 10.031696
_cell_angle_alpha 90.000000
_cell_angle_beta 90.000000
_cell_angle_gamma 90.000000
_cell_volume 1325.272320
_symmetry_space_group_name_H-M "P N N A"
_symmetry_group_IT_number 52
_symmetry_cell_setting 'orthorhombic'
loop_
_space_group_symop_operation_xyz
x,y,z
1/2-x,-y,z
x,1/2-y,1/2-z
1/2-x,1/2+y,1/2-z
-x,-y,-z
1/2+x,y,-z
-x,1/2+y,1/2+z
1/2+x,1/2-y,1/2+z
loop_
_atom_site_type_symbol
_atom_site_label
_atom_site_fract_x
_atom_site_fract_y
_atom_site_fract_z
Si Si1 0.727156 0.179849 0.398714
Si Si2 0.523176 0.332743 0.105672
Si Si3 0.523186 0.078467 0.785820
Si Si4 0.118096 0.887056 0.994020
O O1 0.734853 0.250000 0.250000
O O2 0.624128 0.182234 0.442477
O O3 0.787992 0.299790 0.481732
O O4 0.750000 0.000000 0.400661
O O5 0.520913 0.250000 0.250000
O O6 0.484854 0.493587 0.145920
O O7 0.452959 0.244990 0.018445
O O8 0.540098 0.250000 0.750000
O O9 0.424211 0.050916 0.855751
O O10 0.596566 0.004150 0.886512
#
# Coordination Sequence:
#
# PCOD9409914 Si02
#       4
#     8   8   8   8
#     4  11  22  37  61  93 125 160 211 273 326 381
#     4   9  20  38  61  89 120 158 206 258 315 377
#     4  10  20  37  61  91 128 169 213 263 319 378
#     4  10  21  38  62  91 126 167 211 261 321 381
#
# _framework density 24.145983999999999
#
# number of rings (size 3 to 8) (size 9 to 14) (size 15 to 20)
#    0.000    2.000    0.000    3.750    0.000    6.000 
#    0.000    0.000    0.000   21.000    0.000    0.000 
#    0.000    0.000    0.000    0.000    0.000    4.500 
#
# Total GULP energy -178859.127544 kJ/mol
# GULP energy per Si atom -5589.347736 kJ/mol
# Density = 2.409103 g / cm^3
# Si number density = 24.145984 Si / 1000 Ang^3
#
#
#
# Elastic Constant Matrix: (Units=GPa)
#
#
# Indices 1 2 3 4 5 6 
#
# 1 108.2717 26.3830 23.6274 0.0000 0.0000 0.0000
# 2 26.3830 183.6479 39.5717 0.0000 0.0000 0.0000
# 3 23.6274 39.5717 73.6993 0.0000 0.0000 0.0000
# 4 0.0000 0.0000 0.0000 49.9068 0.0000 0.0000
# 5 0.0000 0.0000 0.0000 0.0000 24.7138 0.0000
# 6 0.0000 0.0000 0.0000 0.0000 0.0000 42.4212
#
#
#
# Elastic Compliance Matrix: (Units=1/GPa)
#
#
# Indices 1 2 3 4 5 6 
#
# 1 0.010046 -0.000847 -0.002766 0.000000 0.000000 0.000000
# 2 -0.000847 0.006229 -0.003073 0.000000 0.000000 0.000000
# 3 -0.002766 -0.003073 0.016105 0.000000 0.000000 0.000000
# 4 0.000000 0.000000 0.000000 0.020037 0.000000 0.000000
# 5 0.000000 0.000000 0.000000 0.000000 0.040463 0.000000
# 6 0.000000 0.000000 0.000000 0.000000 0.000000 0.023573
#
#
# Mechanical properties :
#
#
# Convention : Reuss Voigt Hill
#
# Bulk Modulus (GPa) = 52.60823 60.53143 56.56983
# Shear Modulus (GPa) = 36.72091 41.81081 39.26586
#
# Velocity S-wave (km/s) = 3.90396 4.16575 4.03697
# Velocity P-wave (km/s) = 6.49277 6.94703 6.72374
#
# Compressibility (1/GPa) = 0.01900843
#
# Stress axis : x y z
#
# Youngs Moduli (GPa) = 99.54180 160.53751 62.09136
#
# Poissons Ratio (x) = 0.13602 0.17173
# Poissons Ratio (y) = 0.08434 0.19081
# Poissons Ratio (z) = 0.27531 0.49333
#
# Static dielectric constant tensor:
#      x y z
#    x 1.899110 0.000000 0.000000 
#    y 0.000000 2.221190 0.000000 
#    z 0.000000 0.000000 1.994860 
# 
# From -- ./inp_files/18834.got.cif
#   From: 2010.05.17/outbox.cif.g08.bks.cpg/sg52_10_cif.got.tgz:18834.got - 2010.06.03 12:15:38.
