data_PCOD9409740
_publ_section_title
;
Structure prediction by ZEFSAII (Michael W. Deem and Ramdas Pophale) SiO2 
 PCOD9409740
Probable space group: P N N A
;
_chemical_formula_sum "Si O2"
_cell_formula_units_Z 64
_cell_length_a 9.146529
_cell_length_b 14.792268
_cell_length_c 22.681786
_cell_angle_alpha 90.000000
_cell_angle_beta 90.000000
_cell_angle_gamma 90.000000
_cell_volume 3068.798201
_symmetry_space_group_name_H-M "P N N A"
_symmetry_group_IT_number 52
_symmetry_cell_setting 'orthorhombic'
loop_
_space_group_symop_operation_xyz
x,y,z
1/2-x,-y,z
x,1/2-y,1/2-z
1/2-x,1/2+y,1/2-z
-x,-y,-z
1/2+x,y,-z
-x,1/2+y,1/2+z
1/2+x,1/2-y,1/2+z
loop_
_atom_site_type_symbol
_atom_site_label
_atom_site_fract_x
_atom_site_fract_y
_atom_site_fract_z
Si Si1 0.311048 0.249617 0.679990
Si Si2 0.153664 0.223069 0.165649
Si Si3 0.658340 0.247628 0.068343
Si Si4 0.088333 0.040618 0.555379
Si Si5 0.608467 0.949003 0.324856
Si Si6 0.578352 0.647669 0.487695
Si Si7 0.321988 0.596977 0.227124
Si Si8 0.809810 0.915125 0.925989
O O1 0.277301 0.250000 0.750000
O O2 0.476819 0.286204 0.671892
O O3 0.183584 0.283579 0.636498
O O4 0.330786 0.147690 0.655848
O O5 0.194988 0.327434 0.175687
O O6 0.215443 0.156458 0.215934
O O7 0.207274 0.181822 0.105199
O O8 0.604557 0.350898 0.059015
O O9 0.820471 0.225554 0.041607
O O10 0.539472 0.188908 0.032971
O O11 0.250000 0.000000 0.549736
O O12 0.038479 0.001624 0.619560
O O13 0.000000 0.000000 0.500000
O O14 0.492878 0.927730 0.274774
O O15 0.750000 0.000000 0.302229
O O16 0.695362 0.586733 0.520913
O O17 0.479375 0.587610 0.443795
O O18 0.250000 0.500000 0.220797
O O19 0.750000 0.000000 0.888572
#
# Coordination Sequence:
#
# PCOD9409740 Si02
#       8
#     8   8   8   8   8   8   8   8
#     4  11  19  39  65  83 119 178 220 258 315 396
#     4  10  20  38  65  88 120 167 218 250 327 387
#     4  11  21  39  63  93 129 170 218 266 332 394
#     4  11  22  35  57  91 131 168 211 263 328 396
#     4  10  20  36  57  85 120 161 208 261 315 376
#     4  10  24  38  64  94 123 164 212 266 328 398
#     4  10  21  38  63  89 121 166 213 257 312 384
#     4  11  22  41  65  89 127 160 207 271 331 387
#
# _framework density 20.855070000000001
#
# number of rings (size 3 to 8) (size 9 to 14) (size 15 to 20)
#    0.000    1.500    6.250    1.500    0.000    2.500 
#    0.000    2.500    0.000    0.000    0.000    0.000 
#    0.000    0.000    0.000    0.000    0.000    0.000 
#
# Total GULP energy -356331.604569 kJ/mol
# GULP energy per Si atom -5567.681321 kJ/mol
# Density = 2.080760 g / cm^3
# Si number density = 20.855070 Si / 1000 Ang^3
#
#
#
# Elastic Constant Matrix: (Units=GPa)
#
#
# Indices 1 2 3 4 5 6 
#
# 1 59.8812 36.0522 28.6196 0.0000 0.0000 0.0000
# 2 36.0522 125.1644 29.6573 0.0000 0.0000 0.0000
# 3 28.6196 29.6573 66.0077 0.0000 0.0000 0.0000
# 4 0.0000 0.0000 0.0000 23.3685 0.0000 0.0000
# 5 0.0000 0.0000 0.0000 0.0000 20.0545 0.0000
# 6 0.0000 0.0000 0.0000 0.0000 0.0000 32.2871
#
#
#
# Elastic Compliance Matrix: (Units=1/GPa)
#
#
# Indices 1 2 3 4 5 6 
#
# 1 0.023440 -0.004861 -0.007979 0.000000 0.000000 0.000000
# 2 -0.004861 0.009949 -0.002363 0.000000 0.000000 0.000000
# 3 -0.007979 -0.002363 0.019671 0.000000 0.000000 0.000000
# 4 0.000000 0.000000 0.000000 0.042793 0.000000 0.000000
# 5 0.000000 0.000000 0.000000 0.000000 0.049864 0.000000
# 6 0.000000 0.000000 0.000000 0.000000 0.000000 0.030972
#
#
# Mechanical properties :
#
#
# Convention : Reuss Voigt Hill
#
# Bulk Modulus (GPa) = 44.14073 48.85684 46.49878
# Shear Modulus (GPa) = 23.29417 25.59029 24.44223
#
# Velocity S-wave (km/s) = 3.34571 3.50673 3.42717
# Velocity P-wave (km/s) = 6.01136 6.31458 6.16484
#
# Compressibility (1/GPa) = 0.02265481
#
# Stress axis : x y z
#
# Youngs Moduli (GPa) = 42.66247 100.50785 50.83675
#
# Poissons Ratio (x) = 0.48857 0.40563
# Poissons Ratio (y) = 0.20738 0.12011
# Poissons Ratio (z) = 0.34040 0.23747
#
# Static dielectric constant tensor:
#      x y z
#    x 1.783720 0.000000 0.000000 
#    y 0.000000 1.895150 0.000000 
#    z 0.000000 0.000000 1.869640 
# 
# From -- ./inp_files/39704.got.cif
#   From: 2010.05.17/outbox.cif.g08.bks.cpg/sg52_20_cif.got.tgz:39704.got - 2010.06.03 12:15:38.
