data_PCOD9409995
_publ_section_title
;
Structure prediction by ZEFSAII (Michael W. Deem and Ramdas Pophale) SiO2 
 PCOD9409995
Probable space group: P N N A
;
_chemical_formula_sum "Si O2"
_cell_formula_units_Z 28
_cell_length_a 15.716334
_cell_length_b 8.204649
_cell_length_c 8.583464
_cell_angle_alpha 90.000000
_cell_angle_beta 90.000000
_cell_angle_gamma 90.000000
_cell_volume 1106.811967
_symmetry_space_group_name_H-M "P N N A"
_symmetry_group_IT_number 52
_symmetry_cell_setting 'orthorhombic'
loop_
_space_group_symop_operation_xyz
x,y,z
1/2-x,-y,z
x,1/2-y,1/2-z
1/2-x,1/2+y,1/2-z
-x,-y,-z
1/2+x,y,-z
-x,1/2+y,1/2+z
1/2+x,1/2-y,1/2+z
loop_
_atom_site_type_symbol
_atom_site_label
_atom_site_fract_x
_atom_site_fract_y
_atom_site_fract_z
Si Si1 0.650965 0.191373 0.469718
Si Si2 0.768268 0.750000 0.750000
Si Si3 0.372635 0.424998 0.460702
Si Si4 0.009497 0.250000 0.750000
Si Si5 0.803880 0.250000 0.250000
O O1 0.673009 0.131360 0.642741
O O2 0.634161 0.382830 0.509318
O O3 0.570566 0.144949 0.365157
O O4 0.734525 0.167088 0.364745
O O5 0.705928 0.653802 0.634642
O O6 0.453030 0.363353 0.362232
O O7 0.362579 0.350496 0.633401
#
# Coordination Sequence:
#
# PCOD9409995 Si02
#       5
#     8   4   8   4   4
#     4  10  20  38  58  82 117 151 185 239 288 331
#     4   9  18  34  58  81 106 146 196 231 274 340
#     4  10  20  38  58  82 117 151 185 239 288 331
#     4  10  22  38  58  86 120 154 190 226 286 354
#     4   9  18  34  58  81 106 146 196 231 274 340
#
# _framework density 25.297885000000001
#
# number of rings (size 3 to 8) (size 9 to 14) (size 15 to 20)
#    0.000    2.286    0.000    4.286    0.000    1.143 
#    0.000   51.429    0.000    0.000    0.000    0.000 
#    0.000    0.000    0.000    0.000    0.000    0.000 
#
# Total GULP energy -156374.643201 kJ/mol
# GULP energy per Si atom -5584.808686 kJ/mol
# Density = 2.524031 g / cm^3
# Si number density = 25.297885 Si / 1000 Ang^3
#
#
#
# Elastic Constant Matrix: (Units=GPa)
#
#
# Indices 1 2 3 4 5 6 
#
# 1 128.1320 19.1568 73.9392 0.0000 0.0000 0.0000
# 2 19.1568 102.0349 46.7113 0.0000 0.0000 0.0000
# 3 73.9392 46.7113 207.2510 0.0000 0.0000 0.0000
# 4 0.0000 0.0000 0.0000 26.3925 0.0000 0.0000
# 5 0.0000 0.0000 0.0000 0.0000 6.0248 0.0000
# 6 0.0000 0.0000 0.0000 0.0000 0.0000 10.7076
#
#
#
# Elastic Compliance Matrix: (Units=1/GPa)
#
#
# Indices 1 2 3 4 5 6 
#
# 1 0.009834 -0.000268 -0.003448 0.000000 0.000000 0.000000
# 2 -0.000268 0.010935 -0.002369 0.000000 0.000000 0.000000
# 3 -0.003448 -0.002369 0.006589 0.000000 0.000000 0.000000
# 4 0.000000 0.000000 0.000000 0.037890 0.000000 0.000000
# 5 0.000000 0.000000 0.000000 0.000000 0.165982 0.000000
# 6 0.000000 0.000000 0.000000 0.000000 0.000000 0.093391
#
#
# Mechanical properties :
#
#
# Convention : Reuss Voigt Hill
#
# Bulk Modulus (GPa) = 65.83829 79.67027 72.75428
# Shear Modulus (GPa) = 14.62611 28.46570 21.54590
#
# Velocity S-wave (km/s) = 2.40709 3.35807 2.92154
# Velocity P-wave (km/s) = 5.81439 6.82618 6.34050
#
# Compressibility (1/GPa) = 0.01518873
#
# Stress axis : x y z
#
# Youngs Moduli (GPa) = 101.68550 91.44587 151.76372
#
# Poissons Ratio (x) = 0.02449 0.52330
# Poissons Ratio (y) = 0.02723 0.35955
# Poissons Ratio (z) = 0.35062 0.21665
#
# Static dielectric constant tensor:
#      x y z
#    x 2.056080 0.000000 0.000000 
#    y 0.000000 2.033030 0.000000 
#    z 0.000000 0.000000 2.111170 
# 
# From -- ./inp_files/11387.got.cif
#   From: 2010.05.17/outbox.cif.g08.bks.cpg/sg52_6_cif.got.tgz:11387.got - 2010.06.03 12:15:38.
