data_PCOD9409928
_publ_section_title
;
Structure prediction by ZEFSAII (Michael W. Deem and Ramdas Pophale) SiO2 
 PCOD9409928
Probable space group: P N N A
;
_chemical_formula_sum "Si O2"
_cell_formula_units_Z 40
_cell_length_a 12.583303
_cell_length_b 10.040897
_cell_length_c 12.527473
_cell_angle_alpha 90.000000
_cell_angle_beta 90.000000
_cell_angle_gamma 90.000000
_cell_volume 1582.816766
_symmetry_space_group_name_H-M "P N N A"
_symmetry_group_IT_number 52
_symmetry_cell_setting 'orthorhombic'
loop_
_space_group_symop_operation_xyz
x,y,z
1/2-x,-y,z
x,1/2-y,1/2-z
1/2-x,1/2+y,1/2-z
-x,-y,-z
1/2+x,y,-z
-x,1/2+y,1/2+z
1/2+x,1/2-y,1/2+z
loop_
_atom_site_type_symbol
_atom_site_label
_atom_site_fract_x
_atom_site_fract_y
_atom_site_fract_z
Si Si1 0.651363 0.909710 0.422388
Si Si2 0.985060 0.483606 0.639946
Si Si3 0.652579 0.871592 0.041262
Si Si4 0.576179 0.516001 0.868452
Si Si5 0.676856 0.274182 0.630143
O O1 0.654869 0.759005 0.385359
O O2 0.546070 0.987764 0.393680
O O3 0.750000 0.000000 0.395542
O O4 0.637675 0.889671 0.550862
O O5 0.942038 0.391812 0.545088
O O6 0.935256 0.430117 0.749577
O O7 0.925041 0.627650 0.640732
O O8 0.111279 0.510865 0.622598
O O9 0.754281 0.850221 0.961787
O O10 0.632535 0.373610 0.892140
O O11 0.723394 0.250000 0.750000
#
# Coordination Sequence:
#
# PCOD9409928 Si02
#       5
#     8   8   8   8   8
#     4  11  22  38  64  92 126 165 215 268 324 388
#     4  10  23  40  60  91 131 168 212 272 323 387
#     4  11  22  37  62  91 124 165 210 265 330 381
#     4  10  22  40  62  89 126 169 216 265 326 385
#     4  10  20  37  62  90 120 163 214 267 317 380
#
# _framework density 25.271401999999998
#
# number of rings (size 3 to 8) (size 9 to 14) (size 15 to 20)
#    0.000    1.600    4.000    0.600    2.800    0.000 
#    0.000    4.000    0.000    2.400    0.000    0.000 
#    0.000    0.000    0.000    0.000    0.000    0.000 
#
# Total GULP energy -222787.672947 kJ/mol
# GULP energy per Si atom -5569.691824 kJ/mol
# Density = 2.521388 g / cm^3
# Si number density = 25.271402 Si / 1000 Ang^3
#
#
#
# Elastic Constant Matrix: (Units=GPa)
#
#
# Indices 1 2 3 4 5 6 
#
# 1 136.9012 24.3190 8.1213 0.0000 0.0000 0.0000
# 2 24.3190 89.9883 -0.7534 0.0000 0.0000 0.0000
# 3 8.1213 -0.7534 62.4929 0.0000 0.0000 0.0000
# 4 0.0000 0.0000 0.0000 17.8195 0.0000 0.0000
# 5 0.0000 0.0000 0.0000 0.0000 32.0866 0.0000
# 6 0.0000 0.0000 0.0000 0.0000 0.0000 23.9269
#
#
#
# Elastic Compliance Matrix: (Units=1/GPa)
#
#
# Indices 1 2 3 4 5 6 
#
# 1 0.007739 -0.002100 -0.001031 0.000000 0.000000 0.000000
# 2 -0.002100 0.011684 0.000414 0.000000 0.000000 0.000000
# 3 -0.001031 0.000414 0.016141 0.000000 0.000000 0.000000
# 4 0.000000 0.000000 0.000000 0.056118 0.000000 0.000000
# 5 0.000000 0.000000 0.000000 0.000000 0.031166 0.000000
# 6 0.000000 0.000000 0.000000 0.000000 0.000000 0.041794
#
#
# Mechanical properties :
#
#
# Convention : Reuss Voigt Hill
#
# Bulk Modulus (GPa) = 33.19107 39.19512 36.19310
# Shear Modulus (GPa) = 27.75953 31.94630 29.85292
#
# Velocity S-wave (km/s) = 3.31789 3.55932 3.44072
# Velocity P-wave (km/s) = 5.27638 5.69517 5.48977
#
# Compressibility (1/GPa) = 0.03012858
#
# Stress axis : x y z
#
# Youngs Moduli (GPa) = 129.21995 85.59054 61.95484
#
# Poissons Ratio (x) = 0.17974 0.06388
# Poissons Ratio (y) = 0.27136 -0.02563
# Poissons Ratio (z) = 0.13323 -0.03541
#
# Static dielectric constant tensor:
#      x y z
#    x 2.035160 0.000000 0.000000 
#    y 0.000000 1.998410 0.000000 
#    z 0.000000 0.000000 2.250190 
# 
# From -- ./inp_files/25818.got.cif
#   From: 2010.05.17/outbox.cif.g08.bks.cpg/sg52_13_cif.got.tgz:25818.got - 2010.06.03 12:15:38.
