data_PCOD9409426
_publ_section_title
;
Structure prediction by ZEFSAII (Michael W. Deem and Ramdas Pophale) SiO2 
 PCOD9409426
Probable space group: P N N A
;
_chemical_formula_sum "Si O2"
_cell_formula_units_Z 60
_cell_length_a 8.246733
_cell_length_b 25.795679
_cell_length_c 15.033442
_cell_angle_alpha 90.000000
_cell_angle_beta 90.000000
_cell_angle_gamma 90.000000
_cell_volume 3198.065278
_symmetry_space_group_name_H-M "P N N A"
_symmetry_group_IT_number 52
_symmetry_cell_setting 'orthorhombic'
loop_
_space_group_symop_operation_xyz
x,y,z
1/2-x,-y,z
x,1/2-y,1/2-z
1/2-x,1/2+y,1/2-z
-x,-y,-z
1/2+x,y,-z
-x,1/2+y,1/2+z
1/2+x,1/2-y,1/2+z
loop_
_atom_site_type_symbol
_atom_site_label
_atom_site_fract_x
_atom_site_fract_y
_atom_site_fract_z
Si Si1 0.260175 0.333508 0.375819
Si Si2 0.724560 0.891497 0.441304
Si Si3 0.299243 0.444454 0.293919
Si Si4 0.576995 0.289206 0.456851
Si Si5 0.610432 0.058273 0.607777
Si Si6 0.133695 0.776950 0.586861
Si Si7 0.585316 0.250000 0.750000
Si Si8 0.586697 0.034192 0.325534
O O1 0.262793 0.393357 0.348955
O O2 0.443790 0.317585 0.398468
O O3 0.152859 0.323779 0.464121
O O4 0.189782 0.293960 0.301243
O O5 0.767836 0.922415 0.531450
O O6 0.547448 0.906720 0.406054
O O7 0.718184 0.829924 0.443760
O O8 0.857263 0.913767 0.373583
O O9 0.250000 0.500000 0.334573
O O10 0.195415 0.437415 0.202986
O O11 0.484367 0.451588 0.261270
O O12 0.481740 0.243272 0.507967
O O13 0.725741 0.265727 0.402286
O O14 0.531772 0.000499 0.611291
O O15 0.026454 0.778120 0.675860
O O16 0.750000 0.000000 0.310575
#
# Coordination Sequence:
#
# PCOD9409426 Si02
#       8
#     8   8   8   8   8   8   4   8
#     4  10  21  41  62  84 112 148 183 226 282 336
#     4  11  19  30  51  74 110 155 193 220 260 335
#     4  10  21  38  58  80 107 139 183 237 286 331
#     4   9  21  39  58  78 113 145 179 228 281 330
#     4  10  20  32  48  76 110 149 188 232 273 317
#     4  10  20  35  53  83 112 146 187 230 272 325
#     4  10  22  36  58  88 120 148 184 230 278 330
#     4   9  20  34  48  74 110 147 186 228 274 321
#
# _framework density 18.761341999999999
#
# number of rings (size 3 to 8) (size 9 to 14) (size 15 to 20)
#    0.000    2.133    0.000    2.800    0.000    8.533 
#    0.000    7.333    0.000    0.000    0.000    0.000 
#    0.000    0.000    0.000    0.000    0.000    0.000 
#
# Total GULP energy -334668.900521 kJ/mol
# GULP energy per Si atom -5577.815009 kJ/mol
# Density = 1.871864 g / cm^3
# Si number density = 18.761342 Si / 1000 Ang^3
#
#
#
# Elastic Constant Matrix: (Units=GPa)
#
#
# Indices 1 2 3 4 5 6 
#
# 1 99.6800 60.8497 43.9995 0.0000 0.0000 0.0000
# 2 60.8497 143.2904 46.7776 0.0000 0.0000 0.0000
# 3 43.9995 46.7776 43.6393 0.0000 0.0000 0.0000
# 4 0.0000 0.0000 0.0000 14.2263 0.0000 0.0000
# 5 0.0000 0.0000 0.0000 0.0000 -1.7687 0.0000
# 6 0.0000 0.0000 0.0000 0.0000 0.0000 17.6091
#
#
#
# Elastic Compliance Matrix: (Units=1/GPa)
#
#
# Indices 1 2 3 4 5 6 
#
# 1 0.018759 -0.002756 -0.015960 0.000000 0.000000 0.000000
# 2 -0.002756 0.011140 -0.009163 0.000000 0.000000 0.000000
# 3 -0.015960 -0.009163 0.048828 0.000000 0.000000 0.000000
# 4 0.000000 0.000000 0.000000 0.070292 0.000000 0.000000
# 5 0.000000 0.000000 0.000000 0.000000 -0.565373 0.000000
# 6 0.000000 0.000000 0.000000 0.000000 0.000000 0.056789
#
#
# Mechanical properties :
#
#
# Convention : Reuss Voigt Hill
#
# Bulk Modulus (GPa) = 43.53362 65.54035 54.53698
# Shear Modulus (GPa) = -16.88337 15.01219 -0.93559
#
# Velocity S-wave (km/s) = -3.00309 2.83179 -0.70694
# Velocity P-wave (km/s) = 3.35105 6.76030 5.33531
#
# Compressibility (1/GPa) = 0.02297075
#
# Stress axis : x y z
#
# Youngs Moduli (GPa) = 53.30657 89.76277 20.47997
#
# Poissons Ratio (x) = 0.24741 0.32686
# Poissons Ratio (y) = 0.14693 0.18765
# Poissons Ratio (z) = 0.85076 0.82246
#
# Static dielectric constant tensor:
#      x y z
#    x 1.674070 0.000000 0.000000 
#    y 0.000000 1.661220 0.000000 
#    z 0.000000 0.000000 1.637680 
# 
# From -- ./inp_files/25098.got.cif
#   From: 2010.05.17/outbox.cif.g08.bks.cpg/sg52_13_cif.got.tgz:25098.got - 2010.06.03 12:15:38.
