data_PCOD9409624
_publ_section_title
;
Structure prediction by ZEFSAII (Michael W. Deem and Ramdas Pophale) SiO2 
 PCOD9409624
Probable space group: P N N A
;
_chemical_formula_sum "Si O2"
_cell_formula_units_Z 32
_cell_length_a 13.221254
_cell_length_b 5.121596
_cell_length_c 25.124351
_cell_angle_alpha 90.000000
_cell_angle_beta 90.000000
_cell_angle_gamma 90.000000
_cell_volume 1701.268334
_symmetry_space_group_name_H-M "P N N A"
_symmetry_group_IT_number 52
_symmetry_cell_setting 'orthorhombic'
loop_
_space_group_symop_operation_xyz
x,y,z
1/2-x,-y,z
x,1/2-y,1/2-z
1/2-x,1/2+y,1/2-z
-x,-y,-z
1/2+x,y,-z
-x,1/2+y,1/2+z
1/2+x,1/2-y,1/2+z
loop_
_atom_site_type_symbol
_atom_site_label
_atom_site_fract_x
_atom_site_fract_y
_atom_site_fract_z
Si Si1 0.957100 0.139793 0.899770
Si Si2 0.590751 0.380943 0.964670
Si Si3 0.314004 0.741749 0.927137
Si Si4 0.629235 0.998277 0.785804
O O1 0.891495 0.387871 0.921612
O O2 0.925518 0.041464 0.841786
O O3 0.074117 0.228403 0.902801
O O4 0.942462 0.888405 0.937467
O O5 0.500000 0.500000 0.000000
O O6 0.671876 0.305545 0.009366
O O7 0.250000 0.500000 0.905386
O O8 0.250000 0.000000 0.918673
O O9 0.605766 0.750000 0.750000
O O10 0.750000 0.000000 0.796308
O O11 0.604107 0.250000 0.750000
#
# Coordination Sequence:
#
# PCOD9409624 Si02
#       4
#     8   8   8   8
#     4  11  21  37  59  82 112 152 189 227 280 335
#     4  10  20  35  53  80 115 150 187 221 262 325
#     4  11  21  34  53  83 120 153 185 222 268 330
#     4  10  22  40  60  83 108 139 186 240 290 334
#
# _framework density 18.809494999999998
#
# number of rings (size 3 to 8) (size 9 to 14) (size 15 to 20)
#    0.000    1.500    0.000    9.000    0.000    3.000 
#    0.000    0.000    0.000    3.000    0.000    0.000 
#    0.000    0.000    0.000    0.000    0.000    0.000 
#
# Total GULP energy -178638.505375 kJ/mol
# GULP energy per Si atom -5582.453293 kJ/mol
# Density = 1.876668 g / cm^3
# Si number density = 18.809495 Si / 1000 Ang^3
#
#
#
# Elastic Constant Matrix: (Units=GPa)
#
#
# Indices 1 2 3 4 5 6 
#
# 1 36.6005 33.6884 39.1025 0.0000 0.0000 0.0000
# 2 33.6884 163.6621 41.0097 0.0000 0.0000 0.0000
# 3 39.1025 41.0097 105.7038 0.0000 0.0000 0.0000
# 4 0.0000 0.0000 0.0000 -11.5022 0.0000 0.0000
# 5 0.0000 0.0000 0.0000 0.0000 49.5908 0.0000
# 6 0.0000 0.0000 0.0000 0.0000 0.0000 59.2975
#
#
#
# Elastic Compliance Matrix: (Units=1/GPa)
#
#
# Indices 1 2 3 4 5 6 
#
# 1 0.050468 -0.006325 -0.016215 0.000000 0.000000 0.000000
# 2 -0.006325 0.007561 -0.000594 0.000000 0.000000 0.000000
# 3 -0.016215 -0.000594 0.015689 0.000000 0.000000 0.000000
# 4 0.000000 0.000000 0.000000 -0.086940 0.000000 0.000000
# 5 0.000000 0.000000 0.000000 0.000000 0.020165 0.000000
# 6 0.000000 0.000000 0.000000 0.000000 0.000000 0.016864
#
#
# Mechanical properties :
#
#
# Convention : Reuss Voigt Hill
#
# Bulk Modulus (GPa) = 36.43027 59.28529 47.85778
# Shear Modulus (GPa) = 63.11113 32.28827 47.69970
#
# Velocity S-wave (km/s) = 5.79876 4.14767 5.04127
# Velocity P-wave (km/s) = 8.01525 7.38409 7.70614
#
# Compressibility (1/GPa) = 0.02744970
#
# Stress axis : x y z
#
# Youngs Moduli (GPa) = 19.81456 132.26009 63.73823
#
# Poissons Ratio (x) = 0.83657 1.03354
# Poissons Ratio (y) = 0.12533 0.03783
# Poissons Ratio (z) = 0.32130 0.07850
#
# Static dielectric constant tensor:
#      x y z
#    x 1.740580 0.000000 0.000000 
#    y 0.000000 1.647840 0.000000 
#    z 0.000000 0.000000 1.610050 
# 
# From -- ./inp_files/32698.got.cif
#   From: 2010.05.17/outbox.cif.g08.bks.cpg/sg52_17_cif.got.tgz:32698.got - 2010.06.03 12:15:38.
