data_PCOD9409235
_publ_section_title
;
Structure prediction by ZEFSAII (Michael W. Deem and Ramdas Pophale) SiO2 
 PCOD9409235
Probable space group: P N N A
;
_chemical_formula_sum "Si O2"
_cell_formula_units_Z 32
_cell_length_a 8.937432
_cell_length_b 17.647102
_cell_length_c 8.280932
_cell_angle_alpha 90.000000
_cell_angle_beta 90.000000
_cell_angle_gamma 90.000000
_cell_volume 1306.066725
_symmetry_space_group_name_H-M "P N N A"
_symmetry_group_IT_number 52
_symmetry_cell_setting 'orthorhombic'
loop_
_space_group_symop_operation_xyz
x,y,z
1/2-x,-y,z
x,1/2-y,1/2-z
1/2-x,1/2+y,1/2-z
-x,-y,-z
1/2+x,y,-z
-x,1/2+y,1/2+z
1/2+x,1/2-y,1/2+z
loop_
_atom_site_type_symbol
_atom_site_label
_atom_site_fract_x
_atom_site_fract_y
_atom_site_fract_z
Si Si1 0.425875 0.978929 0.172368
Si Si2 0.037993 0.316582 0.426636
Si Si3 0.209358 0.705479 0.995980
Si Si4 0.045636 0.123047 0.702256
O O1 0.250000 0.000000 0.171185
O O2 0.512879 0.033480 0.294753
O O3 0.444221 0.888936 0.188571
O O4 0.500000 0.000000 0.000000
O O5 0.165588 0.254388 0.414214
O O6 0.045066 0.347173 0.612722
O O7 0.884728 0.271869 0.410469
O O8 0.301611 0.648191 0.883151
O O9 0.092096 0.662982 0.110410
#
# Coordination Sequence:
#
# PCOD9409235 Si02
#       4
#     8   8   8   8
#     4  10  21  41  67  97 132 173 222 280 334 397
#     4  10  20  38  65  97 126 171 226 273 325 398
#     4  10  19  37  65  97 130 167 215 278 335 385
#     4  10  22  40  63  97 136 171 221 277 334 402
#
# _framework density 24.501044
#
# number of rings (size 3 to 8) (size 9 to 14) (size 15 to 20)
#    0.000    2.000    0.000    6.000    0.000    0.000 
#    0.000   41.250    0.000    1.500    0.000    1.750 
#    0.000    0.000    0.000    0.000    0.000    0.000 
#
# Total GULP energy -179259.198466 kJ/mol
# GULP energy per Si atom -5601.849952 kJ/mol
# Density = 2.444528 g / cm^3
# Si number density = 24.501044 Si / 1000 Ang^3
#
#
#
# Elastic Constant Matrix: (Units=GPa)
#
#
# Indices 1 2 3 4 5 6 
#
# 1 151.6703 55.3186 27.8617 0.0000 0.0000 0.0000
# 2 55.3186 172.8069 43.5217 0.0000 0.0000 0.0000
# 3 27.8617 43.5217 91.4241 0.0000 0.0000 0.0000
# 4 0.0000 0.0000 0.0000 42.8747 0.0000 0.0000
# 5 0.0000 0.0000 0.0000 0.0000 19.5506 0.0000
# 6 0.0000 0.0000 0.0000 0.0000 0.0000 36.1740
#
#
#
# Elastic Compliance Matrix: (Units=1/GPa)
#
#
# Indices 1 2 3 4 5 6 
#
# 1 0.007602 -0.002102 -0.001316 0.000000 0.000000 0.000000
# 2 -0.002102 0.007156 -0.002766 0.000000 0.000000 0.000000
# 3 -0.001316 -0.002766 0.012656 0.000000 0.000000 0.000000
# 4 0.000000 0.000000 0.000000 0.023324 0.000000 0.000000
# 5 0.000000 0.000000 0.000000 0.000000 0.051149 0.000000
# 6 0.000000 0.000000 0.000000 0.000000 0.000000 0.027644
#
#
# Mechanical properties :
#
#
# Convention : Reuss Voigt Hill
#
# Bulk Modulus (GPa) = 66.46437 74.36727 70.41582
# Shear Modulus (GPa) = 34.03337 38.99980 36.51659
#
# Velocity S-wave (km/s) = 3.73105 3.99402 3.86477
# Velocity P-wave (km/s) = 6.76366 7.18945 6.97980
#
# Compressibility (1/GPa) = 0.01504565
#
# Stress axis : x y z
#
# Youngs Moduli (GPa) = 131.55038 139.73614 79.01461
#
# Poissons Ratio (x) = 0.29372 0.10398
# Poissons Ratio (y) = 0.27652 0.21857
# Poissons Ratio (z) = 0.17312 0.38653
#
# Static dielectric constant tensor:
#      x y z
#    x 1.894050 0.000000 0.000000 
#    y 0.000000 1.963040 0.000000 
#    z 0.000000 0.000000 2.020760 
# 
# From -- ./inp_files/7192.got.cif
#   From: 2010.05.17/outbox.cif.g08.bks.cpg/sg52_4_cif.got.tgz:7192.got - 2010.06.03 12:15:38.
