data_PCOD9409175
_publ_section_title
;
Structure prediction by ZEFSAII (Michael W. Deem and Ramdas Pophale) SiO2 
 PCOD9409175
Probable space group: P N N A
;
_chemical_formula_sum "Si O2"
_cell_formula_units_Z 32
_cell_length_a 16.828599
_cell_length_b 12.625194
_cell_length_c 6.296062
_cell_angle_alpha 90.000000
_cell_angle_beta 90.000000
_cell_angle_gamma 90.000000
_cell_volume 1337.688576
_symmetry_space_group_name_H-M "P N N A"
_symmetry_group_IT_number 52
_symmetry_cell_setting 'orthorhombic'
loop_
_space_group_symop_operation_xyz
x,y,z
1/2-x,-y,z
x,1/2-y,1/2-z
1/2-x,1/2+y,1/2-z
-x,-y,-z
1/2+x,y,-z
-x,1/2+y,1/2+z
1/2+x,1/2-y,1/2+z
loop_
_atom_site_type_symbol
_atom_site_label
_atom_site_fract_x
_atom_site_fract_y
_atom_site_fract_z
Si Si1 0.383790 0.909722 0.579235
Si Si2 0.252170 0.750000 0.750000
Si Si3 0.943707 0.750000 0.750000
Si Si4 0.536786 0.647319 0.640061
Si Si5 0.828808 0.436240 0.406609
O O1 0.311745 0.838814 0.667313
O O2 0.396939 0.849223 0.356161
O O3 0.466913 0.892434 0.704317
O O4 0.356565 0.025111 0.669312
O O5 0.195612 0.686107 0.594562
O O6 0.995395 0.694434 0.569083
O O7 0.574759 0.750000 0.750000
O O8 0.598464 0.557717 0.569763
O O9 0.750000 0.500000 0.471114
#
# Coordination Sequence:
#
# PCOD9409175 Si02
#       5
#     8   4   4   8   8
#     4  10  20  40  67  94 128 180 226 277 340 409
#     4  10  19  42  62  91 138 172 220 290 339 400
#     4  10  19  36  70  91 128 170 226 278 331 400
#     4  10  20  39  65  95 130 174 226 278 336 408
#     4  10  22  38  67  94 134 180 218 281 353 403
#
# _framework density 23.921859999999999
#
# number of rings (size 3 to 8) (size 9 to 14) (size 15 to 20)
#    0.000    2.000    3.750    1.500    0.000    1.000 
#    2.250    2.500   11.000    0.000    0.000    0.000 
#    0.000    0.000    0.000    0.000    0.000    0.000 
#
# Total GULP energy -178339.017991 kJ/mol
# GULP energy per Si atom -5573.094312 kJ/mol
# Density = 2.386741 g / cm^3
# Si number density = 23.921860 Si / 1000 Ang^3
#
#
#
# Elastic Constant Matrix: (Units=GPa)
#
#
# Indices 1 2 3 4 5 6 
#
# 1 103.9398 36.1191 29.2082 0.0000 0.0000 0.0000
# 2 36.1191 64.9043 -4.3494 0.0000 0.0000 0.0000
# 3 29.2082 -4.3494 45.9241 0.0000 0.0000 0.0000
# 4 0.0000 0.0000 0.0000 33.4299 0.0000 0.0000
# 5 0.0000 0.0000 0.0000 0.0000 31.4628 0.0000
# 6 0.0000 0.0000 0.0000 0.0000 0.0000 20.0149
#
#
#
# Elastic Compliance Matrix: (Units=1/GPa)
#
#
# Indices 1 2 3 4 5 6 
#
# 1 0.016151 -0.009738 -0.011194 0.000000 0.000000 0.000000
# 2 -0.009738 0.021377 0.008218 0.000000 0.000000 0.000000
# 3 -0.011194 0.008218 0.029673 0.000000 0.000000 0.000000
# 4 0.000000 0.000000 0.000000 0.029913 0.000000 0.000000
# 5 0.000000 0.000000 0.000000 0.000000 0.031784 0.000000
# 6 0.000000 0.000000 0.000000 0.000000 0.000000 0.049963
#
#
# Mechanical properties :
#
#
# Convention : Reuss Voigt Hill
#
# Bulk Modulus (GPa) = 23.93920 37.41377 30.67648
# Shear Modulus (GPa) = 22.91344 27.23421 25.07383
#
# Velocity S-wave (km/s) = 3.09826 3.37778 3.24104
# Velocity P-wave (km/s) = 4.77786 5.55756 5.18239
#
# Compressibility (1/GPa) = 0.04177249
#
# Stress axis : x y z
#
# Youngs Moduli (GPa) = 61.91741 46.77895 33.70075
#
# Poissons Ratio (x) = 0.45553 0.37725
# Poissons Ratio (y) = 0.60295 -0.27695
# Poissons Ratio (z) = 0.69311 -0.38443
#
# Static dielectric constant tensor:
#      x y z
#    x 1.908010 0.000000 0.000000 
#    y 0.000000 1.992600 0.000000 
#    z 0.000000 0.000000 1.971740 
# 
# From -- ./inp_files/3010.got.cif
#   From: 2010.05.17/outbox.cif.g08.bks.cpg/sg52_2_cif.got.tgz:3010.got - 2010.06.03 12:15:38.
