data_PCOD9409405
_publ_section_title
;
Structure prediction by ZEFSAII (Michael W. Deem and Ramdas Pophale) SiO2 
 PCOD9409405
Probable space group: P N N A
;
_chemical_formula_sum "Si O2"
_cell_formula_units_Z 48
_cell_length_a 5.461495
_cell_length_b 21.477305
_cell_length_c 19.037415
_cell_angle_alpha 90.000000
_cell_angle_beta 90.000000
_cell_angle_gamma 90.000000
_cell_volume 2233.054395
_symmetry_space_group_name_H-M "P N N A"
_symmetry_group_IT_number 52
_symmetry_cell_setting 'orthorhombic'
loop_
_space_group_symop_operation_xyz
x,y,z
1/2-x,-y,z
x,1/2-y,1/2-z
1/2-x,1/2+y,1/2-z
-x,-y,-z
1/2+x,y,-z
-x,1/2+y,1/2+z
1/2+x,1/2-y,1/2+z
loop_
_atom_site_type_symbol
_atom_site_label
_atom_site_fract_x
_atom_site_fract_y
_atom_site_fract_z
Si Si1 0.999998 0.127238 0.500000
Si Si2 0.750001 0.143051 0.898765
Si Si3 0.749999 0.571420 0.401039
Si Si4 0.249998 0.641353 0.229325
Si Si5 0.250001 0.785716 0.400417
Si Si6 0.249998 0.570639 0.769876
O O1 0.249998 0.090587 0.504867
O O2 0.029464 0.175001 0.435013
O O3 0.970533 0.175001 0.564986
O O4 0.501473 0.107085 0.919757
O O5 0.750002 0.147407 0.813382
O O6 0.749999 0.214482 0.922914
O O7 0.998531 0.107085 0.919757
O O8 0.750000 0.500000 0.426666
O O9 0.749999 0.569110 0.315629
O O10 0.249999 0.703522 0.182649
O O11 0.498116 0.604451 0.210013
O O12 0.001879 0.604451 0.210013
O O13 0.250000 0.500000 0.795624
#
# Coordination Sequence:
#
# PCOD9409405 Si02
#       6
#     8   8   8   8   8   8
#     4   8  20  34  50  68  94 136 168 198 234 286
#     4  10  20  30  51  77 104 132 152 205 254 288
#     4   9  18  32  47  70 102 137 170 190 230 296
#     4  10  20  30  51  77 104 132 152 205 254 288
#     4  10  21  34  52  76 105 120 172 198 252 304
#     4   9  18  32  47  70 102 137 170 190 230 296
#
# _framework density 21.495221999999998
#
# number of rings (size 3 to 8) (size 9 to 14) (size 15 to 20)
#    1.000    1.667    0.000    1.500    4.667    4.000 
#    0.000    5.000    0.000    0.000    0.000   23.333 
#    0.000    0.000    0.000    0.000    0.000    0.000 
#
# Total GULP energy -267335.494126 kJ/mol
# GULP energy per Si atom -5569.489461 kJ/mol
# Density = 2.144630 g / cm^3
# Si number density = 21.495222 Si / 1000 Ang^3
#
#
#
# Elastic Constant Matrix: (Units=GPa)
#
#
# Indices 1 2 3 4 5 6 
#
# 1 201.9461 33.5835 5.4848 0.0000 0.0000 0.0000
# 2 33.5835 62.7251 12.5120 0.0000 0.0000 0.0000
# 3 5.4848 12.5120 82.5073 0.0000 0.0000 0.0000
# 4 0.0000 0.0000 0.0000 -14.9478 0.0000 0.0000
# 5 0.0000 0.0000 0.0000 0.0000 7.0484 0.0000
# 6 0.0000 0.0000 0.0000 0.0000 0.0000 50.0550
#
#
#
# Elastic Compliance Matrix: (Units=1/GPa)
#
#
# Indices 1 2 3 4 5 6 
#
# 1 0.005436 -0.002927 0.000083 0.000000 0.000000 0.000000
# 2 -0.002927 0.018016 -0.002537 0.000000 0.000000 0.000000
# 3 0.000083 -0.002537 0.012499 0.000000 0.000000 0.000000
# 4 0.000000 0.000000 0.000000 -0.066899 0.000000 0.000000
# 5 0.000000 0.000000 0.000000 0.000000 0.141876 0.000000
# 6 0.000000 0.000000 0.000000 0.000000 0.000000 0.019978
#
#
# Mechanical properties :
#
#
# Convention : Reuss Voigt Hill
#
# Bulk Modulus (GPa) = 39.70217 50.03768 44.86992
# Shear Modulus (GPa) = 33.31853 28.13766 30.72810
#
# Velocity S-wave (km/s) = 3.94133 3.62196 3.78502
# Velocity P-wave (km/s) = 6.26278 6.38909 6.32625
#
# Compressibility (1/GPa) = 0.02518754
#
# Stress axis : x y z
#
# Youngs Moduli (GPa) = 183.94682 55.50638 80.00341
#
# Poissons Ratio (x) = 0.16247 -0.00660
# Poissons Ratio (y) = 0.53843 0.20301
# Poissons Ratio (z) = -0.01518 0.14085
#
# Static dielectric constant tensor:
#      x y z
#    x 1.802430 0.000000 0.000000 
#    y 0.000000 1.704130 0.000000 
#    z 0.000000 0.000000 1.805330 
# 
# From -- ./inp_files/38829.got.cif
#   From: 2010.05.17/outbox.cif.g08.bks.cpg/sg52_20_cif.got.tgz:38829.got - 2010.06.03 12:15:38.
