data_PCOD9409076
_publ_section_title
;
Structure prediction by ZEFSAII (Michael W. Deem and Ramdas Pophale) SiO2 
 PCOD9409076
Probable space group: P N N A
;
_chemical_formula_sum "Si O2"
_cell_formula_units_Z 44
_cell_length_a 14.214123
_cell_length_b 16.952563
_cell_length_c 7.540753
_cell_angle_alpha 90.000000
_cell_angle_beta 90.000000
_cell_angle_gamma 90.000000
_cell_volume 1817.063697
_symmetry_space_group_name_H-M "P N N A"
_symmetry_group_IT_number 52
_symmetry_cell_setting 'orthorhombic'
loop_
_space_group_symop_operation_xyz
x,y,z
1/2-x,-y,z
x,1/2-y,1/2-z
1/2-x,1/2+y,1/2-z
-x,-y,-z
1/2+x,y,-z
-x,1/2+y,1/2+z
1/2+x,1/2-y,1/2+z
loop_
_atom_site_type_symbol
_atom_site_label
_atom_site_fract_x
_atom_site_fract_y
_atom_site_fract_z
Si Si1 0.582945 0.334914 0.671944
Si Si2 0.750000 0.500000 0.047401
Si Si3 0.239682 0.592718 0.498442
Si Si4 0.061499 0.075881 0.542735
Si Si5 0.630809 0.860627 0.649801
Si Si6 0.885673 0.297373 0.429397
O O1 0.609575 0.250000 0.750000
O O2 0.663735 0.368786 0.549587
O O3 0.489811 0.334811 0.552561
O O4 0.580885 0.387595 0.849496
O O5 0.839704 0.547831 0.130999
O O6 0.693079 0.568039 0.937009
O O7 0.250000 0.500000 0.498617
O O8 0.163840 0.628989 0.354353
O O9 0.187557 0.637402 0.654029
O O10 0.982453 0.128763 0.638395
O O11 0.000000 0.000000 0.500000
O O12 0.647389 0.775903 0.557405
O O13 0.910215 0.250000 0.250000
#
# Coordination Sequence:
#
# PCOD9409076 Si02
#       6
#     8   4   8   8   8   8
#     4  11  21  43  69  94 139 187 222 285 361 408
#     4  10  20  34  64 106 134 172 230 284 346 420
#     4  12  25  45  73 104 137 189 240 288 355 437
#     4  10  19  35  66 101 132 174 232 282 341 423
#     4  11  19  41  69 104 134 182 242 284 343 433
#     4  11  25  44  66  99 143 186 233 297 355 408
#
# _framework density 24.214891000000001
#
# number of rings (size 3 to 8) (size 9 to 14) (size 15 to 20)
#    0.000    1.091    6.364    2.727    0.000    0.727 
#    1.636    3.636    0.000    0.000    0.000    0.000 
#    0.000    0.000    0.000    0.000    0.000    0.000 
#
# Total GULP energy -245165.009821 kJ/mol
# GULP energy per Si atom -5571.932041 kJ/mol
# Density = 2.415978 g / cm^3
# Si number density = 24.214891 Si / 1000 Ang^3
#
#
#
# Elastic Constant Matrix: (Units=GPa)
#
#
# Indices 1 2 3 4 5 6 
#
# 1 211.2670 85.2454 5.0707 0.0000 0.0000 0.0000
# 2 85.2454 167.7056 -0.8796 0.0000 0.0000 0.0000
# 3 5.0707 -0.8796 14.3127 0.0000 0.0000 0.0000
# 4 0.0000 0.0000 0.0000 26.7824 0.0000 0.0000
# 5 0.0000 0.0000 0.0000 0.0000 27.5790 0.0000
# 6 0.0000 0.0000 0.0000 0.0000 0.0000 36.4411
#
#
#
# Elastic Compliance Matrix: (Units=1/GPa)
#
#
# Indices 1 2 3 4 5 6 
#
# 1 0.006031 -0.003078 -0.002326 0.000000 0.000000 0.000000
# 2 -0.003078 0.007535 0.001554 0.000000 0.000000 0.000000
# 3 -0.002326 0.001554 0.070788 0.000000 0.000000 0.000000
# 4 0.000000 0.000000 0.000000 0.037338 0.000000 0.000000
# 5 0.000000 0.000000 0.000000 0.000000 0.036259 0.000000
# 6 0.000000 0.000000 0.000000 0.000000 0.000000 0.027442
#
#
# Mechanical properties :
#
#
# Convention : Reuss Voigt Hill
#
# Bulk Modulus (GPa) = 13.04565 63.57314 38.30939
# Shear Modulus (GPa) = 22.86816 38.41710 30.64263
#
# Velocity S-wave (km/s) = 3.07642 3.98742 3.56117
# Velocity P-wave (km/s) = 4.24479 6.89276 5.72400
#
# Compressibility (1/GPa) = 0.07665393
#
# Stress axis : x y z
#
# Youngs Moduli (GPa) = 165.80854 132.70625 14.12675
#
# Poissons Ratio (x) = 0.40844 0.03286
# Poissons Ratio (y) = 0.51033 -0.02195
# Poissons Ratio (z) = 0.38564 -0.20616
#
# Static dielectric constant tensor:
#      x y z
#    x 2.048950 0.000000 0.000000 
#    y 0.000000 7.888380 0.000000 
#    z 0.000000 0.000000 -0.679290 
# 
# From -- ./inp_files/10374.got.cif
#   From: 2010.05.17/outbox.cif.g08.bks.cpg/sg52_6_cif.got.tgz:10374.got - 2010.06.03 12:15:38.
