data_PCOD9409098
_publ_section_title
;
Structure prediction by ZEFSAII (Michael W. Deem and Ramdas Pophale) SiO2 
 PCOD9409098
Probable space group: P N N A
;
_chemical_formula_sum "Si O2"
_cell_formula_units_Z 36
_cell_length_a 24.429268
_cell_length_b 5.062511
_cell_length_c 13.541678
_cell_angle_alpha 90.000000
_cell_angle_beta 90.000000
_cell_angle_gamma 90.000000
_cell_volume 1674.745874
_symmetry_space_group_name_H-M "P N N A"
_symmetry_group_IT_number 52
_symmetry_cell_setting 'orthorhombic'
loop_
_space_group_symop_operation_xyz
x,y,z
1/2-x,-y,z
x,1/2-y,1/2-z
1/2-x,1/2+y,1/2-z
-x,-y,-z
1/2+x,y,-z
-x,1/2+y,1/2+z
1/2+x,1/2-y,1/2+z
loop_
_atom_site_type_symbol
_atom_site_label
_atom_site_fract_x
_atom_site_fract_y
_atom_site_fract_z
Si Si1 0.039464 0.110692 0.857992
Si Si2 0.107933 0.750000 0.750000
Si Si3 0.141076 0.126999 0.988911
Si Si4 0.580988 0.505294 0.680231
Si Si5 0.689957 0.905365 0.393871
O O1 0.043850 0.250000 0.750000
O O2 0.975522 0.082811 0.876833
O O3 0.066688 0.828128 0.836245
O O4 0.082127 0.207611 0.939314
O O5 0.149920 0.952562 0.699656
O O6 0.126898 0.044021 0.099107
O O7 0.175321 0.393131 0.980840
O O8 0.173977 0.891942 0.930654
O O9 0.594510 0.750000 0.750000
O O10 0.571037 0.250000 0.750000
O O11 0.750000 0.000000 0.362695
#
# Coordination Sequence:
#
# PCOD9409098 Si02
#       5
#     8   4   8   8   8
#     4  10  19  36  57  93 129 162 192 238 309 384
#     4  10  20  36  58  90 132 158 192 236 308 384
#     4  11  23  40  63  89 125 164 209 256 308 365
#     4  11  23  39  63  90 124 163 208 256 309 366
#     4  11  24  40  63  90 124 166 209 255 307 367
#
# _framework density 21.495799000000002
#
# number of rings (size 3 to 8) (size 9 to 14) (size 15 to 20)
#    0.000    1.333    3.333    2.667    0.000    3.556 
#    0.000    6.667    0.000   13.333    0.000    0.000 
#    0.000    0.000    0.000    0.000    0.000    0.000 
#
# Total GULP energy -200535.259984 kJ/mol
# GULP energy per Si atom -5570.423888 kJ/mol
# Density = 2.144687 g / cm^3
# Si number density = 21.495799 Si / 1000 Ang^3
#
#
#
# Elastic Constant Matrix: (Units=GPa)
#
#
# Indices 1 2 3 4 5 6 
#
# 1 46.7442 3.9324 9.4178 0.0000 0.0000 0.0000
# 2 3.9324 85.2338 13.1023 0.0000 0.0000 0.0000
# 3 9.4178 13.1023 42.6771 0.0000 0.0000 0.0000
# 4 0.0000 0.0000 0.0000 28.3856 0.0000 0.0000
# 5 0.0000 0.0000 0.0000 0.0000 16.2333 0.0000
# 6 0.0000 0.0000 0.0000 0.0000 0.0000 20.4730
#
#
#
# Elastic Compliance Matrix: (Units=1/GPa)
#
#
# Indices 1 2 3 4 5 6 
#
# 1 0.022395 -0.000287 -0.004854 0.000000 0.000000 0.000000
# 2 -0.000287 0.012317 -0.003718 0.000000 0.000000 0.000000
# 3 -0.004854 -0.003718 0.025644 0.000000 0.000000 0.000000
# 4 0.000000 0.000000 0.000000 0.035229 0.000000 0.000000
# 5 0.000000 0.000000 0.000000 0.000000 0.061602 0.000000
# 6 0.000000 0.000000 0.000000 0.000000 0.000000 0.048845
#
#
# Mechanical properties :
#
#
# Convention : Reuss Voigt Hill
#
# Bulk Modulus (GPa) = 23.45298 25.28444 24.36871
# Shear Modulus (GPa) = 21.01160 22.89854 21.95507
#
# Velocity S-wave (km/s) = 3.12985 3.26737 3.19935
# Velocity P-wave (km/s) = 4.89852 5.10120 5.00089
#
# Compressibility (1/GPa) = 0.04263850
#
# Stress axis : x y z
#
# Youngs Moduli (GPa) = 44.65256 81.18704 38.99479
#
# Poissons Ratio (x) = 0.02331 0.18928
# Poissons Ratio (y) = 0.01282 0.14499
# Poissons Ratio (z) = 0.21674 0.30187
#
# Static dielectric constant tensor:
#      x y z
#    x 1.792220 0.000000 0.000000 
#    y 0.000000 1.892260 0.000000 
#    z 0.000000 0.000000 1.845690 
# 
# From -- ./inp_files/22046.got.cif
#   From: 2010.05.17/outbox.cif.g08.bks.cpg/sg52_12_cif.got.tgz:22046.got - 2010.06.03 12:15:38.
