data_PCOD9409662
_publ_section_title
;
Structure prediction by ZEFSAII (Michael W. Deem and Ramdas Pophale) SiO2 
 PCOD9409662
Probable space group: P N N A
;
_chemical_formula_sum "Si O2"
_cell_formula_units_Z 64
_cell_length_a 19.287970
_cell_length_b 7.040651
_cell_length_c 20.271114
_cell_angle_alpha 90.000000
_cell_angle_beta 90.000000
_cell_angle_gamma 90.000000
_cell_volume 2752.814550
_symmetry_space_group_name_H-M "P N N A"
_symmetry_group_IT_number 52
_symmetry_cell_setting 'orthorhombic'
loop_
_space_group_symop_operation_xyz
x,y,z
1/2-x,-y,z
x,1/2-y,1/2-z
1/2-x,1/2+y,1/2-z
-x,-y,-z
1/2+x,y,-z
-x,1/2+y,1/2+z
1/2+x,1/2-y,1/2+z
loop_
_atom_site_type_symbol
_atom_site_label
_atom_site_fract_x
_atom_site_fract_y
_atom_site_fract_z
Si Si1 0.082301 0.018841 0.698409
Si Si2 0.023474 0.860899 0.073938
Si Si3 0.423003 0.363785 0.186399
Si Si4 0.691254 0.340018 0.821436
Si Si5 0.366194 0.333279 0.525464
Si Si6 0.891225 0.609744 0.057184
Si Si7 0.272617 0.776171 0.461130
Si Si8 0.087397 0.578406 0.658807
O O1 0.078101 0.796142 0.680186
O O2 0.106460 0.032037 0.774221
O O3 0.122597 0.110516 0.636497
O O4 0.003897 0.094804 0.697576
O O5 0.967164 0.702992 0.051597
O O6 0.080445 0.760373 0.120811
O O7 0.069464 0.929377 0.012802
O O8 0.982529 0.001037 0.123599
O O9 0.395615 0.250000 0.250000
O O10 0.382394 0.556189 0.174344
O O11 0.750000 0.500000 0.822044
O O12 0.695301 0.250000 0.750000
O O13 0.703232 0.220082 0.887754
O O14 0.294805 0.332654 0.486542
O O15 0.359148 0.419827 0.598423
O O16 0.388301 0.110838 0.535128
O O17 0.835283 0.720641 0.013451
O O18 0.250000 0.000000 0.458356
#
# Coordination Sequence:
#
# PCOD9409662 Si02
#       8
#     8   8   8   8   8   8   8   8
#     4   9  20  37  58  88 119 156 194 253 317 376
#     4  11  20  34  58  90 119 155 205 251 309 377
#     4  11  21  36  59  86 118 156 204 253 312 370
#     4  11  24  40  58  85 122 169 215 256 310 374
#     4  10  20  36  59  86 118 159 202 257 308 368
#     4   9  19  35  60  84 115 159 206 250 306 371
#     4   9  19  40  62  83 118 164 214 250 301 370
#     4  10  20  35  57  87 124 153 196 253 321 370
#
# _framework density 23.248933000000001
#
# number of rings (size 3 to 8) (size 9 to 14) (size 15 to 20)
#    0.000    2.000    1.250    3.375    1.750    2.000 
#    0.000    1.875    0.000   15.000    0.000    0.000 
#    0.000    0.000    0.000    0.000    0.000    0.000 
#
# Total GULP energy -357813.544954 kJ/mol
# GULP energy per Si atom -5590.836640 kJ/mol
# Density = 2.319602 g / cm^3
# Si number density = 23.248933 Si / 1000 Ang^3
#
#
#
# Elastic Constant Matrix: (Units=GPa)
#
#
# Indices 1 2 3 4 5 6 
#
# 1 81.0262 19.3151 73.2837 0.0000 0.0000 0.0000
# 2 19.3151 59.7783 45.8338 0.0000 0.0000 0.0000
# 3 73.2837 45.8338 226.1870 0.0000 0.0000 0.0000
# 4 0.0000 0.0000 0.0000 41.7727 0.0000 0.0000
# 5 0.0000 0.0000 0.0000 0.0000 14.5422 0.0000
# 6 0.0000 0.0000 0.0000 0.0000 0.0000 31.8901
#
#
#
# Elastic Compliance Matrix: (Units=1/GPa)
#
#
# Indices 1 2 3 4 5 6 
#
# 1 0.017578 -0.001555 -0.005380 0.000000 0.000000 0.000000
# 2 -0.001555 0.019943 -0.003538 0.000000 0.000000 0.000000
# 3 -0.005380 -0.003538 0.006881 0.000000 0.000000 0.000000
# 4 0.000000 0.000000 0.000000 0.023939 0.000000 0.000000
# 5 0.000000 0.000000 0.000000 0.000000 0.068765 0.000000
# 6 0.000000 0.000000 0.000000 0.000000 0.000000 0.031358
#
#
# Mechanical properties :
#
#
# Convention : Reuss Voigt Hill
#
# Bulk Modulus (GPa) = 42.62956 71.53962 57.08459
# Shear Modulus (GPa) = 25.35122 32.87826 29.11474
#
# Velocity S-wave (km/s) = 3.30574 3.76464 3.54263
# Velocity P-wave (km/s) = 5.73990 7.05228 6.42966
#
# Compressibility (1/GPa) = 0.02345790
#
# Stress axis : x y z
#
# Youngs Moduli (GPa) = 56.88774 50.14263 145.32413
#
# Poissons Ratio (x) = 0.07795 0.78190
# Poissons Ratio (y) = 0.08843 0.51409
# Poissons Ratio (z) = 0.30608 0.17738
#
# Static dielectric constant tensor:
#      x y z
#    x 1.769200 0.000000 0.000000 
#    y 0.000000 1.954350 0.000000 
#    z 0.000000 0.000000 1.931790 
# 
# From -- ./inp_files/34125.got.cif
#   From: 2010.05.17/outbox.cif.g08.bks.cpg/sg52_18_cif.got.tgz:34125.got - 2010.06.03 12:15:38.
