data_PCOD9409244
_publ_section_title
;
Structure prediction by ZEFSAII (Michael W. Deem and Ramdas Pophale) SiO2 
 PCOD9409244
Probable space group: P N N A
;
_chemical_formula_sum "Si O2"
_cell_formula_units_Z 40
_cell_length_a 17.945760
_cell_length_b 12.392628
_cell_length_c 7.236046
_cell_angle_alpha 90.000000
_cell_angle_beta 90.000000
_cell_angle_gamma 90.000000
_cell_volume 1609.261375
_symmetry_space_group_name_H-M "P N N A"
_symmetry_group_IT_number 52
_symmetry_cell_setting 'orthorhombic'
loop_
_space_group_symop_operation_xyz
x,y,z
1/2-x,-y,z
x,1/2-y,1/2-z
1/2-x,1/2+y,1/2-z
-x,-y,-z
1/2+x,y,-z
-x,1/2+y,1/2+z
1/2+x,1/2-y,1/2+z
loop_
_atom_site_type_symbol
_atom_site_label
_atom_site_fract_x
_atom_site_fract_y
_atom_site_fract_z
Si Si1 0.752788 0.348881 0.008921
Si Si2 0.481617 0.426537 0.732630
Si Si3 0.377467 0.495064 0.053660
Si Si4 0.441508 0.662076 0.587552
Si Si5 0.266122 0.621117 0.560373
O O1 0.764383 0.372644 0.228389
O O2 0.768318 0.225248 0.965441
O O3 0.668813 0.396119 0.996417
O O4 0.810273 0.418158 0.891412
O O5 0.562095 0.460620 0.808277
O O6 0.453425 0.538183 0.644987
O O7 0.500699 0.331735 0.585916
O O8 0.424063 0.423510 0.903908
O O9 0.455923 0.750000 0.750000
O O10 0.352994 0.656630 0.549708
O O11 0.250000 0.500000 0.497359
#
# Coordination Sequence:
#
# PCOD9409244 Si02
#       5
#     8   8   8   8   8
#     4  10  19  37  69  90 137 176 231 288 351 437
#     4  10  22  39  68  96 139 175 231 299 361 438
#     4  10  19  42  65 103 132 177 233 296 364 431
#     4  11  21  43  65  94 137 187 227 289 369 440
#     4  11  19  37  66  92 125 184 235 279 345 422
#
# _framework density 24.856123
#
# number of rings (size 3 to 8) (size 9 to 14) (size 15 to 20)
#    0.000    1.600    6.000    0.000    0.000    0.000 
#   18.000    8.000    0.000    0.000    0.000    0.000 
#    0.000    0.000    0.000    0.000    0.000    0.000 
#
# Total GULP energy -222872.151555 kJ/mol
# GULP energy per Si atom -5571.803789 kJ/mol
# Density = 2.479955 g / cm^3
# Si number density = 24.856123 Si / 1000 Ang^3
#
#
#
# Elastic Constant Matrix: (Units=GPa)
#
#
# Indices 1 2 3 4 5 6 
#
# 1 74.7320 37.8338 24.2420 0.0000 0.0000 0.0000
# 2 37.8338 184.2388 36.6101 0.0000 0.0000 0.0000
# 3 24.2420 36.6101 77.9732 0.0000 0.0000 0.0000
# 4 0.0000 0.0000 0.0000 31.5617 0.0000 0.0000
# 5 0.0000 0.0000 0.0000 0.0000 10.0659 0.0000
# 6 0.0000 0.0000 0.0000 0.0000 0.0000 81.7205
#
#
#
# Elastic Compliance Matrix: (Units=1/GPa)
#
#
# Indices 1 2 3 4 5 6 
#
# 1 0.015871 -0.002513 -0.003754 0.000000 0.000000 0.000000
# 2 -0.002513 0.006384 -0.002216 0.000000 0.000000 0.000000
# 3 -0.003754 -0.002216 0.015033 0.000000 0.000000 0.000000
# 4 0.000000 0.000000 0.000000 0.031684 0.000000 0.000000
# 5 0.000000 0.000000 0.000000 0.000000 0.099345 0.000000
# 6 0.000000 0.000000 0.000000 0.000000 0.000000 0.012237
#
#
# Mechanical properties :
#
#
# Convention : Reuss Voigt Hill
#
# Bulk Modulus (GPa) = 49.21089 59.36844 54.28967
# Shear Modulus (GPa) = 24.47437 40.55350 32.51393
#
# Velocity S-wave (km/s) = 3.14130 4.04360 3.62067
# Velocity P-wave (km/s) = 5.74442 6.76296 6.27439
#
# Compressibility (1/GPa) = 0.02032070
#
# Stress axis : x y z
#
# Youngs Moduli (GPa) = 63.00659 156.63676 66.52157
#
# Poissons Ratio (x) = 0.39366 0.24975
# Poissons Ratio (y) = 0.15835 0.14742
# Poissons Ratio (z) = 0.23655 0.34713
#
# Static dielectric constant tensor:
#      x y z
#    x 1.998560 0.000000 0.000000 
#    y 0.000000 1.931050 0.000000 
#    z 0.000000 0.000000 2.173680 
# 
# From -- ./inp_files/11642.got.cif
#   From: 2010.05.17/outbox.cif.g08.bks.cpg/sg52_6_cif.got.tgz:11642.got - 2010.06.03 12:15:38.
