data_PCOD9409848
_publ_section_title
;
Structure prediction by ZEFSAII (Michael W. Deem and Ramdas Pophale) SiO2 
 PCOD9409848
Probable space group: P N N A
;
_chemical_formula_sum "Si O2"
_cell_formula_units_Z 28
_cell_length_a 12.765988
_cell_length_b 7.086931
_cell_length_c 12.735377
_cell_angle_alpha 90.000000
_cell_angle_beta 90.000000
_cell_angle_gamma 90.000000
_cell_volume 1152.190903
_symmetry_space_group_name_H-M "P N N A"
_symmetry_group_IT_number 52
_symmetry_cell_setting 'orthorhombic'
loop_
_space_group_symop_operation_xyz
x,y,z
1/2-x,-y,z
x,1/2-y,1/2-z
1/2-x,1/2+y,1/2-z
-x,-y,-z
1/2+x,y,-z
-x,1/2+y,1/2+z
1/2+x,1/2-y,1/2+z
loop_
_atom_site_type_symbol
_atom_site_label
_atom_site_fract_x
_atom_site_fract_y
_atom_site_fract_z
Si Si1 0.009743 0.092954 0.117430
Si Si2 0.728909 0.229067 0.910237
Si Si3 0.719401 0.713109 0.365714
Si Si4 0.904545 0.250000 0.750000
O O1 0.109222 0.230906 0.124929
O O2 0.905797 0.214290 0.134473
O O3 0.027730 0.918120 0.197965
O O4 0.000000 0.000000 0.000000
O O5 0.821466 0.315598 0.840043
O O6 0.750000 0.000000 0.904277
O O7 0.736248 0.302759 0.028985
O O8 0.750000 0.500000 0.383274
O O9 0.761651 0.750000 0.250000
#
# Coordination Sequence:
#
# PCOD9409848 Si02
#       4
#     8   8   8   4
#     4  11  20  39  65  90 118 169 213 250 316 381
#     4   9  19  38  58  85 120 160 205 248 307 374
#     4  11  23  40  61  90 124 165 204 257 319 376
#     4  10  20  36  66  88 116 166 212 256 308 376
#
# _framework density 24.301528999999999
#
# number of rings (size 3 to 8) (size 9 to 14) (size 15 to 20)
#    0.000    1.714    8.571    0.000    4.000    0.000 
#    0.000    5.714    0.000    0.000    0.000    0.000 
#    0.000    0.000    0.000    0.000    0.000    0.000 
#
# Total GULP energy -156316.638958 kJ/mol
# GULP energy per Si atom -5582.737106 kJ/mol
# Density = 2.424622 g / cm^3
# Si number density = 24.301529 Si / 1000 Ang^3
#
#
#
# Elastic Constant Matrix: (Units=GPa)
#
#
# Indices 1 2 3 4 5 6 
#
# 1 99.1359 -1.5277 -9.0608 0.0000 0.0000 0.0000
# 2 -1.5277 77.5324 10.6096 0.0000 0.0000 0.0000
# 3 -9.0608 10.6096 181.1594 0.0000 0.0000 0.0000
# 4 0.0000 0.0000 0.0000 31.0042 0.0000 0.0000
# 5 0.0000 0.0000 0.0000 0.0000 50.0536 0.0000
# 6 0.0000 0.0000 0.0000 0.0000 0.0000 13.5618
#
#
#
# Elastic Compliance Matrix: (Units=1/GPa)
#
#
# Indices 1 2 3 4 5 6 
#
# 1 0.010135 0.000131 0.000499 0.000000 0.000000 0.000000
# 2 0.000131 0.013004 -0.000755 0.000000 0.000000 0.000000
# 3 0.000499 -0.000755 0.005589 0.000000 0.000000 0.000000
# 4 0.000000 0.000000 0.000000 0.032254 0.000000 0.000000
# 5 0.000000 0.000000 0.000000 0.000000 0.019979 0.000000
# 6 0.000000 0.000000 0.000000 0.000000 0.000000 0.073737
#
#
# Mechanical properties :
#
#
# Convention : Reuss Voigt Hill
#
# Bulk Modulus (GPa) = 35.11366 39.76331 37.43848
# Shear Modulus (GPa) = 30.40650 42.77768 36.59209
#
# Velocity S-wave (km/s) = 3.54109 4.20013 3.88461
# Velocity P-wave (km/s) = 5.58566 6.31818 5.96318
#
# Compressibility (1/GPa) = 0.02847895
#
# Stress axis : x y z
#
# Youngs Moduli (GPa) = 98.66975 76.90093 178.91698
#
# Poissons Ratio (x) = -0.01010 -0.08932
# Poissons Ratio (y) = -0.01296 0.13508
# Poissons Ratio (z) = -0.04926 0.05806
#
# Static dielectric constant tensor:
#      x y z
#    x 1.476870 0.000000 0.000000 
#    y 0.000000 3.029710 0.000000 
#    z 0.000000 0.000000 2.130690 
# 
# From -- ./inp_files/18797.got.cif
#   From: 2010.05.17/outbox.cif.g08.bks.cpg/sg52_10_cif.got.tgz:18797.got - 2010.06.03 12:15:38.
