data_PCOD9409685
_publ_section_title
;
Structure prediction by ZEFSAII (Michael W. Deem and Ramdas Pophale) SiO2 
 PCOD9409685
Probable space group: P N N A
;
_chemical_formula_sum "Si O2"
_cell_formula_units_Z 44
_cell_length_a 10.162200
_cell_length_b 23.018549
_cell_length_c 9.348915
_cell_angle_alpha 90.000000
_cell_angle_beta 90.000000
_cell_angle_gamma 90.000000
_cell_volume 2186.889770
_symmetry_space_group_name_H-M "P N N A"
_symmetry_group_IT_number 52
_symmetry_cell_setting 'orthorhombic'
loop_
_space_group_symop_operation_xyz
x,y,z
1/2-x,-y,z
x,1/2-y,1/2-z
1/2-x,1/2+y,1/2-z
-x,-y,-z
1/2+x,y,-z
-x,1/2+y,1/2+z
1/2+x,1/2-y,1/2+z
loop_
_atom_site_type_symbol
_atom_site_label
_atom_site_fract_x
_atom_site_fract_y
_atom_site_fract_z
Si Si1 0.573037 0.198902 0.445157
Si Si2 0.370067 0.831675 0.877553
Si Si3 0.645720 0.622530 0.553236
Si Si4 0.250000 0.500000 0.354346
Si Si5 0.123369 0.520802 0.081987
Si Si6 0.303785 0.345792 0.130859
O O1 0.612454 0.170011 0.293131
O O2 0.606207 0.266689 0.434844
O O3 0.414869 0.192776 0.447486
O O4 0.661102 0.168462 0.566688
O O5 0.487715 0.871309 0.943855
O O6 0.224894 0.850842 0.921880
O O7 0.699961 0.556621 0.565473
O O8 0.691175 0.657898 0.696792
O O9 0.134930 0.488598 0.236211
O O10 0.250000 0.500000 0.995233
O O11 0.143771 0.588745 0.104865
O O12 0.000000 0.500000 0.000000
#
# Coordination Sequence:
#
# PCOD9409685 Si02
#       6
#     8   8   8   4   8   8
#     4  10  21  37  56  87 111 150 193 244 282 352
#     4  10  22  38  58  79 119 152 194 233 293 343
#     4  10  21  40  59  83 115 160 187 241 289 350
#     4   8  20  36  60  82 118 150 198 234 288 356
#     4   9  17  32  55  84 114 148 184 241 285 342
#     4  10  20  35  61  82 117 146 193 238 298 334
#
# _framework density 20.119897000000002
#
# number of rings (size 3 to 8) (size 9 to 14) (size 15 to 20)
#    0.545    1.818    0.000    2.182    0.000    4.364 
#    0.000    0.000    2.000    0.000    0.000    0.000 
#    0.000    0.000    0.000    0.000    0.000    0.000 
#
# Total GULP energy -245090.570474 kJ/mol
# GULP energy per Si atom -5570.240238 kJ/mol
# Density = 2.007410 g / cm^3
# Si number density = 20.119897 Si / 1000 Ang^3
#
#
#
# Elastic Constant Matrix: (Units=GPa)
#
#
# Indices 1 2 3 4 5 6 
#
# 1 57.5498 -7.1595 7.0042 0.0000 0.0000 0.0000
# 2 -7.1595 25.4595 -3.2049 0.0000 0.0000 0.0000
# 3 7.0042 -3.2049 19.5638 0.0000 0.0000 0.0000
# 4 0.0000 0.0000 0.0000 13.6621 0.0000 0.0000
# 5 0.0000 0.0000 0.0000 0.0000 30.6739 0.0000
# 6 0.0000 0.0000 0.0000 0.0000 0.0000 21.8145
#
#
#
# Elastic Compliance Matrix: (Units=1/GPa)
#
#
# Indices 1 2 3 4 5 6 
#
# 1 0.018659 0.004499 -0.005943 0.000000 0.000000 0.000000
# 2 0.004499 0.041190 0.005137 0.000000 0.000000 0.000000
# 3 -0.005943 0.005137 0.054084 0.000000 0.000000 0.000000
# 4 0.000000 0.000000 0.000000 0.073195 0.000000 0.000000
# 5 0.000000 0.000000 0.000000 0.000000 0.032601 0.000000
# 6 0.000000 0.000000 0.000000 0.000000 0.000000 0.045841
#
#
# Mechanical properties :
#
#
# Convention : Reuss Voigt Hill
#
# Bulk Modulus (GPa) = 8.24275 10.65029 9.44652
# Shear Modulus (GPa) = 16.74343 20.29233 18.51788
#
# Velocity S-wave (km/s) = 2.88789 3.17924 3.03706
# Velocity P-wave (km/s) = 3.90200 4.33379 4.12355
#
# Compressibility (1/GPa) = 0.12131868
#
# Stress axis : x y z
#
# Youngs Moduli (GPa) = 53.59258 24.27781 18.48971
#
# Poissons Ratio (x) = -0.10923 0.10989
# Poissons Ratio (y) = -0.24111 -0.09498
# Poissons Ratio (z) = 0.31852 -0.12471
#
# Static dielectric constant tensor:
#      x y z
#    x 1.732710 0.000000 0.000000 
#    y 0.000000 1.769190 0.000000 
#    z 0.000000 0.000000 1.723430 
# 
# From -- ./inp_files/16886.got.cif
#   From: 2010.05.17/outbox.cif.g08.bks.cpg/sg52_9_cif.got.tgz:16886.got - 2010.06.03 12:15:38.
