data_PCOD9409821
_publ_section_title
;
Structure prediction by ZEFSAII (Michael W. Deem and Ramdas Pophale) SiO2 
 PCOD9409821
Probable space group: P N N A
;
_chemical_formula_sum "Si O2"
_cell_formula_units_Z 48
_cell_length_a 7.929215
_cell_length_b 17.596597
_cell_length_c 16.556804
_cell_angle_alpha 90.000000
_cell_angle_beta 90.000000
_cell_angle_gamma 90.000000
_cell_volume 2310.124518
_symmetry_space_group_name_H-M "P N N A"
_symmetry_group_IT_number 52
_symmetry_cell_setting 'orthorhombic'
loop_
_space_group_symop_operation_xyz
x,y,z
1/2-x,-y,z
x,1/2-y,1/2-z
1/2-x,1/2+y,1/2-z
-x,-y,-z
1/2+x,y,-z
-x,1/2+y,1/2+z
1/2+x,1/2-y,1/2+z
loop_
_atom_site_type_symbol
_atom_site_label
_atom_site_fract_x
_atom_site_fract_y
_atom_site_fract_z
Si Si1 0.129475 0.603994 0.150712
Si Si2 0.930139 0.204853 0.408226
Si Si3 0.750000 0.000000 0.216524
Si Si4 0.809143 0.258979 0.570508
Si Si5 0.983284 0.449981 0.137493
Si Si6 0.488752 0.873237 0.826519
Si Si7 0.245671 0.750000 0.750000
O O1 0.097979 0.685574 0.110412
O O2 0.009554 0.538188 0.114203
O O3 0.324947 0.580157 0.146184
O O4 0.093958 0.608355 0.245939
O O5 0.115026 0.242253 0.409857
O O6 0.913210 0.113742 0.423585
O O7 0.826975 0.250526 0.474816
O O8 0.866502 0.211688 0.317754
O O9 0.627205 0.954923 0.279956
O O10 0.869649 0.946647 0.162171
O O11 0.891422 0.335473 0.606159
O O12 0.361354 0.808490 0.797441
#
# Coordination Sequence:
#
# PCOD9409821 Si02
#       7
#     8   8   4   8   8   8   4
#     4   9  19  35  58  87 126 162 202 248 309 380
#     4  11  25  39  60  89 125 162 209 260 316 373
#     4  10  20  36  62  94 124 164 216 260 304 380
#     4  11  23  38  59  90 126 163 204 262 314 372
#     4   9  19  35  56  90 123 163 205 247 310 374
#     4  11  21  37  64  90 123 164 208 261 315 373
#     4  12  22  38  64  88 118 158 212 258 304 382
#
# _framework density 20.778100999999999
#
# number of rings (size 3 to 8) (size 9 to 14) (size 15 to 20)
#    0.000    1.667    3.333    1.000    4.667    0.667 
#    0.000    1.667    0.000    4.000    0.000    0.000 
#    0.000    0.000    0.000    0.000    0.000    0.000 
#
# Total GULP energy -267600.134290 kJ/mol
# GULP energy per Si atom -5575.002798 kJ/mol
# Density = 2.073081 g / cm^3
# Si number density = 20.778101 Si / 1000 Ang^3
#
#
#
# Elastic Constant Matrix: (Units=GPa)
#
#
# Indices 1 2 3 4 5 6 
#
# 1 52.0871 11.7179 3.8190 0.0000 0.0000 0.0000
# 2 11.7179 65.3457 10.6972 0.0000 0.0000 0.0000
# 3 3.8190 10.6972 53.3463 0.0000 0.0000 0.0000
# 4 0.0000 0.0000 0.0000 24.3320 0.0000 0.0000
# 5 0.0000 0.0000 0.0000 0.0000 28.3333 0.0000
# 6 0.0000 0.0000 0.0000 0.0000 0.0000 5.3931
#
#
#
# Elastic Compliance Matrix: (Units=1/GPa)
#
#
# Indices 1 2 3 4 5 6 
#
# 1 0.020034 -0.003472 -0.000738 0.000000 0.000000 0.000000
# 2 -0.003472 0.016424 -0.003045 0.000000 0.000000 0.000000
# 3 -0.000738 -0.003045 0.019409 0.000000 0.000000 0.000000
# 4 0.000000 0.000000 0.000000 0.041098 0.000000 0.000000
# 5 0.000000 0.000000 0.000000 0.000000 0.035294 0.000000
# 6 0.000000 0.000000 0.000000 0.000000 0.000000 0.185420
#
#
# Mechanical properties :
#
#
# Convention : Reuss Voigt Hill
#
# Bulk Modulus (GPa) = 24.17937 24.80526 24.49232
# Shear Modulus (GPa) = 14.45192 21.24800 17.84996
#
# Velocity S-wave (km/s) = 2.64016 3.20130 2.93418
# Velocity P-wave (km/s) = 4.57779 5.06247 4.82622
#
# Compressibility (1/GPa) = 0.04135757
#
# Stress axis : x y z
#
# Youngs Moduli (GPa) = 49.91581 60.88563 51.52283
#
# Poissons Ratio (x) = 0.21137 0.03803
# Poissons Ratio (y) = 0.17329 0.15688
# Poissons Ratio (z) = 0.03684 0.18539
#
# Static dielectric constant tensor:
#      x y z
#    x 1.781000 0.000000 0.000000 
#    y 0.000000 1.817180 0.000000 
#    z 0.000000 0.000000 1.740610 
# 
# From -- ./inp_files/24786.got.cif
#   From: 2010.05.17/outbox.cif.g08.bks.cpg/sg52_13_cif.got.tgz:24786.got - 2010.06.03 12:15:38.
