data_PCOD9409846
_publ_section_title
;
Structure prediction by ZEFSAII (Michael W. Deem and Ramdas Pophale) SiO2 
 PCOD9409846
Probable space group: P N N A
;
_chemical_formula_sum "Si O2"
_cell_formula_units_Z 36
_cell_length_a 8.274712
_cell_length_b 7.191871
_cell_length_c 23.936655
_cell_angle_alpha 90.000000
_cell_angle_beta 90.000000
_cell_angle_gamma 90.000000
_cell_volume 1424.486168
_symmetry_space_group_name_H-M "P N N A"
_symmetry_group_IT_number 52
_symmetry_cell_setting 'orthorhombic'
loop_
_space_group_symop_operation_xyz
x,y,z
1/2-x,-y,z
x,1/2-y,1/2-z
1/2-x,1/2+y,1/2-z
-x,-y,-z
1/2+x,y,-z
-x,1/2+y,1/2+z
1/2+x,1/2-y,1/2+z
loop_
_atom_site_type_symbol
_atom_site_label
_atom_site_fract_x
_atom_site_fract_y
_atom_site_fract_z
Si Si1 0.607337 0.728891 0.185644
Si Si2 0.998418 0.679165 0.187303
Si Si3 0.841365 0.801989 0.476691
Si Si4 0.750000 0.500000 0.386687
Si Si5 0.818519 0.202675 0.580848
O O1 0.564960 0.750000 0.250000
O O2 0.803794 0.709367 0.183610
O O3 0.508775 0.543114 0.171421
O O4 0.600911 0.919735 0.150870
O O5 0.042743 0.750000 0.250000
O O6 0.114853 0.768250 0.140457
O O7 0.776830 0.668853 0.428750
O O8 0.814908 0.714124 0.538419
O O9 0.027304 0.817128 0.460041
O O10 0.750000 0.000000 0.471194
O O11 0.750000 0.000000 0.591518
#
# Coordination Sequence:
#
# PCOD9409846 Si02
#       5
#     8   8   8   4   8
#     4  10  20  36  66 105 136 175 233 302 361 439
#     4  10  20  40  70  99 139 186 237 298 369 436
#     4  11  24  43  68  99 142 191 242 297 365 434
#     4  12  22  38  68 106 140 180 240 302 362 428
#     4  11  23  43  70  98 140 195 240 294 363 436
#
# _framework density 25.272271
#
# number of rings (size 3 to 8) (size 9 to 14) (size 15 to 20)
#    0.000    1.333    2.222    6.667    0.000    0.889 
#    0.000    1.111    2.444    0.000    0.000    0.000 
#    0.000    0.000    0.000    0.000    0.000    0.000 
#
# Total GULP energy -200588.646881 kJ/mol
# GULP energy per Si atom -5571.906858 kJ/mol
# Density = 2.521475 g / cm^3
# Si number density = 25.272271 Si / 1000 Ang^3
#
#
#
# Elastic Constant Matrix: (Units=GPa)
#
#
# Indices 1 2 3 4 5 6 
#
# 1 64.0111 7.9256 63.6632 0.0000 0.0000 0.0000
# 2 7.9256 115.9208 48.8130 0.0000 0.0000 0.0000
# 3 63.6632 48.8130 218.2063 0.0000 0.0000 0.0000
# 4 0.0000 0.0000 0.0000 72.5870 0.0000 0.0000
# 5 0.0000 0.0000 0.0000 0.0000 46.1903 0.0000
# 6 0.0000 0.0000 0.0000 0.0000 0.0000 13.0472
#
#
#
# Elastic Compliance Matrix: (Units=1/GPa)
#
#
# Indices 1 2 3 4 5 6 
#
# 1 0.022194 0.001335 -0.006774 0.000000 0.000000 0.000000
# 2 0.001335 0.009604 -0.002538 0.000000 0.000000 0.000000
# 3 -0.006774 -0.002538 0.007127 0.000000 0.000000 0.000000
# 4 0.000000 0.000000 0.000000 0.013777 0.000000 0.000000
# 5 0.000000 0.000000 0.000000 0.000000 0.021650 0.000000
# 6 0.000000 0.000000 0.000000 0.000000 0.000000 0.076645
#
#
# Mechanical properties :
#
#
# Convention : Reuss Voigt Hill
#
# Bulk Modulus (GPa) = 43.53259 70.99353 57.26306
# Shear Modulus (GPa) = 28.63581 44.88068 36.75825
#
# Velocity S-wave (km/s) = 3.36980 4.21870 3.81791
# Velocity P-wave (km/s) = 5.69241 7.20294 6.49176
#
# Compressibility (1/GPa) = 0.02297129
#
# Stress axis : x y z
#
# Youngs Moduli (GPa) = 45.05705 104.12339 140.31366
#
# Poissons Ratio (x) = -0.13900 0.95047
# Poissons Ratio (y) = -0.06015 0.35610
# Poissons Ratio (z) = 0.30521 0.26426
#
# Static dielectric constant tensor:
#      x y z
#    x 2.039420 0.000000 0.000000 
#    y 0.000000 2.167250 0.000000 
#    z 0.000000 0.000000 2.051180 
# 
# From -- ./inp_files/42101.got.cif
#   From: 2010.05.17/outbox.cif.g08.bks.cpg/sg52_22_cif.got.tgz:42101.got - 2010.06.03 12:15:38.
