data_PCOD9409064
_publ_section_title
;
Structure prediction by ZEFSAII (Michael W. Deem and Ramdas Pophale) SiO2 
 PCOD9409064
Probable space group: P N N A
;
_chemical_formula_sum "Si O2"
_cell_formula_units_Z 48
_cell_length_a 13.887582
_cell_length_b 9.902635
_cell_length_c 14.564594
_cell_angle_alpha 90.000000
_cell_angle_beta 90.000000
_cell_angle_gamma 90.000000
_cell_volume 2002.976209
_symmetry_space_group_name_H-M "P N N A"
_symmetry_group_IT_number 52
_symmetry_cell_setting 'orthorhombic'
loop_
_space_group_symop_operation_xyz
x,y,z
1/2-x,-y,z
x,1/2-y,1/2-z
1/2-x,1/2+y,1/2-z
-x,-y,-z
1/2+x,y,-z
-x,1/2+y,1/2+z
1/2+x,1/2-y,1/2+z
loop_
_atom_site_type_symbol
_atom_site_label
_atom_site_fract_x
_atom_site_fract_y
_atom_site_fract_z
Si Si1 0.133627 0.514716 0.518172
Si Si2 0.133908 0.500347 0.895939
Si Si3 0.363936 0.513088 0.201358
Si Si4 0.364804 0.780495 0.461463
Si Si5 0.544073 0.595432 0.286706
Si Si6 0.367508 0.207629 0.447140
O O1 0.250000 0.500000 0.524141
O O2 0.101467 0.370260 0.479522
O O3 0.095366 0.558962 0.618292
O O4 0.104135 0.637854 0.452233
O O5 0.250000 0.500000 0.891462
O O6 0.092501 0.510510 0.795415
O O7 0.103780 0.367422 0.950833
O O8 0.101841 0.623588 0.962404
O O9 0.250000 0.500000 0.223263
O O10 0.387681 0.635431 0.130106
O O11 0.432688 0.549488 0.284543
O O12 0.388623 0.377981 0.143872
O O13 0.248661 0.787096 0.456632
O O14 0.555276 0.750000 0.250000
#
# Coordination Sequence:
#
# PCOD9409064 Si02
#       6
#     8   8   8   8   8   8
#     4  10  19  35  61  98 134 153 188 261 331 378
#     4   9  17  33  55  85 125 159 194 238 307 383
#     4   9  20  41  67  85 110 165 225 261 294 363
#     4   8  17  33  61  89 117 158 208 255 305 354
#     4  12  23  35  59  95 126 165 203 249 322 375
#     4   8  15  33  60  90 116 157 207 252 306 362
#
# _framework density 23.964338999999999
#
# number of rings (size 3 to 8) (size 9 to 14) (size 15 to 20)
#    0.000    2.667    1.667    2.500    0.000    3.333 
#    0.000    0.833    7.333    3.000    0.000    0.000 
#    0.000    0.000    0.000    0.000    0.000    0.000 
#
# Total GULP energy -268510.917857 kJ/mol
# GULP energy per Si atom -5593.977455 kJ/mol
# Density = 2.390980 g / cm^3
# Si number density = 23.964339 Si / 1000 Ang^3
#
#
#
# Elastic Constant Matrix: (Units=GPa)
#
#
# Indices 1 2 3 4 5 6 
#
# 1 112.9529 23.8872 23.6738 0.0000 0.0000 0.0000
# 2 23.8872 214.5642 69.9566 0.0000 0.0000 0.0000
# 3 23.6738 69.9566 94.3933 0.0000 0.0000 0.0000
# 4 0.0000 0.0000 0.0000 8.3173 0.0000 0.0000
# 5 0.0000 0.0000 0.0000 0.0000 10.0758 0.0000
# 6 0.0000 0.0000 0.0000 0.0000 0.0000 14.0637
#
#
#
# Elastic Compliance Matrix: (Units=1/GPa)
#
#
# Indices 1 2 3 4 5 6 
#
# 1 0.009366 -0.000365 -0.002078 0.000000 0.000000 0.000000
# 2 -0.000365 0.006160 -0.004474 0.000000 0.000000 0.000000
# 3 -0.002078 -0.004474 0.014431 0.000000 0.000000 0.000000
# 4 0.000000 0.000000 0.000000 0.120232 0.000000 0.000000
# 5 0.000000 0.000000 0.000000 0.000000 0.099248 0.000000
# 6 0.000000 0.000000 0.000000 0.000000 0.000000 0.071105
#
#
# Mechanical properties :
#
#
# Convention : Reuss Voigt Hill
#
# Bulk Modulus (GPa) = 62.02558 72.99397 67.50977
# Shear Modulus (GPa) = 14.71673 26.78420 20.75046
#
# Velocity S-wave (km/s) = 2.48081 3.34678 2.94579
# Velocity P-wave (km/s) = 5.84333 6.74241 6.30891
#
# Compressibility (1/GPa) = 0.01612238
#
# Stress axis : x y z
#
# Youngs Moduli (GPa) = 106.76830 162.34218 69.29656
#
# Poissons Ratio (x) = 0.05926 0.14403
# Poissons Ratio (y) = 0.03898 0.31001
# Poissons Ratio (z) = 0.22191 0.72626
#
# Static dielectric constant tensor:
#      x y z
#    x 1.987960 0.000000 0.000000 
#    y 0.000000 1.920500 0.000000 
#    z 0.000000 0.000000 1.846360 
# 
# From -- ./inp_files/33073.got.cif
#   From: 2010.05.17/outbox.cif.g08.bks.cpg/sg52_17_cif.got.tgz:33073.got - 2010.06.03 12:15:38.
