data_PCOD9409271
_publ_section_title
;
Structure prediction by ZEFSAII (Michael W. Deem and Ramdas Pophale) SiO2 
 PCOD9409271
Probable space group: P N N A
;
_chemical_formula_sum "Si O2"
_cell_formula_units_Z 48
_cell_length_a 9.478266
_cell_length_b 9.103979
_cell_length_c 28.725832
_cell_angle_alpha 90.000000
_cell_angle_beta 90.000000
_cell_angle_gamma 90.000000
_cell_volume 2478.750165
_symmetry_space_group_name_H-M "P N N A"
_symmetry_group_IT_number 52
_symmetry_cell_setting 'orthorhombic'
loop_
_space_group_symop_operation_xyz
x,y,z
1/2-x,-y,z
x,1/2-y,1/2-z
1/2-x,1/2+y,1/2-z
-x,-y,-z
1/2+x,y,-z
-x,1/2+y,1/2+z
1/2+x,1/2-y,1/2+z
loop_
_atom_site_type_symbol
_atom_site_label
_atom_site_fract_x
_atom_site_fract_y
_atom_site_fract_z
Si Si1 0.898167 0.950547 0.933784
Si Si2 0.895944 0.919707 0.764424
Si Si3 0.363596 0.865651 0.970142
Si Si4 0.707759 0.337799 0.117314
Si Si5 0.613456 0.110658 0.285931
Si Si6 0.107808 0.600583 0.650250
O O1 0.010599 0.917906 0.894620
O O2 0.750000 0.000000 0.913388
O O3 0.866695 0.831610 0.974533
O O4 0.976461 0.083789 0.960135
O O5 0.873540 0.750000 0.750000
O O6 0.010351 0.924218 0.805814
O O7 0.750000 0.000000 0.776760
O O8 0.975141 0.016842 0.725808
O O9 0.326092 0.753092 0.929137
O O10 0.250000 0.000000 0.966061
O O11 0.750000 0.500000 0.103564
O O12 0.597847 0.337837 0.160193
O O13 0.837230 0.264753 0.145092
O O14 0.628588 0.250000 0.250000
O O15 0.750000 0.000000 0.281714
O O16 0.250000 0.500000 0.650388
#
# Coordination Sequence:
#
# PCOD9409271 Si02
#       6
#     8   8   8   8   8   8
#     4  10  20  35  64  93 118 152 208 263 302 347
#     4  12  26  44  63  93 131 165 202 259 320 378
#     4  10  19  38  63  89 120 159 209 256 300 362
#     4  11  21  36  62  90 122 159 206 256 305 364
#     4  11  22  38  63  92 122 165 214 259 305 371
#     4  12  22  41  69  91 116 160 219 253 298 370
#
# _framework density 19.364598000000001
#
# number of rings (size 3 to 8) (size 9 to 14) (size 15 to 20)
#    0.000    1.000    3.333    6.000    0.000    0.667 
#    3.000    0.833    0.000    0.000    0.000    0.000 
#    0.000    0.000    0.000    0.000    0.000    0.000 
#
# Total GULP energy -267479.512373 kJ/mol
# GULP energy per Si atom -5572.489841 kJ/mol
# Density = 1.932052 g / cm^3
# Si number density = 19.364598 Si / 1000 Ang^3
#
#
#
# Elastic Constant Matrix: (Units=GPa)
#
#
# Indices 1 2 3 4 5 6 
#
# 1 132.8671 44.9090 42.2536 0.0000 0.0000 0.0000
# 2 44.9090 110.4293 50.6141 0.0000 0.0000 0.0000
# 3 42.2536 50.6141 144.3414 0.0000 0.0000 0.0000
# 4 0.0000 0.0000 0.0000 16.3760 0.0000 0.0000
# 5 0.0000 0.0000 0.0000 0.0000 30.1346 0.0000
# 6 0.0000 0.0000 0.0000 0.0000 0.0000 5.9114
#
#
#
# Elastic Compliance Matrix: (Units=1/GPa)
#
#
# Indices 1 2 3 4 5 6 
#
# 1 0.009031 -0.002932 -0.001615 0.000000 0.000000 0.000000
# 2 -0.002932 0.011742 -0.003259 0.000000 0.000000 0.000000
# 3 -0.001615 -0.003259 0.008544 0.000000 0.000000 0.000000
# 4 0.000000 0.000000 0.000000 0.061065 0.000000 0.000000
# 5 0.000000 0.000000 0.000000 0.000000 0.033184 0.000000
# 6 0.000000 0.000000 0.000000 0.000000 0.000000 0.169164
#
#
# Mechanical properties :
#
#
# Convention : Reuss Voigt Hill
#
# Bulk Modulus (GPa) = 72.97589 73.68789 73.33189
# Shear Modulus (GPa) = 15.97896 27.14181 21.56039
#
# Velocity S-wave (km/s) = 2.87568 3.74788 3.34037
# Velocity P-wave (km/s) = 6.98520 7.54084 7.26834
#
# Compressibility (1/GPa) = 0.01370316
#
# Stress axis : x y z
#
# Youngs Moduli (GPa) = 110.72736 85.16606 117.04548
#
# Poissons Ratio (x) = 0.24973 0.18909
# Poissons Ratio (y) = 0.32469 0.38144
# Poissons Ratio (z) = 0.17888 0.27755
#
# Static dielectric constant tensor:
#      x y z
#    x 1.718840 0.000000 0.000000 
#    y 0.000000 1.738630 0.000000 
#    z 0.000000 0.000000 1.818820 
# 
# From -- ./inp_files/44411.got.cif
#   From: 2010.05.17/outbox.cif.g08.bks.cpg/sg52_23_cif.got.tgz:44411.got - 2010.06.03 12:15:38.
