data_PCOD9409694
_publ_section_title
;
Structure prediction by ZEFSAII (Michael W. Deem and Ramdas Pophale) SiO2 
 PCOD9409694
Probable space group: P N N A
;
_chemical_formula_sum "Si O2"
_cell_formula_units_Z 56
_cell_length_a 20.132114
_cell_length_b 5.518891
_cell_length_c 23.365687
_cell_angle_alpha 90.000000
_cell_angle_beta 90.000000
_cell_angle_gamma 90.000000
_cell_volume 2596.090048
_symmetry_space_group_name_H-M "P N N A"
_symmetry_group_IT_number 52
_symmetry_cell_setting 'orthorhombic'
loop_
_space_group_symop_operation_xyz
x,y,z
1/2-x,-y,z
x,1/2-y,1/2-z
1/2-x,1/2+y,1/2-z
-x,-y,-z
1/2+x,y,-z
-x,1/2+y,1/2+z
1/2+x,1/2-y,1/2+z
loop_
_atom_site_type_symbol
_atom_site_label
_atom_site_fract_x
_atom_site_fract_y
_atom_site_fract_z
Si Si1 0.334998 0.391867 0.013555
Si Si2 0.316871 0.923569 0.819316
Si Si3 0.992479 0.506733 0.141050
Si Si4 0.933320 0.750000 0.250000
Si Si5 0.037005 0.850732 0.046702
Si Si6 0.750000 0.500000 0.588077
Si Si7 0.155409 0.593228 0.882692
Si Si8 0.623874 0.236414 0.889965
O O1 0.409100 0.292164 0.011157
O O2 0.346893 0.614770 0.056146
O O3 0.287350 0.196777 0.046082
O O4 0.321775 0.452595 0.947903
O O5 0.381962 0.937642 0.779443
O O6 0.323536 0.651660 0.847068
O O7 0.250000 0.000000 0.785236
O O8 0.316398 0.144849 0.864394
O O9 0.992926 0.686470 0.086891
O O10 0.067343 0.395109 0.141889
O O11 0.978027 0.636312 0.200777
O O12 0.924023 0.364744 0.128084
O O13 0.078524 0.018984 0.088647
O O14 0.000000 0.000000 0.000000
O O15 0.693355 0.382614 0.629202
#
# Coordination Sequence:
#
# PCOD9409694 Si02
#       8
#     8   8   8   4   8   4   8   8
#     4  10  22  36  59  94 136 180 217 267 327 411
#     4  11  27  46  66  96 134 186 238 287 336 392
#     4  10  23  41  62  95 130 172 227 287 342 399
#     4  10  26  46  70  92 130 174 242 294 346 398
#     4  10  20  35  62  91 133 170 211 268 337 408
#     4  10  22  36  60  92 138 178 214 270 334 434
#     4  11  25  41  68 100 139 185 231 282 331 400
#     4  10  21  37  59  92 133 171 219 267 344 415
#
# _framework density 21.570902
#
# number of rings (size 3 to 8) (size 9 to 14) (size 15 to 20)
#    0.000    1.714    0.000    2.571   13.000    8.000 
#    0.000    0.000    0.000    0.000    0.000    0.000 
#  154.286    0.000    0.000    0.000    0.000    0.000 
#
# Total GULP energy -311871.120322 kJ/mol
# GULP energy per Si atom -5569.127149 kJ/mol
# Density = 2.152181 g / cm^3
# Si number density = 21.570902 Si / 1000 Ang^3
#
#
#
# Elastic Constant Matrix: (Units=GPa)
#
#
# Indices 1 2 3 4 5 6 
#
# 1 496.6875 -8.6940 -142.9490 0.0000 0.0000 0.0000
# 2 -8.6940 79.5050 36.5706 0.0000 0.0000 0.0000
# 3 -142.9490 36.5706 177.1959 0.0000 0.0000 0.0000
# 4 0.0000 0.0000 0.0000 19.1856 0.0000 0.0000
# 5 0.0000 0.0000 0.0000 0.0000 8.3002 0.0000
# 6 0.0000 0.0000 0.0000 0.0000 0.0000 64.6989
#
#
#
# Elastic Compliance Matrix: (Units=1/GPa)
#
#
# Indices 1 2 3 4 5 6 
#
# 1 0.002664 -0.000770 0.002308 0.000000 0.000000 0.000000
# 2 -0.000770 0.014120 -0.003536 0.000000 0.000000 0.000000
# 3 0.002308 -0.003536 0.008235 0.000000 0.000000 0.000000
# 4 0.000000 0.000000 0.000000 0.052122 0.000000 0.000000
# 5 0.000000 0.000000 0.000000 0.000000 0.120479 0.000000
# 6 0.000000 0.000000 0.000000 0.000000 0.000000 0.015456
#
#
# Mechanical properties :
#
#
# Convention : Reuss Voigt Hill
#
# Bulk Modulus (GPa) = 47.56510 58.13816 52.85163
# Shear Modulus (GPa) = 22.31341 76.33433 49.32387
#
# Velocity S-wave (km/s) = 3.21973 5.95520 4.78702
# Velocity P-wave (km/s) = 5.99339 8.61955 7.42352
#
# Compressibility (1/GPa) = 0.02102382
#
# Stress axis : x y z
#
# Youngs Moduli (GPa) = 375.34910 70.82198 121.42800
#
# Poissons Ratio (x) = 0.05456 -0.28029
# Poissons Ratio (y) = 0.28918 0.42933
# Poissons Ratio (z) = -0.86641 0.25040
#
# Static dielectric constant tensor:
#      x y z
#    x 1.859460 0.000000 0.000000 
#    y 0.000000 2.010080 0.000000 
#    z 0.000000 0.000000 1.702650 
# 
# From -- ./inp_files/41024.got.cif
#   From: 2010.05.17/outbox.cif.g08.bks.cpg/sg52_21_cif.got.tgz:41024.got - 2010.06.03 12:15:38.
