data_PCOD9409678
_publ_section_title
;
Structure prediction by ZEFSAII (Michael W. Deem and Ramdas Pophale) SiO2 
 PCOD9409678
Probable space group: P N N A
;
_chemical_formula_sum "Si O2"
_cell_formula_units_Z 32
_cell_length_a 8.872274
_cell_length_b 9.988462
_cell_length_c 19.516393
_cell_angle_alpha 90.000000
_cell_angle_beta 90.000000
_cell_angle_gamma 90.000000
_cell_volume 1729.550002
_symmetry_space_group_name_H-M "P N N A"
_symmetry_group_IT_number 52
_symmetry_cell_setting 'orthorhombic'
loop_
_space_group_symop_operation_xyz
x,y,z
1/2-x,-y,z
x,1/2-y,1/2-z
1/2-x,1/2+y,1/2-z
-x,-y,-z
1/2+x,y,-z
-x,1/2+y,1/2+z
1/2+x,1/2-y,1/2+z
loop_
_atom_site_type_symbol
_atom_site_label
_atom_site_fract_x
_atom_site_fract_y
_atom_site_fract_z
Si Si1 0.250000 0.500000 0.827417
Si Si2 0.750000 0.500000 0.634998
Si Si3 0.306904 0.231419 0.904971
Si Si4 0.524076 0.602380 0.280875
Si Si5 0.585333 0.361884 0.519192
O O1 0.251693 0.369878 0.874037
O O2 0.393447 0.480301 0.778125
O O3 0.606900 0.485973 0.684834
O O4 0.707661 0.383478 0.580216
O O5 0.357942 0.139440 0.841161
O O6 0.457531 0.237019 0.951966
O O7 0.174636 0.176164 0.951764
O O8 0.476229 0.750000 0.250000
O O9 0.500000 0.500000 0.500000
#
# Coordination Sequence:
#
# PCOD9409678 Si02
#       5
#     4   4   8   8   8
#     4  10  22  41  56  81 120 162 184 234 292 356
#     4  10  20  35  60  81 114 142 194 240 280 330
#     4  10  22  37  60  86 115 149 197 235 292 341
#     4   9  21  39  56  83 120 151 192 235 282 352
#     4  11  20  36  60  88 111 146 192 251 281 337
#
# _framework density 18.501922
#
# number of rings (size 3 to 8) (size 9 to 14) (size 15 to 20)
#    0.000    2.000    2.500    0.000    7.000    1.000 
#    4.500    0.000    0.000    0.000    0.000    0.000 
#    0.000    0.000    0.000    0.000    0.000    0.000 
#
# Total GULP energy -178251.141005 kJ/mol
# GULP energy per Si atom -5570.348156 kJ/mol
# Density = 1.845981 g / cm^3
# Si number density = 18.501922 Si / 1000 Ang^3
#
#
#
# Elastic Constant Matrix: (Units=GPa)
#
#
# Indices 1 2 3 4 5 6 
#
# 1 106.0296 86.7572 81.0764 0.0000 0.0000 0.0000
# 2 86.7572 86.2110 65.8763 0.0000 0.0000 0.0000
# 3 81.0764 65.8763 134.7232 0.0000 0.0000 0.0000
# 4 0.0000 0.0000 0.0000 33.9951 0.0000 0.0000
# 5 0.0000 0.0000 0.0000 0.0000 52.7580 0.0000
# 6 0.0000 0.0000 0.0000 0.0000 0.0000 13.6443
#
#
#
# Elastic Compliance Matrix: (Units=1/GPa)
#
#
# Indices 1 2 3 4 5 6 
#
# 1 0.061984 -0.054080 -0.010859 0.000000 0.000000 0.000000
# 2 -0.054080 0.065702 0.000419 0.000000 0.000000 0.000000
# 3 -0.010859 0.000419 0.013753 0.000000 0.000000 0.000000
# 4 0.000000 0.000000 0.000000 0.029416 0.000000 0.000000
# 5 0.000000 0.000000 0.000000 0.000000 0.018954 0.000000
# 6 0.000000 0.000000 0.000000 0.000000 0.000000 0.073291
#
#
# Mechanical properties :
#
#
# Convention : Reuss Voigt Hill
#
# Bulk Modulus (GPa) = 80.64831 88.26485 84.45658
# Shear Modulus (GPa) = 12.61757 26.29640 19.45699
#
# Velocity S-wave (km/s) = 2.61427 3.77408 3.24639
# Velocity P-wave (km/s) = 7.26611 8.17318 7.73296
#
# Compressibility (1/GPa) = 0.01239952
#
# Stress axis : x y z
#
# Youngs Moduli (GPa) = 16.13311 15.22026 72.71328
#
# Poissons Ratio (x) = 0.82311 0.78956
# Poissons Ratio (y) = 0.87247 -0.03043
# Poissons Ratio (z) = 0.17518 -0.00637
#
# Static dielectric constant tensor:
#      x y z
#    x 1.660970 0.000000 0.000000 
#    y 0.000000 1.642670 0.000000 
#    z 0.000000 0.000000 1.661760 
# 
# From -- ./inp_files/35486.got.cif
#   From: 2010.05.17/outbox.cif.g08.bks.cpg/sg52_18_cif.got.tgz:35486.got - 2010.06.03 12:15:38.
