data_PCOD9409968
_publ_section_title
;
Structure prediction by ZEFSAII (Michael W. Deem and Ramdas Pophale) SiO2 
 PCOD9409968
Probable space group: P N N A
;
_chemical_formula_sum "Si O2"
_cell_formula_units_Z 48
_cell_length_a 23.763741
_cell_length_b 10.906735
_cell_length_c 10.151819
_cell_angle_alpha 90.000000
_cell_angle_beta 90.000000
_cell_angle_gamma 90.000000
_cell_volume 2631.197438
_symmetry_space_group_name_H-M "P N N A"
_symmetry_group_IT_number 52
_symmetry_cell_setting 'orthorhombic'
loop_
_space_group_symop_operation_xyz
x,y,z
1/2-x,-y,z
x,1/2-y,1/2-z
1/2-x,1/2+y,1/2-z
-x,-y,-z
1/2+x,y,-z
-x,1/2+y,1/2+z
1/2+x,1/2-y,1/2+z
loop_
_atom_site_type_symbol
_atom_site_label
_atom_site_fract_x
_atom_site_fract_y
_atom_site_fract_z
Si Si1 0.620374 0.778690 0.098849
Si Si2 0.539471 0.250000 0.250000
Si Si3 0.624966 0.025815 0.776753
Si Si4 0.958245 0.402859 0.931866
Si Si5 0.937061 0.961375 0.045322
Si Si6 0.282113 0.120606 0.066911
Si Si7 0.194692 0.250000 0.250000
O O1 0.627407 0.750000 0.250000
O O2 0.590282 0.910468 0.088255
O O3 0.582312 0.675085 0.027959
O O4 0.680471 0.799037 0.030078
O O5 0.499559 0.310941 0.142060
O O6 0.567680 0.140080 0.162299
O O7 0.655860 0.137812 0.706697
O O8 0.580194 0.965266 0.680166
O O9 0.672972 0.930765 0.825193
O O10 0.595421 0.074970 0.910658
O O11 0.000000 0.500000 0.000000
O O12 0.000000 0.000000 0.000000
O O13 0.234550 0.200343 0.135716
O O14 0.250000 0.000000 0.010783
#
# Coordination Sequence:
#
# PCOD9409968 Si02
#       7
#     8   4   8   8   8   8   4
#     4  11  23  40  61  88 124 163 209 258 311 385
#     4  12  22  39  58  84 128 172 199 244 296 366
#     4  10  22  37  61  93 118 158 207 255 309 369
#     4  12  24  36  59  91 128 168 206 238 305 381
#     4  11  21  39  62  86 127 172 202 245 310 371
#     4   9  19  40  64  84 111 156 205 260 324 354
#     4  10  20  37  66  86 116 146 211 278 298 356
#
# _framework density 18.242643999999999
#
# number of rings (size 3 to 8) (size 9 to 14) (size 15 to 20)
#    0.000    1.333    3.333    3.000    2.333    0.000 
#    0.000    1.667   12.833    0.000    0.000    0.000 
#    0.000    0.000    0.000    0.000    0.000    0.000 
#
# Total GULP energy -267737.086187 kJ/mol
# GULP energy per Si atom -5577.855962 kJ/mol
# Density = 1.820112 g / cm^3
# Si number density = 18.242644 Si / 1000 Ang^3
#
#
#
# Elastic Constant Matrix: (Units=GPa)
#
#
# Indices 1 2 3 4 5 6 
#
# 1 70.2323 35.6778 17.7612 0.0000 0.0000 0.0000
# 2 35.6778 81.0847 50.6486 0.0000 0.0000 0.0000
# 3 17.7612 50.6486 74.1802 0.0000 0.0000 0.0000
# 4 0.0000 0.0000 0.0000 39.7809 0.0000 0.0000
# 5 0.0000 0.0000 0.0000 0.0000 25.8601 0.0000
# 6 0.0000 0.0000 0.0000 0.0000 0.0000 23.9366
#
#
#
# Elastic Compliance Matrix: (Units=1/GPa)
#
#
# Indices 1 2 3 4 5 6 
#
# 1 0.018500 -0.009369 0.001968 0.000000 0.000000 0.000000
# 2 -0.009369 0.026249 -0.015679 0.000000 0.000000 0.000000
# 3 0.001968 -0.015679 0.023715 0.000000 0.000000 0.000000
# 4 0.000000 0.000000 0.000000 0.025138 0.000000 0.000000
# 5 0.000000 0.000000 0.000000 0.000000 0.038670 0.000000
# 6 0.000000 0.000000 0.000000 0.000000 0.000000 0.041777
#
#
# Mechanical properties :
#
#
# Convention : Reuss Voigt Hill
#
# Bulk Modulus (GPa) = 44.83726 48.18583 46.51155
# Shear Modulus (GPa) = 21.96406 26.00947 23.98676
#
# Velocity S-wave (km/s) = 3.47363 3.78001 3.63005
# Velocity P-wave (km/s) = 6.38120 6.74703 6.56667
#
# Compressibility (1/GPa) = 0.02230288
#
# Stress axis : x y z
#
# Youngs Moduli (GPa) = 54.05268 38.09664 42.16767
#
# Poissons Ratio (x) = 0.35694 -0.08297
# Poissons Ratio (y) = 0.50644 0.66114
# Poissons Ratio (z) = -0.10635 0.59732
#
# Static dielectric constant tensor:
#      x y z
#    x 1.636310 0.000000 0.000000 
#    y 0.000000 1.789740 0.000000 
#    z 0.000000 0.000000 1.636010 
# 
# From -- ./inp_files/14346.got.cif
#   From: 2010.05.17/outbox.cif.g08.bks.cpg/sg52_8_cif.got.tgz:14346.got - 2010.06.03 12:15:38.
