data_PCOD9409623
_publ_section_title
;
Structure prediction by ZEFSAII (Michael W. Deem and Ramdas Pophale) SiO2 
 PCOD9409623
Probable space group: P N N A
;
_chemical_formula_sum "Si O2"
_cell_formula_units_Z 40
_cell_length_a 8.034915
_cell_length_b 7.895945
_cell_length_c 31.131931
_cell_angle_alpha 90.000000
_cell_angle_beta 90.000000
_cell_angle_gamma 90.000000
_cell_volume 1975.110786
_symmetry_space_group_name_H-M "P N N A"
_symmetry_group_IT_number 52
_symmetry_cell_setting 'orthorhombic'
loop_
_space_group_symop_operation_xyz
x,y,z
1/2-x,-y,z
x,1/2-y,1/2-z
1/2-x,1/2+y,1/2-z
-x,-y,-z
1/2+x,y,-z
-x,1/2+y,1/2+z
1/2+x,1/2-y,1/2+z
loop_
_atom_site_type_symbol
_atom_site_label
_atom_site_fract_x
_atom_site_fract_y
_atom_site_fract_z
Si Si1 0.931209 0.203959 0.799392
Si Si2 0.756786 0.798084 0.147318
Si Si3 0.941672 0.704820 0.700379
Si Si4 0.120683 0.374514 0.473869
Si Si5 0.695325 0.693842 0.052377
O O1 0.964756 0.250000 0.750000
O O2 0.745086 0.266891 0.810077
O O3 0.078782 0.269880 0.829310
O O4 0.932955 0.999556 0.802586
O O5 0.588014 0.730853 0.169502
O O6 0.763337 0.767924 0.096773
O O7 0.750000 0.000000 0.154117
O O8 0.977891 0.750000 0.750000
O O9 0.250000 0.500000 0.449336
O O10 0.222924 0.274817 0.510066
O O11 0.000000 0.500000 0.500000
O O12 0.000283 0.245691 0.448894
O O13 0.750000 0.500000 0.051805
#
# Coordination Sequence:
#
# PCOD9409623 Si02
#       5
#     8   8   8   8   8
#     4   9  18  33  53  77 107 150 189 240 291 345
#     4  10  20  35  53  80 113 152 194 236 288 357
#     4   9  18  33  52  77 108 145 195 237 287 349
#     4   9  19  39  63  83 108 155 192 226 287 364
#     4  11  22  38  59  89 120 146 191 248 300 348
#
# _framework density 20.252029
#
# number of rings (size 3 to 8) (size 9 to 14) (size 15 to 20)
#    0.000    2.400    0.000    3.000    0.000    1.600 
#   14.400    0.000    0.000    0.000    0.000    0.000 
#    0.000    0.000    0.000    0.000    0.000    0.000 
#
# Total GULP energy -223040.793210 kJ/mol
# GULP energy per Si atom -5576.019830 kJ/mol
# Density = 2.020593 g / cm^3
# Si number density = 20.252029 Si / 1000 Ang^3
#
#
#
# Elastic Constant Matrix: (Units=GPa)
#
#
# Indices 1 2 3 4 5 6 
#
# 1 124.0724 33.1039 56.3388 0.0000 0.0000 0.0000
# 2 33.1039 37.1813 -7.9545 0.0000 0.0000 0.0000
# 3 56.3388 -7.9545 63.5415 0.0000 0.0000 0.0000
# 4 0.0000 0.0000 0.0000 24.5680 0.0000 0.0000
# 5 0.0000 0.0000 0.0000 0.0000 0.0248 0.0000
# 6 0.0000 0.0000 0.0000 0.0000 0.0000 17.6600
#
#
#
# Elastic Compliance Matrix: (Units=1/GPa)
#
#
# Indices 1 2 3 4 5 6 
#
# 1 0.033834 -0.037547 -0.034699 0.000000 0.000000 0.000000
# 2 -0.037547 0.069303 0.041967 0.000000 0.000000 0.000000
# 3 -0.034699 0.041967 0.051757 0.000000 0.000000 0.000000
# 4 0.000000 0.000000 0.000000 0.040703 0.000000 0.000000
# 5 0.000000 0.000000 0.000000 0.000000 40.299757 0.000000
# 6 0.000000 0.000000 0.000000 0.000000 0.000000 0.056625
#
#
# Mechanical properties :
#
#
# Convention : Reuss Voigt Hill
#
# Bulk Modulus (GPa) = 10.60047 43.08572 26.84309
# Shear Modulus (GPa) = 0.12302 18.00437 9.06370
#
# Velocity S-wave (km/s) = 0.24673 2.98487 2.11782
# Velocity P-wave (km/s) = 2.30799 5.76196 4.38902
#
# Compressibility (1/GPa) = 0.09433548
#
# Stress axis : x y z
#
# Youngs Moduli (GPa) = 29.55606 14.42935 19.32095
#
# Poissons Ratio (x) = 0.54178 0.67042
# Poissons Ratio (y) = 1.10975 -0.81084
# Poissons Ratio (z) = 1.02557 -0.60555
#
# Static dielectric constant tensor:
#      x y z
#    x 1.777510 0.000000 0.000000 
#    y 0.000000 1.730540 0.000000 
#    z 0.000000 0.000000 1.635300 
# 
# From -- ./inp_files/42120.got.cif
#   From: 2010.05.17/outbox.cif.g08.bks.cpg/sg52_22_cif.got.tgz:42120.got - 2010.06.03 12:15:38.
