data_PCOD9409350
_publ_section_title
;
Structure prediction by ZEFSAII (Michael W. Deem and Ramdas Pophale) SiO2 
 PCOD9409350
Probable space group: P N N A
;
_chemical_formula_sum "Si O2"
_cell_formula_units_Z 32
_cell_length_a 14.399702
_cell_length_b 17.165553
_cell_length_c 7.406201
_cell_angle_alpha 90.000000
_cell_angle_beta 90.000000
_cell_angle_gamma 90.000000
_cell_volume 1830.656230
_symmetry_space_group_name_H-M "P N N A"
_symmetry_group_IT_number 52
_symmetry_cell_setting 'orthorhombic'
loop_
_space_group_symop_operation_xyz
x,y,z
1/2-x,-y,z
x,1/2-y,1/2-z
1/2-x,1/2+y,1/2-z
-x,-y,-z
1/2+x,y,-z
-x,1/2+y,1/2+z
1/2+x,1/2-y,1/2+z
loop_
_atom_site_type_symbol
_atom_site_label
_atom_site_fract_x
_atom_site_fract_y
_atom_site_fract_z
Si Si1 0.543579 0.055216 0.848548
Si Si2 0.761366 0.590878 0.507421
Si Si3 0.127643 0.841021 0.722866
Si Si4 0.833526 0.058181 0.624367
O O1 0.631767 0.099838 0.935765
O O2 0.462887 0.112430 0.788672
O O3 0.583800 0.999736 0.688648
O O4 0.500000 0.000000 0.000000
O O5 0.750000 0.500000 0.454360
O O6 0.716579 0.639716 0.348633
O O7 0.701690 0.598451 0.690799
O O8 0.110493 0.750000 0.750000
O O9 0.145827 0.877374 0.525030
O O10 0.750000 0.000000 0.564413
#
# Coordination Sequence:
#
# PCOD9409350 Si02
#       4
#     8   8   8   8
#     4  10  19  40  65  85 114 161 206 243 282 367
#     4   9  19  40  61  82 116 155 199 242 292 355
#     4  12  23  38  59  92 124 152 196 255 309 348
#     4   9  20  38  65  84 110 161 204 236 286 365
#
# _framework density 17.480070999999999
#
# number of rings (size 3 to 8) (size 9 to 14) (size 15 to 20)
#    0.000    2.500    5.000    1.500    0.000    1.000 
#    9.000    0.000    0.000    0.000    0.000    0.000 
#    0.000    0.000    0.000    0.000    0.000    0.000 
#
# Total GULP energy -178293.768122 kJ/mol
# GULP energy per Si atom -5571.680254 kJ/mol
# Density = 1.744029 g / cm^3
# Si number density = 17.480071 Si / 1000 Ang^3
#
#
#
# Elastic Constant Matrix: (Units=GPa)
#
#
# Indices 1 2 3 4 5 6 
#
# 1 73.8711 33.9179 45.7228 0.0000 0.0000 0.0000
# 2 33.9179 106.9348 75.9318 0.0000 0.0000 0.0000
# 3 45.7228 75.9318 85.5934 0.0000 0.0000 0.0000
# 4 0.0000 0.0000 0.0000 -10.2818 0.0000 0.0000
# 5 0.0000 0.0000 0.0000 0.0000 8.4804 0.0000
# 6 0.0000 0.0000 0.0000 0.0000 0.0000 22.1383
#
#
#
# Elastic Compliance Matrix: (Units=1/GPa)
#
#
# Indices 1 2 3 4 5 6 
#
# 1 0.020691 0.003474 -0.014134 0.000000 0.000000 0.000000
# 2 0.003474 0.025852 -0.024790 0.000000 0.000000 0.000000
# 3 -0.014134 -0.024790 0.041225 0.000000 0.000000 0.000000
# 4 0.000000 0.000000 0.000000 -0.097259 0.000000 0.000000
# 5 0.000000 0.000000 0.000000 0.000000 0.117919 0.000000
# 6 0.000000 0.000000 0.000000 0.000000 0.000000 0.045171
#
#
# Mechanical properties :
#
#
# Convention : Reuss Voigt Hill
#
# Bulk Modulus (GPa) = 59.28628 64.17160 61.72894
# Shear Modulus (GPa) = 21.72772 11.45582 16.59177
#
# Velocity S-wave (km/s) = 3.52945 2.56279 3.08422
# Velocity P-wave (km/s) = 7.11333 6.74894 6.93353
#
# Compressibility (1/GPa) = 0.01686731
#
# Stress axis : x y z
#
# Youngs Moduli (GPa) = 48.33129 38.68140 24.25730
#
# Poissons Ratio (x) = -0.13436 0.34285
# Poissons Ratio (y) = -0.16788 0.60133
# Poissons Ratio (z) = 0.68312 0.95890
#
# Static dielectric constant tensor:
#      x y z
#    x 1.699480 0.000000 0.000000 
#    y 0.000000 1.598800 0.000000 
#    z 0.000000 0.000000 1.614770 
# 
# From -- ./inp_files/9836.got.cif
#   From: 2010.05.17/outbox.cif.g08.bks.cpg/sg52_5_cif.got.tgz:9836.got - 2010.06.03 12:15:38.
