data_PCOD9409643
_publ_section_title
;
Structure prediction by ZEFSAII (Michael W. Deem and Ramdas Pophale) SiO2 
 PCOD9409643
Probable space group: P N N A
;
_chemical_formula_sum "Si O2"
_cell_formula_units_Z 60
_cell_length_a 14.448396
_cell_length_b 14.516195
_cell_length_c 15.623827
_cell_angle_alpha 90.000000
_cell_angle_beta 90.000000
_cell_angle_gamma 90.000000
_cell_volume 3276.874820
_symmetry_space_group_name_H-M "P N N A"
_symmetry_group_IT_number 52
_symmetry_cell_setting 'orthorhombic'
loop_
_space_group_symop_operation_xyz
x,y,z
1/2-x,-y,z
x,1/2-y,1/2-z
1/2-x,1/2+y,1/2-z
-x,-y,-z
1/2+x,y,-z
-x,1/2+y,1/2+z
1/2+x,1/2-y,1/2+z
loop_
_atom_site_type_symbol
_atom_site_label
_atom_site_fract_x
_atom_site_fract_y
_atom_site_fract_z
Si Si1 0.307817 0.806966 0.050354
Si Si2 0.750000 0.000000 0.470346
Si Si3 0.402867 0.388991 0.871354
Si Si4 0.537283 0.090749 0.048777
Si Si5 0.118334 0.693685 0.546364
Si Si6 0.064288 0.948137 0.821689
Si Si7 0.374171 0.854011 0.219978
Si Si8 0.887078 0.608227 0.908028
O O1 0.297809 0.848452 0.146129
O O2 0.367192 0.713978 0.065030
O O3 0.366898 0.874971 0.991141
O O4 0.211041 0.787285 0.006070
O O5 0.812294 0.069011 0.414957
O O6 0.675241 0.049750 0.529480
O O7 0.402097 0.279748 0.891178
O O8 0.402359 0.424526 0.773599
O O9 0.504190 0.416654 0.908496
O O10 0.551942 0.053031 0.145389
O O11 0.461934 0.168349 0.022601
O O12 0.500000 0.000000 0.000000
O O13 0.126270 0.605652 0.608982
O O14 0.963005 0.900334 0.823597
O O15 0.398543 0.750000 0.250000
O O16 0.353898 0.903264 0.309424
#
# Coordination Sequence:
#
# PCOD9409643 Si02
#       8
#     8   4   8   8   8   8   8   8
#     4  11  19  35  61  89 120 157 196 248 317 365
#     4  12  24  40  60  94 110 154 222 252 296 362
#     4  11  22  40  66  83 121 167 208 252 305 374
#     4  10  20  35  55  89 130 151 198 251 309 370
#     4  11  20  35  62  89 119 162 202 251 308 377
#     4  10  20  37  58  91 119 163 205 250 303 372
#     4   9  17  35  60  83 116 155 200 247 302 370
#     4  10  21  40  62  85 115 155 206 257 302 366
#
# _framework density 18.310130000000001
#
# number of rings (size 3 to 8) (size 9 to 14) (size 15 to 20)
#    0.000    1.600    5.333    2.400    0.000    3.200 
#    4.800    0.000    0.000    0.000    0.000    0.000 
#    0.000    0.000    0.000    0.000    0.000    0.000 
#
# Total GULP energy -334177.042893 kJ/mol
# GULP energy per Si atom -5569.617382 kJ/mol
# Density = 1.826846 g / cm^3
# Si number density = 18.310130 Si / 1000 Ang^3
#
#
#
# Elastic Constant Matrix: (Units=GPa)
#
#
# Indices 1 2 3 4 5 6 
#
# 1 73.3951 11.0277 37.7837 0.0000 0.0000 0.0000
# 2 11.0277 52.3202 27.8151 0.0000 0.0000 0.0000
# 3 37.7837 27.8151 89.3922 0.0000 0.0000 0.0000
# 4 0.0000 0.0000 0.0000 27.0475 0.0000 0.0000
# 5 0.0000 0.0000 0.0000 0.0000 28.1506 0.0000
# 6 0.0000 0.0000 0.0000 0.0000 0.0000 25.0775
#
#
#
# Elastic Compliance Matrix: (Units=1/GPa)
#
#
# Indices 1 2 3 4 5 6 
#
# 1 0.017418 0.000291 -0.007452 0.000000 0.000000 0.000000
# 2 0.000291 0.022906 -0.007250 0.000000 0.000000 0.000000
# 3 -0.007452 -0.007250 0.016593 0.000000 0.000000 0.000000
# 4 0.000000 0.000000 0.000000 0.036972 0.000000 0.000000
# 5 0.000000 0.000000 0.000000 0.000000 0.035523 0.000000
# 6 0.000000 0.000000 0.000000 0.000000 0.000000 0.039876
#
#
# Mechanical properties :
#
#
# Convention : Reuss Voigt Hill
#
# Bulk Modulus (GPa) = 35.59670 40.92895 38.26282
# Shear Modulus (GPa) = 24.09911 25.28720 24.69315
#
# Velocity S-wave (km/s) = 3.63183 3.72028 3.67632
# Velocity P-wave (km/s) = 6.08852 6.39184 6.24203
#
# Compressibility (1/GPa) = 0.02809249
#
# Stress axis : x y z
#
# Youngs Moduli (GPa) = 57.41276 43.65612 60.26774
#
# Poissons Ratio (x) = -0.01269 0.44914
# Poissons Ratio (y) = -0.01669 0.43696
# Poissons Ratio (z) = 0.42787 0.31652
#
# Static dielectric constant tensor:
#      x y z
#    x 1.612960 0.000000 0.000000 
#    y 0.000000 1.670850 0.000000 
#    z 0.000000 0.000000 1.675250 
# 
# From -- ./inp_files/27433.got.cif
#   From: 2010.05.17/outbox.cif.g08.bks.cpg/sg52_14_cif.got.tgz:27433.got - 2010.06.03 12:15:38.
