data_PCOD9409124
_publ_section_title
;
Structure prediction by ZEFSAII (Michael W. Deem and Ramdas Pophale) SiO2 
 PCOD9409124
Probable space group: P N N A
;
_chemical_formula_sum "Si O2"
_cell_formula_units_Z 32
_cell_length_a 14.819935
_cell_length_b 12.000807
_cell_length_c 8.173962
_cell_angle_alpha 90.000000
_cell_angle_beta 90.000000
_cell_angle_gamma 90.000000
_cell_volume 1453.748784
_symmetry_space_group_name_H-M "P N N A"
_symmetry_group_IT_number 52
_symmetry_cell_setting 'orthorhombic'
loop_
_space_group_symop_operation_xyz
x,y,z
1/2-x,-y,z
x,1/2-y,1/2-z
1/2-x,1/2+y,1/2-z
-x,-y,-z
1/2+x,y,-z
-x,1/2+y,1/2+z
1/2+x,1/2-y,1/2+z
loop_
_atom_site_type_symbol
_atom_site_label
_atom_site_fract_x
_atom_site_fract_y
_atom_site_fract_z
Si Si1 0.247743 0.750000 0.250000
Si Si2 0.859695 0.250000 0.250000
Si Si3 0.016065 0.407285 0.641339
Si Si4 0.577650 0.667970 0.936342
Si Si5 0.787832 0.618936 0.455591
O O1 0.177681 0.674009 0.145520
O O2 0.307438 0.684816 0.378848
O O3 0.913191 0.165417 0.368102
O O4 0.793565 0.321200 0.363498
O O5 0.122952 0.389851 0.651086
O O6 0.000000 0.500000 0.500000
O O7 0.975604 0.420149 0.824253
O O8 0.968794 0.290629 0.587201
O O9 0.750000 0.500000 0.504026
#
# Coordination Sequence:
#
# PCOD9409124 Si02
#       5
#     4   4   8   8   8
#     4   8  18  36  58  82 110 148 196 242 292 352
#     4  10  20  38  60  88 124 160 200 252 302 366
#     4  10  19  36  60  85 117 159 202 248 303 365
#     4   9  19  36  56  83 118 155 193 246 301 354
#     4  11  21  38  61  87 119 159 198 247 304 360
#
# _framework density 22.012056000000001
#
# number of rings (size 3 to 8) (size 9 to 14) (size 15 to 20)
#    0.000    2.500    0.000    6.000    0.000    1.000 
#    0.000   15.000    0.000    0.000    0.000    7.000 
#    0.000    0.000    0.000    0.000    0.000    0.000 
#
# Total GULP energy -178437.087872 kJ/mol
# GULP energy per Si atom -5576.158996 kJ/mol
# Density = 2.196196 g / cm^3
# Si number density = 22.012056 Si / 1000 Ang^3
#
#
#
# Elastic Constant Matrix: (Units=GPa)
#
#
# Indices 1 2 3 4 5 6 
#
# 1 65.9680 -1.6261 25.1447 0.0000 0.0000 0.0000
# 2 -1.6261 70.7342 35.4595 0.0000 0.0000 0.0000
# 3 25.1447 35.4595 166.5363 0.0000 0.0000 0.0000
# 4 0.0000 0.0000 0.0000 26.9191 0.0000 0.0000
# 5 0.0000 0.0000 0.0000 0.0000 25.7215 0.0000
# 6 0.0000 0.0000 0.0000 0.0000 0.0000 4.7071
#
#
#
# Elastic Compliance Matrix: (Units=1/GPa)
#
#
# Indices 1 2 3 4 5 6 
#
# 1 0.016287 0.001799 -0.002842 0.000000 0.000000 0.000000
# 2 0.001799 0.016026 -0.003684 0.000000 0.000000 0.000000
# 3 -0.002842 -0.003684 0.007218 0.000000 0.000000 0.000000
# 4 0.000000 0.000000 0.000000 0.037148 0.000000 0.000000
# 5 0.000000 0.000000 0.000000 0.000000 0.038878 0.000000
# 6 0.000000 0.000000 0.000000 0.000000 0.000000 0.212446
#
#
# Mechanical properties :
#
#
# Convention : Reuss Voigt Hill
#
# Bulk Modulus (GPa) = 33.24835 46.79940 40.02387
# Shear Modulus (GPa) = 14.38923 27.75355 21.07139
#
# Velocity S-wave (km/s) = 2.55953 3.55467 3.09733
# Velocity P-wave (km/s) = 4.88593 6.17694 5.56897
#
# Compressibility (1/GPa) = 0.03007668
#
# Stress axis : x y z
#
# Youngs Moduli (GPa) = 61.40036 62.40038 138.53866
#
# Poissons Ratio (x) = -0.11227 0.39375
# Poissons Ratio (y) = -0.11047 0.51036
# Poissons Ratio (z) = 0.17451 0.22987
#
# Static dielectric constant tensor:
#      x y z
#    x 1.793310 0.000000 0.000000 
#    y 0.000000 1.839680 0.000000 
#    z 0.000000 0.000000 1.934310 
# 
# From -- ./inp_files/9703.got.cif
#   From: 2010.05.17/outbox.cif.g08.bks.cpg/sg52_5_cif.got.tgz:9703.got - 2010.06.03 12:15:38.
