data_PCOD9409456
_publ_section_title
;
Structure prediction by ZEFSAII (Michael W. Deem and Ramdas Pophale) SiO2 
 PCOD9409456
Probable space group: P N N A
;
_chemical_formula_sum "Si O2"
_cell_formula_units_Z 44
_cell_length_a 11.263986
_cell_length_b 17.085751
_cell_length_c 12.094756
_cell_angle_alpha 90.000000
_cell_angle_beta 90.000000
_cell_angle_gamma 90.000000
_cell_volume 2327.680060
_symmetry_space_group_name_H-M "P N N A"
_symmetry_group_IT_number 52
_symmetry_cell_setting 'orthorhombic'
loop_
_space_group_symop_operation_xyz
x,y,z
1/2-x,-y,z
x,1/2-y,1/2-z
1/2-x,1/2+y,1/2-z
-x,-y,-z
1/2+x,y,-z
-x,1/2+y,1/2+z
1/2+x,1/2-y,1/2+z
loop_
_atom_site_type_symbol
_atom_site_label
_atom_site_fract_x
_atom_site_fract_y
_atom_site_fract_z
Si Si1 0.162298 0.235055 0.083981
Si Si2 0.099397 0.304264 0.654561
Si Si3 0.750000 0.500000 0.725148
Si Si4 0.067248 0.123581 0.266777
Si Si5 0.871504 0.124680 0.933046
Si Si6 0.187004 0.584375 0.686592
O O1 0.096049 0.162824 0.146434
O O2 0.115026 0.310346 0.149147
O O3 0.299645 0.206538 0.085887
O O4 0.133324 0.243058 0.955391
O O5 0.047822 0.250000 0.750000
O O6 0.213357 0.349076 0.702404
O O7 0.005223 0.365423 0.606592
O O8 0.851536 0.547932 0.787503
O O9 0.813973 0.438116 0.647019
O O10 0.928765 0.100851 0.261786
O O11 0.853272 0.095724 0.058297
O O12 0.250000 0.500000 0.701142
#
# Coordination Sequence:
#
# PCOD9409456 Si02
#       6
#     8   8   4   8   8   8
#     4   9  21  37  58  84 114 164 191 239 297 355
#     4  11  24  36  59  90 120 155 201 249 293 355
#     4  10  20  32  58  86 114 154 190 250 286 350
#     4  10  20  36  60  84 121 152 201 238 302 356
#     4  10  20  36  57  89 119 148 201 247 298 345
#     4  11  22  37  61  90 123 156 192 255 314 351
#
# _framework density 18.902940999999998
#
# number of rings (size 3 to 8) (size 9 to 14) (size 15 to 20)
#    0.000    1.818    2.727    1.091    7.636    1.455 
#    0.000    0.000    2.000    2.182    0.000    0.000 
#    0.000    0.000    0.000    0.000    0.000    0.000 
#
# Total GULP energy -245197.460518 kJ/mol
# GULP energy per Si atom -5572.669557 kJ/mol
# Density = 1.885992 g / cm^3
# Si number density = 18.902941 Si / 1000 Ang^3
#
#
#
# Elastic Constant Matrix: (Units=GPa)
#
#
# Indices 1 2 3 4 5 6 
#
# 1 97.7270 40.8877 12.6349 0.0000 0.0000 0.0000
# 2 40.8877 89.6458 28.0624 0.0000 0.0000 0.0000
# 3 12.6349 28.0624 53.3327 0.0000 0.0000 0.0000
# 4 0.0000 0.0000 0.0000 -25.4403 0.0000 0.0000
# 5 0.0000 0.0000 0.0000 0.0000 15.6460 0.0000
# 6 0.0000 0.0000 0.0000 0.0000 0.0000 17.2298
#
#
#
# Elastic Compliance Matrix: (Units=1/GPa)
#
#
# Indices 1 2 3 4 5 6 
#
# 1 0.012646 -0.005782 0.000047 0.000000 0.000000 0.000000
# 2 -0.005782 0.015999 -0.007048 0.000000 0.000000 0.000000
# 3 0.000047 -0.007048 0.022448 0.000000 0.000000 0.000000
# 4 0.000000 0.000000 0.000000 -0.039308 0.000000 0.000000
# 5 0.000000 0.000000 0.000000 0.000000 0.063914 0.000000
# 6 0.000000 0.000000 0.000000 0.000000 0.000000 0.058039
#
#
# Mechanical properties :
#
#
# Convention : Reuss Voigt Hill
#
# Bulk Modulus (GPa) = 39.17823 44.87506 42.02665
# Shear Modulus (GPa) = 29.79495 12.09514 20.94504
#
# Velocity S-wave (km/s) = 3.97445 2.53228 3.33232
# Velocity P-wave (km/s) = 6.46782 5.68693 6.08991
#
# Compressibility (1/GPa) = 0.02552438
#
# Stress axis : x y z
#
# Youngs Moduli (GPa) = 79.07740 62.50487 44.54780
#
# Poissons Ratio (x) = 0.36143 -0.00208
# Poissons Ratio (y) = 0.45726 0.31399
# Poissons Ratio (z) = -0.00369 0.44055
#
# Static dielectric constant tensor:
#      x y z
#    x 1.992700 0.000000 0.000000 
#    y 0.000000 1.673890 0.000000 
#    z 0.000000 0.000000 1.646100 
# 
# From -- ./inp_files/18148.got.cif
#   From: 2010.05.17/outbox.cif.g08.bks.cpg/sg52_10_cif.got.tgz:18148.got - 2010.06.03 12:15:38.
