data_PCOD9409207
_publ_section_title
;
Structure prediction by ZEFSAII (Michael W. Deem and Ramdas Pophale) SiO2 
 PCOD9409207
Probable space group: P N N A
;
_chemical_formula_sum "Si O2"
_cell_formula_units_Z 24
_cell_length_a 8.358013
_cell_length_b 10.433948
_cell_length_c 10.997269
_cell_angle_alpha 90.000000
_cell_angle_beta 90.000000
_cell_angle_gamma 90.000000
_cell_volume 959.039641
_symmetry_space_group_name_H-M "P N N A"
_symmetry_group_IT_number 52
_symmetry_cell_setting 'orthorhombic'
loop_
_space_group_symop_operation_xyz
x,y,z
1/2-x,-y,z
x,1/2-y,1/2-z
1/2-x,1/2+y,1/2-z
-x,-y,-z
1/2+x,y,-z
-x,1/2+y,1/2+z
1/2+x,1/2-y,1/2+z
loop_
_atom_site_type_symbol
_atom_site_label
_atom_site_fract_x
_atom_site_fract_y
_atom_site_fract_z
Si Si1 0.544032 0.774402 0.919004
Si Si2 0.864397 0.878549 0.862172
Si Si3 0.568184 0.039829 0.296152
O O1 0.728632 0.771844 0.879112
O O2 0.453765 0.865876 0.821329
O O3 0.482567 0.630073 0.906930
O O4 0.505591 0.839121 0.047048
O O5 0.750000 0.000000 0.897486
O O6 0.950768 0.922576 0.738430
O O7 0.750000 0.000000 0.307740
#
# Coordination Sequence:
#
# PCOD9409207 Si02
#       3
#     8   8   8
#     4  10  20  36  62  94 123 167 212 256 324 383
#     4  10  19  37  61  89 126 167 211 263 316 381
#     4  10  20  37  61  93 125 163 215 264 316 382
#
# _framework density 25.025034000000002
#
# number of rings (size 3 to 8) (size 9 to 14) (size 15 to 20)
#    0.000    2.000    0.000    7.000    0.000    0.000 
#    0.000   41.667    0.000    0.000    0.000    7.000 
#    0.000    0.000    0.000    0.000    0.000    0.000 
#
# Total GULP energy -134080.347118 kJ/mol
# GULP energy per Si atom -5586.681130 kJ/mol
# Density = 2.496808 g / cm^3
# Si number density = 25.025034 Si / 1000 Ang^3
#
#
#
# Elastic Constant Matrix: (Units=GPa)
#
#
# Indices 1 2 3 4 5 6 
#
# 1 202.3713 79.8418 12.4267 0.0000 0.0000 0.0000
# 2 79.8418 81.3464 38.5739 0.0000 0.0000 0.0000
# 3 12.4267 38.5739 46.5170 0.0000 0.0000 0.0000
# 4 0.0000 0.0000 0.0000 42.4398 0.0000 0.0000
# 5 0.0000 0.0000 0.0000 0.0000 23.6243 0.0000
# 6 0.0000 0.0000 0.0000 0.0000 0.0000 36.6452
#
#
#
# Elastic Compliance Matrix: (Units=1/GPa)
#
#
# Indices 1 2 3 4 5 6 
#
# 1 0.009892 -0.013936 0.008914 0.000000 0.000000 0.000000
# 2 -0.013936 0.039893 -0.029358 0.000000 0.000000 0.000000
# 3 0.008914 -0.029358 0.043461 0.000000 0.000000 0.000000
# 4 0.000000 0.000000 0.000000 0.023563 0.000000 0.000000
# 5 0.000000 0.000000 0.000000 0.000000 0.042329 0.000000
# 6 0.000000 0.000000 0.000000 0.000000 0.000000 0.027289
#
#
# Mechanical properties :
#
#
# Convention : Reuss Voigt Hill
#
# Bulk Modulus (GPa) = 40.84011 65.76885 53.30448
# Shear Modulus (GPa) = 18.98610 33.83468 26.41039
#
# Velocity S-wave (km/s) = 2.75741 3.68099 3.25215
# Velocity P-wave (km/s) = 5.14712 6.66367 5.95388
#
# Compressibility (1/GPa) = 0.02448573
#
# Stress axis : x y z
#
# Youngs Moduli (GPa) = 101.08805 25.06700 23.00898
#
# Poissons Ratio (x) = 0.34934 -0.20510
# Poissons Ratio (y) = 1.40880 0.67550
# Poissons Ratio (z) = -0.90109 0.73592
#
# Static dielectric constant tensor:
#      x y z
#    x 1.901690 0.000000 0.000000 
#    y 0.000000 2.179660 0.000000 
#    z 0.000000 0.000000 2.010250 
# 
# From -- ./inp_files/16251.got.cif
#   From: 2010.05.17/outbox.cif.g08.bks.cpg/sg52_9_cif.got.tgz:16251.got - 2010.06.03 12:15:38.
