data_PCOD9409190
_publ_section_title
;
Structure prediction by ZEFSAII (Michael W. Deem and Ramdas Pophale) SiO2 
 PCOD9409190
Probable space group: P N N A
;
_chemical_formula_sum "Si O2"
_cell_formula_units_Z 60
_cell_length_a 25.865991
_cell_length_b 9.000292
_cell_length_c 13.962560
_cell_angle_alpha 90.000000
_cell_angle_beta 90.000000
_cell_angle_gamma 90.000000
_cell_volume 3250.504519
_symmetry_space_group_name_H-M "P N N A"
_symmetry_group_IT_number 52
_symmetry_cell_setting 'orthorhombic'
loop_
_space_group_symop_operation_xyz
x,y,z
1/2-x,-y,z
x,1/2-y,1/2-z
1/2-x,1/2+y,1/2-z
-x,-y,-z
1/2+x,y,-z
-x,1/2+y,1/2+z
1/2+x,1/2-y,1/2+z
loop_
_atom_site_type_symbol
_atom_site_label
_atom_site_fract_x
_atom_site_fract_y
_atom_site_fract_z
Si Si1 0.732958 0.844587 0.066852
Si Si2 0.971138 0.250000 0.750000
Si Si3 0.639040 0.585547 0.294501
Si Si4 0.027944 0.533358 0.689609
Si Si5 0.697594 0.937887 0.547058
Si Si6 0.298035 0.598939 0.844950
Si Si7 0.008754 0.669705 0.899186
Si Si8 0.423180 0.070070 0.423867
O O1 0.685393 0.885681 0.133904
O O2 0.776454 0.764147 0.134911
O O3 0.750000 0.000000 0.022850
O O4 0.713543 0.725294 0.990018
O O5 0.939848 0.159523 0.670619
O O6 0.004522 0.370934 0.692385
O O7 0.630168 0.750000 0.250000
O O8 0.586776 0.535140 0.344201
O O9 0.654804 0.456228 0.219378
O O10 0.027717 0.591268 0.800411
O O11 0.999497 0.658649 0.627259
O O12 0.638889 0.941551 0.583660
O O13 0.750000 0.000000 0.598722
O O14 0.692703 0.036636 0.450993
O O15 0.250000 0.500000 0.807370
O O16 0.955606 0.584784 0.925326
O O17 0.052682 0.649161 0.980898
#
# Coordination Sequence:
#
# PCOD9409190 Si02
#       8
#     8   4   8   8   8   8   8   8
#     4  10  21  30  44  73 111 145 180 223 267 317
#     4  10  24  38  52  80 118 136 176 242 296 332
#     4  12  17  27  50  69 103 152 183 216 253 315
#     4  10  20  35  53  84 111 143 184 226 274 334
#     4   9  18  34  54  73  98 133 180 225 273 329
#     4   9  18  29  44  70 100 139 185 215 250 312
#     4   9  18  33  60  81 106 145 190 217 268 347
#     4  10  19  37  59  82 106 145 181 232 290 335
#
# _framework density 18.458673000000001
#
# number of rings (size 3 to 8) (size 9 to 14) (size 15 to 20)
#    0.000    2.400    4.000    2.000    0.000    1.600 
#    0.000    5.333    0.000    4.000    0.000    0.000 
#    0.000    0.000    0.000    0.000    0.000    0.000 
#
# Total GULP energy -334069.970807 kJ/mol
# GULP energy per Si atom -5567.832847 kJ/mol
# Density = 1.841666 g / cm^3
# Si number density = 18.458673 Si / 1000 Ang^3
#
#
#
# Elastic Constant Matrix: (Units=GPa)
#
#
# Indices 1 2 3 4 5 6 
#
# 1 118.8868 63.9737 22.1271 0.0000 0.0000 0.0000
# 2 63.9737 117.6997 19.1735 0.0000 0.0000 0.0000
# 3 22.1271 19.1735 31.9506 0.0000 0.0000 0.0000
# 4 0.0000 0.0000 0.0000 19.3940 0.0000 0.0000
# 5 0.0000 0.0000 0.0000 0.0000 22.1874 0.0000
# 6 0.0000 0.0000 0.0000 0.0000 0.0000 13.6795
#
#
#
# Elastic Compliance Matrix: (Units=1/GPa)
#
#
# Indices 1 2 3 4 5 6 
#
# 1 0.012601 -0.006015 -0.005117 0.000000 0.000000 0.000000
# 2 -0.006015 0.012288 -0.003208 0.000000 0.000000 0.000000
# 3 -0.005117 -0.003208 0.036767 0.000000 0.000000 0.000000
# 4 0.000000 0.000000 0.000000 0.051562 0.000000 0.000000
# 5 0.000000 0.000000 0.000000 0.000000 0.045071 0.000000
# 6 0.000000 0.000000 0.000000 0.000000 0.000000 0.073102
#
#
# Mechanical properties :
#
#
# Convention : Reuss Voigt Hill
#
# Bulk Modulus (GPa) = 30.32565 53.23175 41.77870
# Shear Modulus (GPa) = 18.44587 21.93638 20.19112
#
# Velocity S-wave (km/s) = 3.16461 3.45106 3.31094
# Velocity P-wave (km/s) = 5.46055 6.69184 6.10731
#
# Compressibility (1/GPa) = 0.03297539
#
# Stress axis : x y z
#
# Youngs Moduli (GPa) = 79.36180 81.37783 27.19825
#
# Poissons Ratio (x) = 0.48951 0.13916
# Poissons Ratio (y) = 0.47738 0.08726
# Poissons Ratio (z) = 0.40606 0.26109
#
# Static dielectric constant tensor:
#      x y z
#    x 1.679020 0.000000 0.000000 
#    y 0.000000 1.710640 0.000000 
#    z 0.000000 0.000000 1.646100 
# 
# From -- ./inp_files/29207.got.cif
#   From: 2010.05.17/outbox.cif.g08.bks.cpg/sg52_15_cif.got.tgz:29207.got - 2010.06.03 12:15:38.
