data_PCOD9409361
_publ_section_title
;
Structure prediction by ZEFSAII (Michael W. Deem and Ramdas Pophale) SiO2 
 PCOD9409361
Probable space group: P N N A
;
_chemical_formula_sum "Si O2"
_cell_formula_units_Z 32
_cell_length_a 20.023908
_cell_length_b 5.174303
_cell_length_c 12.269193
_cell_angle_alpha 90.000000
_cell_angle_beta 90.000000
_cell_angle_gamma 90.000000
_cell_volume 1271.208231
_symmetry_space_group_name_H-M "P N N A"
_symmetry_group_IT_number 52
_symmetry_cell_setting 'orthorhombic'
loop_
_space_group_symop_operation_xyz
x,y,z
1/2-x,-y,z
x,1/2-y,1/2-z
1/2-x,1/2+y,1/2-z
-x,-y,-z
1/2+x,y,-z
-x,1/2+y,1/2+z
1/2+x,1/2-y,1/2+z
loop_
_atom_site_type_symbol
_atom_site_label
_atom_site_fract_x
_atom_site_fract_y
_atom_site_fract_z
Si Si1 0.711122 0.264088 0.532601
Si Si2 0.978781 0.030874 0.868879
Si Si3 0.363632 0.988186 0.823260
Si Si4 0.081128 0.463049 0.126718
O O1 0.750000 0.500000 0.591482
O O2 0.676829 0.430824 0.434322
O O3 0.655059 0.136894 0.609499
O O4 0.750000 0.000000 0.494996
O O5 0.935645 0.259133 0.921613
O O6 0.057226 0.051854 0.846827
O O7 0.963445 0.760916 0.926245
O O8 0.944339 0.996558 0.749952
O O9 0.341056 0.750000 0.750000
O O10 0.355574 0.250000 0.750000
#
# Coordination Sequence:
#
# PCOD9409361 Si02
#       4
#     8   8   8   8
#     4  12  28  46  64 100 147 200 243 279 350 441
#     4  10  19  40  68 108 132 168 233 300 376 409
#     4  12  23  44  71 101 139 179 240 304 358 426
#     4  10  20  40  69  98 142 172 231 298 349 430
#
# _framework density 25.172899999999998
#
# number of rings (size 3 to 8) (size 9 to 14) (size 15 to 20)
#    0.000    1.000    5.000    3.000    0.000    4.000 
#    0.000   10.000    0.000    0.000    0.000    0.000 
#    0.000    0.000    0.000    0.000    0.000    0.000 
#
# Total GULP energy -178544.252188 kJ/mol
# GULP energy per Si atom -5579.507881 kJ/mol
# Density = 2.511561 g / cm^3
# Si number density = 25.172900 Si / 1000 Ang^3
#
#
#
# Elastic Constant Matrix: (Units=GPa)
#
#
# Indices 1 2 3 4 5 6 
#
# 1 136.3786 51.5279 45.6624 0.0000 0.0000 0.0000
# 2 51.5279 235.0851 13.2508 0.0000 0.0000 0.0000
# 3 45.6624 13.2508 85.1366 0.0000 0.0000 0.0000
# 4 0.0000 0.0000 0.0000 19.3124 0.0000 0.0000
# 5 0.0000 0.0000 0.0000 0.0000 20.8724 0.0000
# 6 0.0000 0.0000 0.0000 0.0000 0.0000 55.7719
#
#
#
# Elastic Compliance Matrix: (Units=1/GPa)
#
#
# Indices 1 2 3 4 5 6 
#
# 1 0.009669 -0.001843 -0.004899 0.000000 0.000000 0.000000
# 2 -0.001843 0.004643 0.000266 0.000000 0.000000 0.000000
# 3 -0.004899 0.000266 0.014332 0.000000 0.000000 0.000000
# 4 0.000000 0.000000 0.000000 0.051780 0.000000 0.000000
# 5 0.000000 0.000000 0.000000 0.000000 0.047910 0.000000
# 6 0.000000 0.000000 0.000000 0.000000 0.000000 0.017930
#
#
# Mechanical properties :
#
#
# Convention : Reuss Voigt Hill
#
# Bulk Modulus (GPa) = 63.72950 75.27585 69.50268
# Shear Modulus (GPa) = 30.40477 42.26863 36.33670
#
# Velocity S-wave (km/s) = 3.47917 4.10217 3.80344
# Velocity P-wave (km/s) = 6.44291 7.23916 6.85261
#
# Compressibility (1/GPa) = 0.01569132
#
# Stress axis : x y z
#
# Youngs Moduli (GPa) = 103.41997 215.38705 69.77360
#
# Poissons Ratio (x) = 0.39701 0.34183
# Poissons Ratio (y) = 0.19063 -0.01856
# Poissons Ratio (z) = 0.50667 -0.05729
#
# Static dielectric constant tensor:
#      x y z
#    x 1.995720 0.000000 0.000000 
#    y 0.000000 1.817350 0.000000 
#    z 0.000000 0.000000 -12.962980 
# 
# From -- ./inp_files/27612.got.cif
#   From: 2010.05.17/outbox.cif.g08.bks.cpg/sg52_14_cif.got.tgz:27612.got - 2010.06.03 12:15:38.
