data_PCOD9409513
_publ_section_title
;
Structure prediction by ZEFSAII (Michael W. Deem and Ramdas Pophale) SiO2 
 PCOD9409513
Probable space group: P N N A
;
_chemical_formula_sum "Si O2"
_cell_formula_units_Z 40
_cell_length_a 21.935683
_cell_length_b 5.058446
_cell_length_c 20.177387
_cell_angle_alpha 90.000000
_cell_angle_beta 90.000000
_cell_angle_gamma 90.000000
_cell_volume 2238.892303
_symmetry_space_group_name_H-M "P N N A"
_symmetry_group_IT_number 52
_symmetry_cell_setting 'orthorhombic'
loop_
_space_group_symop_operation_xyz
x,y,z
1/2-x,-y,z
x,1/2-y,1/2-z
1/2-x,1/2+y,1/2-z
-x,-y,-z
1/2+x,y,-z
-x,1/2+y,1/2+z
1/2+x,1/2-y,1/2+z
loop_
_atom_site_type_symbol
_atom_site_label
_atom_site_fract_x
_atom_site_fract_y
_atom_site_fract_z
Si Si1 0.706700 0.257114 0.964770
Si Si2 0.483382 0.242327 0.582783
Si Si3 0.182132 0.115226 0.178299
Si Si4 0.078900 0.243952 0.530101
Si Si5 0.052473 0.505907 0.295825
O O1 0.750000 0.500000 0.978256
O O2 0.680087 0.281758 0.889580
O O3 0.750000 0.000000 0.968663
O O4 0.649978 0.257564 0.014377
O O5 0.441558 0.459652 0.546972
O O6 0.541972 0.175797 0.537299
O O7 0.508572 0.398636 0.646559
O O8 0.445010 0.969500 0.584276
O O9 0.180830 0.250000 0.250000
O O10 0.250000 0.000000 0.175764
O O11 0.121156 0.933841 0.176934
O O12 0.032000 0.750000 0.250000
O O13 0.058426 0.250000 0.250000
#
# Coordination Sequence:
#
# PCOD9409513 Si02
#       5
#     8   8   8   8   8
#     4  11  22  35  54  79 109 141 189 235 271 322
#     4  10  20  36  55  76 106 144 185 224 279 334
#     4  10  20  34  48  72 104 154 190 228 265 309
#     4  10  20  36  55  76 106 144 185 224 279 336
#     4  11  22  35  54  79 109 141 189 235 270 317
#
# _framework density 17.865977000000001
#
# number of rings (size 3 to 8) (size 9 to 14) (size 15 to 20)
#    0.000    1.600    2.000    3.600    0.000    4.800 
#    0.000    0.000    0.000    0.000    0.000    0.000 
#    0.000   44.800    0.000    0.000    0.000    0.000 
#
# Total GULP energy -222814.624433 kJ/mol
# GULP energy per Si atom -5570.365611 kJ/mol
# Density = 1.782531 g / cm^3
# Si number density = 17.865977 Si / 1000 Ang^3
#
#
#
# Elastic Constant Matrix: (Units=GPa)
#
#
# Indices 1 2 3 4 5 6 
#
# 1 103.5017 36.3570 43.1660 0.0000 0.0000 0.0000
# 2 36.3570 96.7821 12.7572 0.0000 0.0000 0.0000
# 3 43.1660 12.7572 50.2418 0.0000 0.0000 0.0000
# 4 0.0000 0.0000 0.0000 32.9521 0.0000 0.0000
# 5 0.0000 0.0000 0.0000 0.0000 18.0122 0.0000
# 6 0.0000 0.0000 0.0000 0.0000 0.0000 24.8902
#
#
#
# Elastic Compliance Matrix: (Units=1/GPa)
#
#
# Indices 1 2 3 4 5 6 
#
# 1 0.016801 -0.004561 -0.013277 0.000000 0.000000 0.000000
# 2 -0.004561 0.011929 0.000890 0.000000 0.000000 0.000000
# 3 -0.013277 0.000890 0.031085 0.000000 0.000000 0.000000
# 4 0.000000 0.000000 0.000000 0.030347 0.000000 0.000000
# 5 0.000000 0.000000 0.000000 0.000000 0.055518 0.000000
# 6 0.000000 0.000000 0.000000 0.000000 0.000000 0.040176
#
#
# Mechanical properties :
#
#
# Convention : Reuss Voigt Hill
#
# Bulk Modulus (GPa) = 38.58262 48.34288 43.46275
# Shear Modulus (GPa) = 21.89225 25.72059 23.80642
#
# Velocity S-wave (km/s) = 3.50431 3.79838 3.65430
# Velocity P-wave (km/s) = 6.16572 6.80840 6.49501
#
# Compressibility (1/GPa) = 0.02591841
#
# Stress axis : x y z
#
# Youngs Moduli (GPa) = 59.52002 83.83151 32.17027
#
# Poissons Ratio (x) = 0.38239 0.42711
# Poissons Ratio (y) = 0.27149 -0.02863
# Poissons Ratio (z) = 0.79023 -0.07462
#
# Static dielectric constant tensor:
#      x y z
#    x 1.632550 0.000000 0.000000 
#    y 0.000000 1.637670 0.000000 
#    z 0.000000 0.000000 1.637720 
# 
# From -- ./inp_files/37537.got.cif
#   From: 2010.05.17/outbox.cif.g08.bks.cpg/sg52_19_cif.got.tgz:37537.got - 2010.06.03 12:15:38.
