data_PCOD9409359
_publ_section_title
;
Structure prediction by ZEFSAII (Michael W. Deem and Ramdas Pophale) SiO2 
 PCOD9409359
Probable space group: P N N A
;
_chemical_formula_sum "Si O2"
_cell_formula_units_Z 48
_cell_length_a 30.151068
_cell_length_b 8.086749
_cell_length_c 8.851894
_cell_angle_alpha 90.000000
_cell_angle_beta 90.000000
_cell_angle_gamma 90.000000
_cell_volume 2158.305256
_symmetry_space_group_name_H-M "P N N A"
_symmetry_group_IT_number 52
_symmetry_cell_setting 'orthorhombic'
loop_
_space_group_symop_operation_xyz
x,y,z
1/2-x,-y,z
x,1/2-y,1/2-z
1/2-x,1/2+y,1/2-z
-x,-y,-z
1/2+x,y,-z
-x,1/2+y,1/2+z
1/2+x,1/2-y,1/2+z
loop_
_atom_site_type_symbol
_atom_site_label
_atom_site_fract_x
_atom_site_fract_y
_atom_site_fract_z
Si Si1 0.920231 0.750000 0.250000
Si Si2 0.976779 0.443614 0.289551
Si Si3 0.200579 0.447270 0.714528
Si Si4 0.643408 0.326641 0.526106
Si Si5 0.430252 0.464380 0.383105
Si Si6 0.360937 0.250000 0.250000
Si Si7 0.803376 0.997344 0.554453
O O1 0.949497 0.589568 0.209902
O O2 0.888168 0.735918 0.392103
O O3 0.973009 0.250000 0.250000
O O4 0.954839 0.461076 0.456102
O O5 0.028059 0.500388 0.276313
O O6 0.250000 0.500000 0.677345
O O7 0.201221 0.250000 0.750000
O O8 0.170880 0.467988 0.565270
O O9 0.187848 0.532048 0.874330
O O10 0.607371 0.396973 0.639963
O O11 0.676780 0.186155 0.579375
O O12 0.397910 0.308391 0.371714
O O13 0.329043 0.380713 0.166714
O O14 0.750000 0.000000 0.574023
#
# Coordination Sequence:
#
# PCOD9409359 Si02
#       7
#     4   8   8   8   8   4   8
#     4  10  19  40  66  98 124 156 212 270 331 382
#     4  10  23  43  68  94 129 166 211 278 330 382
#     4   9  18  36  62  94 121 155 207 270 328 372
#     4  10  20  39  67  91 124 161 208 273 323 378
#     4  10  25  42  58  98 124 161 224 253 320 399
#     4  12  27  40  60  88 130 174 216 254 309 402
#     4  10  23  41  62  89 127 169 214 257 319 385
#
# _framework density 22.239671999999999
#
# number of rings (size 3 to 8) (size 9 to 14) (size 15 to 20)
#    0.000    2.000    2.500    0.500    4.667    5.333 
#    0.000    4.167    0.000    0.000    0.000    0.000 
#    0.000    0.000    0.000    0.000    0.000    0.000 
#
# Total GULP energy -267291.570628 kJ/mol
# GULP energy per Si atom -5568.574388 kJ/mol
# Density = 2.218905 g / cm^3
# Si number density = 22.239672 Si / 1000 Ang^3
#
#
#
# Elastic Constant Matrix: (Units=GPa)
#
#
# Indices 1 2 3 4 5 6 
#
# 1 182.9981 51.6854 31.3971 0.0000 0.0000 0.0000
# 2 51.6854 46.4476 1.7721 0.0000 0.0000 0.0000
# 3 31.3971 1.7721 33.5715 0.0000 0.0000 0.0000
# 4 0.0000 0.0000 0.0000 29.1604 0.0000 0.0000
# 5 0.0000 0.0000 0.0000 0.0000 -1.5210 0.0000
# 6 0.0000 0.0000 0.0000 0.0000 0.0000 38.2562
#
#
#
# Elastic Compliance Matrix: (Units=1/GPa)
#
#
# Indices 1 2 3 4 5 6 
#
# 1 0.010036 -0.010831 -0.008814 0.000000 0.000000 0.000000
# 2 -0.010831 0.033263 0.008374 0.000000 0.000000 0.000000
# 3 -0.008814 0.008374 0.037588 0.000000 0.000000 0.000000
# 4 0.000000 0.000000 0.000000 0.034293 0.000000 0.000000
# 5 0.000000 0.000000 0.000000 0.000000 -0.657473 0.000000
# 6 0.000000 0.000000 0.000000 0.000000 0.000000 0.026140
#
#
# Mechanical properties :
#
#
# Convention : Reuss Voigt Hill
#
# Bulk Modulus (GPa) = 17.13965 48.08073 32.61019
# Shear Modulus (GPa) = -10.54492 25.05663 7.25585
#
# Velocity S-wave (km/s) = -2.17986 3.36022 1.80822
# Velocity P-wave (km/s) = 1.17805 6.05979 4.36514
#
# Compressibility (1/GPa) = 0.05834425
#
# Stress axis : x y z
#
# Youngs Moduli (GPa) = 99.64125 30.06342 26.60392
#
# Poissons Ratio (x) = 0.32563 0.23449
# Poissons Ratio (y) = 1.07926 -0.22278
# Poissons Ratio (z) = 0.87826 -0.25175
#
# Static dielectric constant tensor:
#      x y z
#    x 1.780420 0.000000 0.000000 
#    y 0.000000 -0.963100 0.000000 
#    z 0.000000 0.000000 1.950400 
# 
# From -- ./inp_files/15566.got.cif
#   From: 2010.05.17/outbox.cif.g08.bks.cpg/sg52_8_cif.got.tgz:15566.got - 2010.06.03 12:15:38.
