data_PCOD9409435
_publ_section_title
;
Structure prediction by ZEFSAII (Michael W. Deem and Ramdas Pophale) SiO2 
 PCOD9409435
Probable space group: P N N A
;
_chemical_formula_sum "Si O2"
_cell_formula_units_Z 60
_cell_length_a 5.202503
_cell_length_b 24.060884
_cell_length_c 24.980116
_cell_angle_alpha 90.000000
_cell_angle_beta 90.000000
_cell_angle_gamma 90.000000
_cell_volume 3126.931514
_symmetry_space_group_name_H-M "P N N A"
_symmetry_group_IT_number 52
_symmetry_cell_setting 'orthorhombic'
loop_
_space_group_symop_operation_xyz
x,y,z
1/2-x,-y,z
x,1/2-y,1/2-z
1/2-x,1/2+y,1/2-z
-x,-y,-z
1/2+x,y,-z
-x,1/2+y,1/2+z
1/2+x,1/2-y,1/2+z
loop_
_atom_site_type_symbol
_atom_site_label
_atom_site_fract_x
_atom_site_fract_y
_atom_site_fract_z
Si Si1 0.265093 0.205316 0.704491
Si Si2 0.725283 0.723595 0.862604
Si Si3 0.284822 0.151012 0.132250
Si Si4 0.468514 0.796161 0.472017
Si Si5 0.518438 0.838277 0.030762
Si Si6 0.142832 0.054194 0.853371
Si Si7 0.476243 0.890860 0.230695
Si Si8 0.250000 0.500000 0.268855
O O1 0.194680 0.250000 0.750000
O O2 0.516934 0.228636 0.673397
O O3 0.361078 0.148860 0.731989
O O4 0.014865 0.196552 0.667748
O O5 0.623872 0.785829 0.876926
O O6 0.830892 0.693201 0.915377
O O7 0.045373 0.146118 0.091638
O O8 0.477428 0.101367 0.118058
O O9 0.229554 0.144301 0.195798
O O10 0.757955 0.815541 0.484173
O O11 0.505201 0.729034 0.472452
O O12 0.784568 0.857821 0.006511
O O13 0.355536 0.084712 0.817827
O O14 0.250000 0.000000 0.884267
O O15 0.959148 0.026465 0.808530
O O16 0.362586 0.945471 0.259839
#
# Coordination Sequence:
#
# PCOD9409435 Si02
#       8
#     8   8   8   8   8   8   8   4
#     4  12  23  34  48  76 117 148 173 205 262 324
#     4  11  23  34  50  79 108 145 179 211 259 321
#     4  10  20  32  52  70  99 134 177 216 262 316
#     4   9  17  33  52  69  95 133 180 223 255 295
#     4   9  19  31  47  71  93 122 168 223 270 310
#     4   9  18  33  52  73  90 124 181 223 260 300
#     4  10  20  33  52  73 101 140 176 216 255 309
#     4   8  18  34  52  74  90 128 190 224 254 290
#
# _framework density 19.188139
#
# number of rings (size 3 to 8) (size 9 to 14) (size 15 to 20)
#    0.000    2.133    1.333    2.000    5.600    2.133 
#    0.000    0.000    0.000    0.800    0.000    0.000 
#    0.000    0.000    0.000   12.000    0.000    0.000 
#
# Total GULP energy -334399.333202 kJ/mol
# GULP energy per Si atom -5573.322220 kJ/mol
# Density = 1.914447 g / cm^3
# Si number density = 19.188139 Si / 1000 Ang^3
#
#
#
# Elastic Constant Matrix: (Units=GPa)
#
#
# Indices 1 2 3 4 5 6 
#
# 1 59.1437 -6.5761 6.7627 0.0000 0.0000 0.0000
# 2 -6.5761 33.8092 10.2158 0.0000 0.0000 0.0000
# 3 6.7627 10.2158 50.4979 0.0000 0.0000 0.0000
# 4 0.0000 0.0000 0.0000 9.8576 0.0000 0.0000
# 5 0.0000 0.0000 0.0000 0.0000 4.8974 0.0000
# 6 0.0000 0.0000 0.0000 0.0000 0.0000 21.1243
#
#
#
# Elastic Compliance Matrix: (Units=1/GPa)
#
#
# Indices 1 2 3 4 5 6 
#
# 1 0.017778 0.004449 -0.003281 0.000000 0.000000 0.000000
# 2 0.004449 0.032617 -0.007194 0.000000 0.000000 0.000000
# 3 -0.003281 -0.007194 0.021698 0.000000 0.000000 0.000000
# 4 0.000000 0.000000 0.000000 0.101444 0.000000 0.000000
# 5 0.000000 0.000000 0.000000 0.000000 0.204190 0.000000
# 6 0.000000 0.000000 0.000000 0.000000 0.000000 0.047339
#
#
# Mechanical properties :
#
#
# Convention : Reuss Voigt Hill
#
# Bulk Modulus (GPa) = 16.65541 18.25061 17.45301
# Shear Modulus (GPa) = 10.93779 16.04576 13.49177
#
# Velocity S-wave (km/s) = 2.39012 2.89491 2.65454
# Velocity P-wave (km/s) = 4.03928 4.55039 4.30243
#
# Compressibility (1/GPa) = 0.06004056
#
# Stress axis : x y z
#
# Youngs Moduli (GPa) = 56.24983 30.65885 46.08811
#
# Poissons Ratio (x) = -0.13641 0.15121
# Poissons Ratio (y) = -0.25027 0.33157
# Poissons Ratio (z) = 0.18455 0.22057
#
# Static dielectric constant tensor:
#      x y z
#    x 1.850000 0.000000 0.000000 
#    y 0.000000 1.738130 0.000000 
#    z 0.000000 0.000000 1.712680 
# 
# From -- ./inp_files/35282.got.cif
#   From: 2010.05.17/outbox.cif.g08.bks.cpg/sg52_18_cif.got.tgz:35282.got - 2010.06.03 12:15:38.
