data_PCOD9409149
_publ_section_title
;
Structure prediction by ZEFSAII (Michael W. Deem and Ramdas Pophale) SiO2 
 PCOD9409149
Probable space group: P N N A
;
_chemical_formula_sum "Si O2"
_cell_formula_units_Z 48
_cell_length_a 7.862099
_cell_length_b 10.498628
_cell_length_c 25.742553
_cell_angle_alpha 90.000000
_cell_angle_beta 90.000000
_cell_angle_gamma 90.000000
_cell_volume 2124.822572
_symmetry_space_group_name_H-M "P N N A"
_symmetry_group_IT_number 52
_symmetry_cell_setting 'orthorhombic'
loop_
_space_group_symop_operation_xyz
x,y,z
1/2-x,-y,z
x,1/2-y,1/2-z
1/2-x,1/2+y,1/2-z
-x,-y,-z
1/2+x,y,-z
-x,1/2+y,1/2+z
1/2+x,1/2-y,1/2+z
loop_
_atom_site_type_symbol
_atom_site_label
_atom_site_fract_x
_atom_site_fract_y
_atom_site_fract_z
Si Si1 0.144522 0.808910 0.409612
Si Si2 0.160497 0.135927 0.019808
Si Si3 0.494331 0.936417 0.380181
Si Si4 0.432391 0.668251 0.670432
Si Si5 0.185305 0.805818 0.916973
Si Si6 0.572636 0.060104 0.272896
O O1 0.212132 0.746863 0.461602
O O2 0.316097 0.865366 0.385220
O O3 0.072938 0.701047 0.372150
O O4 0.019296 0.930195 0.411521
O O5 0.986457 0.141677 0.053920
O O6 0.250000 0.000000 0.027639
O O7 0.163350 0.165161 0.958195
O O8 0.635773 0.840102 0.402347
O O9 0.507516 0.972554 0.319601
O O10 0.260215 0.639917 0.637488
O O11 0.402640 0.803420 0.699588
O O12 0.507324 0.579995 0.716132
O O13 0.750000 0.000000 0.257773
#
# Coordination Sequence:
#
# PCOD9409149 Si02
#       6
#     8   8   8   8   8   8
#     4   9  20  39  64  89 127 162 208 265 324 383
#     4  11  24  40  62  93 132 167 217 259 325 404
#     4   9  19  39  66  88 125 160 212 272 320 369
#     4  10  21  36  64  91 121 164 211 254 322 375
#     4  11  22  40  65  94 125 173 210 271 324 384
#     4  10  19  36  63  89 121 162 210 260 309 379
#
# _framework density 22.590122000000001
#
# number of rings (size 3 to 8) (size 9 to 14) (size 15 to 20)
#    0.000    2.000    1.667    1.500    0.000    2.667 
#    0.000    8.333   62.333    0.000    0.000    0.000 
#    0.000    0.000    0.000    0.000    0.000    0.000 
#
# Total GULP energy -267400.862002 kJ/mol
# GULP energy per Si atom -5570.851292 kJ/mol
# Density = 2.253871 g / cm^3
# Si number density = 22.590122 Si / 1000 Ang^3
#
#
#
# Elastic Constant Matrix: (Units=GPa)
#
#
# Indices 1 2 3 4 5 6 
#
# 1 75.5958 22.6835 27.0406 0.0000 0.0000 0.0000
# 2 22.6835 78.0124 48.5538 0.0000 0.0000 0.0000
# 3 27.0406 48.5538 146.8782 0.0000 0.0000 0.0000
# 4 0.0000 0.0000 0.0000 34.5461 0.0000 0.0000
# 5 0.0000 0.0000 0.0000 0.0000 7.2974 0.0000
# 6 0.0000 0.0000 0.0000 0.0000 0.0000 19.9936
#
#
#
# Elastic Compliance Matrix: (Units=1/GPa)
#
#
# Indices 1 2 3 4 5 6 
#
# 1 0.014800 -0.003283 -0.001639 0.000000 0.000000 0.000000
# 2 -0.003283 0.016867 -0.004971 0.000000 0.000000 0.000000
# 3 -0.001639 -0.004971 0.008754 0.000000 0.000000 0.000000
# 4 0.000000 0.000000 0.000000 0.028947 0.000000 0.000000
# 5 0.000000 0.000000 0.000000 0.000000 0.137035 0.000000
# 6 0.000000 0.000000 0.000000 0.000000 0.000000 0.050016
#
#
# Mechanical properties :
#
#
# Convention : Reuss Voigt Hill
#
# Bulk Modulus (GPa) = 48.46611 55.22691 51.84651
# Shear Modulus (GPa) = 17.66260 25.84798 21.75529
#
# Velocity S-wave (km/s) = 2.79923 3.38630 3.10666
# Velocity P-wave (km/s) = 5.65232 6.30791 5.98910
#
# Compressibility (1/GPa) = 0.02063297
#
# Stress axis : x y z
#
# Youngs Moduli (GPa) = 67.56867 59.28667 114.23874
#
# Poissons Ratio (x) = 0.19463 0.18729
# Poissons Ratio (y) = 0.22182 0.56793
# Poissons Ratio (z) = 0.11077 0.29474
#
# Static dielectric constant tensor:
#      x y z
#    x 1.867800 0.000000 0.000000 
#    y 0.000000 1.879710 0.000000 
#    z 0.000000 0.000000 1.997770 
# 
# From -- ./inp_files/39444.got.cif
#   From: 2010.05.17/outbox.cif.g08.bks.cpg/sg52_20_cif.got.tgz:39444.got - 2010.06.03 12:15:38.
