data_PCOD9409797
_publ_section_title
;
Structure prediction by ZEFSAII (Michael W. Deem and Ramdas Pophale) SiO2 
 PCOD9409797
Probable space group: P N N A
;
_chemical_formula_sum "Si O2"
_cell_formula_units_Z 60
_cell_length_a 13.773710
_cell_length_b 7.704920
_cell_length_c 28.678622
_cell_angle_alpha 90.000000
_cell_angle_beta 90.000000
_cell_angle_gamma 90.000000
_cell_volume 3043.528328
_symmetry_space_group_name_H-M "P N N A"
_symmetry_group_IT_number 52
_symmetry_cell_setting 'orthorhombic'
loop_
_space_group_symop_operation_xyz
x,y,z
1/2-x,-y,z
x,1/2-y,1/2-z
1/2-x,1/2+y,1/2-z
-x,-y,-z
1/2+x,y,-z
-x,1/2+y,1/2+z
1/2+x,1/2-y,1/2+z
loop_
_atom_site_type_symbol
_atom_site_label
_atom_site_fract_x
_atom_site_fract_y
_atom_site_fract_z
Si Si1 0.844261 0.082443 0.778709
Si Si2 0.342216 0.715630 0.424499
Si Si3 0.126926 0.691533 0.429481
Si Si4 0.446642 0.750000 0.250000
Si Si5 0.509078 0.737734 0.355280
Si Si6 0.487899 0.836756 0.850561
Si Si7 0.955433 0.821115 0.483490
Si Si8 0.361378 0.941415 0.612738
O O1 0.813838 0.250000 0.750000
O O2 0.939699 0.137631 0.807403
O O3 0.750000 0.000000 0.805154
O O4 0.882087 0.923111 0.747940
O O5 0.231676 0.780068 0.429289
O O6 0.348931 0.508045 0.420797
O O7 0.404716 0.774759 0.379808
O O8 0.394545 0.755004 0.473106
O O9 0.060564 0.754582 0.387204
O O10 0.051485 0.708079 0.471875
O O11 0.503701 0.747198 0.299068
O O12 0.536839 0.535281 0.366120
O O13 0.578775 0.883175 0.376425
O O14 0.396104 0.708321 0.850428
O O15 0.889805 0.858797 0.437736
O O16 0.000000 0.000000 0.500000
O O17 0.250000 0.000000 0.614560
#
# Coordination Sequence:
#
# PCOD9409797 Si02
#       8
#     8   8   8   4   8   8   8   8
#     4  11  21  34  59  95 135 166 207 249 315 386
#     4  10  20  36  61  84 121 164 204 250 311 374
#     4   9  21  36  57  84 118 163 203 249 304 372
#     4  10  22  38  64  92 128 170 212 260 312 376
#     4  10  21  41  65  92 127 163 209 264 316 377
#     4   9  22  40  60  89 125 166 209 255 310 381
#     4  11  22  37  55  88 122 157 207 257 307 377
#     4  11  24  43  65  90 124 163 217 268 321 376
#
# _framework density 19.713961000000001
#
# number of rings (size 3 to 8) (size 9 to 14) (size 15 to 20)
#    0.000    1.867    2.000    1.200    7.467    0.533 
#    0.000    0.000    7.333    0.000    0.000    0.000 
#    0.000    0.000    0.000    0.000    0.000    0.000 
#
# Total GULP energy -334048.690855 kJ/mol
# GULP energy per Si atom -5567.478181 kJ/mol
# Density = 1.966909 g / cm^3
# Si number density = 19.713961 Si / 1000 Ang^3
#
#
#
# Elastic Constant Matrix: (Units=GPa)
#
#
# Indices 1 2 3 4 5 6 
#
# 1 125.1536 35.6072 37.3124 0.0000 0.0000 0.0000
# 2 35.6072 67.3882 7.5237 0.0000 0.0000 0.0000
# 3 37.3124 7.5237 73.6542 0.0000 0.0000 0.0000
# 4 0.0000 0.0000 0.0000 19.6317 0.0000 0.0000
# 5 0.0000 0.0000 0.0000 0.0000 9.6389 0.0000
# 6 0.0000 0.0000 0.0000 0.0000 0.0000 33.6927
#
#
#
# Elastic Compliance Matrix: (Units=1/GPa)
#
#
# Indices 1 2 3 4 5 6 
#
# 1 0.010980 -0.005240 -0.005027 0.000000 0.000000 0.000000
# 2 -0.005240 0.017512 0.000866 0.000000 0.000000 0.000000
# 3 -0.005027 0.000866 0.016035 0.000000 0.000000 0.000000
# 4 0.000000 0.000000 0.000000 0.050938 0.000000 0.000000
# 5 0.000000 0.000000 0.000000 0.000000 0.103746 0.000000
# 6 0.000000 0.000000 0.000000 0.000000 0.000000 0.029680
#
#
# Mechanical properties :
#
#
# Convention : Reuss Voigt Hill
#
# Bulk Modulus (GPa) = 38.87453 47.45363 43.16408
# Shear Modulus (GPa) = 19.51082 24.97618 22.24350
#
# Velocity S-wave (km/s) = 3.14936 3.56326 3.36268
# Velocity P-wave (km/s) = 5.74340 6.40721 6.08437
#
# Compressibility (1/GPa) = 0.02572379
#
# Stress axis : x y z
#
# Youngs Moduli (GPa) = 91.07625 57.10478 62.36313
#
# Poissons Ratio (x) = 0.29925 0.31350
# Poissons Ratio (y) = 0.47727 -0.05400
# Poissons Ratio (z) = 0.45784 -0.04945
#
# Static dielectric constant tensor:
#      x y z
#    x 1.767920 0.000000 0.000000 
#    y 0.000000 1.699900 0.000000 
#    z 0.000000 0.000000 1.705790 
# 
# From -- ./inp_files/42762.got.cif
#   From: 2010.05.17/outbox.cif.g08.bks.cpg/sg52_22_cif.got.tgz:42762.got - 2010.06.03 12:15:38.
