data_PCOD9409835
_publ_section_title
;
Structure prediction by ZEFSAII (Michael W. Deem and Ramdas Pophale) SiO2 
 PCOD9409835
Probable space group: P N N A
;
_chemical_formula_sum "Si O2"
_cell_formula_units_Z 52
_cell_length_a 8.248696
_cell_length_b 25.473553
_cell_length_c 11.720768
_cell_angle_alpha 90.000000
_cell_angle_beta 90.000000
_cell_angle_gamma 90.000000
_cell_volume 2462.809905
_symmetry_space_group_name_H-M "P N N A"
_symmetry_group_IT_number 52
_symmetry_cell_setting 'orthorhombic'
loop_
_space_group_symop_operation_xyz
x,y,z
1/2-x,-y,z
x,1/2-y,1/2-z
1/2-x,1/2+y,1/2-z
-x,-y,-z
1/2+x,y,-z
-x,1/2+y,1/2+z
1/2+x,1/2-y,1/2+z
loop_
_atom_site_type_symbol
_atom_site_label
_atom_site_fract_x
_atom_site_fract_y
_atom_site_fract_z
Si Si1 0.445611 0.435855 0.376283
Si Si2 0.450063 0.058604 0.370676
Si Si3 0.913546 0.758561 0.950662
Si Si4 0.093259 0.687903 0.352258
Si Si5 0.250000 0.500000 0.562391
Si Si6 0.332311 0.250000 0.750000
Si Si7 0.577270 0.323721 0.129685
Si Si8 0.750000 0.500000 0.043337
O O1 0.372322 0.448317 0.253051
O O2 0.425840 0.373376 0.383076
O O3 0.356524 0.462984 0.480723
O O4 0.627006 0.460515 0.373842
O O5 0.541110 0.114576 0.377331
O O6 0.592591 0.016538 0.387598
O O7 0.312743 0.047612 0.463808
O O8 0.756628 0.785142 0.896421
O O9 0.054546 0.764624 0.857579
O O10 0.906297 0.699454 0.001742
O O11 0.953762 0.786300 0.070765
O O12 0.068647 0.693931 0.216077
O O13 0.227778 0.299543 0.797792
#
# Coordination Sequence:
#
# PCOD9409835 Si02
#       8
#     8   8   8   8   4   4   8   4
#     4  10  21  38  62  93 123 166 207 265 322 387
#     4  10  23  41  67  92 131 164 218 266 328 384
#     4  12  24  41  63  92 134 173 224 276 325 405
#     4  11  22  41  65  90 132 174 218 278 332 390
#     4  10  20  36  64  92 126 162 208 258 328 388
#     4  12  26  40  64  96 130 178 230 266 340 394
#     4  11  24  45  65  95 132 179 220 280 328 399
#     4  10  22  44  64  98 126 170 208 274 324 388
#
# _framework density 21.114094999999999
#
# number of rings (size 3 to 8) (size 9 to 14) (size 15 to 20)
#    0.000    1.231    3.077    1.846    4.308    1.231 
#    2.769    1.538    0.000    0.000    0.000    0.000 
#    0.000    0.000    0.000    0.000    0.000    0.000 
#
# Total GULP energy -289908.093799 kJ/mol
# GULP energy per Si atom -5575.155650 kJ/mol
# Density = 2.106604 g / cm^3
# Si number density = 21.114095 Si / 1000 Ang^3
#
#
#
# Elastic Constant Matrix: (Units=GPa)
#
#
# Indices 1 2 3 4 5 6 
#
# 1 75.1071 23.9347 16.9251 0.0000 0.0000 0.0000
# 2 23.9347 100.9968 25.6588 0.0000 0.0000 0.0000
# 3 16.9251 25.6588 87.7081 0.0000 0.0000 0.0000
# 4 0.0000 0.0000 0.0000 -11.4551 0.0000 0.0000
# 5 0.0000 0.0000 0.0000 0.0000 34.9209 0.0000
# 6 0.0000 0.0000 0.0000 0.0000 0.0000 18.6072
#
#
#
# Elastic Compliance Matrix: (Units=1/GPa)
#
#
# Indices 1 2 3 4 5 6 
#
# 1 0.014709 -0.002987 -0.001965 0.000000 0.000000 0.000000
# 2 -0.002987 0.011303 -0.002730 0.000000 0.000000 0.000000
# 3 -0.001965 -0.002730 0.012579 0.000000 0.000000 0.000000
# 4 0.000000 0.000000 0.000000 -0.087297 0.000000 0.000000
# 5 0.000000 0.000000 0.000000 0.000000 0.028636 0.000000
# 6 0.000000 0.000000 0.000000 0.000000 0.000000 0.053743
#
#
# Mechanical properties :
#
#
# Convention : Reuss Voigt Hill
#
# Bulk Modulus (GPa) = 43.05188 44.09435 43.57311
# Shear Modulus (GPa) = 88.06233 21.56749 54.81491
#
# Velocity S-wave (km/s) = 6.46517 3.19952 5.10075
# Velocity P-wave (km/s) = 8.72729 5.88034 7.44124
#
# Compressibility (1/GPa) = 0.02322779
#
# Stress axis : x y z
#
# Youngs Moduli (GPa) = 67.98644 88.47424 79.49571
#
# Poissons Ratio (x) = 0.26424 0.15618
# Poissons Ratio (y) = 0.20305 0.21704
# Poissons Ratio (z) = 0.13357 0.24156
#
# Static dielectric constant tensor:
#      x y z
#    x 1.793950 0.000000 0.000000 
#    y 0.000000 1.828060 0.000000 
#    z 0.000000 0.000000 1.757820 
# 
# From -- ./inp_files/17115.got.cif
#   From: 2010.05.17/outbox.cif.g08.bks.cpg/sg52_9_cif.got.tgz:17115.got - 2010.06.03 12:15:38.
