data_PCOD9409938
_publ_section_title
;
Structure prediction by ZEFSAII (Michael W. Deem and Ramdas Pophale) SiO2 
 PCOD9409938
Probable space group: P N N A
;
_chemical_formula_sum "Si O2"
_cell_formula_units_Z 40
_cell_length_a 11.760998
_cell_length_b 8.930486
_cell_length_c 18.327721
_cell_angle_alpha 90.000000
_cell_angle_beta 90.000000
_cell_angle_gamma 90.000000
_cell_volume 1924.986708
_symmetry_space_group_name_H-M "P N N A"
_symmetry_group_IT_number 52
_symmetry_cell_setting 'orthorhombic'
loop_
_space_group_symop_operation_xyz
x,y,z
1/2-x,-y,z
x,1/2-y,1/2-z
1/2-x,1/2+y,1/2-z
-x,-y,-z
1/2+x,y,-z
-x,1/2+y,1/2+z
1/2+x,1/2-y,1/2+z
loop_
_atom_site_type_symbol
_atom_site_label
_atom_site_fract_x
_atom_site_fract_y
_atom_site_fract_z
Si Si1 0.546388 0.435156 0.301581
Si Si2 0.861040 0.900959 0.703452
Si Si3 0.859801 0.655776 0.158761
Si Si4 0.325359 0.133471 0.917012
Si Si5 0.468148 0.099257 0.568664
O O1 0.442480 0.501593 0.256703
O O2 0.644260 0.403438 0.241230
O O3 0.532600 0.272219 0.338670
O O4 0.593203 0.550824 0.359712
O O5 0.836250 0.750000 0.750000
O O6 0.931783 0.869880 0.628314
O O7 0.750000 0.000000 0.687637
O O8 0.761354 0.758751 0.126471
O O9 0.882641 0.510131 0.111793
O O10 0.407009 0.248894 0.958310
O O11 0.250000 0.000000 0.952865
O O12 0.500000 0.000000 0.500000
#
# Coordination Sequence:
#
# PCOD9409938 Si02
#       5
#     8   8   8   8   8
#     4   9  19  36  58  94 125 155 207 270 325 383
#     4  11  24  40  67  93 132 178 235 282 337 406
#     4   9  20  33  62  91 126 158 203 259 340 408
#     4  10  20  37  62  94 127 165 208 276 346 413
#     4  11  24  42  63  91 133 173 224 279 345 422
#
# _framework density 20.779364000000001
#
# number of rings (size 3 to 8) (size 9 to 14) (size 15 to 20)
#    0.000    2.000    2.000    0.600    5.600   19.200 
#    0.000    4.000    4.400    0.000    0.000    0.000 
#    0.000    0.000    0.000    0.000    0.000    0.000 
#
# Total GULP energy -222835.550647 kJ/mol
# GULP energy per Si atom -5570.888766 kJ/mol
# Density = 2.073207 g / cm^3
# Si number density = 20.779364 Si / 1000 Ang^3
#
#
#
# Elastic Constant Matrix: (Units=GPa)
#
#
# Indices 1 2 3 4 5 6 
#
# 1 76.3113 46.5287 7.6501 0.0000 0.0000 0.0000
# 2 46.5287 154.1591 30.6894 0.0000 0.0000 0.0000
# 3 7.6501 30.6894 50.1209 0.0000 0.0000 0.0000
# 4 0.0000 0.0000 0.0000 -30.0889 0.0000 0.0000
# 5 0.0000 0.0000 0.0000 0.0000 -8.4813 0.0000
# 6 0.0000 0.0000 0.0000 0.0000 0.0000 42.0800
#
#
#
# Elastic Compliance Matrix: (Units=1/GPa)
#
#
# Indices 1 2 3 4 5 6 
#
# 1 0.016075 -0.004969 0.000589 0.000000 0.000000 0.000000
# 2 -0.004969 0.008923 -0.004705 0.000000 0.000000 0.000000
# 3 0.000589 -0.004705 0.022743 0.000000 0.000000 0.000000
# 4 0.000000 0.000000 0.000000 -0.033235 0.000000 0.000000
# 5 0.000000 0.000000 0.000000 0.000000 -0.117906 0.000000
# 6 0.000000 0.000000 0.000000 0.000000 0.000000 0.023764
#
#
# Mechanical properties :
#
#
# Convention : Reuss Voigt Hill
#
# Bulk Modulus (GPa) = 33.81755 50.03640 41.92698
# Shear Modulus (GPa) = -96.88447 13.75017 -41.56715
#
# Velocity S-wave (km/s) = -6.83568 2.57519 -4.47744
# Velocity P-wave (km/s) = 6.78175 5.74232 2.55126
#
# Compressibility (1/GPa) = 0.02957044
#
# Stress axis : x y z
#
# Youngs Moduli (GPa) = 62.20876 112.06619 43.96960
#
# Poissons Ratio (x) = 0.55686 -0.02590
# Poissons Ratio (y) = 0.30912 0.20689
# Poissons Ratio (z) = -0.03664 0.52731
#
# Static dielectric constant tensor:
#      x y z
#    x 2.641520 0.000000 0.000000 
#    y 0.000000 1.795460 0.000000 
#    z 0.000000 0.000000 1.836570 
# 
# From -- ./inp_files/31983.got.cif
#   From: 2010.05.17/outbox.cif.g08.bks.cpg/sg52_16_cif.got.tgz:31983.got - 2010.06.03 12:15:38.
