data_PCOD9409165
_publ_section_title
;
Structure prediction by ZEFSAII (Michael W. Deem and Ramdas Pophale) SiO2 
 PCOD9409165
Probable space group: P N N A
;
_chemical_formula_sum "Si O2"
_cell_formula_units_Z 24
_cell_length_a 12.356670
_cell_length_b 10.281587
_cell_length_c 7.439228
_cell_angle_alpha 90.000000
_cell_angle_beta 90.000000
_cell_angle_gamma 90.000000
_cell_volume 945.125482
_symmetry_space_group_name_H-M "P N N A"
_symmetry_group_IT_number 52
_symmetry_cell_setting 'orthorhombic'
loop_
_space_group_symop_operation_xyz
x,y,z
1/2-x,-y,z
x,1/2-y,1/2-z
1/2-x,1/2+y,1/2-z
-x,-y,-z
1/2+x,y,-z
-x,1/2+y,1/2+z
1/2+x,1/2-y,1/2+z
loop_
_atom_site_type_symbol
_atom_site_label
_atom_site_fract_x
_atom_site_fract_y
_atom_site_fract_z
Si Si1 0.475245 0.750000 0.250000
Si Si2 0.713796 0.359108 0.987166
Si Si3 0.048081 0.024679 0.702000
Si Si4 0.890569 0.250000 0.750000
O O1 0.389083 0.716164 0.094066
O O2 0.543820 0.619573 0.281475
O O3 0.750000 0.500000 0.903071
O O4 0.815782 0.275036 0.925103
O O5 0.664251 0.406252 0.177251
O O6 0.965515 0.126019 0.785625
O O7 0.000000 0.000000 0.500000
#
# Coordination Sequence:
#
# PCOD9409165 Si02
#       4
#     4   8   8   4
#     4   9  18  34  61  88 122 165 208 266 325 364
#     4  10  19  36  65  90 122 174 211 257 328 382
#     4  10  20  38  63  92 127 169 214 273 317 381
#     4  11  20  38  71  84 126 183 208 262 337 378
#
# _framework density 25.393453000000001
#
# number of rings (size 3 to 8) (size 9 to 14) (size 15 to 20)
#    0.000    2.000    6.667    0.000    0.000    0.000 
#    0.000    8.333    7.333    0.000    0.000    0.000 
#    0.000    0.000    0.000    0.000    0.000    0.000 
#
# Total GULP energy -133699.698486 kJ/mol
# GULP energy per Si atom -5570.820770 kJ/mol
# Density = 2.533566 g / cm^3
# Si number density = 25.393453 Si / 1000 Ang^3
#
#
#
# Elastic Constant Matrix: (Units=GPa)
#
#
# Indices 1 2 3 4 5 6 
#
# 1 153.1486 101.4958 50.3589 0.0000 0.0000 0.0000
# 2 101.4958 222.2234 49.3089 0.0000 0.0000 0.0000
# 3 50.3589 49.3089 56.6174 0.0000 0.0000 0.0000
# 4 0.0000 0.0000 0.0000 31.7994 0.0000 0.0000
# 5 0.0000 0.0000 0.0000 0.0000 212.4943 0.0000
# 6 0.0000 0.0000 0.0000 0.0000 0.0000 73.1430
#
#
#
# Elastic Compliance Matrix: (Units=1/GPa)
#
#
# Indices 1 2 3 4 5 6 
#
# 1 0.011133 -0.003579 -0.006785 0.000000 0.000000 0.000000
# 2 -0.003579 0.006729 -0.002677 0.000000 0.000000 0.000000
# 3 -0.006785 -0.002677 0.026028 0.000000 0.000000 0.000000
# 4 0.000000 0.000000 0.000000 0.031447 0.000000 0.000000
# 5 0.000000 0.000000 0.000000 0.000000 0.004706 0.000000
# 6 0.000000 0.000000 0.000000 0.000000 0.000000 0.013672
#
#
# Mechanical properties :
#
#
# Convention : Reuss Voigt Hill
#
# Bulk Modulus (GPa) = 56.15317 92.70184 74.42750
# Shear Modulus (GPa) = 39.76719 78.87572 59.32145
#
# Velocity S-wave (km/s) = 3.96162 5.57933 4.83856
# Velocity P-wave (km/s) = 6.56408 8.83689 7.78389
#
# Compressibility (1/GPa) = 0.01780843
#
# Stress axis : x y z
#
# Youngs Moduli (GPa) = 89.82619 148.62070 38.41956
#
# Poissons Ratio (x) = 0.53192 0.26067
# Poissons Ratio (y) = 0.32149 0.10283
# Poissons Ratio (z) = 0.60947 0.39779
#
# Static dielectric constant tensor:
#      x y z
#    x 2.054400 0.000000 0.000000 
#    y 0.000000 2.057640 0.000000 
#    z 0.000000 0.000000 2.106350 
# 
# From -- ./inp_files/9358.got.cif
#   From: 2010.05.17/outbox.cif.g08.bks.cpg/sg52_5_cif.got.tgz:9358.got - 2010.06.03 12:15:38.
