data_PCOD9409781
_publ_section_title
;
Structure prediction by ZEFSAII (Michael W. Deem and Ramdas Pophale) SiO2 
 PCOD9409781
Probable space group: P N N A
;
_chemical_formula_sum "Si O2"
_cell_formula_units_Z 56
_cell_length_a 28.401450
_cell_length_b 6.753997
_cell_length_c 15.706375
_cell_angle_alpha 90.000000
_cell_angle_beta 90.000000
_cell_angle_gamma 90.000000
_cell_volume 3012.848811
_symmetry_space_group_name_H-M "P N N A"
_symmetry_group_IT_number 52
_symmetry_cell_setting 'orthorhombic'
loop_
_space_group_symop_operation_xyz
x,y,z
1/2-x,-y,z
x,1/2-y,1/2-z
1/2-x,1/2+y,1/2-z
-x,-y,-z
1/2+x,y,-z
-x,1/2+y,1/2+z
1/2+x,1/2-y,1/2+z
loop_
_atom_site_type_symbol
_atom_site_label
_atom_site_fract_x
_atom_site_fract_y
_atom_site_fract_z
Si Si1 0.014546 0.056028 0.401307
Si Si2 0.084482 0.381080 0.452528
Si Si3 0.888298 0.142756 0.101727
Si Si4 0.352716 0.501743 0.012119
Si Si5 0.290873 0.147940 0.834174
Si Si6 0.250000 0.500000 0.946330
Si Si7 0.598893 0.760778 0.650570
Si Si8 0.046817 0.750000 0.750000
O O1 0.039757 0.265491 0.418095
O O2 0.981349 0.109207 0.318770
O O3 0.051046 0.883215 0.372803
O O4 0.000000 0.000000 0.500000
O O5 0.081163 0.521561 0.534223
O O6 0.120376 0.207475 0.477670
O O7 0.099487 0.536117 0.381421
O O8 0.835521 0.058745 0.116204
O O9 0.918020 0.134712 0.187294
O O10 0.876650 0.362332 0.062062
O O11 0.361536 0.377299 0.097713
O O12 0.297950 0.539083 0.996820
O O13 0.311239 0.250000 0.750000
O O14 0.264653 0.312168 0.890024
O O15 0.250000 0.000000 0.807704
O O16 0.605531 0.750000 0.750000
#
# Coordination Sequence:
#
# PCOD9409781 Si02
#       8
#     8   8   8   8   8   4   8   4
#     4  11  24  39  57  87 117 151 207 251 303 370
#     4  10  20  40  61  80 112 158 194 240 304 354
#     4  10  22  38  56  84 120 154 196 245 296 352
#     4   9  20  38  60  87 117 155 196 246 293 366
#     4  11  20  34  55  86 118 157 194 233 282 354
#     4  10  20  36  60  84 126 152 192 242 300 350
#     4  10  21  38  61  83 113 151 204 248 299 363
#     4  12  22  38  60  82 122 158 196 258 310 350
#
# _framework density 18.587059
#
# number of rings (size 3 to 8) (size 9 to 14) (size 15 to 20)
#    0.000    1.714    1.429    4.286    0.000    5.143 
#    0.000    3.571    3.143    0.000    0.000    0.000 
#    0.000    0.000    0.000    0.000    0.000    0.000 
#
# Total GULP energy -311771.892402 kJ/mol
# GULP energy per Si atom -5567.355221 kJ/mol
# Density = 1.854475 g / cm^3
# Si number density = 18.587059 Si / 1000 Ang^3
#
#
#
# Elastic Constant Matrix: (Units=GPa)
#
#
# Indices 1 2 3 4 5 6 
#
# 1 87.4919 24.5045 45.4134 0.0000 0.0000 0.0000
# 2 24.5045 67.4905 24.5496 0.0000 0.0000 0.0000
# 3 45.4134 24.5496 137.4324 0.0000 0.0000 0.0000
# 4 0.0000 0.0000 0.0000 14.8129 0.0000 0.0000
# 5 0.0000 0.0000 0.0000 0.0000 23.1721 0.0000
# 6 0.0000 0.0000 0.0000 0.0000 0.0000 7.0175
#
#
#
# Elastic Compliance Matrix: (Units=1/GPa)
#
#
# Indices 1 2 3 4 5 6 
#
# 1 0.014657 -0.003807 -0.004163 0.000000 0.000000 0.000000
# 2 -0.003807 0.016836 -0.001749 0.000000 0.000000 0.000000
# 3 -0.004163 -0.001749 0.008964 0.000000 0.000000 0.000000
# 4 0.000000 0.000000 0.000000 0.067509 0.000000 0.000000
# 5 0.000000 0.000000 0.000000 0.000000 0.043155 0.000000
# 6 0.000000 0.000000 0.000000 0.000000 0.000000 0.142501
#
#
# Mechanical properties :
#
#
# Convention : Reuss Voigt Hill
#
# Bulk Modulus (GPa) = 47.57939 53.48330 50.53135
# Shear Modulus (GPa) = 15.62172 22.19698 18.90935
#
# Velocity S-wave (km/s) = 2.90222 3.45949 3.19304
# Velocity P-wave (km/s) = 6.07324 6.69286 6.39056
#
# Compressibility (1/GPa) = 0.02101750
#
# Stress axis : x y z
#
# Youngs Moduli (GPa) = 68.22738 59.39811 111.55179
#
# Poissons Ratio (x) = 0.22615 0.46441
# Poissons Ratio (y) = 0.25976 0.19513
# Poissons Ratio (z) = 0.28404 0.10390
#
# Static dielectric constant tensor:
#      x y z
#    x 1.687840 0.000000 0.000000 
#    y 0.000000 1.876120 0.000000 
#    z 0.000000 0.000000 1.802260 
# 
# From -- ./inp_files/29707.got.cif
#   From: 2010.05.17/outbox.cif.g08.bks.cpg/sg52_15_cif.got.tgz:29707.got - 2010.06.03 12:15:38.
