data_PCOD9409372
_publ_section_title
;
Structure prediction by ZEFSAII (Michael W. Deem and Ramdas Pophale) SiO2 
 PCOD9409372
Probable space group: P N N A
;
_chemical_formula_sum "Si O2"
_cell_formula_units_Z 48
_cell_length_a 8.639990
_cell_length_b 18.089169
_cell_length_c 13.376213
_cell_angle_alpha 90.000000
_cell_angle_beta 90.000000
_cell_angle_gamma 90.000000
_cell_volume 2090.571530
_symmetry_space_group_name_H-M "P N N A"
_symmetry_group_IT_number 52
_symmetry_cell_setting 'orthorhombic'
loop_
_space_group_symop_operation_xyz
x,y,z
1/2-x,-y,z
x,1/2-y,1/2-z
1/2-x,1/2+y,1/2-z
-x,-y,-z
1/2+x,y,-z
-x,1/2+y,1/2+z
1/2+x,1/2-y,1/2+z
loop_
_atom_site_type_symbol
_atom_site_label
_atom_site_fract_x
_atom_site_fract_y
_atom_site_fract_z
Si Si1 0.215885 0.414819 0.354352
Si Si2 0.750000 0.500000 0.987266
Si Si3 0.420579 0.738717 0.868738
Si Si4 0.536402 0.393617 0.460546
Si Si5 0.664457 0.411149 0.161590
Si Si6 0.250000 0.500000 0.667018
Si Si7 0.836547 0.370399 0.838165
O O1 0.250000 0.500000 0.325369
O O2 0.358730 0.394517 0.427185
O O3 0.065488 0.404431 0.422026
O O4 0.219538 0.366886 0.253499
O O5 0.632905 0.467984 0.071080
O O6 0.786613 0.430281 0.918799
O O7 0.406376 0.750000 0.750000
O O8 0.397837 0.814019 0.926378
O O9 0.307948 0.668822 0.888046
O O10 0.594541 0.704935 0.883839
O O11 0.627986 0.459650 0.404450
O O12 0.782967 0.436792 0.247046
O O13 0.496082 0.402049 0.212098
#
# Coordination Sequence:
#
# PCOD9409372 Si02
#       7
#     8   4   8   8   8   4   8
#     4  12  24  40  64 100 132 170 226 275 330 400
#     4  11  20  37  66 100 118 171 230 291 322 404
#     4  10  19  41  61  86 128 175 216 261 344 400
#     4  12  24  40  66  98 133 180 221 274 336 408
#     4   9  21  36  61  92 123 168 222 275 334 401
#     4  11  18  35  64  90 122 169 224 267 328 386
#     4  10  21  39  64  90 131 171 218 278 340 389
#
# _framework density 22.960229000000002
#
# number of rings (size 3 to 8) (size 9 to 14) (size 15 to 20)
#    1.000    0.333    6.667    1.000    0.000    1.333 
#    0.000    0.000    0.000    0.000    4.333    0.000 
#    0.000    0.000    0.000    0.000    0.000    0.000 
#
# Total GULP energy -267213.820904 kJ/mol
# GULP energy per Si atom -5566.954602 kJ/mol
# Density = 2.290797 g / cm^3
# Si number density = 22.960229 Si / 1000 Ang^3
#
#
#
# Elastic Constant Matrix: (Units=GPa)
#
#
# Indices 1 2 3 4 5 6 
#
# 1 18.7594 11.6236 23.2860 0.0000 0.0000 0.0000
# 2 11.6236 106.6289 32.7152 0.0000 0.0000 0.0000
# 3 23.2860 32.7152 101.1532 0.0000 0.0000 0.0000
# 4 0.0000 0.0000 0.0000 31.0323 0.0000 0.0000
# 5 0.0000 0.0000 0.0000 0.0000 26.8252 0.0000
# 6 0.0000 0.0000 0.0000 0.0000 0.0000 32.8343
#
#
#
# Elastic Compliance Matrix: (Units=1/GPa)
#
#
# Indices 1 2 3 4 5 6 
#
# 1 0.075617 -0.003222 -0.016366 0.000000 0.000000 0.000000
# 2 -0.003222 0.010549 -0.002670 0.000000 0.000000 0.000000
# 3 -0.016366 -0.002670 0.014517 0.000000 0.000000 0.000000
# 4 0.000000 0.000000 0.000000 0.032225 0.000000 0.000000
# 5 0.000000 0.000000 0.000000 0.000000 0.037278 0.000000
# 6 0.000000 0.000000 0.000000 0.000000 0.000000 0.030456
#
#
# Mechanical properties :
#
#
# Convention : Reuss Voigt Hill
#
# Bulk Modulus (GPa) = 17.80366 40.19902 29.00134
# Shear Modulus (GPa) = 18.94806 28.73279 23.84043
#
# Velocity S-wave (km/s) = 2.87584 3.54137 3.22582
# Velocity P-wave (km/s) = 4.33570 5.85388 5.15103
#
# Compressibility (1/GPa) = 0.05616823
#
# Stress axis : x y z
#
# Youngs Moduli (GPa) = 13.22450 94.79821 68.88492
#
# Poissons Ratio (x) = 0.30542 1.12734
# Poissons Ratio (y) = 0.04261 0.18392
# Poissons Ratio (z) = 0.21643 0.25311
#
# Static dielectric constant tensor:
#      x y z
#    x 1.941780 0.000000 0.000000 
#    y 0.000000 1.971360 0.000000 
#    z 0.000000 0.000000 1.853310 
# 
# From -- ./inp_files/39569.got.cif
#   From: 2010.05.17/outbox.cif.g08.bks.cpg/sg52_20_cif.got.tgz:39569.got - 2010.06.03 12:15:38.
