data_PCOD9409324
_publ_section_title
;
Structure prediction by ZEFSAII (Michael W. Deem and Ramdas Pophale) SiO2 
 PCOD9409324
Probable space group: P N N A
;
_chemical_formula_sum "Si O2"
_cell_formula_units_Z 44
_cell_length_a 17.905806
_cell_length_b 14.816532
_cell_length_c 7.915358
_cell_angle_alpha 90.000000
_cell_angle_beta 90.000000
_cell_angle_gamma 90.000000
_cell_volume 2099.959893
_symmetry_space_group_name_H-M "P N N A"
_symmetry_group_IT_number 52
_symmetry_cell_setting 'orthorhombic'
loop_
_space_group_symop_operation_xyz
x,y,z
1/2-x,-y,z
x,1/2-y,1/2-z
1/2-x,1/2+y,1/2-z
-x,-y,-z
1/2+x,y,-z
-x,1/2+y,1/2+z
1/2+x,1/2-y,1/2+z
loop_
_atom_site_type_symbol
_atom_site_label
_atom_site_fract_x
_atom_site_fract_y
_atom_site_fract_z
Si Si1 0.608877 0.917724 0.973490
Si Si2 0.845175 0.750000 0.750000
Si Si3 0.470671 0.975097 0.767187
Si Si4 0.537971 0.135116 0.560963
Si Si5 0.728606 0.595413 0.812941
Si Si6 0.884683 0.275480 0.950593
O O1 0.528756 0.916090 0.876203
O O2 0.672052 0.934741 0.835725
O O3 0.625903 0.818721 0.044718
O O4 0.596245 0.990847 0.116660
O O5 0.902183 0.788688 0.608593
O O6 0.790802 0.662532 0.732596
O O7 0.441704 0.923386 0.603406
O O8 0.520028 0.062070 0.707675
O O9 0.459053 0.179340 0.516397
O O10 0.750000 0.500000 0.892039
O O11 0.683911 0.656093 0.947400
O O12 0.891572 0.250000 0.750000
#
# Coordination Sequence:
#
# PCOD9409324 Si02
#       6
#     8   4   8   8   8   8
#     4  10  19  40  64  93 126 182 215 274 341 410
#     4  12  24  38  66 104 132 176 228 286 348 408
#     4  10  21  36  68 100 130 167 229 280 332 394
#     4  11  22  38  62 107 127 165 230 289 327 403
#     4  11  22  40  64  92 132 184 224 273 345 424
#     4  10  19  39  64  90 127 177 218 269 340 408
#
# _framework density 20.952781000000002
#
# number of rings (size 3 to 8) (size 9 to 14) (size 15 to 20)
#    0.000    1.455    6.364    2.182    2.545    1.455 
#    0.000    0.000    4.000    2.182    0.000    0.000 
#    0.000    0.000    0.000    0.000    0.000    0.000 
#
# Total GULP energy -245441.362455 kJ/mol
# GULP energy per Si atom -5578.212783 kJ/mol
# Density = 2.090509 g / cm^3
# Si number density = 20.952781 Si / 1000 Ang^3
#
#
#
# Elastic Constant Matrix: (Units=GPa)
#
#
# Indices 1 2 3 4 5 6 
#
# 1 85.0251 51.2063 18.6494 0.0000 0.0000 0.0000
# 2 51.2063 111.5904 3.4431 0.0000 0.0000 0.0000
# 3 18.6494 3.4431 34.8208 0.0000 0.0000 0.0000
# 4 0.0000 0.0000 0.0000 17.9694 0.0000 0.0000
# 5 0.0000 0.0000 0.0000 0.0000 14.1891 0.0000
# 6 0.0000 0.0000 0.0000 0.0000 0.0000 48.3600
#
#
#
# Elastic Compliance Matrix: (Units=1/GPa)
#
#
# Indices 1 2 3 4 5 6 
#
# 1 0.018820 -0.008351 -0.009254 0.000000 0.000000 0.000000
# 2 -0.008351 0.012694 0.003217 0.000000 0.000000 0.000000
# 3 -0.009254 0.003217 0.033357 0.000000 0.000000 0.000000
# 4 0.000000 0.000000 0.000000 0.055650 0.000000 0.000000
# 5 0.000000 0.000000 0.000000 0.000000 0.070477 0.000000
# 6 0.000000 0.000000 0.000000 0.000000 0.000000 0.020678
#
#
# Mechanical properties :
#
#
# Convention : Reuss Voigt Hill
#
# Bulk Modulus (GPa) = 27.70388 42.00376 34.85382
# Shear Modulus (GPa) = 19.80334 26.64620 23.22477
#
# Velocity S-wave (km/s) = 3.07765 3.57000 3.33293
# Velocity P-wave (km/s) = 5.08724 6.08963 5.61086
#
# Compressibility (1/GPa) = 0.03609602
#
# Stress axis : x y z
#
# Youngs Moduli (GPa) = 53.13453 78.77754 29.97901
#
# Poissons Ratio (x) = 0.65784 0.27743
# Poissons Ratio (y) = 0.44371 -0.09645
# Poissons Ratio (z) = 0.49171 -0.25345
#
# Static dielectric constant tensor:
#      x y z
#    x 1.778630 0.000000 0.000000 
#    y 0.000000 1.901220 0.000000 
#    z 0.000000 0.000000 1.766080 
# 
# From -- ./inp_files/11985.got.cif
#   From: 2010.05.17/outbox.cif.g08.bks.cpg/sg52_6_cif.got.tgz:11985.got - 2010.06.03 12:15:38.
