data_PCOD9409605
_publ_section_title
;
Structure prediction by ZEFSAII (Michael W. Deem and Ramdas Pophale) SiO2 
 PCOD9409605
Probable space group: P N N A
;
_chemical_formula_sum "Si O2"
_cell_formula_units_Z 40
_cell_length_a 21.651841
_cell_length_b 17.951806
_cell_length_c 4.890906
_cell_angle_alpha 90.000000
_cell_angle_beta 90.000000
_cell_angle_gamma 90.000000
_cell_volume 1901.044537
_symmetry_space_group_name_H-M "P N N A"
_symmetry_group_IT_number 52
_symmetry_cell_setting 'orthorhombic'
loop_
_space_group_symop_operation_xyz
x,y,z
1/2-x,-y,z
x,1/2-y,1/2-z
1/2-x,1/2+y,1/2-z
-x,-y,-z
1/2+x,y,-z
-x,1/2+y,1/2+z
1/2+x,1/2-y,1/2+z
loop_
_atom_site_type_symbol
_atom_site_label
_atom_site_fract_x
_atom_site_fract_y
_atom_site_fract_z
Si Si1 0.212025 0.077201 0.768123
Si Si2 0.505196 0.580358 0.347494
Si Si3 0.868974 0.935881 0.735879
Si Si4 0.699110 0.699330 0.998429
Si Si5 0.412990 0.099064 0.308624
O O1 0.152411 0.068801 0.575214
O O2 0.253364 0.141095 0.633298
O O3 0.250000 0.000000 0.767774
O O4 0.185654 0.092424 0.069015
O O5 0.500000 0.500000 0.500000
O O6 0.434896 0.602441 0.285511
O O7 0.542776 0.628124 0.568085
O O8 0.544925 0.577501 0.070214
O O9 0.879153 0.023765 0.794830
O O10 0.724432 0.750000 0.750000
O O11 0.640285 0.655465 0.885640
O O12 0.678684 0.750000 0.250000
#
# Coordination Sequence:
#
# PCOD9409605 Si02
#       5
#     8   8   8   8   8
#     4  12  24  39  66  93 131 169 220 272 319 385
#     4  10  20  34  62  96 129 156 200 261 334 381
#     4  11  21  37  64  98 128 160 208 276 328 369
#     4  12  27  44  64  92 133 180 219 266 332 402
#     4  11  21  39  63  93 130 164 209 271 324 388
#
# _framework density 21.041063999999999
#
# number of rings (size 3 to 8) (size 9 to 14) (size 15 to 20)
#    0.000    0.800    2.000    9.000    2.800    0.000 
#    0.000    0.000    0.000   24.000    0.000    0.000 
#    0.000    0.000    0.000    0.000    0.000    0.000 
#
# Total GULP energy -223640.627066 kJ/mol
# GULP energy per Si atom -5591.015677 kJ/mol
# Density = 2.099317 g / cm^3
# Si number density = 21.041064 Si / 1000 Ang^3
#
#
#
# Elastic Constant Matrix: (Units=GPa)
#
#
# Indices 1 2 3 4 5 6 
#
# 1 101.2381 35.1678 25.4742 0.0000 0.0000 0.0000
# 2 35.1678 57.8687 12.2079 0.0000 0.0000 0.0000
# 3 25.4742 12.2079 105.7682 0.0000 0.0000 0.0000
# 4 0.0000 0.0000 0.0000 22.0490 0.0000 0.0000
# 5 0.0000 0.0000 0.0000 0.0000 47.7359 0.0000
# 6 0.0000 0.0000 0.0000 0.0000 0.0000 11.6074
#
#
#
# Elastic Compliance Matrix: (Units=1/GPa)
#
#
# Indices 1 2 3 4 5 6 
#
# 1 0.013037 -0.007441 -0.002281 0.000000 0.000000 0.000000
# 2 -0.007441 0.021959 -0.000742 0.000000 0.000000 0.000000
# 3 -0.002281 -0.000742 0.010090 0.000000 0.000000 0.000000
# 4 0.000000 0.000000 0.000000 0.045354 0.000000 0.000000
# 5 0.000000 0.000000 0.000000 0.000000 0.020949 0.000000
# 6 0.000000 0.000000 0.000000 0.000000 0.000000 0.086152
#
#
# Mechanical properties :
#
#
# Convention : Reuss Voigt Hill
#
# Bulk Modulus (GPa) = 41.39703 45.61940 43.50821
# Shear Modulus (GPa) = 22.07299 29.08013 25.57656
#
# Velocity S-wave (km/s) = 3.24241 3.72165 3.49026
# Velocity P-wave (km/s) = 5.80816 6.34001 6.07990
#
# Compressibility (1/GPa) = 0.02415632
#
# Stress axis : x y z
#
# Youngs Moduli (GPa) = 76.70699 45.53869 99.11111
#
# Poissons Ratio (x) = 0.33887 0.22607
# Poissons Ratio (y) = 0.57081 0.07357
# Poissons Ratio (z) = 0.17497 0.03380
#
# Static dielectric constant tensor:
#      x y z
#    x 1.800520 0.000000 0.000000 
#    y 0.000000 1.785550 0.000000 
#    z 0.000000 0.000000 1.762430 
# 
# From -- ./inp_files/3165.got.cif
#   From: 2010.05.17/outbox.cif.g08.bks.cpg/sg52_2_cif.got.tgz:3165.got - 2010.06.03 12:15:38.
