data_PCOD9409466
_publ_section_title
;
Structure prediction by ZEFSAII (Michael W. Deem and Ramdas Pophale) SiO2 
 PCOD9409466
Probable space group: P N N A
;
_chemical_formula_sum "Si O2"
_cell_formula_units_Z 64
_cell_length_a 27.260816
_cell_length_b 8.725147
_cell_length_c 15.137518
_cell_angle_alpha 90.000000
_cell_angle_beta 90.000000
_cell_angle_gamma 90.000000
_cell_volume 3600.528697
_symmetry_space_group_name_H-M "P N N A"
_symmetry_group_IT_number 52
_symmetry_cell_setting 'orthorhombic'
loop_
_space_group_symop_operation_xyz
x,y,z
1/2-x,-y,z
x,1/2-y,1/2-z
1/2-x,1/2+y,1/2-z
-x,-y,-z
1/2+x,y,-z
-x,1/2+y,1/2+z
1/2+x,1/2-y,1/2+z
loop_
_atom_site_type_symbol
_atom_site_label
_atom_site_fract_x
_atom_site_fract_y
_atom_site_fract_z
Si Si1 0.814987 0.333740 0.655325
Si Si2 0.872919 0.851724 0.517504
Si Si3 0.585920 0.224680 0.148571
Si Si4 0.455512 0.706014 0.159670
Si Si5 0.485592 0.361815 0.165560
Si Si6 0.101863 0.701921 0.030028
Si Si7 0.034804 0.925610 0.922451
Si Si8 0.199663 0.305370 0.349533
O O1 0.825454 0.250000 0.750000
O O2 0.853170 0.272815 0.584001
O O3 0.818327 0.518290 0.652881
O O4 0.758141 0.299133 0.633951
O O5 0.874063 0.761572 0.425241
O O6 0.919749 0.801660 0.576470
O O7 0.827881 0.799874 0.579111
O O8 0.880129 0.033017 0.501141
O O9 0.601023 0.250000 0.250000
O O10 0.540250 0.338665 0.129700
O O11 0.561056 0.060194 0.131950
O O12 0.428159 0.750000 0.250000
O O13 0.477196 0.539785 0.180521
O O14 0.498308 0.823976 0.136128
O O15 0.481272 0.250000 0.250000
O O16 0.443752 0.317007 0.096983
O O17 0.078047 0.816418 0.959157
O O18 0.000000 0.000000 0.000000
O O19 0.191955 0.250000 0.250000
#
# Coordination Sequence:
#
# PCOD9409466 Si02
#       8
#     8   8   8   8   8   8   8   8
#     4  10  21  36  56  86 118 153 192 234 288 355
#     4  11  22  37  55  83 113 151 193 240 284 352
#     4  11  22  37  57  78 111 151 191 237 289 341
#     4  11  22  33  53  81 111 149 191 233 283 339
#     4  10  20  33  49  75 112 148 188 230 277 335
#     4  11  22  34  55  79 111 151 193 233 286 338
#     4  12  22  37  55  79 113 154 193 242 283 341
#     4  10  21  37  58  84 120 153 188 237 293 348
#
# _framework density 17.775167
#
# number of rings (size 3 to 8) (size 9 to 14) (size 15 to 20)
#    0.000    1.250    2.500    4.500    0.000    5.500 
#    0.000    0.000    0.000    0.000    0.000    7.875 
#    0.000    0.000    0.000    0.000    0.000    0.000 
#
# Total GULP energy -357249.140047 kJ/mol
# GULP energy per Si atom -5582.017813 kJ/mol
# Density = 1.773471 g / cm^3
# Si number density = 17.775167 Si / 1000 Ang^3
#
#
#
# Elastic Constant Matrix: (Units=GPa)
#
#
# Indices 1 2 3 4 5 6 
#
# 1 49.2191 14.8606 28.7963 0.0000 0.0000 0.0000
# 2 14.8606 57.8204 38.5386 0.0000 0.0000 0.0000
# 3 28.7963 38.5386 100.5884 0.0000 0.0000 0.0000
# 4 0.0000 0.0000 0.0000 31.1706 0.0000 0.0000
# 5 0.0000 0.0000 0.0000 0.0000 28.8095 0.0000
# 6 0.0000 0.0000 0.0000 0.0000 0.0000 17.3465
#
#
#
# Elastic Compliance Matrix: (Units=1/GPa)
#
#
# Indices 1 2 3 4 5 6 
#
# 1 0.024609 -0.002188 -0.006207 0.000000 0.000000 0.000000
# 2 -0.002188 0.023421 -0.008347 0.000000 0.000000 0.000000
# 3 -0.006207 -0.008347 0.014916 0.000000 0.000000 0.000000
# 4 0.000000 0.000000 0.000000 0.032082 0.000000 0.000000
# 5 0.000000 0.000000 0.000000 0.000000 0.034711 0.000000
# 6 0.000000 0.000000 0.000000 0.000000 0.000000 0.057649
#
#
# Mechanical properties :
#
#
# Convention : Reuss Voigt Hill
#
# Bulk Modulus (GPa) = 33.94082 41.33544 37.63813
# Shear Modulus (GPa) = 21.67397 23.82745 22.75071
#
# Velocity S-wave (km/s) = 3.49569 3.66524 3.58147
# Velocity P-wave (km/s) = 5.95224 6.42005 6.19057
#
# Compressibility (1/GPa) = 0.02946305
#
# Stress axis : x y z
#
# Youngs Moduli (GPa) = 40.63504 42.69748 67.04062
#
# Poissons Ratio (x) = 0.09342 0.41611
# Poissons Ratio (y) = 0.08891 0.55958
# Poissons Ratio (z) = 0.25222 0.35639
#
# Static dielectric constant tensor:
#      x y z
#    x 1.586070 0.000000 0.000000 
#    y 0.000000 1.616340 0.000000 
#    z 0.000000 0.000000 1.623690 
# 
# From -- ./inp_files/29225.got.cif
#   From: 2010.05.17/outbox.cif.g08.bks.cpg/sg52_15_cif.got.tgz:29225.got - 2010.06.03 12:15:38.
