data_PCOD9409598
_publ_section_title
;
Structure prediction by ZEFSAII (Michael W. Deem and Ramdas Pophale) SiO2 
 PCOD9409598
Probable space group: P N N A
;
_chemical_formula_sum "Si O2"
_cell_formula_units_Z 40
_cell_length_a 14.882756
_cell_length_b 9.767448
_cell_length_c 12.029962
_cell_angle_alpha 90.000000
_cell_angle_beta 90.000000
_cell_angle_gamma 90.000000
_cell_volume 1748.754016
_symmetry_space_group_name_H-M "P N N A"
_symmetry_group_IT_number 52
_symmetry_cell_setting 'orthorhombic'
loop_
_space_group_symop_operation_xyz
x,y,z
1/2-x,-y,z
x,1/2-y,1/2-z
1/2-x,1/2+y,1/2-z
-x,-y,-z
1/2+x,y,-z
-x,1/2+y,1/2+z
1/2+x,1/2-y,1/2+z
loop_
_atom_site_type_symbol
_atom_site_label
_atom_site_fract_x
_atom_site_fract_y
_atom_site_fract_z
Si Si1 0.635646 0.360031 0.161645
Si Si2 0.629421 0.621080 0.535650
Si Si3 0.371145 0.750000 0.250000
Si Si4 0.075200 0.336789 0.489781
Si Si5 0.346367 0.339322 0.848320
Si Si6 0.250000 0.500000 0.273935
O O1 0.597547 0.250000 0.250000
O O2 0.603689 0.515769 0.155839
O O3 0.742193 0.363806 0.180380
O O4 0.617750 0.295085 0.043247
O O5 0.522025 0.639087 0.543979
O O6 0.635330 0.469754 0.479681
O O7 0.655657 0.749626 0.460394
O O8 0.685572 0.594519 0.647015
O O9 0.423804 0.690496 0.357494
O O10 0.310462 0.616486 0.214859
O O11 0.386396 0.250000 0.750000
#
# Coordination Sequence:
#
# PCOD9409598 Si02
#       6
#     8   8   4   8   8   4
#     4  10  21  38  58  90 127 162 210 266 313 379
#     4  10  21  39  62  89 121 167 216 261 320 382
#     4  10  22  40  64  92 130 174 218 268 326 394
#     4  10  22  39  61  91 129 165 209 269 327 378
#     4  10  20  34  61  87 117 164 212 259 319 377
#     4  10  22  42  64  90 126 178 218 266 324 402
#
# _framework density 22.873429000000002
#
# number of rings (size 3 to 8) (size 9 to 14) (size 15 to 20)
#    0.000    2.000    0.000    3.600    1.400    7.200 
#    5.400    0.000    0.000    0.000    0.000    0.000 
#    0.000    0.000    0.000    0.000    0.000    0.000 
#
# Total GULP energy -222927.738239 kJ/mol
# GULP energy per Si atom -5573.193456 kJ/mol
# Density = 2.282137 g / cm^3
# Si number density = 22.873429 Si / 1000 Ang^3
#
#
#
# Elastic Constant Matrix: (Units=GPa)
#
#
# Indices 1 2 3 4 5 6 
#
# 1 52.0926 11.6640 13.7065 0.0000 0.0000 0.0000
# 2 11.6640 184.6496 43.2941 0.0000 0.0000 0.0000
# 3 13.7065 43.2941 64.5654 0.0000 0.0000 0.0000
# 4 0.0000 0.0000 0.0000 -13.4831 0.0000 0.0000
# 5 0.0000 0.0000 0.0000 0.0000 4.7232 0.0000
# 6 0.0000 0.0000 0.0000 0.0000 0.0000 13.3323
#
#
#
# Elastic Compliance Matrix: (Units=1/GPa)
#
#
# Indices 1 2 3 4 5 6 
#
# 1 0.020349 -0.000323 -0.004103 0.000000 0.000000 0.000000
# 2 -0.000323 0.006431 -0.004244 0.000000 0.000000 0.000000
# 3 -0.004103 -0.004244 0.019205 0.000000 0.000000 0.000000
# 4 0.000000 0.000000 0.000000 -0.074167 0.000000 0.000000
# 5 0.000000 0.000000 0.000000 0.000000 0.211719 0.000000
# 6 0.000000 0.000000 0.000000 0.000000 0.000000 0.075006
#
#
# Mechanical properties :
#
#
# Convention : Reuss Voigt Hill
#
# Bulk Modulus (GPa) = 34.91080 48.73740 41.82410
# Shear Modulus (GPa) = 17.51740 16.42402 16.97071
#
# Velocity S-wave (km/s) = 2.77038 2.68253 2.72681
# Velocity P-wave (km/s) = 5.05263 5.56312 5.31401
#
# Compressibility (1/GPa) = 0.02864443
#
# Stress axis : x y z
#
# Youngs Moduli (GPa) = 49.14355 155.49448 52.07037
#
# Poissons Ratio (x) = 0.05028 0.21364
# Poissons Ratio (y) = 0.01589 0.22097
# Poissons Ratio (z) = 0.20163 0.65987
#
# Static dielectric constant tensor:
#      x y z
#    x 1.898560 0.000000 0.000000 
#    y 0.000000 1.912580 0.000000 
#    z 0.000000 0.000000 1.853750 
# 
# From -- ./inp_files/20343.got.cif
#   From: 2010.05.17/outbox.cif.g08.bks.cpg/sg52_11_cif.got.tgz:20343.got - 2010.06.03 12:15:38.
