data_PCOD9409786
_publ_section_title
;
Structure prediction by ZEFSAII (Michael W. Deem and Ramdas Pophale) SiO2 
 PCOD9409786
Probable space group: P N N A
;
_chemical_formula_sum "Si O2"
_cell_formula_units_Z 52
_cell_length_a 27.329167
_cell_length_b 8.242346
_cell_length_c 11.559675
_cell_angle_alpha 90.000000
_cell_angle_beta 90.000000
_cell_angle_gamma 90.000000
_cell_volume 2603.891357
_symmetry_space_group_name_H-M "P N N A"
_symmetry_group_IT_number 52
_symmetry_cell_setting 'orthorhombic'
loop_
_space_group_symop_operation_xyz
x,y,z
1/2-x,-y,z
x,1/2-y,1/2-z
1/2-x,1/2+y,1/2-z
-x,-y,-z
1/2+x,y,-z
-x,1/2+y,1/2+z
1/2+x,1/2-y,1/2+z
loop_
_atom_site_type_symbol
_atom_site_label
_atom_site_fract_x
_atom_site_fract_y
_atom_site_fract_z
Si Si1 0.041386 0.517207 0.140124
Si Si2 0.442974 0.662980 0.916353
Si Si3 0.701745 0.699088 0.602334
Si Si4 0.888425 0.250000 0.750000
Si Si5 0.702224 0.897465 0.161723
Si Si6 0.905783 0.981292 0.173129
Si Si7 0.529039 0.750000 0.250000
Si Si8 0.750000 0.000000 0.720975
O O1 0.076973 0.594841 0.233898
O O2 0.001773 0.651762 0.099349
O O3 0.006675 0.376832 0.189128
O O4 0.068620 0.441164 0.029760
O O5 0.425391 0.847571 0.916018
O O6 0.418929 0.583616 0.802106
O O7 0.647423 0.752919 0.638983
O O8 0.708370 0.664297 0.469297
O O9 0.708068 0.538279 0.683241
O O10 0.740649 0.839958 0.642491
O O11 0.696688 0.750000 0.250000
O O12 0.750000 0.000000 0.193559
O O13 0.651894 0.997188 0.163844
O O14 0.935211 0.150033 0.164809
#
# Coordination Sequence:
#
# PCOD9409786 Si02
#       8
#     8   8   8   4   8   8   4   4
#     4  10  20  37  61  97 125 167 223 261 325 381
#     4   9  21  38  64  84 128 180 210 265 319 393
#     4  10  22  44  68  93 126 169 211 269 334 382
#     4  10  22  38  64  95 129 170 214 268 316 402
#     4  12  28  44  66  99 130 168 220 278 328 402
#     4  10  21  42  59  87 128 170 213 263 329 392
#     4  10  20  36  60  87 129 168 210 270 318 384
#     4   8  18  44  68  88 120 164 208 258 324 390
#
# _framework density 19.970110999999999
#
# number of rings (size 3 to 8) (size 9 to 14) (size 15 to 20)
#    0.000    2.154    1.538    1.846    5.385    3.077 
#    5.538    6.154    0.000    0.000    0.000    0.000 
#    0.000    0.000    0.000    0.000    0.000    0.000 
#
# Total GULP energy -289646.383720 kJ/mol
# GULP energy per Si atom -5570.122764 kJ/mol
# Density = 1.992466 g / cm^3
# Si number density = 19.970111 Si / 1000 Ang^3
#
#
#
# Elastic Constant Matrix: (Units=GPa)
#
#
# Indices 1 2 3 4 5 6 
#
# 1 96.6319 68.5335 17.4557 0.0000 0.0000 0.0000
# 2 68.5335 105.6688 22.9624 0.0000 0.0000 0.0000
# 3 17.4557 22.9624 67.0609 0.0000 0.0000 0.0000
# 4 0.0000 0.0000 0.0000 24.5215 0.0000 0.0000
# 5 0.0000 0.0000 0.0000 0.0000 16.3164 0.0000
# 6 0.0000 0.0000 0.0000 0.0000 0.0000 20.1698
#
#
#
# Elastic Compliance Matrix: (Units=1/GPa)
#
#
# Indices 1 2 3 4 5 6 
#
# 1 0.019202 -0.012282 -0.000793 0.000000 0.000000 0.000000
# 2 -0.012282 0.018080 -0.002994 0.000000 0.000000 0.000000
# 3 -0.000793 -0.002994 0.016143 0.000000 0.000000 0.000000
# 4 0.000000 0.000000 0.000000 0.040780 0.000000 0.000000
# 5 0.000000 0.000000 0.000000 0.000000 0.061288 0.000000
# 6 0.000000 0.000000 0.000000 0.000000 0.000000 0.049579
#
#
# Mechanical properties :
#
#
# Convention : Reuss Voigt Hill
#
# Bulk Modulus (GPa) = 46.97385 54.14055 50.55720
# Shear Modulus (GPa) = 20.46620 22.89556 21.68088
#
# Velocity S-wave (km/s) = 3.20479 3.38966 3.29852
# Velocity P-wave (km/s) = 6.10470 6.51839 6.31493
#
# Compressibility (1/GPa) = 0.02128844
#
# Stress axis : x y z
#
# Youngs Moduli (GPa) = 52.07748 55.31107 61.94520
#
# Poissons Ratio (x) = 0.67931 0.04912
# Poissons Ratio (y) = 0.63960 0.18545
# Poissons Ratio (z) = 0.04129 0.16559
#
# Static dielectric constant tensor:
#      x y z
#    x 1.714000 0.000000 0.000000 
#    y 0.000000 1.777810 0.000000 
#    z 0.000000 0.000000 1.726370 
# 
# From -- ./inp_files/22858.got.cif
#   From: 2010.05.17/outbox.cif.g08.bks.cpg/sg52_12_cif.got.tgz:22858.got - 2010.06.03 12:15:38.
