data_PCOD9409982
_publ_section_title
;
Structure prediction by ZEFSAII (Michael W. Deem and Ramdas Pophale) SiO2 
 PCOD9409982
Probable space group: P N N A
;
_chemical_formula_sum "Si O2"
_cell_formula_units_Z 40
_cell_length_a 14.445110
_cell_length_b 15.565995
_cell_length_c 7.610910
_cell_angle_alpha 90.000000
_cell_angle_beta 90.000000
_cell_angle_gamma 90.000000
_cell_volume 1711.332217
_symmetry_space_group_name_H-M "P N N A"
_symmetry_group_IT_number 52
_symmetry_cell_setting 'orthorhombic'
loop_
_space_group_symop_operation_xyz
x,y,z
1/2-x,-y,z
x,1/2-y,1/2-z
1/2-x,1/2+y,1/2-z
-x,-y,-z
1/2+x,y,-z
-x,1/2+y,1/2+z
1/2+x,1/2-y,1/2+z
loop_
_atom_site_type_symbol
_atom_site_label
_atom_site_fract_x
_atom_site_fract_y
_atom_site_fract_z
Si Si1 0.525781 0.907130 0.559042
Si Si2 0.029752 0.883964 0.024380
Si Si3 0.151319 0.462328 0.593467
Si Si4 0.340044 0.225026 0.548643
Si Si5 0.650891 0.177562 0.392569
O O1 0.535030 0.906704 0.769117
O O2 0.616503 0.867653 0.477291
O O3 0.440493 0.846611 0.504020
O O4 0.500000 0.000000 0.500000
O O5 0.919264 0.897274 0.987532
O O6 0.086811 0.794991 0.019059
O O7 0.086663 0.952364 0.907110
O O8 0.250000 0.500000 0.525874
O O9 0.173077 0.408140 0.772546
O O10 0.328020 0.250000 0.750000
O O11 0.234042 0.214291 0.490185
O O12 0.625529 0.250000 0.250000
#
# Coordination Sequence:
#
# PCOD9409982 Si02
#       5
#     8   8   8   8   8
#     4  11  25  43  67 100 139 181 228 301 359 416
#     4  10  23  42  67  99 139 179 237 297 348 424
#     4  10  20  37  71  95 132 178 235 282 352 415
#     4  11  24  42  70  98 133 189 234 282 345 437
#     4  10  22  41  69  94 132 184 232 282 343 427
#
# _framework density 23.373602999999999
#
# number of rings (size 3 to 8) (size 9 to 14) (size 15 to 20)
#    0.000    1.600    0.000    5.400   14.000    0.000 
#    3.600    2.000    0.000    0.000    0.000    0.000 
#    0.000    0.000    0.000    0.000    0.000    0.000 
#
# Total GULP energy -222912.031053 kJ/mol
# GULP energy per Si atom -5572.800776 kJ/mol
# Density = 2.332040 g / cm^3
# Si number density = 23.373603 Si / 1000 Ang^3
#
#
#
# Elastic Constant Matrix: (Units=GPa)
#
#
# Indices 1 2 3 4 5 6 
#
# 1 152.6892 22.6635 1.2383 0.0000 0.0000 0.0000
# 2 22.6635 93.4832 3.9943 0.0000 0.0000 0.0000
# 3 1.2383 3.9943 36.3042 0.0000 0.0000 0.0000
# 4 0.0000 0.0000 0.0000 41.3569 0.0000 0.0000
# 5 0.0000 0.0000 0.0000 0.0000 19.4512 0.0000
# 6 0.0000 0.0000 0.0000 0.0000 0.0000 22.6670
#
#
#
# Elastic Compliance Matrix: (Units=1/GPa)
#
#
# Indices 1 2 3 4 5 6 
#
# 1 0.006794 -0.001645 -0.000051 0.000000 0.000000 0.000000
# 2 -0.001645 0.011146 -0.001170 0.000000 0.000000 0.000000
# 3 -0.000051 -0.001170 0.027675 0.000000 0.000000 0.000000
# 4 0.000000 0.000000 0.000000 0.024180 0.000000 0.000000
# 5 0.000000 0.000000 0.000000 0.000000 0.051411 0.000000
# 6 0.000000 0.000000 0.000000 0.000000 0.000000 0.044117
#
#
# Mechanical properties :
#
#
# Convention : Reuss Voigt Hill
#
# Bulk Modulus (GPa) = 25.07302 37.58543 31.32922
# Shear Modulus (GPa) = 27.12249 33.66706 30.39478
#
# Velocity S-wave (km/s) = 3.41015 3.79936 3.61000
# Velocity P-wave (km/s) = 5.12404 5.94660 5.55058
#
# Compressibility (1/GPa) = 0.03988351
#
# Stress axis : x y z
#
# Youngs Moduli (GPa) = 147.19277 89.71920 36.13305
#
# Poissons Ratio (x) = 0.14758 0.00183
# Poissons Ratio (y) = 0.24212 0.04228
# Poissons Ratio (z) = 0.00747 0.10499
#
# Static dielectric constant tensor:
#      x y z
#    x 1.980130 0.000000 0.000000 
#    y 0.000000 1.996620 0.000000 
#    z 0.000000 0.000000 1.936490 
# 
# From -- ./inp_files/10065.got.cif
#   From: 2010.05.17/outbox.cif.g08.bks.cpg/sg52_6_cif.got.tgz:10065.got - 2010.06.03 12:15:38.
