data_PCOD9409396
_publ_section_title
;
Structure prediction by ZEFSAII (Michael W. Deem and Ramdas Pophale) SiO2 
 PCOD9409396
Probable space group: P N N A
;
_chemical_formula_sum "Si O2"
_cell_formula_units_Z 60
_cell_length_a 9.988505
_cell_length_b 16.477296
_cell_length_c 20.735348
_cell_angle_alpha 90.000000
_cell_angle_beta 90.000000
_cell_angle_gamma 90.000000
_cell_volume 3412.697257
_symmetry_space_group_name_H-M "P N N A"
_symmetry_group_IT_number 52
_symmetry_cell_setting 'orthorhombic'
loop_
_space_group_symop_operation_xyz
x,y,z
1/2-x,-y,z
x,1/2-y,1/2-z
1/2-x,1/2+y,1/2-z
-x,-y,-z
1/2+x,y,-z
-x,1/2+y,1/2+z
1/2+x,1/2-y,1/2+z
loop_
_atom_site_type_symbol
_atom_site_label
_atom_site_fract_x
_atom_site_fract_y
_atom_site_fract_z
Si Si1 0.905483 0.342095 0.167924
Si Si2 0.807276 0.778554 0.116923
Si Si3 0.296200 0.908628 0.773333
Si Si4 0.250000 0.000000 0.436845
Si Si5 0.300143 0.838283 0.357596
Si Si6 0.358518 0.786797 0.491383
Si Si7 0.115406 0.895790 0.532818
Si Si8 0.992334 0.321958 0.801677
O O1 0.834668 0.263191 0.135749
O O2 0.818031 0.365690 0.229421
O O3 0.897416 0.408455 0.109534
O O4 0.062182 0.330267 0.181584
O O5 0.816781 0.858288 0.160851
O O6 0.838015 0.786931 0.041017
O O7 0.918259 0.712343 0.139846
O O8 0.431413 0.898032 0.730503
O O9 0.250000 0.000000 0.784051
O O10 0.295606 0.925799 0.392663
O O11 0.130658 0.969909 0.483480
O O12 0.160869 0.832406 0.320783
O O13 0.311723 0.775337 0.417598
O O14 0.257837 0.852663 0.521559
O O15 0.502272 0.830591 0.487195
O O16 0.002070 0.250000 0.750000
#
# Coordination Sequence:
#
# PCOD9409396 Si02
#       8
#     8   8   8   4   8   8   8   8
#     4   9  19  31  47  71 102 135 170 205 249 299
#     4   9  17  35  53  69  98 133 174 219 243 292
#     4  10  21  34  52  75  99 135 177 211 258 292
#     4  10  20  28  42  70 112 134 164 198 240 314
#     4  10  20  31  49  78 104 133 168 202 262 305
#     4   9  17  31  48  71  97 130 169 205 240 300
#     4   9  18  29  43  69 100 137 165 195 247 296
#     4   9  19  35  54  72  98 135 174 211 247 308
#
# _framework density 17.581399999999999
#
# number of rings (size 3 to 8) (size 9 to 14) (size 15 to 20)
#    0.000    2.667    0.000    2.800    2.800    5.867 
#    0.000    0.000    0.000    0.000    0.000   23.333 
#    0.000    0.000    0.000    0.000    0.000    0.000 
#
# Total GULP energy -334042.066911 kJ/mol
# GULP energy per Si atom -5567.367782 kJ/mol
# Density = 1.754138 g / cm^3
# Si number density = 17.581400 Si / 1000 Ang^3
#
#
#
# Elastic Constant Matrix: (Units=GPa)
#
#
# Indices 1 2 3 4 5 6 
#
# 1 120.6179 2.4006 19.6780 0.0000 0.0000 0.0000
# 2 2.4006 30.4556 10.4991 0.0000 0.0000 0.0000
# 3 19.6780 10.4991 60.1987 0.0000 0.0000 0.0000
# 4 0.0000 0.0000 0.0000 14.2239 0.0000 0.0000
# 5 0.0000 0.0000 0.0000 0.0000 10.8843 0.0000
# 6 0.0000 0.0000 0.0000 0.0000 0.0000 8.8243
#
#
#
# Elastic Compliance Matrix: (Units=1/GPa)
#
#
# Indices 1 2 3 4 5 6 
#
# 1 0.008761 0.000316 -0.002919 0.000000 0.000000 0.000000
# 2 0.000316 0.034946 -0.006198 0.000000 0.000000 0.000000
# 3 -0.002919 -0.006198 0.018647 0.000000 0.000000 0.000000
# 4 0.000000 0.000000 0.000000 0.070304 0.000000 0.000000
# 5 0.000000 0.000000 0.000000 0.000000 0.091876 0.000000
# 6 0.000000 0.000000 0.000000 0.000000 0.000000 0.113324
#
#
# Mechanical properties :
#
#
# Convention : Reuss Voigt Hill
#
# Bulk Modulus (GPa) = 22.34569 30.71419 26.52994
# Shear Modulus (GPa) = 13.49976 18.69945 16.09961
#
# Velocity S-wave (km/s) = 2.77400 3.26482 3.02937
# Velocity P-wave (km/s) = 4.79558 5.63202 5.23055
#
# Compressibility (1/GPa) = 0.04475137
#
# Stress axis : x y z
#
# Youngs Moduli (GPa) = 114.14830 28.61522 53.62875
#
# Poissons Ratio (x) = -0.00903 0.15653
# Poissons Ratio (y) = -0.03603 0.33239
# Poissons Ratio (z) = 0.33317 0.17736
#
# Static dielectric constant tensor:
#      x y z
#    x 1.639840 0.000000 0.000000 
#    y 0.000000 1.633110 0.000000 
#    z 0.000000 0.000000 1.667920 
# 
# From -- ./inp_files/42392.got.cif
#   From: 2010.05.17/outbox.cif.g08.bks.cpg/sg52_22_cif.got.tgz:42392.got - 2010.06.03 12:15:38.
