data_PCOD9409402
_publ_section_title
;
Structure prediction by ZEFSAII (Michael W. Deem and Ramdas Pophale) SiO2 
 PCOD9409402
Probable space group: P N N A
;
_chemical_formula_sum "Si O2"
_cell_formula_units_Z 28
_cell_length_a 5.035748
_cell_length_b 17.567370
_cell_length_c 18.791604
_cell_angle_alpha 90.000000
_cell_angle_beta 90.000000
_cell_angle_gamma 90.000000
_cell_volume 1662.396398
_symmetry_space_group_name_H-M "P N N A"
_symmetry_group_IT_number 52
_symmetry_cell_setting 'orthorhombic'
loop_
_space_group_symop_operation_xyz
x,y,z
1/2-x,-y,z
x,1/2-y,1/2-z
1/2-x,1/2+y,1/2-z
-x,-y,-z
1/2+x,y,-z
-x,1/2+y,1/2+z
1/2+x,1/2-y,1/2+z
loop_
_atom_site_type_symbol
_atom_site_label
_atom_site_fract_x
_atom_site_fract_y
_atom_site_fract_z
Si Si1 0.372793 0.325831 0.795632
Si Si2 0.634728 0.665480 0.042353
Si Si3 0.108467 0.571314 0.208368
Si Si4 0.250000 0.500000 0.913988
O O1 0.392800 0.250000 0.750000
O O2 0.295801 0.309326 0.877776
O O3 0.654399 0.368906 0.801963
O O4 0.147893 0.382511 0.763640
O O5 0.642421 0.572936 0.044803
O O6 0.349667 0.690470 0.015240
O O7 0.250000 0.500000 0.247605
O O8 0.981495 0.533060 0.137386
#
# Coordination Sequence:
#
# PCOD9409402 Si02
#       4
#     8   8   8   4
#     4  11  23  36  51  72 108 146 175 216 259 298
#     4  11  21  31  49  74 105 140 175 201 247 308
#     4  11  18  34  53  74 103 139 180 214 238 307
#     4  10  20  30  50  74 112 138 168 200 244 300
#
# _framework density 16.843154999999999
#
# number of rings (size 3 to 8) (size 9 to 14) (size 15 to 20)
#    0.000    1.143    5.714    5.143    0.000    0.000 
#    0.000    0.000    0.000    0.000    0.000    0.000 
#    0.000   22.857    0.000    0.000    0.000    0.000 
#
# Total GULP energy -156053.157576 kJ/mol
# GULP energy per Si atom -5573.327056 kJ/mol
# Density = 1.680482 g / cm^3
# Si number density = 16.843155 Si / 1000 Ang^3
#
#
#
# Elastic Constant Matrix: (Units=GPa)
#
#
# Indices 1 2 3 4 5 6 
#
# 1 120.9360 38.1551 7.8366 0.0000 0.0000 0.0000
# 2 38.1551 64.2326 35.2080 0.0000 0.0000 0.0000
# 3 7.8366 35.2080 49.9772 0.0000 0.0000 0.0000
# 4 0.0000 0.0000 0.0000 27.7746 0.0000 0.0000
# 5 0.0000 0.0000 0.0000 0.0000 10.5546 0.0000
# 6 0.0000 0.0000 0.0000 0.0000 0.0000 22.7573
#
#
#
# Elastic Compliance Matrix: (Units=1/GPa)
#
#
# Indices 1 2 3 4 5 6 
#
# 1 0.010788 -0.008929 0.004599 0.000000 0.000000 0.000000
# 2 -0.008929 0.032752 -0.021673 0.000000 0.000000 0.000000
# 3 0.004599 -0.021673 0.034556 0.000000 0.000000 0.000000
# 4 0.000000 0.000000 0.000000 0.036004 0.000000 0.000000
# 5 0.000000 0.000000 0.000000 0.000000 0.094746 0.000000
# 6 0.000000 0.000000 0.000000 0.000000 0.000000 0.043942
#
#
# Mechanical properties :
#
#
# Convention : Reuss Voigt Hill
#
# Bulk Modulus (GPa) = 38.32943 44.17169 41.25056
# Shear Modulus (GPa) = 15.94943 22.48037 19.21490
#
# Velocity S-wave (km/s) = 3.08057 3.65730 3.38126
# Velocity P-wave (km/s) = 5.95477 6.64204 6.30778
#
# Compressibility (1/GPa) = 0.02608961
#
# Stress axis : x y z
#
# Youngs Moduli (GPa) = 92.69671 30.53256 28.93827
#
# Poissons Ratio (x) = 0.27262 -0.13307
# Poissons Ratio (y) = 0.82767 0.62718
# Poissons Ratio (z) = -0.42627 0.66173
#
# Static dielectric constant tensor:
#      x y z
#    x 1.636650 0.000000 0.000000 
#    y 0.000000 1.581850 0.000000 
#    z 0.000000 0.000000 1.553690 
# 
# From -- ./inp_files/30102.got.cif
#   From: 2010.05.17/outbox.cif.g08.bks.cpg/sg52_16_cif.got.tgz:30102.got - 2010.06.03 12:15:38.
