data_PCOD9409174
_publ_section_title
;
Structure prediction by ZEFSAII (Michael W. Deem and Ramdas Pophale) SiO2 
 PCOD9409174
Probable space group: P N N A
;
_chemical_formula_sum "Si O2"
_cell_formula_units_Z 64
_cell_length_a 14.704886
_cell_length_b 11.769480
_cell_length_c 15.481152
_cell_angle_alpha 90.000000
_cell_angle_beta 90.000000
_cell_angle_gamma 90.000000
_cell_volume 2679.305354
_symmetry_space_group_name_H-M "P N N A"
_symmetry_group_IT_number 52
_symmetry_cell_setting 'orthorhombic'
loop_
_space_group_symop_operation_xyz
x,y,z
1/2-x,-y,z
x,1/2-y,1/2-z
1/2-x,1/2+y,1/2-z
-x,-y,-z
1/2+x,y,-z
-x,1/2+y,1/2+z
1/2+x,1/2-y,1/2+z
loop_
_atom_site_type_symbol
_atom_site_label
_atom_site_fract_x
_atom_site_fract_y
_atom_site_fract_z
Si Si1 0.369750 0.499351 0.073099
Si Si2 0.380062 0.216852 0.535710
Si Si3 0.379152 0.383432 0.240472
Si Si4 0.617910 0.932721 0.928466
Si Si5 0.100305 0.103244 0.925552
Si Si6 0.587749 0.032030 0.262073
Si Si7 0.507953 0.319971 0.826302
Si Si8 0.186917 0.347400 0.918089
O O1 0.331023 0.429655 0.154742
O O2 0.432049 0.590707 0.121874
O O3 0.412046 0.396730 0.015278
O O4 0.318351 0.577380 0.004463
O O5 0.350703 0.314359 0.470005
O O6 0.458929 0.255494 0.600936
O O7 0.291345 0.186666 0.590577
O O8 0.364097 0.250000 0.250000
O O9 0.352547 0.444682 0.329646
O O10 0.488735 0.404775 0.231247
O O11 0.508252 0.916190 0.926712
O O12 0.639867 0.034718 0.993208
O O13 0.128912 0.055159 0.831998
O O14 0.126545 0.234726 0.928868
O O15 0.649339 0.082124 0.337720
O O16 0.565763 0.900283 0.278584
O O17 0.554912 0.250000 0.750000
#
# Coordination Sequence:
#
# PCOD9409174 Si02
#       8
#     8   8   8   8   8   8   8   8
#     4  11  24  41  69  95 130 180 226 278 329 402
#     4  12  24  42  68  95 139 180 223 271 344 413
#     4  10  19  36  68  96 119 163 227 281 328 388
#     4  10  21  41  71  98 128 174 228 288 332 390
#     4  10  22  41  67 100 136 172 226 280 337 399
#     4  10  21  37  63  99 132 174 218 268 339 408
#     4  11  24  40  66 102 132 169 224 294 338 385
#     4  12  25  40  64  97 140 183 222 267 333 425
#
# _framework density 23.886787999999999
#
# number of rings (size 3 to 8) (size 9 to 14) (size 15 to 20)
#    0.000    1.250    2.500    4.125    3.500    5.500 
#    0.000    1.250   13.750    0.000    0.000    0.000 
#    0.000    0.000    0.000    0.000    0.000    0.000 
#
# Total GULP energy -358006.057847 kJ/mol
# GULP energy per Si atom -5593.844654 kJ/mol
# Density = 2.383242 g / cm^3
# Si number density = 23.886788 Si / 1000 Ang^3
#
#
#
# Elastic Constant Matrix: (Units=GPa)
#
#
# Indices 1 2 3 4 5 6 
#
# 1 31.3381 4.6578 32.5124 0.0000 0.0000 0.0000
# 2 4.6578 54.6652 26.8181 0.0000 0.0000 0.0000
# 3 32.5124 26.8181 113.7870 0.0000 0.0000 0.0000
# 4 0.0000 0.0000 0.0000 44.7389 0.0000 0.0000
# 5 0.0000 0.0000 0.0000 0.0000 0.0498 0.0000
# 6 0.0000 0.0000 0.0000 0.0000 0.0000 19.0032
#
#
#
# Elastic Compliance Matrix: (Units=1/GPa)
#
#
# Indices 1 2 3 4 5 6 
#
# 1 0.045743 0.002843 -0.013740 0.000000 0.000000 0.000000
# 2 0.002843 0.020862 -0.005729 0.000000 0.000000 0.000000
# 3 -0.013740 -0.005729 0.014065 0.000000 0.000000 0.000000
# 4 0.000000 0.000000 0.000000 0.022352 0.000000 0.000000
# 5 0.000000 0.000000 0.000000 0.000000 20.095824 0.000000
# 6 0.000000 0.000000 0.000000 0.000000 0.000000 0.052623
#
#
# Mechanical properties :
#
#
# Convention : Reuss Voigt Hill
#
# Bulk Modulus (GPa) = 21.08971 36.41856 28.75414
# Shear Modulus (GPa) = 0.24630 21.81182 11.02906
#
# Velocity S-wave (km/s) = 0.32146 3.02509 2.15110
# Velocity P-wave (km/s) = 2.99766 5.24223 4.27007
#
# Compressibility (1/GPa) = 0.04741648
#
# Stress axis : x y z
#
# Youngs Moduli (GPa) = 21.86148 47.93494 71.10035
#
# Poissons Ratio (x) = -0.13629 0.97693
# Poissons Ratio (y) = -0.06216 0.40735
# Poissons Ratio (z) = 0.30038 0.27463
#
# Static dielectric constant tensor:
#      x y z
#    x 1.933700 0.000000 0.000000 
#    y 0.000000 1.912810 0.000000 
#    z 0.000000 0.000000 1.916000 
# 
# From -- ./inp_files/28300.got.cif
#   From: 2010.05.17/outbox.cif.g08.bks.cpg/sg52_15_cif.got.tgz:28300.got - 2010.06.03 12:15:38.
