data_PCOD9409000
_publ_section_title
;
Structure prediction by ZEFSAII (Michael W. Deem and Ramdas Pophale) SiO2 
 PCOD9409000
Probable space group: P N N A
;
_chemical_formula_sum "Si O2"
_cell_formula_units_Z 64
_cell_length_a 8.524419
_cell_length_b 21.004438
_cell_length_c 16.008237
_cell_angle_alpha 90.000000
_cell_angle_beta 90.000000
_cell_angle_gamma 90.000000
_cell_volume 2866.284926
_symmetry_space_group_name_H-M "P N N A"
_symmetry_group_IT_number 52
_symmetry_cell_setting 'orthorhombic'
loop_
_space_group_symop_operation_xyz
x,y,z
1/2-x,-y,z
x,1/2-y,1/2-z
1/2-x,1/2+y,1/2-z
-x,-y,-z
1/2+x,y,-z
-x,1/2+y,1/2+z
1/2+x,1/2-y,1/2+z
loop_
_atom_site_type_symbol
_atom_site_label
_atom_site_fract_x
_atom_site_fract_y
_atom_site_fract_z
Si Si1 0.955416 0.190045 0.800916
Si Si2 0.683422 0.245622 0.059445
Si Si3 0.540119 0.236735 0.887598
Si Si4 0.132878 0.082444 0.717554
Si Si5 0.350462 0.881522 0.194455
Si Si6 0.743954 0.104075 0.451573
Si Si7 0.599661 0.530095 0.325512
Si Si8 0.405758 0.613349 0.117999
O O1 0.886358 0.250000 0.750000
O O2 0.825092 0.139094 0.828056
O O3 0.057503 0.217796 0.876165
O O4 0.066860 0.151366 0.737727
O O5 0.859106 0.231584 0.087318
O O6 0.683049 0.322578 0.054569
O O7 0.643302 0.218157 0.968572
O O8 0.565013 0.186728 0.814706
O O9 0.589601 0.309555 0.873607
O O10 0.144752 0.068456 0.619829
O O11 0.304936 0.075949 0.760703
O O12 0.041713 0.028711 0.769155
O O13 0.454254 0.930715 0.139905
O O14 0.359828 0.907409 0.289069
O O15 0.922776 0.098625 0.420730
O O16 0.715638 0.088769 0.547997
O O17 0.750000 0.500000 0.375921
#
# Coordination Sequence:
#
# PCOD9409000 Si02
#       8
#     8   8   8   8   8   8   8   8
#     4  12  23  33  60  94 126 153 200 247 313 377
#     4  10  21  35  56  88 121 160 193 242 319 371
#     4  10  21  35  56  82 123 156 195 250 307 368
#     4   9  19  39  60  80 114 161 205 248 298 354
#     4  12  22  37  57  87 119 157 207 250 296 364
#     4  10  19  35  56  79 123 155 199 247 303 359
#     4   8  20  40  63  80 111 163 220 253 289 351
#     4  10  21  33  54  84 119 159 197 249 307 355
#
# _framework density 22.328555999999999
#
# number of rings (size 3 to 8) (size 9 to 14) (size 15 to 20)
#    0.750    1.000    2.500    2.625    1.750    2.500 
#    0.000    0.625    0.000    0.750    0.000    0.000 
#    0.000    0.000    0.000    0.000    0.000    0.000 
#
# Total GULP energy -356625.671240 kJ/mol
# GULP energy per Si atom -5572.276113 kJ/mol
# Density = 2.227773 g / cm^3
# Si number density = 22.328556 Si / 1000 Ang^3
#
#
#
# Elastic Constant Matrix: (Units=GPa)
#
#
# Indices 1 2 3 4 5 6 
#
# 1 46.1230 22.1040 3.0959 0.0000 0.0000 0.0000
# 2 22.1040 47.2244 -5.7744 0.0000 0.0000 0.0000
# 3 3.0959 -5.7744 34.0007 0.0000 0.0000 0.0000
# 4 0.0000 0.0000 0.0000 6.3921 0.0000 0.0000
# 5 0.0000 0.0000 0.0000 0.0000 24.3712 0.0000
# 6 0.0000 0.0000 0.0000 0.0000 0.0000 23.7241
#
#
#
# Elastic Compliance Matrix: (Units=1/GPa)
#
#
# Indices 1 2 3 4 5 6 
#
# 1 0.028763 -0.014075 -0.005009 0.000000 0.000000 0.000000
# 2 -0.014075 0.028512 0.006124 0.000000 0.000000 0.000000
# 3 -0.005009 0.006124 0.030907 0.000000 0.000000 0.000000
# 4 0.000000 0.000000 0.000000 0.156443 0.000000 0.000000
# 5 0.000000 0.000000 0.000000 0.000000 0.041032 0.000000
# 6 0.000000 0.000000 0.000000 0.000000 0.000000 0.042151
#
#
# Mechanical properties :
#
#
# Convention : Reuss Voigt Hill
#
# Bulk Modulus (GPa) = 16.06141 18.46655 17.26398
# Shear Modulus (GPa) = 13.35171 18.09233 15.72202
#
# Velocity S-wave (km/s) = 2.44799 2.84963 2.65641
# Velocity P-wave (km/s) = 3.89859 4.37213 4.14213
#
# Compressibility (1/GPa) = 0.06226102
#
# Stress axis : x y z
#
# Youngs Moduli (GPa) = 34.76709 35.07237 32.35480
#
# Poissons Ratio (x) = 0.49366 0.16208
# Poissons Ratio (y) = 0.48936 -0.19814
# Poissons Ratio (z) = 0.17416 -0.21478
#
# Static dielectric constant tensor:
#      x y z
#    x 1.876690 0.000000 0.000000 
#    y 0.000000 1.847340 0.000000 
#    z 0.000000 0.000000 1.827250 
# 
# From -- ./inp_files/31672.got.cif
#   From: 2010.05.17/outbox.cif.g08.bks.cpg/sg52_16_cif.got.tgz:31672.got - 2010.06.03 12:15:38.
