data_PCOD9409717
_publ_section_title
;
Structure prediction by ZEFSAII (Michael W. Deem and Ramdas Pophale) SiO2 
 PCOD9409717
Probable space group: P N N A
;
_chemical_formula_sum "Si O2"
_cell_formula_units_Z 40
_cell_length_a 16.802847
_cell_length_b 15.004030
_cell_length_c 8.367321
_cell_angle_alpha 90.000000
_cell_angle_beta 90.000000
_cell_angle_gamma 90.000000
_cell_volume 2109.488816
_symmetry_space_group_name_H-M "P N N A"
_symmetry_group_IT_number 52
_symmetry_cell_setting 'orthorhombic'
loop_
_space_group_symop_operation_xyz
x,y,z
1/2-x,-y,z
x,1/2-y,1/2-z
1/2-x,1/2+y,1/2-z
-x,-y,-z
1/2+x,y,-z
-x,1/2+y,1/2+z
1/2+x,1/2-y,1/2+z
loop_
_atom_site_type_symbol
_atom_site_label
_atom_site_fract_x
_atom_site_fract_y
_atom_site_fract_z
Si Si1 0.095898 0.157857 0.846677
Si Si2 0.588284 0.975062 0.319978
Si Si3 0.447555 0.849851 0.211819
Si Si4 0.683397 0.434999 0.918080
Si Si5 0.266997 0.148998 0.733115
O O1 0.079414 0.250000 0.750000
O O2 0.192033 0.148623 0.852445
O O3 0.068593 0.071491 0.750537
O O4 0.059996 0.148462 0.021350
O O5 0.513724 0.913128 0.288550
O O6 0.664738 0.924357 0.241941
O O7 0.619655 0.999063 0.496384
O O8 0.470322 0.750000 0.250000
O O9 0.363730 0.874436 0.294857
O O10 0.750000 0.500000 0.846230
O O11 0.725441 0.377363 0.061465
O O12 0.299378 0.250000 0.750000
#
# Coordination Sequence:
#
# PCOD9409717 Si02
#       5
#     8   8   8   8   8
#     4  10  21  37  55  75 107 148 189 225 269 329
#     4  10  20  36  56  80 108 144 182 224 278 332
#     4  12  22  34  56  85 111 139 181 231 279 324
#     4   9  20  36  55  79 111 147 183 226 274 326
#     4   9  17  35  57  77 106 146 185 218 267 333
#
# _framework density 18.961939999999998
#
# number of rings (size 3 to 8) (size 9 to 14) (size 15 to 20)
#    0.000    2.000    0.000    7.200    0.000    1.600 
#    0.000    0.000    0.000    2.400    0.000    1.400 
#    0.000    0.000    0.000    0.000    0.000    0.000 
#
# Total GULP energy -222889.164010 kJ/mol
# GULP energy per Si atom -5572.229100 kJ/mol
# Density = 1.891878 g / cm^3
# Si number density = 18.961940 Si / 1000 Ang^3
#
#
#
# Elastic Constant Matrix: (Units=GPa)
#
#
# Indices 1 2 3 4 5 6 
#
# 1 67.7151 50.0710 30.5545 0.0000 0.0000 0.0000
# 2 50.0710 156.2940 22.6027 0.0000 0.0000 0.0000
# 3 30.5545 22.6027 42.5297 0.0000 0.0000 0.0000
# 4 0.0000 0.0000 0.0000 78.3085 0.0000 0.0000
# 5 0.0000 0.0000 0.0000 0.0000 14.9785 0.0000
# 6 0.0000 0.0000 0.0000 0.0000 0.0000 40.5128
#
#
#
# Elastic Compliance Matrix: (Units=1/GPa)
#
#
# Indices 1 2 3 4 5 6 
#
# 1 0.026434 -0.006198 -0.015697 0.000000 0.000000 0.000000
# 2 -0.006198 0.008384 -0.000003 0.000000 0.000000 0.000000
# 3 -0.015697 -0.000003 0.034791 0.000000 0.000000 0.000000
# 4 0.000000 0.000000 0.000000 0.012770 0.000000 0.000000
# 5 0.000000 0.000000 0.000000 0.000000 0.066762 0.000000
# 6 0.000000 0.000000 0.000000 0.000000 0.000000 0.024684
#
#
# Mechanical properties :
#
#
# Convention : Reuss Voigt Hill
#
# Bulk Modulus (GPa) = 38.73886 52.55502 45.64694
# Shear Modulus (GPa) = 22.10184 37.64734 29.87459
#
# Velocity S-wave (km/s) = 3.41778 4.46063 3.97357
# Velocity P-wave (km/s) = 6.00409 7.36925 6.72142
#
# Compressibility (1/GPa) = 0.02581388
#
# Stress axis : x y z
#
# Youngs Moduli (GPa) = 37.83048 119.26960 28.74283
#
# Poissons Ratio (x) = 0.73929 0.45116
# Poissons Ratio (y) = 0.23449 0.00008
# Poissons Ratio (z) = 0.59381 0.00033
#
# Static dielectric constant tensor:
#      x y z
#    x 1.688460 0.000000 0.000000 
#    y 0.000000 1.679980 0.000000 
#    z 0.000000 0.000000 2.152980 
# 
# From -- ./inp_files/11648.got.cif
#   From: 2010.05.17/outbox.cif.g08.bks.cpg/sg52_6_cif.got.tgz:11648.got - 2010.06.03 12:15:38.
