data_PCOD9409286
_publ_section_title
;
Structure prediction by ZEFSAII (Michael W. Deem and Ramdas Pophale) SiO2 
 PCOD9409286
Probable space group: P N N A
;
_chemical_formula_sum "Si O2"
_cell_formula_units_Z 56
_cell_length_a 9.757401
_cell_length_b 14.060592
_cell_length_c 20.654940
_cell_angle_alpha 90.000000
_cell_angle_beta 90.000000
_cell_angle_gamma 90.000000
_cell_volume 2833.751074
_symmetry_space_group_name_H-M "P N N A"
_symmetry_group_IT_number 52
_symmetry_cell_setting 'orthorhombic'
loop_
_space_group_symop_operation_xyz
x,y,z
1/2-x,-y,z
x,1/2-y,1/2-z
1/2-x,1/2+y,1/2-z
-x,-y,-z
1/2+x,y,-z
-x,1/2+y,1/2+z
1/2+x,1/2-y,1/2+z
loop_
_atom_site_type_symbol
_atom_site_label
_atom_site_fract_x
_atom_site_fract_y
_atom_site_fract_z
Si Si1 0.933169 0.279670 0.577530
Si Si2 0.250000 0.500000 0.932431
Si Si3 0.709023 0.160351 0.538140
Si Si4 0.200576 0.395268 0.348878
Si Si5 0.446163 0.353429 0.869417
Si Si6 0.269341 0.702413 0.575763
Si Si7 0.960502 0.088609 0.044731
Si Si8 0.433932 0.750000 0.250000
O O1 0.083327 0.286243 0.609256
O O2 0.456353 0.325935 0.492896
O O3 0.859408 0.176361 0.570606
O O4 0.827251 0.346435 0.614688
O O5 0.366849 0.450855 0.888125
O O6 0.301264 0.579766 0.983397
O O7 0.587736 0.150450 0.589509
O O8 0.702518 0.256009 0.495890
O O9 0.250000 0.500000 0.327273
O O10 0.073127 0.404869 0.398955
O O11 0.154365 0.321258 0.294193
O O12 0.342042 0.272163 0.893273
O O13 0.481187 0.321110 0.796772
O O14 0.193642 0.601021 0.573032
O O15 0.000000 0.000000 0.000000
#
# Coordination Sequence:
#
# PCOD9409286 Si02
#       8
#     8   4   8   8   8   8   8   4
#     4  11  21  35  65 104 135 164 214 281 356 406
#     4  10  22  36  68 110 130 162 236 302 340 408
#     4  10  19  38  64  99 139 172 212 279 356 409
#     4  12  25  47  69  99 136 184 238 281 343 438
#     4  11  22  43  66  92 135 188 227 273 346 416
#     4  10  20  34  61 101 132 169 215 282 355 397
#     4  11  20  35  63 101 138 164 209 282 360 416
#     4  12  26  50  70  84 140 208 236 272 354 424
#
# _framework density 19.761792
#
# number of rings (size 3 to 8) (size 9 to 14) (size 15 to 20)
#    0.000    1.143    4.286    4.714    0.000    1.143 
#    1.286    5.000    0.000    0.000    0.000    0.000 
#    0.000    0.000    0.000    0.000    0.000    0.000 
#
# Total GULP energy -311955.311103 kJ/mol
# GULP energy per Si atom -5570.630555 kJ/mol
# Density = 1.971681 g / cm^3
# Si number density = 19.761792 Si / 1000 Ang^3
#
#
#
# Elastic Constant Matrix: (Units=GPa)
#
#
# Indices 1 2 3 4 5 6 
#
# 1 164.9856 69.1758 55.9410 0.0000 0.0000 0.0000
# 2 69.1758 111.3185 42.5688 0.0000 0.0000 0.0000
# 3 55.9410 42.5688 89.4646 0.0000 0.0000 0.0000
# 4 0.0000 0.0000 0.0000 37.1418 0.0000 0.0000
# 5 0.0000 0.0000 0.0000 0.0000 16.1415 0.0000
# 6 0.0000 0.0000 0.0000 0.0000 0.0000 31.2564
#
#
#
# Elastic Compliance Matrix: (Units=1/GPa)
#
#
# Indices 1 2 3 4 5 6 
#
# 1 0.009081 -0.004244 -0.003659 0.000000 0.000000 0.000000
# 2 -0.004244 0.012965 -0.003515 0.000000 0.000000 0.000000
# 3 -0.003659 -0.003515 0.015138 0.000000 0.000000 0.000000
# 4 0.000000 0.000000 0.000000 0.026924 0.000000 0.000000
# 5 0.000000 0.000000 0.000000 0.000000 0.061952 0.000000
# 6 0.000000 0.000000 0.000000 0.000000 0.000000 0.031993
#
#
# Mechanical properties :
#
#
# Convention : Reuss Voigt Hill
#
# Bulk Modulus (GPa) = 69.69718 77.90442 73.80080
# Shear Modulus (GPa) = 26.92914 30.11347 28.52130
#
# Velocity S-wave (km/s) = 3.69546 3.90785 3.80314
# Velocity P-wave (km/s) = 7.31805 7.73751 7.53070
#
# Compressibility (1/GPa) = 0.01434778
#
# Stress axis : x y z
#
# Youngs Moduli (GPa) = 110.11716 77.13198 66.05865
#
# Poissons Ratio (x) = 0.32735 0.24171
# Poissons Ratio (y) = 0.46735 0.23220
# Poissons Ratio (z) = 0.40292 0.27113
#
# Static dielectric constant tensor:
#      x y z
#    x 1.867320 0.000000 0.000000 
#    y 0.000000 1.804130 0.000000 
#    z 0.000000 0.000000 1.717490 
# 
# From -- ./inp_files/36060.got.cif
#   From: 2010.05.17/outbox.cif.g08.bks.cpg/sg52_19_cif.got.tgz:36060.got - 2010.06.03 12:15:38.
