data_PCOD9409958
_publ_section_title
;
Structure prediction by ZEFSAII (Michael W. Deem and Ramdas Pophale) SiO2 
 PCOD9409958
Probable space group: P N N A
;
_chemical_formula_sum "Si O2"
_cell_formula_units_Z 40
_cell_length_a 39.673994
_cell_length_b 9.873491
_cell_length_c 5.292013
_cell_angle_alpha 90.000000
_cell_angle_beta 90.000000
_cell_angle_gamma 90.000000
_cell_volume 2072.991686
_symmetry_space_group_name_H-M "P N N A"
_symmetry_group_IT_number 52
_symmetry_cell_setting 'orthorhombic'
loop_
_space_group_symop_operation_xyz
x,y,z
1/2-x,-y,z
x,1/2-y,1/2-z
1/2-x,1/2+y,1/2-z
-x,-y,-z
1/2+x,y,-z
-x,1/2+y,1/2+z
1/2+x,1/2-y,1/2+z
loop_
_atom_site_type_symbol
_atom_site_label
_atom_site_fract_x
_atom_site_fract_y
_atom_site_fract_z
Si Si1 0.728626 0.750000 0.250000
Si Si2 0.688177 0.598552 0.866309
Si Si3 0.570670 0.982216 0.192049
Si Si4 0.027864 0.250000 0.750000
Si Si5 0.111446 0.911971 0.299793
Si Si6 0.016502 0.750000 0.750000
Si Si7 0.250000 0.000000 0.060067
O O1 0.703384 0.864136 0.362967
O O2 0.750762 0.646999 0.419087
O O3 0.688150 0.750000 0.750000
O O4 0.650295 0.547423 0.846571
O O5 0.716242 0.510379 0.727430
O O6 0.590530 0.949603 0.450577
O O7 0.541091 0.871694 0.172713
O O8 0.551803 0.123660 0.199565
O O9 0.595189 0.974556 0.951270
O O10 0.005659 0.220599 0.499325
O O11 0.110422 0.750000 0.250000
#
# Coordination Sequence:
#
# PCOD9409958 Si02
#       7
#     4   8   8   4   8   4   4
#     4  10  20  37  65  86 128 160 208 276 330 366
#     4   9  21  35  62  92 123 165 215 268 317 365
#     4  12  24  42  67  94 132 167 212 264 315 385
#     4  12  26  42  65  96 136 163 204 265 330 372
#     4  11  22  40  66  94 126 169 221 262 311 380
#     4  12  22  43  68  98 122 167 220 255 312 384
#     4  10  20  38  60  96 124 162 212 268 324 384
#
# _framework density 19.295784000000001
#
# number of rings (size 3 to 8) (size 9 to 14) (size 15 to 20)
#    0.000    1.200    2.000    4.200    8.400    0.000 
#    0.000    1.000   13.200    0.000    0.000    0.000 
#    0.000    0.000    0.000    0.000    0.000    0.000 
#
# Total GULP energy -223113.517084 kJ/mol
# GULP energy per Si atom -5577.837927 kJ/mol
# Density = 1.925187 g / cm^3
# Si number density = 19.295784 Si / 1000 Ang^3
#
#
#
# Elastic Constant Matrix: (Units=GPa)
#
#
# Indices 1 2 3 4 5 6 
#
# 1 148.8326 54.6457 65.0449 0.0000 0.0000 0.0000
# 2 54.6457 83.0858 15.4529 0.0000 0.0000 0.0000
# 3 65.0449 15.4529 121.6028 0.0000 0.0000 0.0000
# 4 0.0000 0.0000 0.0000 19.6338 0.0000 0.0000
# 5 0.0000 0.0000 0.0000 0.0000 3.3213 0.0000
# 6 0.0000 0.0000 0.0000 0.0000 0.0000 12.2236
#
#
#
# Elastic Compliance Matrix: (Units=1/GPa)
#
#
# Indices 1 2 3 4 5 6 
#
# 1 0.011426 -0.006532 -0.005281 0.000000 0.000000 0.000000
# 2 -0.006532 0.016062 0.001453 0.000000 0.000000 0.000000
# 3 -0.005281 0.001453 0.010864 0.000000 0.000000 0.000000
# 4 0.000000 0.000000 0.000000 0.050933 0.000000 0.000000
# 5 0.000000 0.000000 0.000000 0.000000 0.301089 0.000000
# 6 0.000000 0.000000 0.000000 0.000000 0.000000 0.081809
#
#
# Mechanical properties :
#
#
# Convention : Reuss Voigt Hill
#
# Bulk Modulus (GPa) = 56.72193 69.31201 63.01697
# Shear Modulus (GPa) = 10.02446 21.59424 15.80935
#
# Velocity S-wave (km/s) = 2.28176 3.34895 2.86548
# Velocity P-wave (km/s) = 6.03339 7.13812 6.60888
#
# Compressibility (1/GPa) = 0.01762987
#
# Stress axis : x y z
#
# Youngs Moduli (GPa) = 87.52348 62.25942 92.04864
#
# Poissons Ratio (x) = 0.40670 0.48614
# Poissons Ratio (y) = 0.57173 -0.13375
# Poissons Ratio (z) = 0.46224 -0.09046
#
# Static dielectric constant tensor:
#      x y z
#    x 1.670250 0.000000 0.000000 
#    y 0.000000 1.949710 0.000000 
#    z 0.000000 0.000000 1.846340 
# 
# From -- ./inp_files/5665.got.cif
#   From: 2010.05.17/outbox.cif.g08.bks.cpg/sg52_3_cif.got.tgz:5665.got - 2010.06.03 12:15:38.
