data_PCOD9409110
_publ_section_title
;
Structure prediction by ZEFSAII (Michael W. Deem and Ramdas Pophale) SiO2 
 PCOD9409110
Probable space group: P N N A
;
_chemical_formula_sum "Si O2"
_cell_formula_units_Z 52
_cell_length_a 8.845957
_cell_length_b 20.340239
_cell_length_c 15.728111
_cell_angle_alpha 90.000000
_cell_angle_beta 90.000000
_cell_angle_gamma 90.000000
_cell_volume 2829.941390
_symmetry_space_group_name_H-M "P N N A"
_symmetry_group_IT_number 52
_symmetry_cell_setting 'orthorhombic'
loop_
_space_group_symop_operation_xyz
x,y,z
1/2-x,-y,z
x,1/2-y,1/2-z
1/2-x,1/2+y,1/2-z
-x,-y,-z
1/2+x,y,-z
-x,1/2+y,1/2+z
1/2+x,1/2-y,1/2+z
loop_
_atom_site_type_symbol
_atom_site_label
_atom_site_fract_x
_atom_site_fract_y
_atom_site_fract_z
Si Si1 0.630224 0.150632 0.783662
Si Si2 0.510276 0.538883 0.378443
Si Si3 0.274876 0.157897 0.525850
Si Si4 0.750000 0.500000 0.500252
Si Si5 0.508729 0.437478 0.066068
Si Si6 0.943639 0.779107 0.610101
Si Si7 0.613625 0.553167 0.744716
O O1 0.512982 0.094084 0.809170
O O2 0.595162 0.174020 0.689149
O O3 0.598676 0.207914 0.851946
O O4 0.799766 0.120492 0.779213
O O5 0.652343 0.545424 0.438681
O O6 0.364747 0.539178 0.440219
O O7 0.501453 0.469658 0.328661
O O8 0.388464 0.115626 0.467844
O O9 0.168617 0.101224 0.567112
O O10 0.383723 0.203619 0.583551
O O11 0.164527 0.202068 0.468212
O O12 0.460765 0.452359 0.162714
O O13 0.500000 0.500000 0.000000
O O14 0.750000 0.500000 0.743688
#
# Coordination Sequence:
#
# PCOD9409110 Si02
#       7
#     8   8   8   4   8   8   8
#     4  10  20  39  61  79 111 161 194 239 297 351
#     4  10  21  36  60  83 114 145 189 246 296 354
#     4  10  22  37  56  88 117 153 195 247 278 366
#     4  10  20  38  54  84 114 140 182 246 304 334
#     4  11  21  35  60  91 123 156 189 242 305 366
#     4  10  22  39  60  78 117 157 200 235 294 343
#     4  10  19  36  58  91 117 154 195 241 306 366
#
# _framework density 18.374939999999999
#
# number of rings (size 3 to 8) (size 9 to 14) (size 15 to 20)
#    0.000    1.846    3.846    1.385    6.462    2.462 
#    0.000    0.000   13.538    0.000    0.000    0.000 
#    0.000    0.000    0.000    0.000    0.000    0.000 
#
# Total GULP energy -289588.303020 kJ/mol
# GULP energy per Si atom -5569.005827 kJ/mol
# Density = 1.833312 g / cm^3
# Si number density = 18.374940 Si / 1000 Ang^3
#
#
#
# Elastic Constant Matrix: (Units=GPa)
#
#
# Indices 1 2 3 4 5 6 
#
# 1 72.9363 32.9061 34.2829 0.0000 0.0000 0.0000
# 2 32.9061 69.4622 41.1295 0.0000 0.0000 0.0000
# 3 34.2829 41.1295 89.5814 0.0000 0.0000 0.0000
# 4 0.0000 0.0000 0.0000 -0.9244 0.0000 0.0000
# 5 0.0000 0.0000 0.0000 0.0000 35.1846 0.0000
# 6 0.0000 0.0000 0.0000 0.0000 0.0000 20.9692
#
#
#
# Elastic Compliance Matrix: (Units=1/GPa)
#
#
# Indices 1 2 3 4 5 6 
#
# 1 0.018522 -0.006286 -0.004202 0.000000 0.000000 0.000000
# 2 -0.006286 0.021905 -0.007651 0.000000 0.000000 0.000000
# 3 -0.004202 -0.007651 0.016284 0.000000 0.000000 0.000000
# 4 0.000000 0.000000 0.000000 -1.081740 0.000000 0.000000
# 5 0.000000 0.000000 0.000000 0.000000 0.028421 0.000000
# 6 0.000000 0.000000 0.000000 0.000000 0.000000 0.047689
#
#
# Mechanical properties :
#
#
# Convention : Reuss Voigt Hill
#
# Bulk Modulus (GPa) = 48.94440 49.84631 49.39536
# Shear Modulus (GPa) = -5.51981 19.28997 6.88508
#
# Velocity S-wave (km/s) = -1.73508 3.24357 1.93782
# Velocity P-wave (km/s) = 4.76238 6.41981 5.65218
#
# Compressibility (1/GPa) = 0.02043135
#
# Stress axis : x y z
#
# Youngs Moduli (GPa) = 53.99030 45.65224 61.40926
#
# Poissons Ratio (x) = 0.28698 0.25805
# Poissons Ratio (y) = 0.33939 0.46987
# Poissons Ratio (z) = 0.22688 0.34930
#
# Static dielectric constant tensor:
#      x y z
#    x 1.611470 0.000000 0.000000 
#    y 0.000000 1.667470 0.000000 
#    z 0.000000 0.000000 1.640020 
# 
# From -- ./inp_files/25057.got.cif
#   From: 2010.05.17/outbox.cif.g08.bks.cpg/sg52_13_cif.got.tgz:25057.got - 2010.06.03 12:15:38.
