data_PCOD9409808
_publ_section_title
;
Structure prediction by ZEFSAII (Michael W. Deem and Ramdas Pophale) SiO2 
 PCOD9409808
Probable space group: P N N A
;
_chemical_formula_sum "Si O2"
_cell_formula_units_Z 40
_cell_length_a 10.683278
_cell_length_b 20.396389
_cell_length_c 8.300216
_cell_angle_alpha 90.000000
_cell_angle_beta 90.000000
_cell_angle_gamma 90.000000
_cell_volume 1808.619506
_symmetry_space_group_name_H-M "P N N A"
_symmetry_group_IT_number 52
_symmetry_cell_setting 'orthorhombic'
loop_
_space_group_symop_operation_xyz
x,y,z
1/2-x,-y,z
x,1/2-y,1/2-z
1/2-x,1/2+y,1/2-z
-x,-y,-z
1/2+x,y,-z
-x,1/2+y,1/2+z
1/2+x,1/2-y,1/2+z
loop_
_atom_site_type_symbol
_atom_site_label
_atom_site_fract_x
_atom_site_fract_y
_atom_site_fract_z
Si Si1 0.220785 0.137239 0.112221
Si Si2 0.371336 0.892142 0.475857
Si Si3 0.466754 0.424045 0.522916
Si Si4 0.745462 0.227997 0.432700
Si Si5 0.625494 0.597279 0.112934
O O1 0.351428 0.099052 0.087639
O O2 0.175260 0.121822 0.293333
O O3 0.246234 0.212190 0.057236
O O4 0.099876 0.113656 0.007377
O O5 0.374565 0.818671 0.546383
O O6 0.144654 0.826374 0.559649
O O7 0.504269 0.925968 0.482014
O O8 0.261903 0.928920 0.570300
O O9 0.500000 0.500000 0.500000
O O10 0.410150 0.410035 0.701082
O O11 0.749250 0.250000 0.250000
#
# Coordination Sequence:
#
# PCOD9409808 Si02
#       5
#     8   8   8   8   8
#     4  11  22  38  65  93 124 170 211 266 318 384
#     4   9  21  36  59  92 130 159 199 256 330 376
#     4  11  24  43  64  89 127 175 222 262 310 385
#     4  10  20  36  61  92 133 158 202 259 330 374
#     4   9  21  39  60  91 131 160 206 264 316 385
#
# _framework density 22.116315
#
# number of rings (size 3 to 8) (size 9 to 14) (size 15 to 20)
#    1.200    0.800    2.000    1.200    2.800    3.200 
#    0.000    1.000    0.000    7.200    0.000    0.000 
#    0.000    0.000    0.000    0.000    0.000    0.000 
#
# Total GULP energy -222703.334342 kJ/mol
# GULP energy per Si atom -5567.583359 kJ/mol
# Density = 2.206598 g / cm^3
# Si number density = 22.116315 Si / 1000 Ang^3
#
#
#
# Elastic Constant Matrix: (Units=GPa)
#
#
# Indices 1 2 3 4 5 6 
#
# 1 -1851.5798-1769.6694 -471.1425 0.0000 0.0000 0.0000
# 2 -1769.6694-1516.1162 -445.6589 0.0000 0.0000 0.0000
# 3 -471.1425 -445.6589 -109.1948 0.0000 0.0000 0.0000
# 4 0.0000 0.0000 0.0000 -161.3660 0.0000 0.0000
# 5 0.0000 0.0000 0.0000 0.0000 74.1929 0.0000
# 6 0.0000 0.0000 0.0000 0.0000 0.0000 -16.8968
#
#
#
# Elastic Compliance Matrix: (Units=1/GPa)
#
#
# Indices 1 2 3 4 5 6 
#
# 1 0.009641 -0.004879 -0.021686 0.000000 0.000000 0.000000
# 2 -0.004879 0.005772 -0.002506 0.000000 0.000000 0.000000
# 3 -0.021686 -0.002506 0.094638 0.000000 0.000000 0.000000
# 4 0.000000 0.000000 0.000000 -0.006197 0.000000 0.000000
# 5 0.000000 0.000000 0.000000 0.000000 0.013478 0.000000
# 6 0.000000 0.000000 0.000000 0.000000 0.000000 -0.059183
#
#
# Mechanical properties :
#
#
# Convention : Reuss Voigt Hill
#
# Bulk Modulus (GPa) = 19.26428 -983.31470 -482.02521
# Shear Modulus (GPa) = 37.42654 -73.50866 -18.04106
#
# Velocity S-wave (km/s) = 4.11817 -5.77143 -2.85921
# Velocity P-wave (km/s) = 5.59837 22.13568 15.14342
#
# Compressibility (1/GPa) = 0.05190955
#
# Stress axis : x y z
#
# Youngs Moduli (GPa) = 103.72233 173.25120 10.56654
#
# Poissons Ratio (x) = 0.84528 0.22915
# Poissons Ratio (y) = 0.50606 0.02648
# Poissons Ratio (z) = 2.24932 0.43417
#
# Static dielectric constant tensor:
#      x y z
#    x 1.838910 0.000000 0.000000 
#    y 0.000000 1.866070 0.000000 
#    z 0.000000 0.000000 1.850960 
# 
# From -- ./inp_files/8923.got.cif
#   From: 2010.05.17/outbox.cif.g08.bks.cpg/sg52_5_cif.got.tgz:8923.got - 2010.06.03 12:15:38.
