data_PCOD9409477
_publ_section_title
;
Structure prediction by ZEFSAII (Michael W. Deem and Ramdas Pophale) SiO2 
 PCOD9409477
Probable space group: P N N A
;
_chemical_formula_sum "Si O2"
_cell_formula_units_Z 60
_cell_length_a 13.490459
_cell_length_b 8.819961
_cell_length_c 28.653909
_cell_angle_alpha 90.000000
_cell_angle_beta 90.000000
_cell_angle_gamma 90.000000
_cell_volume 3409.394596
_symmetry_space_group_name_H-M "P N N A"
_symmetry_group_IT_number 52
_symmetry_cell_setting 'orthorhombic'
loop_
_space_group_symop_operation_xyz
x,y,z
1/2-x,-y,z
x,1/2-y,1/2-z
1/2-x,1/2+y,1/2-z
-x,-y,-z
1/2+x,y,-z
-x,1/2+y,1/2+z
1/2+x,1/2-y,1/2+z
loop_
_atom_site_type_symbol
_atom_site_label
_atom_site_fract_x
_atom_site_fract_y
_atom_site_fract_z
Si Si1 0.896087 0.267300 0.571007
Si Si2 0.295505 0.343265 0.523170
Si Si3 0.095514 0.338090 0.978832
Si Si4 0.854538 0.571079 0.759699
Si Si5 0.130653 0.510243 0.343061
Si Si6 0.250000 0.000000 0.401560
Si Si7 0.924968 0.664692 0.852232
Si Si8 0.458669 0.153274 0.561164
O O1 0.841428 0.356668 0.528984
O O2 0.898479 0.359719 0.619770
O O3 0.007571 0.232796 0.553111
O O4 0.829893 0.112757 0.574085
O O5 0.250000 0.500000 0.538121
O O6 0.204414 0.226960 0.525340
O O7 0.384402 0.291304 0.556141
O O8 0.092280 0.514683 0.965970
O O9 0.057935 0.313235 0.031687
O O10 0.750000 0.500000 0.774564
O O11 0.834740 0.750000 0.750000
O O12 0.886672 0.480037 0.713147
O O13 0.931692 0.585091 0.801959
O O14 0.250000 0.500000 0.347305
O O15 0.080617 0.347360 0.353636
O O16 0.180727 0.110337 0.371739
O O17 0.010624 0.613425 0.887003
#
# Coordination Sequence:
#
# PCOD9409477 Si02
#       8
#     8   8   8   8   8   4   8   8
#     4  11  23  35  56  80 111 154 188 235 277 343
#     4  11  25  37  54  78 112 147 192 240 285 328
#     4  10  22  38  54  77 109 148 195 227 282 322
#     4   9  19  33  50  78 114 149 179 222 277 338
#     4  10  20  33  51  79 117 149 177 226 284 331
#     4  12  20  32  54  82 108 148 196 220 270 340
#     4  11  20  33  55  79 111 146 192 219 276 338
#     4  10  22  37  56  77 107 150 187 238 269 337
#
# _framework density 17.598433
#
# number of rings (size 3 to 8) (size 9 to 14) (size 15 to 20)
#    0.000    1.600    3.333    1.600    7.467    1.067 
#    0.000    0.000    0.000    0.000    0.000    0.000 
#   24.000    0.000    0.000    0.000    0.000    0.000 
#
# Total GULP energy -334446.596204 kJ/mol
# GULP energy per Si atom -5574.109937 kJ/mol
# Density = 1.755838 g / cm^3
# Si number density = 17.598433 Si / 1000 Ang^3
#
#
#
# Elastic Constant Matrix: (Units=GPa)
#
#
# Indices 1 2 3 4 5 6 
#
# 1 40.6069 10.0782 31.3376 0.0000 0.0000 0.0000
# 2 10.0782 35.4932 30.2271 0.0000 0.0000 0.0000
# 3 31.3376 30.2271 115.1485 0.0000 0.0000 0.0000
# 4 0.0000 0.0000 0.0000 25.0530 0.0000 0.0000
# 5 0.0000 0.0000 0.0000 0.0000 22.2876 0.0000
# 6 0.0000 0.0000 0.0000 0.0000 0.0000 24.1272
#
#
#
# Elastic Compliance Matrix: (Units=1/GPa)
#
#
# Indices 1 2 3 4 5 6 
#
# 1 0.031295 -0.002103 -0.007965 0.000000 0.000000 0.000000
# 2 -0.002103 0.036428 -0.008990 0.000000 0.000000 0.000000
# 3 -0.007965 -0.008990 0.013212 0.000000 0.000000 0.000000
# 4 0.000000 0.000000 0.000000 0.039915 0.000000 0.000000
# 5 0.000000 0.000000 0.000000 0.000000 0.044868 0.000000
# 6 0.000000 0.000000 0.000000 0.000000 0.000000 0.041447
#
#
# Mechanical properties :
#
#
# Convention : Reuss Voigt Hill
#
# Bulk Modulus (GPa) = 23.35421 37.17049 30.26235
# Shear Modulus (GPa) = 19.26379 22.26728 20.76554
#
# Velocity S-wave (km/s) = 3.31211 3.56096 3.43879
# Velocity P-wave (km/s) = 5.28452 6.17046 5.74460
#
# Compressibility (1/GPa) = 0.04281883
#
# Stress axis : x y z
#
# Youngs Moduli (GPa) = 31.95391 27.45155 75.68856
#
# Poissons Ratio (x) = 0.05773 0.60285
# Poissons Ratio (y) = 0.06720 0.68045
# Poissons Ratio (z) = 0.25451 0.24679
#
# Static dielectric constant tensor:
#      x y z
#    x 1.568040 0.000000 0.000000 
#    y 0.000000 1.659330 0.000000 
#    z 0.000000 0.000000 1.658340 
# 
# From -- ./inp_files/44829.got.cif
#   From: 2010.05.17/outbox.cif.g08.bks.cpg/sg52_23_cif.got.tgz:44829.got - 2010.06.03 12:15:38.
