data_PCOD9409487
_publ_section_title
;
Structure prediction by ZEFSAII (Michael W. Deem and Ramdas Pophale) SiO2 
 PCOD9409487
Probable space group: P N N A
;
_chemical_formula_sum "Si O2"
_cell_formula_units_Z 40
_cell_length_a 14.529710
_cell_length_b 12.697546
_cell_length_c 8.423050
_cell_angle_alpha 90.000000
_cell_angle_beta 90.000000
_cell_angle_gamma 90.000000
_cell_volume 1553.982486
_symmetry_space_group_name_H-M "P N N A"
_symmetry_group_IT_number 52
_symmetry_cell_setting 'orthorhombic'
loop_
_space_group_symop_operation_xyz
x,y,z
1/2-x,-y,z
x,1/2-y,1/2-z
1/2-x,1/2+y,1/2-z
-x,-y,-z
1/2+x,y,-z
-x,1/2+y,1/2+z
1/2+x,1/2-y,1/2+z
loop_
_atom_site_type_symbol
_atom_site_label
_atom_site_fract_x
_atom_site_fract_y
_atom_site_fract_z
Si Si1 0.750000 0.500000 0.130332
Si Si2 0.593019 0.667607 0.097669
Si Si3 0.701475 0.161329 0.133594
Si Si4 0.750000 0.000000 0.872449
Si Si5 0.451998 0.971268 0.243071
Si Si6 0.497098 0.834781 0.932329
O O1 0.680661 0.590326 0.064663
O O2 0.683065 0.435794 0.248459
O O3 0.589684 0.750000 0.250000
O O4 0.504131 0.591912 0.120765
O O5 0.573325 0.747689 0.956721
O O6 0.741366 0.250000 0.250000
O O7 0.606285 0.209344 0.074478
O O8 0.756517 0.102609 0.991388
O O9 0.841015 0.975566 0.770326
O O10 0.482540 0.090325 0.214589
O O11 0.489067 0.909108 0.087160
#
# Coordination Sequence:
#
# PCOD9409487 Si02
#       6
#     4   8   8   4   8   8
#     4  11  20  32  52  93 118 153 204 274 294 373
#     4  10  20  33  59  88 122 160 203 262 325 373
#     4  10  20  33  53  84 119 154 202 257 308 365
#     4   9  20  32  58  87 112 153 198 266 298 363
#     4   9  17  34  53  88 115 145 208 252 311 384
#     4   9  18  33  54  81 117 157 196 252 319 371
#
# _framework density 25.740314999999999
#
# number of rings (size 3 to 8) (size 9 to 14) (size 15 to 20)
#    0.000    2.400    2.000    0.600   11.200    0.000 
#    0.000    1.000    0.000    8.400    0.000    0.000 
#    0.000    0.000    0.000    0.000    0.000    0.000 
#
# Total GULP energy -222782.034910 kJ/mol
# GULP energy per Si atom -5569.550873 kJ/mol
# Density = 2.568173 g / cm^3
# Si number density = 25.740315 Si / 1000 Ang^3
#
#
#
# Elastic Constant Matrix: (Units=GPa)
#
#
# Indices 1 2 3 4 5 6 
#
# 1 170.8203 98.6376 17.0113 0.0000 0.0000 0.0000
# 2 98.6376 131.3955 52.2401 0.0000 0.0000 0.0000
# 3 17.0113 52.2401 42.1593 0.0000 0.0000 0.0000
# 4 0.0000 0.0000 0.0000 38.2148 0.0000 0.0000
# 5 0.0000 0.0000 0.0000 0.0000 -2.0110 0.0000
# 6 0.0000 0.0000 0.0000 0.0000 0.0000 56.2470
#
#
#
# Elastic Compliance Matrix: (Units=1/GPa)
#
#
# Indices 1 2 3 4 5 6 
#
# 1 0.013564 -0.015781 0.014081 0.000000 0.000000 0.000000
# 2 -0.015781 0.033360 -0.034970 0.000000 0.000000 0.000000
# 3 0.014081 -0.034970 0.061369 0.000000 0.000000 0.000000
# 4 0.000000 0.000000 0.000000 0.026168 0.000000 0.000000
# 5 0.000000 0.000000 0.000000 0.000000 -0.497260 0.000000
# 6 0.000000 0.000000 0.000000 0.000000 0.000000 0.017779
#
#
# Mechanical properties :
#
#
# Convention : Reuss Voigt Hill
#
# Bulk Modulus (GPa) = 28.60828 75.57256 52.09042
# Shear Modulus (GPa) = -19.22863 30.25589 5.51363
#
# Velocity S-wave (km/s) = -2.73614 3.43217 1.46515
# Velocity P-wave (km/s) = 1.07535 6.71787 4.81072
#
# Compressibility (1/GPa) = 0.03495492
#
# Stress axis : x y z
#
# Youngs Moduli (GPa) = 73.72289 29.97557 16.29483
#
# Poissons Ratio (x) = 0.47304 -0.22945
# Poissons Ratio (y) = 1.16342 0.56983
# Poissons Ratio (z) = -1.03811 1.04824
#
# Static dielectric constant tensor:
#      x y z
#    x 2.086990 0.000000 0.000000 
#    y 0.000000 1.961160 0.000000 
#    z 0.000000 0.000000 2.083080 
# 
# From -- ./inp_files/19298.got.cif
#   From: 2010.05.17/outbox.cif.g08.bks.cpg/sg52_10_cif.got.tgz:19298.got - 2010.06.03 12:15:38.
