data_PCOD9409946
_publ_section_title
;
Structure prediction by ZEFSAII (Michael W. Deem and Ramdas Pophale) SiO2 
 PCOD9409946
Probable space group: P N N A
;
_chemical_formula_sum "Si O2"
_cell_formula_units_Z 64
_cell_length_a 16.299349
_cell_length_b 11.918628
_cell_length_c 17.852278
_cell_angle_alpha 90.000000
_cell_angle_beta 90.000000
_cell_angle_gamma 90.000000
_cell_volume 3468.088449
_symmetry_space_group_name_H-M "P N N A"
_symmetry_group_IT_number 52
_symmetry_cell_setting 'orthorhombic'
loop_
_space_group_symop_operation_xyz
x,y,z
1/2-x,-y,z
x,1/2-y,1/2-z
1/2-x,1/2+y,1/2-z
-x,-y,-z
1/2+x,y,-z
-x,1/2+y,1/2+z
1/2+x,1/2-y,1/2+z
loop_
_atom_site_type_symbol
_atom_site_label
_atom_site_fract_x
_atom_site_fract_y
_atom_site_fract_z
Si Si1 0.990744 0.549559 0.107712
Si Si2 0.701296 0.112241 0.042406
Si Si3 0.327781 0.245967 0.056566
Si Si4 0.046288 0.417684 0.442101
Si Si5 0.401219 0.740016 0.670800
Si Si6 0.829257 0.419450 0.820183
Si Si7 0.930693 0.400875 0.668356
Si Si8 0.970405 0.329125 0.040434
O O1 0.935341 0.635284 0.154183
O O2 0.965196 0.420073 0.105865
O O3 0.085895 0.547927 0.135428
O O4 0.979852 0.607236 0.025603
O O5 0.653693 0.179960 0.107665
O O6 0.750000 0.000000 0.068070
O O7 0.762728 0.189474 0.996414
O O8 0.635319 0.083468 0.978786
O O9 0.296533 0.319352 0.126521
O O10 0.387007 0.157468 0.097638
O O11 0.383421 0.314592 0.999004
O O12 0.048711 0.474163 0.360221
O O13 0.000000 0.500000 0.500000
O O14 0.008078 0.292627 0.442178
O O15 0.356324 0.750000 0.750000
O O16 0.484632 0.666015 0.680056
O O17 0.750000 0.500000 0.812190
O O18 0.868820 0.393698 0.738630
#
# Coordination Sequence:
#
# PCOD9409946 Si02
#       8
#     8   8   8   8   8   8   8   8
#     4  10  20  39  64  89 124 172 214 259 316 392
#     4  12  24  38  64  99 129 162 220 287 329 371
#     4  11  22  39  60  92 129 168 213 268 329 381
#     4  12  20  37  64  93 126 163 220 268 320 380
#     4  12  22  44  72  92 121 181 229 258 324 418
#     4  11  25  39  59  95 136 168 207 268 333 392
#     4  12  21  41  65  93 126 177 220 261 322 410
#     4  10  20  37  63  94 124 162 222 268 309 386
#
# _framework density 18.453970000000002
#
# number of rings (size 3 to 8) (size 9 to 14) (size 15 to 20)
#    0.000    0.750    8.750    0.375    3.500    1.000 
#    0.000    1.875    0.000    0.000    0.000    0.000 
#    0.000    0.000    0.000    0.000    0.000    0.000 
#
# Total GULP energy -356379.680368 kJ/mol
# GULP energy per Si atom -5568.432506 kJ/mol
# Density = 1.841197 g / cm^3
# Si number density = 18.453970 Si / 1000 Ang^3
#
#
#
# Elastic Constant Matrix: (Units=GPa)
#
#
# Indices 1 2 3 4 5 6 
#
# 1 68.9071 37.6917 38.4652 0.0000 0.0000 0.0000
# 2 37.6917 113.6209 47.5138 0.0000 0.0000 0.0000
# 3 38.4652 47.5138 93.4918 0.0000 0.0000 0.0000
# 4 0.0000 0.0000 0.0000 16.8534 0.0000 0.0000
# 5 0.0000 0.0000 0.0000 0.0000 -157.5737 0.0000
# 6 0.0000 0.0000 0.0000 0.0000 0.0000 26.9393
#
#
#
# Elastic Compliance Matrix: (Units=1/GPa)
#
#
# Indices 1 2 3 4 5 6 
#
# 1 0.020242 -0.004105 -0.006242 0.000000 0.000000 0.000000
# 2 -0.004105 0.012009 -0.004414 0.000000 0.000000 0.000000
# 3 -0.006242 -0.004414 0.015508 0.000000 0.000000 0.000000
# 4 0.000000 0.000000 0.000000 0.059335 0.000000 0.000000
# 5 0.000000 0.000000 0.000000 0.000000 -0.006346 0.000000
# 6 0.000000 0.000000 0.000000 0.000000 0.000000 0.037121
#
#
# Mechanical properties :
#
#
# Convention : Reuss Voigt Hill
#
# Bulk Modulus (GPa) = 54.83519 58.15126 56.49323
# Shear Modulus (GPa) = 28.82365 -12.59960 8.11203
#
# Velocity S-wave (km/s) = 3.95640 -2.61580 2.09889
# Velocity P-wave (km/s) = 7.11688 4.73885 6.04593
#
# Compressibility (1/GPa) = 0.01823647
#
# Stress axis : x y z
#
# Youngs Moduli (GPa) = 49.40240 83.27247 64.48401
#
# Poissons Ratio (x) = 0.34180 0.40252
# Poissons Ratio (y) = 0.20278 0.28465
# Poissons Ratio (z) = 0.30838 0.36759
#
# Static dielectric constant tensor:
#      x y z
#    x 1.816560 0.000000 0.000000 
#    y 0.000000 1.657750 0.000000 
#    z 0.000000 0.000000 1.671980 
# 
# From -- ./inp_files/33278.got.cif
#   From: 2010.05.17/outbox.cif.g08.bks.cpg/sg52_17_cif.got.tgz:33278.got - 2010.06.03 12:15:38.
