data_PCOD9409248
_publ_section_title
;
Structure prediction by ZEFSAII (Michael W. Deem and Ramdas Pophale) SiO2 
 PCOD9409248
Probable space group: P N N A
;
_chemical_formula_sum "Si O2"
_cell_formula_units_Z 48
_cell_length_a 17.525207
_cell_length_b 18.530400
_cell_length_c 6.019524
_cell_angle_alpha 90.000000
_cell_angle_beta 90.000000
_cell_angle_gamma 90.000000
_cell_volume 1954.834976
_symmetry_space_group_name_H-M "P N N A"
_symmetry_group_IT_number 52
_symmetry_cell_setting 'orthorhombic'
loop_
_space_group_symop_operation_xyz
x,y,z
1/2-x,-y,z
x,1/2-y,1/2-z
1/2-x,1/2+y,1/2-z
-x,-y,-z
1/2+x,y,-z
-x,1/2+y,1/2+z
1/2+x,1/2-y,1/2+z
loop_
_atom_site_type_symbol
_atom_site_label
_atom_site_fract_x
_atom_site_fract_y
_atom_site_fract_z
Si Si1 0.384827 0.546268 0.598235
Si Si2 0.261759 0.863226 0.090269
Si Si3 0.629251 0.824464 0.650250
Si Si4 0.510476 0.947545 0.287817
Si Si5 0.460925 0.668419 0.899889
Si Si6 0.806779 0.250000 0.250000
Si Si7 0.121384 0.250000 0.250000
O O1 0.302888 0.567461 0.510172
O O2 0.445942 0.543027 0.397562
O O3 0.404655 0.469758 0.711569
O O4 0.408413 0.612349 0.765209
O O5 0.187186 0.880538 0.239089
O O6 0.325481 0.820933 0.236161
O O7 0.242686 0.804800 0.898452
O O8 0.660161 0.750000 0.750000
O O9 0.542052 0.828908 0.727769
O O10 0.642352 0.805168 0.394730
O O11 0.492817 0.869417 0.377343
O O12 0.500000 0.000000 0.500000
O O13 0.423143 0.739258 0.012439
#
# Coordination Sequence:
#
# PCOD9409248 Si02
#       7
#     8   8   8   8   8   4   4
#     4  10  21  37  66  86 113 162 207 260 301 362
#     4  11  21  37  57  89 121 158 207 244 307 377
#     4  10  23  36  53  86 129 162 190 244 318 376
#     4   9  20  39  60  87 114 153 210 254 311 352
#     4  11  23  37  61  92 127 155 203 261 310 374
#     4  10  19  38  56  77 126 168 190 234 323 368
#     4  12  21  36  58  99 122 152 212 252 301 388
#
# _framework density 24.554500999999998
#
# number of rings (size 3 to 8) (size 9 to 14) (size 15 to 20)
#    0.000    1.667    4.167    1.500    2.333    2.667 
#    0.000    0.000    0.000   24.000    0.000    0.000 
#    0.000    0.000    0.000    0.000    0.000    0.000 
#
# Total GULP energy -267464.783248 kJ/mol
# GULP energy per Si atom -5572.182984 kJ/mol
# Density = 2.449861 g / cm^3
# Si number density = 24.554501 Si / 1000 Ang^3
#
#
#
# Elastic Constant Matrix: (Units=GPa)
#
#
# Indices 1 2 3 4 5 6 
#
# 1 111.8790 13.3931 26.3935 0.0000 0.0000 0.0000
# 2 13.3931 39.1263 4.4999 0.0000 0.0000 0.0000
# 3 26.3935 4.4999 71.5552 0.0000 0.0000 0.0000
# 4 0.0000 0.0000 0.0000 38.8270 0.0000 0.0000
# 5 0.0000 0.0000 0.0000 0.0000 26.5523 0.0000
# 6 0.0000 0.0000 0.0000 0.0000 0.0000 30.2654
#
#
#
# Elastic Compliance Matrix: (Units=1/GPa)
#
#
# Indices 1 2 3 4 5 6 
#
# 1 0.010142 -0.003064 -0.003548 0.000000 0.000000 0.000000
# 2 -0.003064 0.026670 -0.000547 0.000000 0.000000 0.000000
# 3 -0.003548 -0.000547 0.015318 0.000000 0.000000 0.000000
# 4 0.000000 0.000000 0.000000 0.025755 0.000000 0.000000
# 5 0.000000 0.000000 0.000000 0.000000 0.037661 0.000000
# 6 0.000000 0.000000 0.000000 0.000000 0.000000 0.033041
#
#
# Mechanical properties :
#
#
# Convention : Reuss Voigt Hill
#
# Bulk Modulus (GPa) = 26.44642 34.57039 30.50841
# Shear Modulus (GPa) = 28.48835 31.01387 29.75111
#
# Velocity S-wave (km/s) = 3.40988 3.55781 3.48463
# Velocity P-wave (km/s) = 5.12805 5.56660 5.35182
#
# Compressibility (1/GPa) = 0.03781230
#
# Stress axis : x y z
#
# Youngs Moduli (GPa) = 98.59929 37.49548 65.28078
#
# Poissons Ratio (x) = 0.11487 0.23164
# Poissons Ratio (y) = 0.30207 0.03572
# Poissons Ratio (z) = 0.34986 0.02052
#
# Static dielectric constant tensor:
#      x y z
#    x 2.063970 0.000000 0.000000 
#    y 0.000000 2.023390 0.000000 
#    z 0.000000 0.000000 2.415470 
# 
# From -- ./inp_files/2493.got.cif
#   From: 2010.05.17/outbox.cif.g08.bks.cpg/sg52_2_cif.got.tgz:2493.got - 2010.06.03 12:15:38.
