data_PCOD9409247
_publ_section_title
;
Structure prediction by ZEFSAII (Michael W. Deem and Ramdas Pophale) SiO2 
 PCOD9409247
Probable space group: P N N A
;
_chemical_formula_sum "Si O2"
_cell_formula_units_Z 32
_cell_length_a 15.796016
_cell_length_b 11.785887
_cell_length_c 7.050890
_cell_angle_alpha 90.000000
_cell_angle_beta 90.000000
_cell_angle_gamma 90.000000
_cell_volume 1312.664612
_symmetry_space_group_name_H-M "P N N A"
_symmetry_group_IT_number 52
_symmetry_cell_setting 'orthorhombic'
loop_
_space_group_symop_operation_xyz
x,y,z
1/2-x,-y,z
x,1/2-y,1/2-z
1/2-x,1/2+y,1/2-z
-x,-y,-z
1/2+x,y,-z
-x,1/2+y,1/2+z
1/2+x,1/2-y,1/2+z
loop_
_atom_site_type_symbol
_atom_site_label
_atom_site_fract_x
_atom_site_fract_y
_atom_site_fract_z
Si Si1 0.282832 0.114175 0.552573
Si Si2 0.157596 0.521304 0.536010
Si Si3 0.122444 0.236455 0.022027
Si Si4 0.062618 0.742786 0.518961
O O1 0.317121 0.072728 0.757566
O O2 0.203479 0.198963 0.561134
O O3 0.361244 0.176123 0.456612
O O4 0.250000 0.000000 0.458097
O O5 0.250000 0.500000 0.444108
O O6 0.120218 0.395687 0.533571
O O7 0.092086 0.615813 0.463126
O O8 0.130199 0.250000 0.250000
O O9 0.030609 0.282099 0.960140
O O10 0.059675 0.750000 0.750000
#
# Coordination Sequence:
#
# PCOD9409247 Si02
#       4
#     8   8   8   8
#     4  10  22  38  65  92 133 179 228 268 332 413
#     4  10  19  37  70  91 127 181 231 265 332 407
#     4  11  23  39  65  98 138 174 222 293 345 377
#     4   9  19  38  63  99 131 175 229 273 327 407
#
# _framework density 24.377896
#
# number of rings (size 3 to 8) (size 9 to 14) (size 15 to 20)
#    0.000    2.000    2.500    0.750    3.500    2.000 
#    0.000    0.000   11.000    0.000    0.000    0.000 
#    0.000    0.000    0.000    0.000    0.000    0.000 
#
# Total GULP energy -178763.012817 kJ/mol
# GULP energy per Si atom -5586.344151 kJ/mol
# Density = 2.432241 g / cm^3
# Si number density = 24.377896 Si / 1000 Ang^3
#
#
#
# Elastic Constant Matrix: (Units=GPa)
#
#
# Indices 1 2 3 4 5 6 
#
# 1 186.3371 80.2327 20.3280 0.0000 0.0000 0.0000
# 2 80.2327 154.0137 38.8091 0.0000 0.0000 0.0000
# 3 20.3280 38.8091 128.8195 0.0000 0.0000 0.0000
# 4 0.0000 0.0000 0.0000 8.4478 0.0000 0.0000
# 5 0.0000 0.0000 0.0000 0.0000 -2.4292 0.0000
# 6 0.0000 0.0000 0.0000 0.0000 0.0000 -69.6092
#
#
#
# Elastic Compliance Matrix: (Units=1/GPa)
#
#
# Indices 1 2 3 4 5 6 
#
# 1 0.006918 -0.003603 -0.000006 0.000000 0.000000 0.000000
# 2 -0.003603 0.008902 -0.002113 0.000000 0.000000 0.000000
# 3 -0.000006 -0.002113 0.008401 0.000000 0.000000 0.000000
# 4 0.000000 0.000000 0.000000 0.118374 0.000000 0.000000
# 5 0.000000 0.000000 0.000000 0.000000 -0.411660 0.000000
# 6 0.000000 0.000000 0.000000 0.000000 0.000000 -0.014366
#
#
# Mechanical properties :
#
#
# Convention : Reuss Voigt Hill
#
# Bulk Modulus (GPa) = 78.26934 83.10110 80.68522
# Shear Modulus (GPa) = -18.67572 9.26858 -4.70357
#
# Velocity S-wave (km/s) = -2.77084 1.95200 -1.39055
# Velocity P-wave (km/s) = 4.68398 6.26443 5.53095
#
# Compressibility (1/GPa) = 0.01277639
#
# Stress axis : x y z
#
# Youngs Moduli (GPa) = 144.54008 112.33157 119.04005
#
# Poissons Ratio (x) = 0.40468 0.00076
# Poissons Ratio (y) = 0.52071 0.25159
# Poissons Ratio (z) = 0.00093 0.23741
#
# Static dielectric constant tensor:
#      x y z
#    x 1.966800 0.000000 0.000000 
#    y 0.000000 1.952180 0.000000 
#    z 0.000000 0.000000 2.057380 
# 
# From -- ./inp_files/9554.got.cif
#   From: 2010.05.17/outbox.cif.g08.bks.cpg/sg52_5_cif.got.tgz:9554.got - 2010.06.03 12:15:38.
