data_PCOD9409964
_publ_section_title
;
Structure prediction by ZEFSAII (Michael W. Deem and Ramdas Pophale) SiO2 
 PCOD9409964
Probable space group: P N N A
;
_chemical_formula_sum "Si O2"
_cell_formula_units_Z 36
_cell_length_a 8.458934
_cell_length_b 12.407567
_cell_length_c 15.487389
_cell_angle_alpha 90.000000
_cell_angle_beta 90.000000
_cell_angle_gamma 90.000000
_cell_volume 1625.475666
_symmetry_space_group_name_H-M "P N N A"
_symmetry_group_IT_number 52
_symmetry_cell_setting 'orthorhombic'
loop_
_space_group_symop_operation_xyz
x,y,z
1/2-x,-y,z
x,1/2-y,1/2-z
1/2-x,1/2+y,1/2-z
-x,-y,-z
1/2+x,y,-z
-x,1/2+y,1/2+z
1/2+x,1/2-y,1/2+z
loop_
_atom_site_type_symbol
_atom_site_label
_atom_site_fract_x
_atom_site_fract_y
_atom_site_fract_z
Si Si1 0.596285 0.681476 0.895837
Si Si2 0.031717 0.586815 0.381620
Si Si3 0.447702 0.608865 0.054805
Si Si4 0.936431 0.494333 0.215486
Si Si5 0.250000 0.000000 0.969563
O O1 0.596235 0.797972 0.852098
O O2 0.765044 0.629355 0.921666
O O3 0.499548 0.599340 0.836027
O O4 0.506246 0.697395 0.987439
O O5 0.131795 0.557924 0.465292
O O6 0.032922 0.498468 0.304876
O O7 0.849004 0.583181 0.411649
O O8 0.531831 0.600664 0.147178
O O9 0.500000 0.500000 0.000000
O O10 0.750000 0.500000 0.230436
#
# Coordination Sequence:
#
# PCOD9409964 Si02
#       5
#     8   8   8   8   4
#     4  11  22  39  66  96 128 167 212 269 316 395
#     4  11  23  43  65  90 126 165 223 261 325 385
#     4  10  20  37  65  97 130 165 207 260 330 389
#     4  11  22  39  63  94 129 168 207 265 326 384
#     4  10  24  42  66  84 120 176 208 268 326 394
#
# _framework density 22.147362000000001
#
# number of rings (size 3 to 8) (size 9 to 14) (size 15 to 20)
#    0.000    1.333    1.111    7.333    3.111    0.000 
#    0.000    0.000    0.000    0.000    0.000    0.000 
#    0.000    0.000    0.000    0.000    0.000    0.000 
#
# Total GULP energy -200664.286124 kJ/mol
# GULP energy per Si atom -5574.007948 kJ/mol
# Density = 2.209695 g / cm^3
# Si number density = 22.147362 Si / 1000 Ang^3
#
#
#
# Elastic Constant Matrix: (Units=GPa)
#
#
# Indices 1 2 3 4 5 6 
#
# 1 121.6290 20.2687 15.5556 0.0000 0.0000 0.0000
# 2 20.2687 34.1846 -2.7776 0.0000 0.0000 0.0000
# 3 15.5556 -2.7776 100.8865 0.0000 0.0000 0.0000
# 4 0.0000 0.0000 0.0000 22.8192 0.0000 0.0000
# 5 0.0000 0.0000 0.0000 0.0000 30.3136 0.0000
# 6 0.0000 0.0000 0.0000 0.0000 0.0000 22.9648
#
#
#
# Elastic Compliance Matrix: (Units=1/GPa)
#
#
# Indices 1 2 3 4 5 6 
#
# 1 0.009375 -0.005689 -0.001602 0.000000 0.000000 0.000000
# 2 -0.005689 0.032770 0.001779 0.000000 0.000000 0.000000
# 3 -0.001602 0.001779 0.010208 0.000000 0.000000 0.000000
# 4 0.000000 0.000000 0.000000 0.043823 0.000000 0.000000
# 5 0.000000 0.000000 0.000000 0.000000 0.032988 0.000000
# 6 0.000000 0.000000 0.000000 0.000000 0.000000 0.043545
#
#
# Mechanical properties :
#
#
# Convention : Reuss Voigt Hill
#
# Bulk Modulus (GPa) = 24.19520 35.86596 30.03058
# Shear Modulus (GPa) = 25.31537 30.12976 27.72256
#
# Velocity S-wave (km/s) = 3.38456 3.69239 3.54182
# Velocity P-wave (km/s) = 5.12074 5.86581 5.50589
#
# Compressibility (1/GPa) = 0.04133052
#
# Stress axis : x y z
#
# Youngs Moduli (GPa) = 106.67151 30.51538 97.96105
#
# Poissons Ratio (x) = 0.17359 0.15694
# Poissons Ratio (y) = 0.60680 -0.17431
# Poissons Ratio (z) = 0.17090 -0.05430
#
# Static dielectric constant tensor:
#      x y z
#    x 1.840350 0.000000 0.000000 
#    y 0.000000 1.849620 0.000000 
#    z 0.000000 0.000000 1.851280 
# 
# From -- ./inp_files/24338.got.cif
#   From: 2010.05.17/outbox.cif.g08.bks.cpg/sg52_13_cif.got.tgz:24338.got - 2010.06.03 12:15:38.
