data_PCOD9409517
_publ_section_title
;
Structure prediction by ZEFSAII (Michael W. Deem and Ramdas Pophale) SiO2 
 PCOD9409517
Probable space group: P N N A
;
_chemical_formula_sum "Si O2"
_cell_formula_units_Z 60
_cell_length_a 8.910463
_cell_length_b 14.332940
_cell_length_c 29.568917
_cell_angle_alpha 90.000000
_cell_angle_beta 90.000000
_cell_angle_gamma 90.000000
_cell_volume 3776.338987
_symmetry_space_group_name_H-M "P N N A"
_symmetry_group_IT_number 52
_symmetry_cell_setting 'orthorhombic'
loop_
_space_group_symop_operation_xyz
x,y,z
1/2-x,-y,z
x,1/2-y,1/2-z
1/2-x,1/2+y,1/2-z
-x,-y,-z
1/2+x,y,-z
-x,1/2+y,1/2+z
1/2+x,1/2-y,1/2+z
loop_
_atom_site_type_symbol
_atom_site_label
_atom_site_fract_x
_atom_site_fract_y
_atom_site_fract_z
Si Si1 0.534791 0.833702 0.284419
Si Si2 0.523623 0.202852 0.866108
Si Si3 0.211012 0.107335 0.211935
Si Si4 0.477928 0.411815 0.449327
Si Si5 0.250000 0.000000 0.730203
Si Si6 0.876479 0.623763 0.544597
Si Si7 0.949649 0.843615 0.223366
Si Si8 0.703092 0.108328 0.132276
O O1 0.588504 0.750000 0.250000
O O2 0.488711 0.792122 0.332995
O O3 0.394922 0.871573 0.254860
O O4 0.654210 0.916141 0.291756
O O5 0.626015 0.136501 0.834107
O O6 0.584928 0.200398 0.917280
O O7 0.358214 0.162132 0.872687
O O8 0.371142 0.155375 0.218456
O O9 0.250000 0.000000 0.208933
O O10 0.563392 0.370527 0.493325
O O11 0.303847 0.383199 0.453401
O O12 0.458080 0.524554 0.443747
O O13 0.584383 0.384626 0.408095
O O14 0.377869 0.938610 0.755832
O O15 0.910777 0.750000 0.250000
O O16 0.877072 0.845027 0.174506
O O17 0.750000 0.000000 0.139744
#
# Coordination Sequence:
#
# PCOD9409517 Si02
#       8
#     8   8   8   8   4   8   8   8
#     4  10  22  37  52  76 106 143 187 233 276 316
#     4  11  21  34  52  73 108 139 181 227 266 315
#     4  11  21  37  53  74 102 145 187 230 275 318
#     4  10  21  32  51  75 104 143 180 212 262 326
#     4  12  20  36  52  72 108 142 184 222 276 318
#     4  10  20  34  50  74 106 139 177 220 260 317
#     4  12  23  35  54  77 103 142 186 226 265 321
#     4  12  21  33  49  75 103 143 178 213 263 317
#
# _framework density 15.888404
#
# number of rings (size 3 to 8) (size 9 to 14) (size 15 to 20)
#    0.000    1.067    3.333    6.400    3.733    0.000 
#    0.000    0.000    0.000    0.000    0.000    0.000 
#    0.000    9.600    3.067    0.133    0.000    0.000 
#
# Total GULP energy -334012.111402 kJ/mol
# GULP energy per Si atom -5566.868523 kJ/mol
# Density = 1.585224 g / cm^3
# Si number density = 15.888404 Si / 1000 Ang^3
#
#
#
# Elastic Constant Matrix: (Units=GPa)
#
#
# Indices 1 2 3 4 5 6 
#
# 1 102.4755 27.8452 43.8291 0.0000 0.0000 0.0000
# 2 27.8452 68.6267 43.9054 0.0000 0.0000 0.0000
# 3 43.8291 43.9054 117.5558 0.0000 0.0000 0.0000
# 4 0.0000 0.0000 0.0000 20.1543 0.0000 0.0000
# 5 0.0000 0.0000 0.0000 0.0000 39.1720 0.0000
# 6 0.0000 0.0000 0.0000 0.0000 0.0000 35.8389
#
#
#
# Elastic Compliance Matrix: (Units=1/GPa)
#
#
# Indices 1 2 3 4 5 6 
#
# 1 0.011960 -0.002628 -0.003478 0.000000 0.000000 0.000000
# 2 -0.002628 0.019724 -0.006387 0.000000 0.000000 0.000000
# 3 -0.003478 -0.006387 0.012189 0.000000 0.000000 0.000000
# 4 0.000000 0.000000 0.000000 0.049617 0.000000 0.000000
# 5 0.000000 0.000000 0.000000 0.000000 0.025528 0.000000
# 6 0.000000 0.000000 0.000000 0.000000 0.000000 0.027903
#
#
# Mechanical properties :
#
#
# Convention : Reuss Voigt Hill
#
# Bulk Modulus (GPa) = 52.94425 57.75748 55.35086
# Shear Modulus (GPa) = 28.05816 30.57158 29.31487
#
# Velocity S-wave (km/s) = 4.20688 4.39127 4.30006
# Velocity P-wave (km/s) = 7.54931 7.88301 7.71796
#
# Compressibility (1/GPa) = 0.01888779
#
# Stress axis : x y z
#
# Youngs Moduli (GPa) = 83.61293 50.69983 82.04394
#
# Poissons Ratio (x) = 0.13323 0.28532
# Poissons Ratio (y) = 0.21972 0.52400
# Poissons Ratio (z) = 0.29078 0.32381
#
# Static dielectric constant tensor:
#      x y z
#    x 1.580940 0.000000 0.000000 
#    y 0.000000 1.534700 0.000000 
#    z 0.000000 0.000000 1.554040 
# 
# From -- ./inp_files/42406.got.cif
#   From: 2010.05.17/outbox.cif.g08.bks.cpg/sg52_22_cif.got.tgz:42406.got - 2010.06.03 12:15:38.
