data_PCOD9409777
_publ_section_title
;
Structure prediction by ZEFSAII (Michael W. Deem and Ramdas Pophale) SiO2 
 PCOD9409777
Probable space group: P N N A
;
_chemical_formula_sum "Si O2"
_cell_formula_units_Z 64
_cell_length_a 14.441253
_cell_length_b 11.599403
_cell_length_c 18.909382
_cell_angle_alpha 90.000000
_cell_angle_beta 90.000000
_cell_angle_gamma 90.000000
_cell_volume 3167.508941
_symmetry_space_group_name_H-M "P N N A"
_symmetry_group_IT_number 52
_symmetry_cell_setting 'orthorhombic'
loop_
_space_group_symop_operation_xyz
x,y,z
1/2-x,-y,z
x,1/2-y,1/2-z
1/2-x,1/2+y,1/2-z
-x,-y,-z
1/2+x,y,-z
-x,1/2+y,1/2+z
1/2+x,1/2-y,1/2+z
loop_
_atom_site_type_symbol
_atom_site_label
_atom_site_fract_x
_atom_site_fract_y
_atom_site_fract_z
Si Si1 0.266417 0.628276 0.791877
Si Si2 0.483391 0.848508 0.688612
Si Si3 0.956731 0.279949 0.969816
Si Si4 0.220020 0.318149 0.318345
Si Si5 0.600562 0.953908 0.798957
Si Si6 0.341974 0.787211 0.030101
Si Si7 0.582722 0.969179 0.950046
Si Si8 0.794044 0.123677 0.447588
O O1 0.250000 0.500000 0.757408
O O2 0.252772 0.750000 0.750000
O O3 0.374376 0.626345 0.815268
O O4 0.204130 0.631980 0.862595
O O5 0.491416 0.750000 0.750000
O O6 0.519905 0.817922 0.610544
O O7 0.545048 0.946366 0.726638
O O8 0.894824 0.162694 0.966648
O O9 0.893191 0.365975 0.014554
O O10 0.053780 0.251915 0.009300
O O11 0.192747 0.250000 0.250000
O O12 0.328583 0.348187 0.311819
O O13 0.164719 0.435910 0.308293
O O14 0.191556 0.256393 0.390702
O O15 0.541372 0.963912 0.870412
O O16 0.344541 0.928006 0.035831
O O17 0.274468 0.724123 0.975595
O O18 0.500000 0.000000 0.000000
O O19 0.750000 0.000000 0.465481
#
# Coordination Sequence:
#
# PCOD9409777 Si02
#       8
#     8   8   8   8   8   8   8   8
#     4  10  24  51  70  97 133 177 230 291 335 404
#     4  11  21  39  71  92 129 169 229 276 332 413
#     4  11  22  41  66  98 125 181 221 273 344 409
#     4  10  22  38  56  87 134 162 207 262 328 396
#     4  10  20  36  59  92 121 168 203 266 326 387
#     4  10  22  42  62  94 136 166 216 279 340 400
#     4   9  19  36  61  94 131 157 212 270 328 388
#     4  11  25  44  65  94 135 177 231 278 338 410
#
# _framework density 20.205151999999998
#
# number of rings (size 3 to 8) (size 9 to 14) (size 15 to 20)
#    0.000    1.750    2.500    1.125    1.750    3.000 
#   13.500    0.000    0.000    0.000    0.000    0.000 
#    0.000    0.000    0.000    0.000    0.000    0.000 
#
# Total GULP energy -356428.513345 kJ/mol
# GULP energy per Si atom -5569.195521 kJ/mol
# Density = 2.015916 g / cm^3
# Si number density = 20.205152 Si / 1000 Ang^3
#
#
#
# Elastic Constant Matrix: (Units=GPa)
#
#
# Indices 1 2 3 4 5 6 
#
# 1 81.8745 24.5600 41.4690 0.0000 0.0000 0.0000
# 2 24.5600 82.5926 41.4015 0.0000 0.0000 0.0000
# 3 41.4690 41.4015 124.7338 0.0000 0.0000 0.0000
# 4 0.0000 0.0000 0.0000 31.5944 0.0000 0.0000
# 5 0.0000 0.0000 0.0000 0.0000 79.5288 0.0000
# 6 0.0000 0.0000 0.0000 0.0000 0.0000 20.8014
#
#
#
# Elastic Compliance Matrix: (Units=1/GPa)
#
#
# Indices 1 2 3 4 5 6 
#
# 1 0.015061 -0.002362 -0.004223 0.000000 0.000000 0.000000
# 2 -0.002362 0.014894 -0.004159 0.000000 0.000000 0.000000
# 3 -0.004223 -0.004159 0.010802 0.000000 0.000000 0.000000
# 4 0.000000 0.000000 0.000000 0.031651 0.000000 0.000000
# 5 0.000000 0.000000 0.000000 0.000000 0.012574 0.000000
# 6 0.000000 0.000000 0.000000 0.000000 0.000000 0.048074
#
#
# Mechanical properties :
#
#
# Convention : Reuss Voigt Hill
#
# Bulk Modulus (GPa) = 51.89399 56.00687 53.95043
# Shear Modulus (GPa) = 31.06230 38.50296 34.78263
#
# Velocity S-wave (km/s) = 3.92515 4.37005 4.15357
# Velocity P-wave (km/s) = 6.80307 7.29674 7.05423
#
# Compressibility (1/GPa) = 0.01927006
#
# Stress axis : x y z
#
# Youngs Moduli (GPa) = 66.39501 67.13896 92.57947
#
# Poissons Ratio (x) = 0.15855 0.39100
# Poissons Ratio (y) = 0.15680 0.38500
# Poissons Ratio (z) = 0.28042 0.27921
#
# Static dielectric constant tensor:
#      x y z
#    x 1.738410 0.000000 0.000000 
#    y 0.000000 3.044770 0.000000 
#    z 0.000000 0.000000 1.729270 
# 
# From -- ./inp_files/33303.got.cif
#   From: 2010.05.17/outbox.cif.g08.bks.cpg/sg52_17_cif.got.tgz:33303.got - 2010.06.03 12:15:38.
