data_PCOD9409684
_publ_section_title
;
Structure prediction by ZEFSAII (Michael W. Deem and Ramdas Pophale) SiO2 
 PCOD9409684
Probable space group: P N N A
;
_chemical_formula_sum "Si O2"
_cell_formula_units_Z 40
_cell_length_a 7.813490
_cell_length_b 18.160277
_cell_length_c 12.207223
_cell_angle_alpha 90.000000
_cell_angle_beta 90.000000
_cell_angle_gamma 90.000000
_cell_volume 1732.145650
_symmetry_space_group_name_H-M "P N N A"
_symmetry_group_IT_number 52
_symmetry_cell_setting 'orthorhombic'
loop_
_space_group_symop_operation_xyz
x,y,z
1/2-x,-y,z
x,1/2-y,1/2-z
1/2-x,1/2+y,1/2-z
-x,-y,-z
1/2+x,y,-z
-x,1/2+y,1/2+z
1/2+x,1/2-y,1/2+z
loop_
_atom_site_type_symbol
_atom_site_label
_atom_site_fract_x
_atom_site_fract_y
_atom_site_fract_z
Si Si1 0.610044 0.232589 0.374321
Si Si2 0.106495 0.098112 0.207612
Si Si3 0.422143 0.317570 0.534465
Si Si4 0.763458 0.419348 0.171588
Si Si5 0.038659 0.934430 0.157804
O O1 0.557688 0.250000 0.250000
O O2 0.462071 0.247971 0.459294
O O3 0.686138 0.151743 0.385736
O O4 0.750048 0.295334 0.404077
O O5 0.062581 0.165131 0.127123
O O6 0.305871 0.093438 0.236947
O O7 0.960700 0.097176 0.299477
O O8 0.068956 0.021358 0.142912
O O9 0.428319 0.387057 0.451469
O O10 0.750000 0.500000 0.117708
O O11 0.643148 0.426909 0.281441
#
# Coordination Sequence:
#
# PCOD9409684 Si02
#       5
#     8   8   8   8   8
#     4  12  24  42  63  94 133 168 216 264 323 385
#     4  10  20  35  60  95 127 160 205 262 331 389
#     4  12  21  38  61  92 134 166 208 262 323 384
#     4  10  22  44  66  88 128 172 210 264 319 375
#     4  10  20  35  60  95 127 160 205 262 331 389
#
# _framework density 23.092745000000001
#
# number of rings (size 3 to 8) (size 9 to 14) (size 15 to 20)
#    0.000    1.200    6.000    0.600    0.000    0.000 
#    3.600    4.000    0.000    0.000    0.000    0.000 
#    0.000    0.000    0.000    0.000    0.000    0.000 
#
# Total GULP energy -223298.392201 kJ/mol
# GULP energy per Si atom -5582.459805 kJ/mol
# Density = 2.304019 g / cm^3
# Si number density = 23.092745 Si / 1000 Ang^3
#
#
#
# Elastic Constant Matrix: (Units=GPa)
#
#
# Indices 1 2 3 4 5 6 
#
# 1 81.7820 -15.1327 6.6490 0.0000 0.0000 0.0000
# 2 -15.1327 105.2446 12.1585 0.0000 0.0000 0.0000
# 3 6.6490 12.1585 21.4953 0.0000 0.0000 0.0000
# 4 0.0000 0.0000 0.0000 33.6915 0.0000 0.0000
# 5 0.0000 0.0000 0.0000 0.0000 13.9544 0.0000
# 6 0.0000 0.0000 0.0000 0.0000 0.0000 32.7723
#
#
#
# Elastic Compliance Matrix: (Units=1/GPa)
#
#
# Indices 1 2 3 4 5 6 
#
# 1 0.013141 0.002524 -0.005493 0.000000 0.000000 0.000000
# 2 0.002524 0.010651 -0.006805 0.000000 0.000000 0.000000
# 3 -0.005493 -0.006805 0.052070 0.000000 0.000000 0.000000
# 4 0.000000 0.000000 0.000000 0.029681 0.000000 0.000000
# 5 0.000000 0.000000 0.000000 0.000000 0.071662 0.000000
# 6 0.000000 0.000000 0.000000 0.000000 0.000000 0.030514
#
#
# Mechanical properties :
#
#
# Convention : Reuss Voigt Hill
#
# Bulk Modulus (GPa) = 17.75740 23.98574 20.87157
# Shear Modulus (GPa) = 20.32209 29.74011 25.03110
#
# Velocity S-wave (km/s) = 2.96973 3.59256 3.29589
# Velocity P-wave (km/s) = 4.41196 5.25528 4.85197
#
# Compressibility (1/GPa) = 0.05631455
#
# Stress axis : x y z
#
# Youngs Moduli (GPa) = 76.09641 93.88983 19.20492
#
# Poissons Ratio (x) = -0.23698 0.10548
# Poissons Ratio (y) = -0.19207 0.13069
# Poissons Ratio (z) = 0.41797 0.63894
#
# Static dielectric constant tensor:
#      x y z
#    x 1.943940 0.000000 0.000000 
#    y 0.000000 1.884400 0.000000 
#    z 0.000000 0.000000 1.857590 
# 
# From -- ./inp_files/16680.got.cif
#   From: 2010.05.17/outbox.cif.g08.bks.cpg/sg52_9_cif.got.tgz:16680.got - 2010.06.03 12:15:38.
