data_PCOD9409352
_publ_section_title
;
Structure prediction by ZEFSAII (Michael W. Deem and Ramdas Pophale) SiO2 
 PCOD9409352
Probable space group: P N N A
;
_chemical_formula_sum "Si O2"
_cell_formula_units_Z 48
_cell_length_a 9.105637
_cell_length_b 10.056592
_cell_length_c 27.071686
_cell_angle_alpha 90.000000
_cell_angle_beta 90.000000
_cell_angle_gamma 90.000000
_cell_volume 2478.999665
_symmetry_space_group_name_H-M "P N N A"
_symmetry_group_IT_number 52
_symmetry_cell_setting 'orthorhombic'
loop_
_space_group_symop_operation_xyz
x,y,z
1/2-x,-y,z
x,1/2-y,1/2-z
1/2-x,1/2+y,1/2-z
-x,-y,-z
1/2+x,y,-z
-x,1/2+y,1/2+z
1/2+x,1/2-y,1/2+z
loop_
_atom_site_type_symbol
_atom_site_label
_atom_site_fract_x
_atom_site_fract_y
_atom_site_fract_z
Si Si1 0.983331 0.759784 0.613848
Si Si2 0.858002 0.223375 0.584509
Si Si3 0.424410 0.028981 0.147486
Si Si4 0.879941 0.101717 0.479248
Si Si5 0.384228 0.602202 0.742246
Si Si6 0.923612 0.486983 0.833520
O O1 0.812843 0.773378 0.598713
O O2 0.000240 0.608892 0.631126
O O3 0.076986 0.809864 0.567527
O O4 0.996389 0.870003 0.656365
O O5 0.925667 0.360965 0.604041
O O6 0.857771 0.196718 0.526474
O O7 0.928149 0.102457 0.616440
O O8 0.511836 0.086079 0.194231
O O9 0.250000 0.000000 0.158473
O O10 0.750000 0.000000 0.466794
O O11 0.000000 0.000000 0.500000
O O12 0.250000 0.500000 0.739708
O O13 0.324210 0.750000 0.750000
O O14 0.489087 0.577454 0.789117
O O15 0.750000 0.500000 0.821564
#
# Coordination Sequence:
#
# PCOD9409352 Si02
#       6
#     8   8   8   8   8   8
#     4  10  22  38  64  99 122 161 216 270 311 372
#     4  10  19  40  65  92 124 164 216 267 309 373
#     4  10  23  45  69  91 126 167 218 268 318 377
#     4  12  21  38  64  94 129 169 218 264 312 377
#     4  12  27  45  62  94 134 167 205 266 327 386
#     4  10  20  40  69  89 118 169 222 258 306 374
#
# _framework density 19.362649999999999
#
# number of rings (size 3 to 8) (size 9 to 14) (size 15 to 20)
#    0.000    1.333    5.000    1.000    2.333    1.333 
#    3.000    0.000    0.000    0.000    0.000    0.000 
#    0.000    0.000    0.000    0.000    0.000    0.000 
#
# Total GULP energy -267904.740377 kJ/mol
# GULP energy per Si atom -5581.348758 kJ/mol
# Density = 1.931858 g / cm^3
# Si number density = 19.362650 Si / 1000 Ang^3
#
#
#
# Elastic Constant Matrix: (Units=GPa)
#
#
# Indices 1 2 3 4 5 6 
#
# 1 37.3609 31.8420 19.0476 0.0000 0.0000 0.0000
# 2 31.8420 162.1351 49.8549 0.0000 0.0000 0.0000
# 3 19.0476 49.8549 92.5133 0.0000 0.0000 0.0000
# 4 0.0000 0.0000 0.0000 27.6551 0.0000 0.0000
# 5 0.0000 0.0000 0.0000 0.0000 8.9818 0.0000
# 6 0.0000 0.0000 0.0000 0.0000 0.0000 23.4785
#
#
#
# Elastic Compliance Matrix: (Units=1/GPa)
#
#
# Indices 1 2 3 4 5 6 
#
# 1 0.033336 -0.005318 -0.003998 0.000000 0.000000 0.000000
# 2 -0.005318 0.008241 -0.003346 0.000000 0.000000 0.000000
# 3 -0.003998 -0.003346 0.013436 0.000000 0.000000 0.000000
# 4 0.000000 0.000000 0.000000 0.036160 0.000000 0.000000
# 5 0.000000 0.000000 0.000000 0.000000 0.111336 0.000000
# 6 0.000000 0.000000 0.000000 0.000000 0.000000 0.042592
#
#
# Mechanical properties :
#
#
# Convention : Reuss Voigt Hill
#
# Bulk Modulus (GPa) = 33.68211 54.83314 44.25762
# Shear Modulus (GPa) = 17.83672 24.77407 21.30540
#
# Velocity S-wave (km/s) = 3.03841 3.58086 3.32073
# Velocity P-wave (km/s) = 5.45366 6.74368 6.13268
#
# Compressibility (1/GPa) = 0.02968935
#
# Stress axis : x y z
#
# Youngs Moduli (GPa) = 29.99730 121.34537 74.42902
#
# Poissons Ratio (x) = 0.64527 0.29757
# Poissons Ratio (y) = 0.15951 0.24905
# Poissons Ratio (z) = 0.11993 0.40604
#
# Static dielectric constant tensor:
#      x y z
#    x 1.666120 0.000000 0.000000 
#    y 0.000000 1.709570 0.000000 
#    z 0.000000 0.000000 1.675290 
# 
# From -- ./inp_files/39452.got.cif
#   From: 2010.05.17/outbox.cif.g08.bks.cpg/sg52_20_cif.got.tgz:39452.got - 2010.06.03 12:15:38.
