data_PCOD9409264
_publ_section_title
;
Structure prediction by ZEFSAII (Michael W. Deem and Ramdas Pophale) SiO2 
 PCOD9409264
Probable space group: P N N A
;
_chemical_formula_sum "Si O2"
_cell_formula_units_Z 48
_cell_length_a 9.964407
_cell_length_b 30.261683
_cell_length_c 8.473977
_cell_angle_alpha 90.000000
_cell_angle_beta 90.000000
_cell_angle_gamma 90.000000
_cell_volume 2555.240702
_symmetry_space_group_name_H-M "P N N A"
_symmetry_group_IT_number 52
_symmetry_cell_setting 'orthorhombic'
loop_
_space_group_symop_operation_xyz
x,y,z
1/2-x,-y,z
x,1/2-y,1/2-z
1/2-x,1/2+y,1/2-z
-x,-y,-z
1/2+x,y,-z
-x,1/2+y,1/2+z
1/2+x,1/2-y,1/2+z
loop_
_atom_site_type_symbol
_atom_site_label
_atom_site_fract_x
_atom_site_fract_y
_atom_site_fract_z
Si Si1 0.260414 0.138511 0.822210
Si Si2 0.229213 0.359715 0.306254
Si Si3 0.190779 0.544018 0.837786
Si Si4 0.402369 0.571176 0.094886
Si Si5 0.494793 0.200710 0.690212
Si Si6 0.495757 0.653697 0.878705
O O1 0.285582 0.088692 0.761074
O O2 0.374282 0.169593 0.749046
O O3 0.119097 0.155349 0.752804
O O4 0.261934 0.139607 0.010132
O O5 0.361520 0.353631 0.201254
O O6 0.156048 0.404687 0.249311
O O7 0.129202 0.319834 0.264742
O O8 0.250000 0.500000 0.758969
O O9 0.031651 0.541181 0.870145
O O10 0.280915 0.549914 0.996282
O O11 0.459510 0.611281 0.986956
O O12 0.474623 0.250000 0.750000
O O13 0.503680 0.194415 0.500964
#
# Coordination Sequence:
#
# PCOD9409264 Si02
#       6
#     8   8   8   8   8   8
#     4  11  23  39  62  90 129 162 198 256 311 364
#     4  11  21  39  62  88 123 162 199 249 313 363
#     4  11  21  38  63  92 122 163 214 254 306 371
#     4  10  19  38  61  88 118 160 205 255 297 363
#     4  11  23  41  64  90 118 158 206 254 307 373
#     4  10  20  39  65  85 120 162 201 243 302 363
#
# _framework density 18.784924
#
# number of rings (size 3 to 8) (size 9 to 14) (size 15 to 20)
#    0.000    1.333    5.000    3.500    0.000    2.667 
#    0.000    4.167    0.000    0.000    0.000    0.000 
#    0.000    0.000    0.000    0.000    0.000    0.000 
#
# Total GULP energy -268107.504306 kJ/mol
# GULP energy per Si atom -5585.573006 kJ/mol
# Density = 1.874217 g / cm^3
# Si number density = 18.784924 Si / 1000 Ang^3
#
#
#
# Elastic Constant Matrix: (Units=GPa)
#
#
# Indices 1 2 3 4 5 6 
#
# 1 91.1557 21.5659 4.4805 0.0000 0.0000 0.0000
# 2 21.5659 100.7743 20.1041 0.0000 0.0000 0.0000
# 3 4.4805 20.1041 73.1203 0.0000 0.0000 0.0000
# 4 0.0000 0.0000 0.0000 16.0096 0.0000 0.0000
# 5 0.0000 0.0000 0.0000 0.0000 8.2690 0.0000
# 6 0.0000 0.0000 0.0000 0.0000 0.0000 10.6049
#
#
#
# Elastic Compliance Matrix: (Units=1/GPa)
#
#
# Indices 1 2 3 4 5 6 
#
# 1 0.011555 -0.002467 -0.000030 0.000000 0.000000 0.000000
# 2 -0.002467 0.011026 -0.002880 0.000000 0.000000 0.000000
# 3 -0.000030 -0.002880 0.014470 0.000000 0.000000 0.000000
# 4 0.000000 0.000000 0.000000 0.062462 0.000000 0.000000
# 5 0.000000 0.000000 0.000000 0.000000 0.120934 0.000000
# 6 0.000000 0.000000 0.000000 0.000000 0.000000 0.094296
#
#
# Mechanical properties :
#
#
# Convention : Reuss Voigt Hill
#
# Bulk Modulus (GPa) = 38.02736 39.70569 38.86652
# Shear Modulus (GPa) = 14.95830 21.57003 18.26417
#
# Velocity S-wave (km/s) = 2.82493 3.39228 3.12152
# Velocity P-wave (km/s) = 5.56128 6.04370 5.80750
#
# Compressibility (1/GPa) = 0.02629686
#
# Stress axis : x y z
#
# Youngs Moduli (GPa) = 86.54007 90.69721 69.10924
#
# Poissons Ratio (x) = 0.22374 0.00206
# Poissons Ratio (y) = 0.21349 0.19906
# Poissons Ratio (z) = 0.00258 0.26124
#
# Static dielectric constant tensor:
#      x y z
#    x 1.656970 0.000000 0.000000 
#    y 0.000000 1.659380 0.000000 
#    z 0.000000 0.000000 1.628730 
# 
# From -- ./inp_files/7692.got.cif
#   From: 2010.05.17/outbox.cif.g08.bks.cpg/sg52_4_cif.got.tgz:7692.got - 2010.06.03 12:15:38.
