data_PCOD9409031
_publ_section_title
;
Structure prediction by ZEFSAII (Michael W. Deem and Ramdas Pophale) SiO2 
 PCOD9409031
Probable space group: P N N A
;
_chemical_formula_sum "Si O2"
_cell_formula_units_Z 56
_cell_length_a 12.386136
_cell_length_b 15.210342
_cell_length_c 13.061393
_cell_angle_alpha 90.000000
_cell_angle_beta 90.000000
_cell_angle_gamma 90.000000
_cell_volume 2460.732019
_symmetry_space_group_name_H-M "P N N A"
_symmetry_group_IT_number 52
_symmetry_cell_setting 'orthorhombic'
loop_
_space_group_symop_operation_xyz
x,y,z
1/2-x,-y,z
x,1/2-y,1/2-z
1/2-x,1/2+y,1/2-z
-x,-y,-z
1/2+x,y,-z
-x,1/2+y,1/2+z
1/2+x,1/2-y,1/2+z
loop_
_atom_site_type_symbol
_atom_site_label
_atom_site_fract_x
_atom_site_fract_y
_atom_site_fract_z
Si Si1 0.202677 0.654885 0.327878
Si Si2 0.054479 0.410261 0.540831
Si Si3 0.991647 0.409737 0.769689
Si Si4 0.035013 0.100759 0.512156
Si Si5 0.600789 0.750000 0.250000
Si Si6 0.750000 0.000000 0.952472
Si Si7 0.385221 0.239497 0.977997
Si Si8 0.085053 0.388665 0.203718
O O1 0.110314 0.656074 0.241818
O O2 0.178535 0.560356 0.379963
O O3 0.190474 0.718094 0.425019
O O4 0.318348 0.645574 0.275077
O O5 0.178061 0.429622 0.511314
O O6 0.000000 0.500000 0.500000
O O7 0.051582 0.401428 0.662476
O O8 0.987442 0.329285 0.491288
O O9 0.946336 0.509236 0.782204
O O10 0.063503 0.387440 0.868934
O O11 0.112856 0.122176 0.416971
O O12 0.933350 0.163993 0.493497
O O13 0.000000 0.000000 0.500000
O O14 0.657008 0.733302 0.360606
O O15 0.520329 0.667945 0.230651
#
# Coordination Sequence:
#
# PCOD9409031 Si02
#       8
#     8   8   8   8   4   4   8   8
#     4  11  20  33  61  93 127 155 220 276 331 393
#     4  11  20  35  59  94 130 162 214 284 347 404
#     4  10  19  36  60  85 121 170 212 266 336 397
#     4   9  21  39  61  86 123 177 221 259 327 407
#     4  10  20  34  56  82 126 168 212 258 330 398
#     4  12  20  34  58  96 126 162 202 274 340 402
#     4  10  21  36  59  94 127 172 215 271 338 399
#     4  10  19  35  58  89 121 170 211 273 328 390
#
# _framework density 22.757456000000001
#
# number of rings (size 3 to 8) (size 9 to 14) (size 15 to 20)
#    0.000    1.714    4.286    1.714    0.000    3.429 
#    0.000    0.000    9.429    5.143    0.000    0.000 
#    0.000    0.000    0.000    0.000    0.000    0.000 
#
# Total GULP energy -312233.420762 kJ/mol
# GULP energy per Si atom -5575.596799 kJ/mol
# Density = 2.270566 g / cm^3
# Si number density = 22.757456 Si / 1000 Ang^3
#
#
#
# Elastic Constant Matrix: (Units=GPa)
#
#
# Indices 1 2 3 4 5 6 
#
# 1 41.9463 2.7121 28.9904 0.0000 0.0000 0.0000
# 2 2.7121 106.6245 20.1974 0.0000 0.0000 0.0000
# 3 28.9904 20.1974 220.1699 0.0000 0.0000 0.0000
# 4 0.0000 0.0000 0.0000 34.0446 0.0000 0.0000
# 5 0.0000 0.0000 0.0000 0.0000 30.5346 0.0000
# 6 0.0000 0.0000 0.0000 0.0000 0.0000 18.1641
#
#
#
# Elastic Compliance Matrix: (Units=1/GPa)
#
#
# Indices 1 2 3 4 5 6 
#
# 1 0.026227 -0.000013 -0.003452 0.000000 0.000000 0.000000
# 2 -0.000013 0.009545 -0.000874 0.000000 0.000000 0.000000
# 3 -0.003452 -0.000874 0.005077 0.000000 0.000000 0.000000
# 4 0.000000 0.000000 0.000000 0.029373 0.000000 0.000000
# 5 0.000000 0.000000 0.000000 0.000000 0.032750 0.000000
# 6 0.000000 0.000000 0.000000 0.000000 0.000000 0.055054
#
#
# Mechanical properties :
#
#
# Convention : Reuss Voigt Hill
#
# Bulk Modulus (GPa) = 31.08518 52.50452 41.79485
# Shear Modulus (GPa) = 28.18072 37.67137 32.92605
#
# Velocity S-wave (km/s) = 3.52278 4.07300 3.80784
# Velocity P-wave (km/s) = 5.49869 6.72611 6.14313
#
# Compressibility (1/GPa) = 0.03216967
#
# Stress axis : x y z
#
# Youngs Moduli (GPa) = 38.12897 104.77164 196.97971
#
# Poissons Ratio (x) = 0.00138 0.68000
# Poissons Ratio (y) = 0.00050 0.17213
# Poissons Ratio (z) = 0.13163 0.09155
#
# Static dielectric constant tensor:
#      x y z
#    x 2.038980 0.000000 0.000000 
#    y 0.000000 2.207790 0.000000 
#    z 0.000000 0.000000 1.937080 
# 
# From -- ./inp_files/19680.got.cif
#   From: 2010.05.17/outbox.cif.g08.bks.cpg/sg52_10_cif.got.tgz:19680.got - 2010.06.03 12:15:38.
