data_PCOD9409348
_publ_section_title
;
Structure prediction by ZEFSAII (Michael W. Deem and Ramdas Pophale) SiO2 
 PCOD9409348
Probable space group: P N N A
;
_chemical_formula_sum "Si O2"
_cell_formula_units_Z 32
_cell_length_a 6.254028
_cell_length_b 13.484535
_cell_length_c 13.076358
_cell_angle_alpha 90.000000
_cell_angle_beta 90.000000
_cell_angle_gamma 90.000000
_cell_volume 1102.764046
_symmetry_space_group_name_H-M "P N N A"
_symmetry_group_IT_number 52
_symmetry_cell_setting 'orthorhombic'
loop_
_space_group_symop_operation_xyz
x,y,z
1/2-x,-y,z
x,1/2-y,1/2-z
1/2-x,1/2+y,1/2-z
-x,-y,-z
1/2+x,y,-z
-x,1/2+y,1/2+z
1/2+x,1/2-y,1/2+z
loop_
_atom_site_type_symbol
_atom_site_label
_atom_site_fract_x
_atom_site_fract_y
_atom_site_fract_z
Si Si1 0.250000 0.000000 0.586467
Si Si2 0.083420 0.250000 0.250000
Si Si3 0.383389 0.579469 0.537748
Si Si4 0.455234 0.104986 0.268235
Si Si5 0.763551 0.787049 0.421507
O O1 0.274194 0.104360 0.528443
O O2 0.042096 0.014265 0.660290
O O3 0.222501 0.148369 0.242621
O O4 0.930238 0.237864 0.346826
O O5 0.119360 0.554267 0.520096
O O6 0.436603 0.584319 0.659152
O O7 0.344986 0.697068 0.511815
O O8 0.548656 0.191115 0.340083
#
# Coordination Sequence:
#
# PCOD9409348 Si02
#       5
#     4   4   8   8   8
#     4   8  18  42  68  90 134 172 244 336 338 408
#     4  12  18  32  74  98 136 178 232 320 388 418
#     4  12  24  43  59  94 156 197 226 294 379 469
#     4  10  19  40  64  99 131 184 236 314 363 423
#     4  10  20  42  63  97 134 176 252 315 350 439
#
# _framework density 29.017992
#
# number of rings (size 3 to 8) (size 9 to 14) (size 15 to 20)
#    1.500    0.000    6.250    0.000    0.000    3.000 
#    0.000    0.000    0.000    1.500    0.000    0.000 
#    0.000    0.000    0.000    0.000    0.000    0.000 
#
# Total GULP energy -178811.933152 kJ/mol
# GULP energy per Si atom -5587.872911 kJ/mol
# Density = 2.895195 g / cm^3
# Si number density = 29.017992 Si / 1000 Ang^3
#
#
#
# Elastic Constant Matrix: (Units=GPa)
#
#
# Indices 1 2 3 4 5 6 
#
# 1 196.7157 107.2234 64.8878 0.0000 0.0000 0.0000
# 2 107.2234 289.8576 61.1125 0.0000 0.0000 0.0000
# 3 64.8878 61.1125 90.3804 0.0000 0.0000 0.0000
# 4 0.0000 0.0000 0.0000 33.3111 0.0000 0.0000
# 5 0.0000 0.0000 0.0000 0.0000 57.8334 0.0000
# 6 0.0000 0.0000 0.0000 0.0000 0.0000 76.9028
#
#
#
# Elastic Compliance Matrix: (Units=1/GPa)
#
#
# Indices 1 2 3 4 5 6 
#
# 1 0.007464 -0.001902 -0.004072 0.000000 0.000000 0.000000
# 2 -0.001902 0.004508 -0.001683 0.000000 0.000000 0.000000
# 3 -0.004072 -0.001683 0.015126 0.000000 0.000000 0.000000
# 4 0.000000 0.000000 0.000000 0.030020 0.000000 0.000000
# 5 0.000000 0.000000 0.000000 0.000000 0.017291 0.000000
# 6 0.000000 0.000000 0.000000 0.000000 0.000000 0.013003
#
#
# Mechanical properties :
#
#
# Convention : Reuss Voigt Hill
#
# Bulk Modulus (GPa) = 84.86522 115.93346 100.39934
# Shear Modulus (GPa) = 46.88042 56.52480 51.70261
#
# Velocity S-wave (km/s) = 4.02377 4.41832 4.22565
# Velocity P-wave (km/s) = 7.13420 8.12820 7.64737
#
# Compressibility (1/GPa) = 0.01178339
#
# Stress axis : x y z
#
# Youngs Moduli (GPa) = 133.98351 221.80505 66.11280
#
# Poissons Ratio (x) = 0.42196 0.26922
# Poissons Ratio (y) = 0.25489 0.11125
# Poissons Ratio (z) = 0.54559 0.37323
#
# Static dielectric constant tensor:
#      x y z
#    x 2.297030 0.000000 0.000000 
#    y 0.000000 2.399660 0.000000 
#    z 0.000000 0.000000 2.024150 
# 
# From -- ./inp_files/34905.got.cif
#   From: 2010.05.17/outbox.cif.g08.bks.cpg/sg52_18_cif.got.tgz:34905.got - 2010.06.03 12:15:38.
