data_PCOD9409880
_publ_section_title
;
Structure prediction by ZEFSAII (Michael W. Deem and Ramdas Pophale) SiO2 
 PCOD9409880
Probable space group: P N N A
;
_chemical_formula_sum "Si O2"
_cell_formula_units_Z 48
_cell_length_a 5.204913
_cell_length_b 25.294508
_cell_length_c 15.521766
_cell_angle_alpha 90.000000
_cell_angle_beta 90.000000
_cell_angle_gamma 90.000000
_cell_volume 2043.529178
_symmetry_space_group_name_H-M "P N N A"
_symmetry_group_IT_number 52
_symmetry_cell_setting 'orthorhombic'
loop_
_space_group_symop_operation_xyz
x,y,z
1/2-x,-y,z
x,1/2-y,1/2-z
1/2-x,1/2+y,1/2-z
-x,-y,-z
1/2+x,y,-z
-x,1/2+y,1/2+z
1/2+x,1/2-y,1/2+z
loop_
_atom_site_type_symbol
_atom_site_label
_atom_site_fract_x
_atom_site_fract_y
_atom_site_fract_z
Si Si1 0.196172 0.686381 0.190091
Si Si2 0.716940 0.620168 0.477232
Si Si3 0.199552 0.765233 0.051041
Si Si4 0.257232 0.904930 0.444994
Si Si5 0.485827 0.532358 0.211735
Si Si6 0.321573 0.355003 0.719606
O O1 0.145123 0.742818 0.145623
O O2 0.267635 0.649755 0.107496
O O3 0.447218 0.682679 0.249728
O O4 0.942084 0.661281 0.232935
O O5 0.465165 0.588367 0.498129
O O6 0.708244 0.671149 0.541568
O O7 0.719339 0.643873 0.382189
O O8 0.471467 0.747200 0.012315
O O9 0.466751 0.908898 0.520885
O O10 0.351450 0.947838 0.376204
O O11 0.750000 0.500000 0.198608
O O12 0.578751 0.586157 0.257474
O O13 0.250000 0.500000 0.255874
#
# Coordination Sequence:
#
# PCOD9409880 Si02
#       6
#     8   8   8   8   8   8
#     4  11  21  37  60  88 121 161 205 244 292 355
#     4  10  22  42  64  89 119 157 198 248 311 360
#     4  10  20  37  58  85 121 159 199 245 293 344
#     4  11  21  34  55  84 120 161 197 236 289 352
#     4  11  23  39  59  87 121 158 205 258 308 357
#     4  11  23  41  64  88 119 161 203 246 305 370
#
# _framework density 23.488776999999999
#
# number of rings (size 3 to 8) (size 9 to 14) (size 15 to 20)
#    0.000    1.333    0.000    8.000    0.000    2.000 
#    0.000   20.000    0.000    3.000    0.000    0.000 
#    0.000    0.000    0.000    0.000    0.000    0.000 
#
# Total GULP energy -268372.314586 kJ/mol
# GULP energy per Si atom -5591.089887 kJ/mol
# Density = 2.343532 g / cm^3
# Si number density = 23.488777 Si / 1000 Ang^3
#
#
#
# Elastic Constant Matrix: (Units=GPa)
#
#
# Indices 1 2 3 4 5 6 
#
# 1 185.0023 18.0519 23.4508 0.0000 0.0000 0.0000
# 2 18.0519 74.1827 9.6572 0.0000 0.0000 0.0000
# 3 23.4508 9.6572 63.1271 0.0000 0.0000 0.0000
# 4 0.0000 0.0000 0.0000 4.1883 0.0000 0.0000
# 5 0.0000 0.0000 0.0000 0.0000 35.3848 0.0000
# 6 0.0000 0.0000 0.0000 0.0000 0.0000 26.0634
#
#
#
# Elastic Compliance Matrix: (Units=1/GPa)
#
#
# Indices 1 2 3 4 5 6 
#
# 1 0.005767 -0.001147 -0.001967 0.000000 0.000000 0.000000
# 2 -0.001147 0.013982 -0.001713 0.000000 0.000000 0.000000
# 3 -0.001967 -0.001713 0.016834 0.000000 0.000000 0.000000
# 4 0.000000 0.000000 0.000000 0.238759 0.000000 0.000000
# 5 0.000000 0.000000 0.000000 0.000000 0.028261 0.000000
# 6 0.000000 0.000000 0.000000 0.000000 0.000000 0.038368
#
#
# Mechanical properties :
#
#
# Convention : Reuss Voigt Hill
#
# Bulk Modulus (GPa) = 37.13456 47.18132 42.15794
# Shear Modulus (GPa) = 13.86576 31.20412 22.53494
#
# Velocity S-wave (km/s) = 2.43227 3.64877 3.10077
# Velocity P-wave (km/s) = 4.87152 6.15481 5.55038
#
# Compressibility (1/GPa) = 0.02692909
#
# Stress axis : x y z
#
# Youngs Moduli (GPa) = 173.41313 71.51856 59.40472
#
# Poissons Ratio (x) = 0.08205 0.11683
# Poissons Ratio (y) = 0.19895 0.10175
# Poissons Ratio (z) = 0.34105 0.12250
#
# Static dielectric constant tensor:
#      x y z
#    x 1.976540 0.000000 0.000000 
#    y 0.000000 1.960780 0.000000 
#    z 0.000000 0.000000 1.888090 
# 
# From -- ./inp_files/23744.got.cif
#   From: 2010.05.17/outbox.cif.g08.bks.cpg/sg52_12_cif.got.tgz:23744.got - 2010.06.03 12:15:38.
