data_PCOD9409245
_publ_section_title
;
Structure prediction by ZEFSAII (Michael W. Deem and Ramdas Pophale) SiO2 
 PCOD9409245
Probable space group: P N N A
;
_chemical_formula_sum "Si O2"
_cell_formula_units_Z 64
_cell_length_a 17.712878
_cell_length_b 15.742189
_cell_length_c 12.105263
_cell_angle_alpha 90.000000
_cell_angle_beta 90.000000
_cell_angle_gamma 90.000000
_cell_volume 3375.425158
_symmetry_space_group_name_H-M "P N N A"
_symmetry_group_IT_number 52
_symmetry_cell_setting 'orthorhombic'
loop_
_space_group_symop_operation_xyz
x,y,z
1/2-x,-y,z
x,1/2-y,1/2-z
1/2-x,1/2+y,1/2-z
-x,-y,-z
1/2+x,y,-z
-x,1/2+y,1/2+z
1/2+x,1/2-y,1/2+z
loop_
_atom_site_type_symbol
_atom_site_label
_atom_site_fract_x
_atom_site_fract_y
_atom_site_fract_z
Si Si1 0.658152 1.000000 0.367086
Si Si2 0.340727 0.662050 0.009892
Si Si3 0.411150 0.342126 0.481995
Si Si4 0.338550 0.602036 0.259005
Si Si5 0.340727 0.337950 0.009892
Si Si6 0.159370 0.500000 0.611750
Si Si7 0.838550 0.102036 0.759005
Si Si8 0.588850 0.157874 0.981995
O O1 0.634124 0.915408 0.431843
O O2 0.635123 1.000000 0.239729
O O3 0.750000 0.000000 0.370348
O O4 0.634124 0.084592 0.431843
O O5 0.355543 0.636359 0.137038
O O6 0.250000 0.671578 0.998786
O O7 0.380279 0.750332 0.983056
O O8 0.380279 0.250332 0.516944
O O9 0.371369 0.416997 0.550398
O O10 0.388472 0.357130 0.354419
O O11 0.500000 0.347449 0.500000
O O12 0.250000 0.620778 0.282800
O O13 0.347180 0.500000 0.259881
O O14 0.388472 0.642870 0.354419
O O15 0.355543 0.363641 0.137038
O O16 0.250000 0.500000 0.606527
O O17 0.128631 0.416997 0.550398
#
# Coordination Sequence:
#
# PCOD9409245 Si02
#       8
#     8   8   8   8   8   8   8   8
#     4   9  20  40  66  92 115 150 205 254 297 351
#     4  10  20  41  68  93 118 153 205 260 301 350
#     4  12  25  40  57  91 129 162 197 244 307 367
#     4  10  19  37  69  95 115 153 204 256 305 351
#     4  10  20  41  68  93 118 153 205 260 301 350
#     4  11  23  42  65  87 117 164 209 248 296 361
#     4  10  19  37  69  95 115 153 204 256 305 351
#     4  12  25  40  57  91 129 162 197 244 307 367
#
# _framework density 18.960574000000001
#
# number of rings (size 3 to 8) (size 9 to 14) (size 15 to 20)
#    0.000    1.500    2.500    3.375    0.000    3.000 
#    9.000    4.375    0.000    0.000    0.000    0.000 
#    0.000    0.000    0.000    0.000    0.000    0.000 
#
# Total GULP energy -357839.203313 kJ/mol
# GULP energy per Si atom -5591.237552 kJ/mol
# Density = 1.891742 g / cm^3
# Si number density = 18.960574 Si / 1000 Ang^3
#
#
#
# Elastic Constant Matrix: (Units=GPa)
#
#
# Indices 1 2 3 4 5 6 
#
# 1 62.3190 52.4665 45.1902 0.0000 0.0000 0.0000
# 2 52.4665 154.6726 53.5278 0.0000 0.0000 0.0000
# 3 45.1902 53.5278 99.9920 0.0000 0.0000 0.0000
# 4 0.0000 0.0000 0.0000 -53.3056 0.0000 0.0000
# 5 0.0000 0.0000 0.0000 0.0000 -73.0395 0.0000
# 6 0.0000 0.0000 0.0000 0.0000 0.0000 -99.6228
#
#
#
# Elastic Compliance Matrix: (Units=1/GPa)
#
#
# Indices 1 2 3 4 5 6 
#
# 1 0.028128 -0.006311 -0.009334 0.000000 0.000000 0.000000
# 2 -0.006311 0.009351 -0.002154 0.000000 0.000000 0.000000
# 3 -0.009334 -0.002154 0.015372 0.000000 0.000000 0.000000
# 4 0.000000 0.000000 0.000000 -0.018760 0.000000 0.000000
# 5 0.000000 0.000000 0.000000 0.000000 -0.013691 0.000000
# 6 0.000000 0.000000 0.000000 0.000000 0.000000 -0.010038
#
#
# Mechanical properties :
#
#
# Convention : Reuss Voigt Hill
#
# Bulk Modulus (GPa) = 57.95645 68.81694 63.38670
# Shear Modulus (GPa) = 96.69053 -34.14030 31.27512
#
# Velocity S-wave (km/s) = 7.14887 -4.24794 4.06579
# Velocity P-wave (km/s) = 9.93856 3.50906 7.45280
#
# Compressibility (1/GPa) = 0.01725433
#
# Stress axis : x y z
#
# Youngs Moduli (GPa) = 35.55160 106.93530 65.05345
#
# Poissons Ratio (x) = 0.67489 0.60719
# Poissons Ratio (y) = 0.22437 0.14011
# Poissons Ratio (z) = 0.33183 0.23031
#
# Static dielectric constant tensor:
#      x y z
#    x 1.627990 0.000000 0.000000 
#    y 0.000000 1.642660 0.000000 
#    z 0.000000 0.000000 1.641260 
# 
# From -- ./inp_files/20865.got.cif
#   From: 2010.05.17/outbox.cif.g08.bks.cpg/sg52_11_cif.got.tgz:20865.got - 2010.06.03 12:15:38.
