data_PCOD9409423
_publ_section_title
;
Structure prediction by ZEFSAII (Michael W. Deem and Ramdas Pophale) SiO2 
 PCOD9409423
Probable space group: P N N A
;
_chemical_formula_sum "Si O2"
_cell_formula_units_Z 32
_cell_length_a 7.841618
_cell_length_b 31.321445
_cell_length_c 4.219862
_cell_angle_alpha 90.000000
_cell_angle_beta 90.000000
_cell_angle_gamma 90.000000
_cell_volume 1036.443711
_symmetry_space_group_name_H-M "P N N A"
_symmetry_group_IT_number 52
_symmetry_cell_setting 'orthorhombic'
loop_
_space_group_symop_operation_xyz
x,y,z
1/2-x,-y,z
x,1/2-y,1/2-z
1/2-x,1/2+y,1/2-z
-x,-y,-z
1/2+x,y,-z
-x,1/2+y,1/2+z
1/2+x,1/2-y,1/2+z
loop_
_atom_site_type_symbol
_atom_site_label
_atom_site_fract_x
_atom_site_fract_y
_atom_site_fract_z
Si Si1 0.250000 0.500000 0.289037
Si Si2 0.983483 0.437301 0.289625
Si Si3 0.549410 0.811457 0.801879
Si Si4 0.177365 0.250000 0.250000
Si Si5 0.283344 0.874658 0.786121
O O1 0.383363 0.531348 0.114543
O O2 0.133233 0.531355 0.499749
O O3 0.850213 0.406108 0.112999
O O4 0.100633 0.405923 0.499744
O O5 0.436550 0.778954 0.017226
O O6 0.666134 0.843125 0.007264
O O7 0.684280 0.783300 0.604334
O O8 0.418034 0.842717 0.622571
#
# Coordination Sequence:
#
# PCOD9409423 Si02
#       5
#     4   8   8   4   8
#     4   8  12  16  28  48  76 108 148 172 200 246
#     4   8  12  19  30  50  76 110 148 176 200 255
#     4   9  18  31  46  65  86 118 156 191 226 267
#     4  10  20  32  48  66  88 112 156 198 228 268
#     4   8  14  24  38  54  80 112 152 176 212 270
#
# _framework density 30.87481
#
# number of rings (size 3 to 8) (size 9 to 14) (size 15 to 20)
#    0.000    3.500    0.000    0.000    0.000    4.000 
#    0.000    0.000    0.000    0.000    0.000    0.000 
#    0.000    0.000    0.000    0.000    0.000 26115.000 
#
# Total GULP energy -179093.294033 kJ/mol
# GULP energy per Si atom -5596.665439 kJ/mol
# Density = 3.080454 g / cm^3
# Si number density = 30.874810 Si / 1000 Ang^3
#
#
#
# Elastic Constant Matrix: (Units=GPa)
#
#
# Indices 1 2 3 4 5 6 
#
# 1 229.8200 166.1327 72.3125 0.0000 0.0000 0.0000
# 2 166.1327 234.4293 75.4433 0.0000 0.0000 0.0000
# 3 72.3125 75.4433 67.9135 0.0000 0.0000 0.0000
# 4 0.0000 0.0000 0.0000 53.4590 0.0000 0.0000
# 5 0.0000 0.0000 0.0000 0.0000 -75.8381 0.0000
# 6 0.0000 0.0000 0.0000 0.0000 0.0000 219.1152
#
#
#
# Elastic Compliance Matrix: (Units=1/GPa)
#
#
# Indices 1 2 3 4 5 6 
#
# 1 0.009620 -0.005480 -0.004156 0.000000 0.000000 0.000000
# 2 -0.005480 0.009761 -0.005008 0.000000 0.000000 0.000000
# 3 -0.004156 -0.005008 0.024713 0.000000 0.000000 0.000000
# 4 0.000000 0.000000 0.000000 0.018706 0.000000 0.000000
# 5 0.000000 0.000000 0.000000 0.000000 -0.013186 0.000000
# 6 0.000000 0.000000 0.000000 0.000000 0.000000 0.004564
#
#
# Mechanical properties :
#
#
# Convention : Reuss Voigt Hill
#
# Bulk Modulus (GPa) = 67.53900 128.88220 98.21060
# Shear Modulus (GPa) = 56.56025 53.89882 55.22954
#
# Velocity S-wave (km/s) = 4.28474 4.18272 4.23404
# Velocity P-wave (km/s) = 6.81185 8.07223 7.46867
#
# Compressibility (1/GPa) = 0.01480626
#
# Stress axis : x y z
#
# Youngs Moduli (GPa) = 103.94543 102.44744 40.46510
#
# Poissons Ratio (x) = 0.56145 0.16816
# Poissons Ratio (y) = 0.56966 0.20265
# Poissons Ratio (z) = 0.43195 0.51306
#
# Static dielectric constant tensor:
#      x y z
#    x 2.346690 0.000000 0.000000 
#    y 0.000000 2.363070 0.000000 
#    z 0.000000 0.000000 2.280620 
# 
# From -- ./inp_files/412.got.cif
#   From: 2010.05.17/outbox.cif.g08.bks.cpg/sg52_1_cif.got.tgz:412.got - 2010.06.03 12:15:38.
