data_PCOD9409338
_publ_section_title
;
Structure prediction by ZEFSAII (Michael W. Deem and Ramdas Pophale) SiO2 
 PCOD9409338
Probable space group: P N N A
;
_chemical_formula_sum "Si O2"
_cell_formula_units_Z 64
_cell_length_a 14.591860
_cell_length_b 9.086551
_cell_length_c 23.144105
_cell_angle_alpha 90.000000
_cell_angle_beta 90.000000
_cell_angle_gamma 90.000000
_cell_volume 3068.669478
_symmetry_space_group_name_H-M "P N N A"
_symmetry_group_IT_number 52
_symmetry_cell_setting 'orthorhombic'
loop_
_space_group_symop_operation_xyz
x,y,z
1/2-x,-y,z
x,1/2-y,1/2-z
1/2-x,1/2+y,1/2-z
-x,-y,-z
1/2+x,y,-z
-x,1/2+y,1/2+z
1/2+x,1/2-y,1/2+z
loop_
_atom_site_type_symbol
_atom_site_label
_atom_site_fract_x
_atom_site_fract_y
_atom_site_fract_z
Si Si1 0.857657 0.042040 0.629705
Si Si2 0.990573 0.026723 0.278635
Si Si3 0.156199 0.049791 0.015524
Si Si4 0.192135 0.147572 0.698663
Si Si5 0.865940 0.889988 0.116159
Si Si6 0.949726 0.337233 0.335245
Si Si7 0.040384 0.198497 0.446091
Si Si8 0.550008 0.721510 0.562018
O O1 0.916680 0.021170 0.688614
O O2 0.919061 0.941058 0.586513
O O3 0.750000 0.000000 0.634041
O O4 0.872654 0.200271 0.600100
O O5 0.944071 0.173234 0.308009
O O6 0.009977 0.075896 0.212730
O O7 0.911349 0.903998 0.284653
O O8 0.163952 0.062528 0.947037
O O9 0.250000 0.000000 0.042576
O O10 0.128285 0.208475 0.036288
O O11 0.082732 0.929418 0.033497
O O12 0.229391 0.250000 0.750000
O O13 0.189577 0.256541 0.644178
O O14 0.250000 0.000000 0.689957
O O15 0.966561 0.819979 0.104333
O O16 0.871440 0.038891 0.154433
O O17 0.987136 0.298027 0.398805
O O18 0.983758 0.184573 0.505785
#
# Coordination Sequence:
#
# PCOD9409338 Si02
#       8
#     8   8   8   8   8   8   8   8
#     4  11  23  40  65  95 138 177 223 287 340 411
#     4  10  23  41  67  94 130 175 224 269 342 398
#     4  11  22  36  59  95 126 162 219 270 324 406
#     4  12  27  43  67  99 130 172 224 273 335 407
#     4  11  21  42  64  90 128 169 215 267 338 397
#     4  10  19  39  70  88 122 173 222 271 329 402
#     4  10  20  39  62  92 126 173 223 268 341 403
#     4  11  20  39  66  93 126 178 220 267 348 405
#
# _framework density 20.855944999999998
#
# number of rings (size 3 to 8) (size 9 to 14) (size 15 to 20)
#    0.000    1.250    5.000    1.875    1.750    1.500 
#    0.000    3.125   13.750    0.000    0.000    0.000 
#    0.000    0.000    0.000    0.000    0.000    0.000 
#
# Total GULP energy -356722.179530 kJ/mol
# GULP energy per Si atom -5573.784055 kJ/mol
# Density = 2.080848 g / cm^3
# Si number density = 20.855945 Si / 1000 Ang^3
#
#
#
# Elastic Constant Matrix: (Units=GPa)
#
#
# Indices 1 2 3 4 5 6 
#
# 1 79.3901 23.7927 15.1508 0.0000 0.0000 0.0000
# 2 23.7927 83.7722 46.7761 0.0000 0.0000 0.0000
# 3 15.1508 46.7761 74.4304 0.0000 0.0000 0.0000
# 4 0.0000 0.0000 0.0000 28.0862 0.0000 0.0000
# 5 0.0000 0.0000 0.0000 0.0000-2111.9157 0.0000
# 6 0.0000 0.0000 0.0000 0.0000 0.0000 32.3007
#
#
#
# Elastic Compliance Matrix: (Units=1/GPa)
#
#
# Indices 1 2 3 4 5 6 
#
# 1 0.013782 -0.003617 -0.000532 0.000000 0.000000 0.000000
# 2 -0.003617 0.019340 -0.011418 0.000000 0.000000 0.000000
# 3 -0.000532 -0.011418 0.020719 0.000000 0.000000 0.000000
# 4 0.000000 0.000000 0.000000 0.035605 0.000000 0.000000
# 5 0.000000 0.000000 0.000000 0.000000 -0.000474 0.000000
# 6 0.000000 0.000000 0.000000 0.000000 0.000000 0.030959
#
#
# Mechanical properties :
#
#
# Convention : Reuss Voigt Hill
#
# Bulk Modulus (GPa) = 44.04033 45.44799 44.74416
# Shear Modulus (GPa) = 31.51903 -400.18088 -184.33093
#
# Velocity S-wave (km/s) = 3.89173 -13.86705 -9.41142
# Velocity P-wave (km/s) = 6.43089 15.31518 9.82849
#
# Compressibility (1/GPa) = 0.02270646
#
# Stress axis : x y z
#
# Youngs Moduli (GPa) = 72.56058 51.70656 48.26404
#
# Poissons Ratio (x) = 0.18702 0.02569
# Poissons Ratio (y) = 0.26245 0.55108
# Poissons Ratio (z) = 0.03862 0.59038
#
# Static dielectric constant tensor:
#      x y z
#    x 1.793810 0.000000 0.000000 
#    y 0.000000 1.694750 0.000000 
#    z 0.000000 0.000000 1.795970 
# 
# From -- ./inp_files/40666.got.cif
#   From: 2010.05.17/outbox.cif.g08.bks.cpg/sg52_21_cif.got.tgz:40666.got - 2010.06.03 12:15:38.
