data_PCOD9409052
_publ_section_title
;
Structure prediction by ZEFSAII (Michael W. Deem and Ramdas Pophale) SiO2 
 PCOD9409052
Probable space group: P N N A
;
_chemical_formula_sum "Si O2"
_cell_formula_units_Z 48
_cell_length_a 22.794969
_cell_length_b 8.516309
_cell_length_c 11.081913
_cell_angle_alpha 90.000000
_cell_angle_beta 90.000000
_cell_angle_gamma 90.000000
_cell_volume 2151.320685
_symmetry_space_group_name_H-M "P N N A"
_symmetry_group_IT_number 52
_symmetry_cell_setting 'orthorhombic'
loop_
_space_group_symop_operation_xyz
x,y,z
1/2-x,-y,z
x,1/2-y,1/2-z
1/2-x,1/2+y,1/2-z
-x,-y,-z
1/2+x,y,-z
-x,1/2+y,1/2+z
1/2+x,1/2-y,1/2+z
loop_
_atom_site_type_symbol
_atom_site_label
_atom_site_fract_x
_atom_site_fract_y
_atom_site_fract_z
Si Si1 0.337892 0.237746 0.483722
Si Si2 0.250000 0.500000 0.146817
Si Si3 0.034786 0.003420 0.809387
Si Si4 0.130592 0.750000 0.750000
Si Si5 0.345712 0.957832 0.174069
Si Si6 0.440215 0.056591 0.374464
Si Si7 0.057401 0.289826 0.458348
O O1 0.333182 0.245669 0.626908
O O2 0.328761 0.402835 0.417243
O O3 0.291382 0.113888 0.430719
O O4 0.405843 0.185196 0.453743
O O5 0.292912 0.586657 0.239880
O O6 0.089035 0.903106 0.760373
O O7 0.999284 0.083199 0.700511
O O8 0.990821 0.877277 0.874092
O O9 0.053054 0.125388 0.913125
O O10 0.393838 0.027684 0.266334
O O11 0.379124 0.825604 0.099419
O O12 0.449914 0.896122 0.448462
#
# Coordination Sequence:
#
# PCOD9409052 Si02
#       7
#     8   4   8   4   8   8   8
#     4  11  25  42  68  95 127 171 221 273 340 407
#     4  10  22  40  64  94 118 150 216 288 328 372
#     4  10  19  35  61  89 139 182 208 253 322 389
#     4  12  22  44  64  88 138 184 214 260 330 418
#     4  10  20  39  67  96 125 163 212 272 337 391
#     4  10  20  36  62  97 129 167 218 273 313 383
#     4  10  19  35  60  97 135 171 213 259 320 390
#
# _framework density 22.311876000000002
#
# number of rings (size 3 to 8) (size 9 to 14) (size 15 to 20)
#    0.000    1.667    3.333    3.500    0.000    6.000 
#    0.000    3.333    7.333    0.000    0.000    0.000 
#    0.000    0.000    0.000    0.000    0.000    0.000 
#
# Total GULP energy -268575.547742 kJ/mol
# GULP energy per Si atom -5595.323911 kJ/mol
# Density = 2.226109 g / cm^3
# Si number density = 22.311876 Si / 1000 Ang^3
#
#
#
# Elastic Constant Matrix: (Units=GPa)
#
#
# Indices 1 2 3 4 5 6 
#
# 1 93.8670 33.1390 58.0522 0.0000 0.0000 0.0000
# 2 33.1390 93.7069 49.5928 0.0000 0.0000 0.0000
# 3 58.0522 49.5928 170.7687 0.0000 0.0000 0.0000
# 4 0.0000 0.0000 0.0000 31.0704 0.0000 0.0000
# 5 0.0000 0.0000 0.0000 0.0000 12.4496 0.0000
# 6 0.0000 0.0000 0.0000 0.0000 0.0000 29.6298
#
#
#
# Elastic Compliance Matrix: (Units=1/GPa)
#
#
# Indices 1 2 3 4 5 6 
#
# 1 0.014126 -0.002900 -0.003960 0.000000 0.000000 0.000000
# 2 -0.002900 0.013205 -0.002849 0.000000 0.000000 0.000000
# 3 -0.003960 -0.002849 0.008029 0.000000 0.000000 0.000000
# 4 0.000000 0.000000 0.000000 0.032185 0.000000 0.000000
# 5 0.000000 0.000000 0.000000 0.000000 0.080324 0.000000
# 6 0.000000 0.000000 0.000000 0.000000 0.000000 0.033750
#
#
# Mechanical properties :
#
#
# Convention : Reuss Voigt Hill
#
# Bulk Modulus (GPa) = 62.72452 71.10119 66.91286
# Shear Modulus (GPa) = 24.23054 29.13386 26.68220
#
# Velocity S-wave (km/s) = 3.29902 3.61744 3.46189
# Velocity P-wave (km/s) = 6.53337 7.02738 6.78487
#
# Compressibility (1/GPa) = 0.01594273
#
# Stress axis : x y z
#
# Youngs Moduli (GPa) = 70.79030 75.72942 124.54167
#
# Poissons Ratio (x) = 0.21961 0.49318
# Poissons Ratio (y) = 0.20529 0.35482
# Poissons Ratio (z) = 0.28033 0.21575
#
# Static dielectric constant tensor:
#      x y z
#    x 1.875960 0.000000 0.000000 
#    y 0.000000 1.868950 0.000000 
#    z 0.000000 0.000000 1.812340 
# 
# From -- ./inp_files/22336.got.cif
#   From: 2010.05.17/outbox.cif.g08.bks.cpg/sg52_12_cif.got.tgz:22336.got - 2010.06.03 12:15:38.
