data_PCOD9409116
_publ_section_title
;
Structure prediction by ZEFSAII (Michael W. Deem and Ramdas Pophale) SiO2 
 PCOD9409116
Probable space group: P N N A
;
_chemical_formula_sum "Si O2"
_cell_formula_units_Z 32
_cell_length_a 37.993101
_cell_length_b 5.140895
_cell_length_c 7.937304
_cell_angle_alpha 90.000000
_cell_angle_beta 90.000000
_cell_angle_gamma 90.000000
_cell_volume 1550.302652
_symmetry_space_group_name_H-M "P N N A"
_symmetry_group_IT_number 52
_symmetry_cell_setting 'orthorhombic'
loop_
_space_group_symop_operation_xyz
x,y,z
1/2-x,-y,z
x,1/2-y,1/2-z
1/2-x,1/2+y,1/2-z
-x,-y,-z
1/2+x,y,-z
-x,1/2+y,1/2+z
1/2+x,1/2-y,1/2+z
loop_
_atom_site_type_symbol
_atom_site_label
_atom_site_fract_x
_atom_site_fract_y
_atom_site_fract_z
Si Si1 0.977719 0.253087 0.449836
Si Si2 0.856222 0.764897 0.452486
Si Si3 0.397947 0.244237 0.956276
Si Si4 0.211965 0.495150 0.129970
O O1 0.973969 0.250000 0.250000
O O2 0.937904 0.286954 0.516914
O O3 0.000000 0.500000 0.500000
O O4 0.000000 0.000000 0.500000
O O5 0.854163 0.750000 0.250000
O O6 0.870160 0.480585 0.509269
O O7 0.885502 0.971060 0.507984
O O8 0.820481 0.900375 0.516721
O O9 0.397618 0.250000 0.750000
O O10 0.250000 0.500000 0.036905
O O11 0.205705 0.750000 0.250000
O O12 0.216963 0.250000 0.250000
#
# Coordination Sequence:
#
# PCOD9409116 Si02
#       4
#     8   8   8   8
#     4  11  22  39  60  84 116 153 192 235 287 343
#     4  10  19  36  59  83 107 142 193 236 274 331
#     4   9  19  35  57  81 111 148 183 230 290 338
#     4  10  21  38  57  80 115 153 182 221 288 350
#
# _framework density 20.641131999999999
#
# number of rings (size 3 to 8) (size 9 to 14) (size 15 to 20)
#    0.000    2.000    0.000    3.750    0.000    4.000 
#    0.000   20.000    0.000    0.000    0.000    0.000 
#    0.000    0.000    0.000    0.000    0.000    0.000 
#
# Total GULP energy -178285.988469 kJ/mol
# GULP energy per Si atom -5571.437140 kJ/mol
# Density = 2.059415 g / cm^3
# Si number density = 20.641132 Si / 1000 Ang^3
#
#
#
# Elastic Constant Matrix: (Units=GPa)
#
#
# Indices 1 2 3 4 5 6 
#
# 1 173.8881 55.4650 27.7540 0.0000 0.0000 0.0000
# 2 55.4650 158.1353 15.6437 0.0000 0.0000 0.0000
# 3 27.7540 15.6437 22.4922 0.0000 0.0000 0.0000
# 4 0.0000 0.0000 0.0000 20.8197 0.0000 0.0000
# 5 0.0000 0.0000 0.0000 0.0000 116.5588 0.0000
# 6 0.0000 0.0000 0.0000 0.0000 0.0000 36.0689
#
#
#
# Elastic Compliance Matrix: (Units=1/GPa)
#
#
# Indices 1 2 3 4 5 6 
#
# 1 0.007648 -0.001878 -0.008130 0.000000 0.000000 0.000000
# 2 -0.001878 0.007252 -0.002727 0.000000 0.000000 0.000000
# 3 -0.008130 -0.002727 0.056389 0.000000 0.000000 0.000000
# 4 0.000000 0.000000 0.000000 0.048031 0.000000 0.000000
# 5 0.000000 0.000000 0.000000 0.000000 0.008579 0.000000
# 6 0.000000 0.000000 0.000000 0.000000 0.000000 0.027725
#
#
# Mechanical properties :
#
#
# Convention : Reuss Voigt Hill
#
# Bulk Modulus (GPa) = 21.82535 61.36011 41.59273
# Shear Modulus (GPa) = 25.46255 51.73299 38.59777
#
# Velocity S-wave (km/s) = 3.51605 5.01173 4.32898
# Velocity P-wave (km/s) = 5.20386 7.95497 6.72167
#
# Compressibility (1/GPa) = 0.04581829
#
# Stress axis : x y z
#
# Youngs Moduli (GPa) = 130.76108 137.89041 17.73405
#
# Poissons Ratio (x) = 0.25896 0.14418
# Poissons Ratio (y) = 0.24557 0.04835
# Poissons Ratio (z) = 1.06314 0.37598
#
# Static dielectric constant tensor:
#      x y z
#    x 1.852530 0.000000 0.000000 
#    y 0.000000 1.696770 0.000000 
#    z 0.000000 0.000000 1.736500 
# 
# From -- ./inp_files/15156.got.cif
#   From: 2010.05.17/outbox.cif.g08.bks.cpg/sg52_8_cif.got.tgz:15156.got - 2010.06.03 12:15:38.
