data_PCOD9409447
_publ_section_title
;
Structure prediction by ZEFSAII (Michael W. Deem and Ramdas Pophale) SiO2 
 PCOD9409447
Probable space group: P N N A
;
_chemical_formula_sum "Si O2"
_cell_formula_units_Z 48
_cell_length_a 24.070223
_cell_length_b 12.193627
_cell_length_c 8.376835
_cell_angle_alpha 90.000000
_cell_angle_beta 90.000000
_cell_angle_gamma 90.000000
_cell_volume 2458.628893
_symmetry_space_group_name_H-M "P N N A"
_symmetry_group_IT_number 52
_symmetry_cell_setting 'orthorhombic'
loop_
_space_group_symop_operation_xyz
x,y,z
1/2-x,-y,z
x,1/2-y,1/2-z
1/2-x,1/2+y,1/2-z
-x,-y,-z
1/2+x,y,-z
-x,1/2+y,1/2+z
1/2+x,1/2-y,1/2+z
loop_
_atom_site_type_symbol
_atom_site_label
_atom_site_fract_x
_atom_site_fract_y
_atom_site_fract_z
Si Si1 0.750000 0.500000 0.787639
Si Si2 0.859702 0.788957 0.417692
Si Si3 0.475336 0.660274 0.566310
Si Si4 0.133442 0.980338 0.459068
Si Si5 0.476500 0.525046 0.237594
Si Si6 0.559046 0.810580 0.416579
Si Si7 0.208027 0.250000 0.250000
O O1 0.806379 0.479412 0.883306
O O2 0.761952 0.628431 0.722400
O O3 0.832671 0.750000 0.250000
O O4 0.919549 0.730021 0.422733
O O5 0.827883 0.764729 0.585503
O O6 0.867656 0.919692 0.416600
O O7 0.469706 0.592227 0.401950
O O8 0.487706 0.580190 0.712363
O O9 0.531016 0.730974 0.543272
O O10 0.115909 0.865803 0.534162
O O11 0.084179 0.002556 0.331875
O O12 0.512791 0.596454 0.116424
O O13 0.565888 0.750000 0.250000
#
# Coordination Sequence:
#
# PCOD9409447 Si02
#       7
#     4   8   8   8   8   8   4
#     4  10  24  44  72  90 124 182 236 270 344 378
#     4  11  22  38  67  94 128 171 222 261 339 406
#     4  10  20  32  54  91 124 163 203 250 329 412
#     4  11  22  40  61  88 126 171 220 277 319 395
#     4  10  20  34  56  87 127 164 203 259 333 395
#     4  10  21  35  54  86 128 165 198 267 337 392
#     4  10  24  48  68  98 132 178 226 298 320 400
#
# _framework density 19.523077000000001
#
# number of rings (size 3 to 8) (size 9 to 14) (size 15 to 20)
#    0.000    1.667    1.667    3.500    3.500    1.333 
#    0.000   10.000    0.000    0.000    0.000    0.000 
#    0.000    0.000    0.000    0.000    0.000    0.000 
#
# Total GULP energy -267512.962826 kJ/mol
# GULP energy per Si atom -5573.186726 kJ/mol
# Density = 1.947864 g / cm^3
# Si number density = 19.523077 Si / 1000 Ang^3
#
#
#
# Elastic Constant Matrix: (Units=GPa)
#
#
# Indices 1 2 3 4 5 6 
#
# 1 96.5843 29.1864 15.7639 0.0000 0.0000 0.0000
# 2 29.1864 106.2112 24.2273 0.0000 0.0000 0.0000
# 3 15.7639 24.2273 77.0476 0.0000 0.0000 0.0000
# 4 0.0000 0.0000 0.0000 38.3100 0.0000 0.0000
# 5 0.0000 0.0000 0.0000 0.0000 13.6434 0.0000
# 6 0.0000 0.0000 0.0000 0.0000 0.0000 35.4883
#
#
#
# Elastic Compliance Matrix: (Units=1/GPa)
#
#
# Indices 1 2 3 4 5 6 
#
# 1 0.011441 -0.002812 -0.001457 0.000000 0.000000 0.000000
# 2 -0.002812 0.010834 -0.002831 0.000000 0.000000 0.000000
# 3 -0.001457 -0.002831 0.014167 0.000000 0.000000 0.000000
# 4 0.000000 0.000000 0.000000 0.026103 0.000000 0.000000
# 5 0.000000 0.000000 0.000000 0.000000 0.073295 0.000000
# 6 0.000000 0.000000 0.000000 0.000000 0.000000 0.028178
#
#
# Mechanical properties :
#
#
# Convention : Reuss Voigt Hill
#
# Bulk Modulus (GPa) = 44.95874 46.46649 45.71261
# Shear Modulus (GPa) = 26.93496 31.53270 29.23383
#
# Velocity S-wave (km/s) = 3.71839 4.02325 3.87382
# Velocity P-wave (km/s) = 6.44312 6.74052 6.59349
#
# Compressibility (1/GPa) = 0.02224262
#
# Stress axis : x y z
#
# Youngs Moduli (GPa) = 87.40454 92.30476 70.58488
#
# Poissons Ratio (x) = 0.25953 0.10282
# Poissons Ratio (y) = 0.24575 0.19985
# Poissons Ratio (z) = 0.12732 0.26135
#
# Static dielectric constant tensor:
#      x y z
#    x 1.637910 0.000000 0.000000 
#    y 0.000000 1.791920 0.000000 
#    z 0.000000 0.000000 1.702430 
# 
# From -- ./inp_files/14300.got.cif
#   From: 2010.05.17/outbox.cif.g08.bks.cpg/sg52_8_cif.got.tgz:14300.got - 2010.06.03 12:15:38.
