data_PCOD9409787
_publ_section_title
;
Structure prediction by ZEFSAII (Michael W. Deem and Ramdas Pophale) SiO2 
 PCOD9409787
Probable space group: P N N A
;
_chemical_formula_sum "Si O2"
_cell_formula_units_Z 44
_cell_length_a 9.705188
_cell_length_b 14.812125
_cell_length_c 16.642363
_cell_angle_alpha 90.000000
_cell_angle_beta 90.000000
_cell_angle_gamma 90.000000
_cell_volume 2392.413870
_symmetry_space_group_name_H-M "P N N A"
_symmetry_group_IT_number 52
_symmetry_cell_setting 'orthorhombic'
loop_
_space_group_symop_operation_xyz
x,y,z
1/2-x,-y,z
x,1/2-y,1/2-z
1/2-x,1/2+y,1/2-z
-x,-y,-z
1/2+x,y,-z
-x,1/2+y,1/2+z
1/2+x,1/2-y,1/2+z
loop_
_atom_site_type_symbol
_atom_site_label
_atom_site_fract_x
_atom_site_fract_y
_atom_site_fract_z
Si Si1 0.392227 0.946939 0.444366
Si Si2 0.092763 0.006910 0.877653
Si Si3 0.895372 0.947090 0.738161
Si Si4 0.213294 0.250000 0.250000
Si Si5 0.002168 0.851295 0.997876
Si Si6 0.251113 0.755439 0.432942
O O1 0.447636 0.950768 0.353181
O O2 0.335404 0.845274 0.459407
O O3 0.250000 0.000000 0.446808
O O4 0.500000 0.000000 0.500000
O O5 0.049769 0.099657 0.921172
O O6 0.250000 0.000000 0.851795
O O7 0.994993 0.990283 0.802643
O O8 0.073296 0.927988 0.943801
O O9 0.872397 0.841947 0.757680
O O10 0.750000 0.000000 0.741664
O O11 0.285231 0.238662 0.337538
O O12 0.113407 0.773415 0.019189
O O13 0.866643 0.819933 0.950212
#
# Coordination Sequence:
#
# PCOD9409787 Si02
#       6
#     8   8   8   4   8   8
#     4  10  22  40  62  88 115 163 216 256 304 353
#     4  11  22  36  57  90 128 151 192 243 311 374
#     4  10  21  38  63  87 122 162 202 252 301 372
#     4  10  20  36  60  88 112 160 210 234 296 362
#     4  11  22  36  58  91 122 158 192 240 308 371
#     4  11  21  38  62  86 122 158 204 253 297 370
#
# _framework density 18.391468
#
# number of rings (size 3 to 8) (size 9 to 14) (size 15 to 20)
#    0.000    1.455    3.636    2.182    0.000    0.727 
#    0.000    0.000    0.000    2.182    0.000    0.000 
#    0.000    0.000    0.000    0.000    0.000    0.000 
#
# Total GULP energy -245216.262473 kJ/mol
# GULP energy per Si atom -5573.096874 kJ/mol
# Density = 1.834961 g / cm^3
# Si number density = 18.391468 Si / 1000 Ang^3
#
#
#
# Elastic Constant Matrix: (Units=GPa)
#
#
# Indices 1 2 3 4 5 6 
#
# 1 77.1178 17.3099 37.7047 0.0000 0.0000 0.0000
# 2 17.3099 82.6987 24.9182 0.0000 0.0000 0.0000
# 3 37.7047 24.9182 90.4731 0.0000 0.0000 0.0000
# 4 0.0000 0.0000 0.0000 29.1329 0.0000 0.0000
# 5 0.0000 0.0000 0.0000 0.0000 28.2119 0.0000
# 6 0.0000 0.0000 0.0000 0.0000 0.0000 12.3392
#
#
#
# Elastic Compliance Matrix: (Units=1/GPa)
#
#
# Indices 1 2 3 4 5 6 
#
# 1 0.016455 -0.001503 -0.006444 0.000000 0.000000 0.000000
# 2 -0.001503 0.013324 -0.003043 0.000000 0.000000 0.000000
# 3 -0.006444 -0.003043 0.014577 0.000000 0.000000 0.000000
# 4 0.000000 0.000000 0.000000 0.034325 0.000000 0.000000
# 5 0.000000 0.000000 0.000000 0.000000 0.035446 0.000000
# 6 0.000000 0.000000 0.000000 0.000000 0.000000 0.081042
#
#
# Mechanical properties :
#
#
# Convention : Reuss Voigt Hill
#
# Bulk Modulus (GPa) = 44.69134 45.57278 45.13206
# Shear Modulus (GPa) = 22.26109 25.29392 23.77751
#
# Velocity S-wave (km/s) = 3.48286 3.71254 3.59953
# Velocity P-wave (km/s) = 6.36605 6.57346 6.47058
#
# Compressibility (1/GPa) = 0.02237570
#
# Stress axis : x y z
#
# Youngs Moduli (GPa) = 60.77195 75.05471 68.60290
#
# Poissons Ratio (x) = 0.11278 0.44206
# Poissons Ratio (y) = 0.09132 0.20878
# Poissons Ratio (z) = 0.39160 0.22842
#
# Static dielectric constant tensor:
#      x y z
#    x 1.597880 0.000000 0.000000 
#    y 0.000000 2.013430 0.000000 
#    z 0.000000 0.000000 1.667480 
# 
# From -- ./inp_files/31149.got.cif
#   From: 2010.05.17/outbox.cif.g08.bks.cpg/sg52_16_cif.got.tgz:31149.got - 2010.06.03 12:15:38.
