data_PCOD9409434
_publ_section_title
;
Structure prediction by ZEFSAII (Michael W. Deem and Ramdas Pophale) SiO2 
 PCOD9409434
Probable space group: P N N A
;
_chemical_formula_sum "Si O2"
_cell_formula_units_Z 56
_cell_length_a 8.458631
_cell_length_b 15.716487
_cell_length_c 21.723874
_cell_angle_alpha 90.000000
_cell_angle_beta 90.000000
_cell_angle_gamma 90.000000
_cell_volume 2887.971031
_symmetry_space_group_name_H-M "P N N A"
_symmetry_group_IT_number 52
_symmetry_cell_setting 'orthorhombic'
loop_
_space_group_symop_operation_xyz
x,y,z
1/2-x,-y,z
x,1/2-y,1/2-z
1/2-x,1/2+y,1/2-z
-x,-y,-z
1/2+x,y,-z
-x,1/2+y,1/2+z
1/2+x,1/2-y,1/2+z
loop_
_atom_site_type_symbol
_atom_site_label
_atom_site_fract_x
_atom_site_fract_y
_atom_site_fract_z
Si Si1 0.163817 0.090565 0.709048
Si Si2 0.179100 0.405602 0.656227
Si Si3 0.518514 0.683415 0.559693
Si Si4 0.635517 0.239518 0.934199
Si Si5 0.198299 0.593225 0.010754
Si Si6 0.092096 0.132146 0.586753
Si Si7 0.408795 0.246290 0.681106
O O1 0.093868 0.103780 0.776938
O O2 0.048369 0.090236 0.650989
O O3 0.283882 0.167775 0.689928
O O4 0.250000 0.000000 0.710405
O O5 0.250000 0.500000 0.652717
O O6 0.071613 0.389643 0.596685
O O7 0.313258 0.332696 0.663733
O O8 0.706107 0.682105 0.570990
O O9 0.475142 0.697926 0.487623
O O10 0.442953 0.768368 0.590146
O O11 0.712276 0.328125 0.957306
O O12 0.538036 0.258805 0.872684
O O13 0.250000 0.500000 0.028897
O O14 0.019372 0.599696 0.032209
O O15 0.234258 0.608525 0.938525
O O16 0.481049 0.250000 0.750000
#
# Coordination Sequence:
#
# PCOD9409434 Si02
#       7
#     8   8   8   8   8   8   8
#     4  10  21  34  61  87 117 156 199 232 288 356
#     4  10  21  41  64  87 110 151 200 249 302 357
#     4  10  20  38  59  85 117 148 193 245 287 349
#     4  10  22  37  60  86 116 158 192 239 301 348
#     4  10  21  32  50  80 117 152 195 230 277 338
#     4  10  20  32  51  80 114 159 186 232 280 334
#     4  10  21  40  60  83 121 157 192 242 293 351
#
# _framework density 19.390775999999999
#
# number of rings (size 3 to 8) (size 9 to 14) (size 15 to 20)
#    0.000    2.000    1.429    1.714    8.000    0.000 
#    5.143    3.571    0.000    0.000    0.000    0.000 
#    0.000    0.000    0.000    0.000    0.000    0.000 
#
# Total GULP energy -311850.562713 kJ/mol
# GULP energy per Si atom -5568.760048 kJ/mol
# Density = 1.934664 g / cm^3
# Si number density = 19.390776 Si / 1000 Ang^3
#
#
#
# Elastic Constant Matrix: (Units=GPa)
#
#
# Indices 1 2 3 4 5 6 
#
# 1 56.2892 15.6879 34.7465 0.0000 0.0000 0.0000
# 2 15.6879 84.4829 8.6393 0.0000 0.0000 0.0000
# 3 34.7465 8.6393 114.5789 0.0000 0.0000 0.0000
# 4 0.0000 0.0000 0.0000 15.9066 0.0000 0.0000
# 5 0.0000 0.0000 0.0000 0.0000 20.9801 0.0000
# 6 0.0000 0.0000 0.0000 0.0000 0.0000 14.0573
#
#
#
# Elastic Compliance Matrix: (Units=1/GPa)
#
#
# Indices 1 2 3 4 5 6 
#
# 1 0.022875 -0.003566 -0.006668 0.000000 0.000000 0.000000
# 2 -0.003566 0.012485 0.000140 0.000000 0.000000 0.000000
# 3 -0.006668 0.000140 0.010739 0.000000 0.000000 0.000000
# 4 0.000000 0.000000 0.000000 0.062867 0.000000 0.000000
# 5 0.000000 0.000000 0.000000 0.000000 0.047664 0.000000
# 6 0.000000 0.000000 0.000000 0.000000 0.000000 0.071138
#
#
# Mechanical properties :
#
#
# Convention : Reuss Voigt Hill
#
# Bulk Modulus (GPa) = 38.59359 41.49982 40.04670
# Shear Modulus (GPa) = 19.48611 23.27395 21.38003
#
# Velocity S-wave (km/s) = 3.17348 3.46823 3.32413
# Velocity P-wave (km/s) = 5.77704 6.12262 5.95234
#
# Compressibility (1/GPa) = 0.02591104
#
# Stress axis : x y z
#
# Youngs Moduli (GPa) = 43.71508 80.09891 93.11678
#
# Poissons Ratio (x) = 0.28563 0.62092
# Poissons Ratio (y) = 0.15588 -0.01304
# Poissons Ratio (z) = 0.29150 -0.01122
#
# Static dielectric constant tensor:
#      x y z
#    x 1.751970 0.000000 0.000000 
#    y 0.000000 1.712700 0.000000 
#    z 0.000000 0.000000 1.764820 
# 
# From -- ./inp_files/36045.got.cif
#   From: 2010.05.17/outbox.cif.g08.bks.cpg/sg52_19_cif.got.tgz:36045.got - 2010.06.03 12:15:38.
