data_PCOD9409275
_publ_section_title
;
Structure prediction by ZEFSAII (Michael W. Deem and Ramdas Pophale) SiO2 
 PCOD9409275
Probable space group: P N N A
;
_chemical_formula_sum "Si O2"
_cell_formula_units_Z 32
_cell_length_a 17.014967
_cell_length_b 15.195538
_cell_length_c 5.296463
_cell_angle_alpha 90.000000
_cell_angle_beta 90.000000
_cell_angle_gamma 90.000000
_cell_volume 1369.408864
_symmetry_space_group_name_H-M "P N N A"
_symmetry_group_IT_number 52
_symmetry_cell_setting 'orthorhombic'
loop_
_space_group_symop_operation_xyz
x,y,z
1/2-x,-y,z
x,1/2-y,1/2-z
1/2-x,1/2+y,1/2-z
-x,-y,-z
1/2+x,y,-z
-x,1/2+y,1/2+z
1/2+x,1/2-y,1/2+z
loop_
_atom_site_type_symbol
_atom_site_label
_atom_site_fract_x
_atom_site_fract_y
_atom_site_fract_z
Si Si1 0.971385 0.102319 0.494776
Si Si2 0.800031 0.344984 0.871821
Si Si3 0.277746 0.594114 0.645105
Si Si4 0.039603 0.097956 0.989683
O O1 0.878154 0.111736 0.509657
O O2 0.012141 0.140873 0.248629
O O3 0.000000 0.000000 0.500000
O O4 0.002437 0.144211 0.749921
O O5 0.817226 0.250000 0.750000
O O6 0.768556 0.392922 0.619550
O O7 0.740529 0.343376 0.112417
O O8 0.250000 0.500000 0.747052
O O9 0.368342 0.592927 0.562248
O O10 0.000000 0.000000 0.000000
#
# Coordination Sequence:
#
# PCOD9409275 Si02
#       4
#     8   8   8   8
#     4  10  19  38  63  93 131 177 234 289 345 423
#     4  12  26  44  67 102 148 192 236 305 380 433
#     4  12  23  42  71 101 136 188 246 297 356 443
#     4  10  20  36  62  96 128 163 225 291 336 397
#
# _framework density 23.367747999999999
#
# number of rings (size 3 to 8) (size 9 to 14) (size 15 to 20)
#    0.000    1.000    0.000   10.500    0.000    0.000 
#    0.000    5.000    0.000    0.000    0.000    0.000 
#    0.000    0.000    0.000    0.000    0.000    0.000 
#
# Total GULP energy -178659.285909 kJ/mol
# GULP energy per Si atom -5583.102685 kJ/mol
# Density = 2.331456 g / cm^3
# Si number density = 23.367748 Si / 1000 Ang^3
#
#
#
# Elastic Constant Matrix: (Units=GPa)
#
#
# Indices 1 2 3 4 5 6 
#
# 1 169.5832 30.3262 65.7683 0.0000 0.0000 0.0000
# 2 30.3262 81.2866 22.1381 0.0000 0.0000 0.0000
# 3 65.7683 22.1381 239.2429 0.0000 0.0000 0.0000
# 4 0.0000 0.0000 0.0000 10.8184 0.0000 0.0000
# 5 0.0000 0.0000 0.0000 0.0000 51.8379 0.0000
# 6 0.0000 0.0000 0.0000 0.0000 0.0000 4.2947
#
#
#
# Elastic Compliance Matrix: (Units=1/GPa)
#
#
# Indices 1 2 3 4 5 6 
#
# 1 0.006940 -0.002123 -0.001711 0.000000 0.000000 0.000000
# 2 -0.002123 0.013270 -0.000644 0.000000 0.000000 0.000000
# 3 -0.001711 -0.000644 0.004710 0.000000 0.000000 0.000000
# 4 0.000000 0.000000 0.000000 0.092435 0.000000 0.000000
# 5 0.000000 0.000000 0.000000 0.000000 0.019291 0.000000
# 6 0.000000 0.000000 0.000000 0.000000 0.000000 0.232844
#
#
# Mechanical properties :
#
#
# Convention : Reuss Voigt Hill
#
# Bulk Modulus (GPa) = 62.64777 80.73086 71.68932
# Shear Modulus (GPa) = 13.02870 38.18221 25.60546
#
# Velocity S-wave (km/s) = 2.36381 4.04663 3.31382
# Velocity P-wave (km/s) = 5.85814 7.51376 6.73700
#
# Compressibility (1/GPa) = 0.01596226
#
# Stress axis : x y z
#
# Youngs Moduli (GPa) = 144.08778 75.35962 212.31708
#
# Poissons Ratio (x) = 0.16000 0.36336
# Poissons Ratio (y) = 0.30592 0.13678
# Poissons Ratio (z) = 0.24659 0.04855
#
# Static dielectric constant tensor:
#      x y z
#    x 1.969630 0.000000 0.000000 
#    y 0.000000 1.931300 0.000000 
#    z 0.000000 0.000000 1.911900 
# 
# From -- ./inp_files/1923.got.cif
#   From: 2010.05.17/outbox.cif.g08.bks.cpg/sg52_1_cif.got.tgz:1923.got - 2010.06.03 12:15:38.
