data_PCOD9409597
_publ_section_title
;
Structure prediction by ZEFSAII (Michael W. Deem and Ramdas Pophale) SiO2 
 PCOD9409597
Probable space group: P N N A
;
_chemical_formula_sum "Si O2"
_cell_formula_units_Z 36
_cell_length_a 19.907418
_cell_length_b 8.822043
_cell_length_c 8.080624
_cell_angle_alpha 90.000000
_cell_angle_beta 90.000000
_cell_angle_gamma 90.000000
_cell_volume 1419.152298
_symmetry_space_group_name_H-M "P N N A"
_symmetry_group_IT_number 52
_symmetry_cell_setting 'orthorhombic'
loop_
_space_group_symop_operation_xyz
x,y,z
1/2-x,-y,z
x,1/2-y,1/2-z
1/2-x,1/2+y,1/2-z
-x,-y,-z
1/2+x,y,-z
-x,1/2+y,1/2+z
1/2+x,1/2-y,1/2+z
loop_
_atom_site_type_symbol
_atom_site_label
_atom_site_fract_x
_atom_site_fract_y
_atom_site_fract_z
Si Si1 0.612199 0.603455 0.863838
Si Si2 0.156899 0.165422 0.989417
Si Si3 0.330380 0.992002 0.669644
Si Si4 0.478091 0.598633 0.332908
Si Si5 0.250000 0.000000 0.199394
O O1 0.606787 0.750000 0.750000
O O2 0.544457 0.513162 0.816191
O O3 0.683068 0.530626 0.801589
O O4 0.628766 0.610333 0.058577
O O5 0.150023 0.026003 0.860578
O O6 0.154244 0.326975 0.904846
O O7 0.093596 0.158992 0.104987
O O8 0.227261 0.139439 0.082991
O O9 0.250000 0.000000 0.664183
O O10 0.511484 0.750000 0.250000
O O11 0.500000 0.500000 0.500000
#
# Coordination Sequence:
#
# PCOD9409597 Si02
#       5
#     8   8   8   8   4
#     4  11  23  39  66 101 134 176 232 293 365 448
#     4  10  22  39  62  98 139 182 223 293 359 445
#     4  11  20  37  64 100 140 177 221 282 376 452
#     4  11  25  49  71  94 133 193 252 313 377 441
#     4  10  20  34  60  96 138 176 218 270 360 438
#
# _framework density 25.367256000000001
#
# number of rings (size 3 to 8) (size 9 to 14) (size 15 to 20)
#    0.000    1.333    4.444    1.333    0.000    1.778 
#    4.000    2.222    0.000    0.000    0.000    0.000 
#    0.000    0.000    0.000    0.000    0.000    0.000 
#
# Total GULP energy -200861.349863 kJ/mol
# GULP energy per Si atom -5579.481941 kJ/mol
# Density = 2.530952 g / cm^3
# Si number density = 25.367256 Si / 1000 Ang^3
#
#
#
# Elastic Constant Matrix: (Units=GPa)
#
#
# Indices 1 2 3 4 5 6 
#
# 1 76.8146 29.0345 45.6785 0.0000 0.0000 0.0000
# 2 29.0345 83.4010 38.4054 0.0000 0.0000 0.0000
# 3 45.6785 38.4054 144.2074 0.0000 0.0000 0.0000
# 4 0.0000 0.0000 0.0000 51.5252 0.0000 0.0000
# 5 0.0000 0.0000 0.0000 0.0000 39.8171 0.0000
# 6 0.0000 0.0000 0.0000 0.0000 0.0000 13.3819
#
#
#
# Elastic Compliance Matrix: (Units=1/GPa)
#
#
# Indices 1 2 3 4 5 6 
#
# 1 0.017107 -0.003944 -0.004368 0.000000 0.000000 0.000000
# 2 -0.003944 0.014575 -0.002633 0.000000 0.000000 0.000000
# 3 -0.004368 -0.002633 0.009019 0.000000 0.000000 0.000000
# 4 0.000000 0.000000 0.000000 0.019408 0.000000 0.000000
# 5 0.000000 0.000000 0.000000 0.000000 0.025115 0.000000
# 6 0.000000 0.000000 0.000000 0.000000 0.000000 0.074728
#
#
# Mechanical properties :
#
#
# Convention : Reuss Voigt Hill
#
# Bulk Modulus (GPa) = 53.15723 58.96219 56.05971
# Shear Modulus (GPa) = 26.57989 33.69848 30.13918
#
# Velocity S-wave (km/s) = 3.24049 3.64871 3.45064
# Velocity P-wave (km/s) = 5.91621 6.40661 6.16629
#
# Compressibility (1/GPa) = 0.01881212
#
# Stress axis : x y z
#
# Youngs Moduli (GPa) = 58.45661 68.60836 110.87400
#
# Poissons Ratio (x) = 0.27058 0.48433
# Poissons Ratio (y) = 0.23054 0.29188
# Poissons Ratio (z) = 0.25536 0.18061
#
# Static dielectric constant tensor:
#      x y z
#    x 1.913200 0.000000 0.000000 
#    y 0.000000 1.956700 0.000000 
#    z 0.000000 0.000000 2.235540 
# 
# From -- ./inp_files/12932.got.cif
#   From: 2010.05.17/outbox.cif.g08.bks.cpg/sg52_7_cif.got.tgz:12932.got - 2010.06.03 12:15:38.
