data_PCOD9409826
_publ_section_title
;
Structure prediction by ZEFSAII (Michael W. Deem and Ramdas Pophale) SiO2 
 PCOD9409826
Probable space group: P N N A
;
_chemical_formula_sum "Si O2"
_cell_formula_units_Z 64
_cell_length_a 5.118589
_cell_length_b 17.603465
_cell_length_c 30.955828
_cell_angle_alpha 90.000000
_cell_angle_beta 90.000000
_cell_angle_gamma 90.000000
_cell_volume 2789.271858
_symmetry_space_group_name_H-M "P N N A"
_symmetry_group_IT_number 52
_symmetry_cell_setting 'orthorhombic'
loop_
_space_group_symop_operation_xyz
x,y,z
1/2-x,-y,z
x,1/2-y,1/2-z
1/2-x,1/2+y,1/2-z
-x,-y,-z
1/2+x,y,-z
-x,1/2+y,1/2+z
1/2+x,1/2-y,1/2+z
loop_
_atom_site_type_symbol
_atom_site_label
_atom_site_fract_x
_atom_site_fract_y
_atom_site_fract_z
Si Si1 0.080261 0.073550 0.375210
Si Si2 0.553279 0.683566 0.271886
Si Si3 0.356241 0.416198 0.647849
Si Si4 0.366797 0.784516 0.025793
Si Si5 0.255905 0.085911 0.703266
Si Si6 0.117002 0.844500 0.113803
Si Si7 0.616168 0.101113 0.526251
Si Si8 0.345710 0.292177 0.175604
O O1 0.049197 0.071771 0.426283
O O2 0.202976 0.152391 0.358697
O O3 0.820066 0.076508 0.347179
O O4 0.250000 0.000000 0.361641
O O5 0.723372 0.750000 0.250000
O O6 0.682694 0.633935 0.308975
O O7 0.517847 0.625157 0.232255
O O8 0.330390 0.764539 0.205456
O O9 0.250000 0.500000 0.657476
O O10 0.659044 0.398612 0.635842
O O11 0.157363 0.387837 0.610824
O O12 0.252242 0.817454 0.069939
O O13 0.376245 0.692951 0.029509
O O14 0.657810 0.806380 0.011346
O O15 0.021134 0.146524 0.701667
O O16 0.250000 0.000000 0.720389
O O17 0.038934 0.770964 0.142804
O O18 0.399572 0.079100 0.491183
#
# Coordination Sequence:
#
# PCOD9409826 Si02
#       8
#     8   8   8   8   8   8   8   8
#     4  12  25  45  67 103 145 192 243 297 371 436
#     4  11  24  46  68 102 136 181 238 297 352 421
#     4  11  25  45  68 100 136 180 228 284 358 429
#     4  10  20  36  63 100 133 171 226 290 351 416
#     4  12  26  45  73 101 146 193 240 306 381 440
#     4  11  23  42  72  98 134 183 231 292 346 426
#     4  10  24  42  68 101 144 192 244 302 360 432
#     4  11  25  44  68 100 139 186 244 300 350 442
#
# _framework density 22.945058
#
# number of rings (size 3 to 8) (size 9 to 14) (size 15 to 20)
#    0.000    1.000    3.750    2.250    3.500    4.000 
#    0.000    2.500    0.000    7.500    0.000    0.000 
#    0.000    0.000    0.000    0.000    0.000    0.000 
#
# Total GULP energy -356721.012810 kJ/mol
# GULP energy per Si atom -5573.765825 kJ/mol
# Density = 2.289283 g / cm^3
# Si number density = 22.945058 Si / 1000 Ang^3
#
#
#
# Elastic Constant Matrix: (Units=GPa)
#
#
# Indices 1 2 3 4 5 6 
#
# 1 91.9734 45.8796 14.1604 0.0000 0.0000 0.0000
# 2 45.8796 144.3379 48.7064 0.0000 0.0000 0.0000
# 3 14.1604 48.7064 110.9145 0.0000 0.0000 0.0000
# 4 0.0000 0.0000 0.0000 24.1613 0.0000 0.0000
# 5 0.0000 0.0000 0.0000 0.0000 -300.5563 0.0000
# 6 0.0000 0.0000 0.0000 0.0000 0.0000 32.4470
#
#
#
# Elastic Compliance Matrix: (Units=1/GPa)
#
#
# Indices 1 2 3 4 5 6 
#
# 1 0.012925 -0.004169 0.000181 0.000000 0.000000 0.000000
# 2 -0.004169 0.009478 -0.003630 0.000000 0.000000 0.000000
# 3 0.000181 -0.003630 0.010587 0.000000 0.000000 0.000000
# 4 0.000000 0.000000 0.000000 0.041389 0.000000 0.000000
# 5 0.000000 0.000000 0.000000 0.000000 -0.003327 0.000000
# 6 0.000000 0.000000 0.000000 0.000000 0.000000 0.030819
#
#
# Mechanical properties :
#
#
# Convention : Reuss Voigt Hill
#
# Bulk Modulus (GPa) = 56.32851 62.74650 59.53750
# Shear Modulus (GPa) = 40.64201 -32.89098 3.87552
#
# Velocity S-wave (km/s) = 4.21322 -3.79022 1.30104
# Velocity P-wave (km/s) = 6.94772 2.87252 5.31612
#
# Compressibility (1/GPa) = 0.01775300
#
# Stress axis : x y z
#
# Youngs Moduli (GPa) = 77.37153 105.50337 94.45612
#
# Poissons Ratio (x) = 0.43987 -0.01708
# Poissons Ratio (y) = 0.32258 0.34287
# Poissons Ratio (z) = -0.01399 0.38298
#
# Static dielectric constant tensor:
#      x y z
#    x 1.924240 0.000000 0.000000 
#    y 0.000000 1.896420 0.000000 
#    z 0.000000 0.000000 1.875760 
# 
# From -- ./inp_files/43906.got.cif
#   From: 2010.05.17/outbox.cif.g08.bks.cpg/sg52_22_cif.got.tgz:43906.got - 2010.06.03 12:15:38.
