data_PCOD9409991
_publ_section_title
;
Structure prediction by ZEFSAII (Michael W. Deem and Ramdas Pophale) SiO2 
 PCOD9409991
Probable space group: P N N A
;
_chemical_formula_sum "Si O2"
_cell_formula_units_Z 28
_cell_length_a 15.929475
_cell_length_b 8.208959
_cell_length_c 8.689465
_cell_angle_alpha 90.000000
_cell_angle_beta 90.000000
_cell_angle_gamma 90.000000
_cell_volume 1136.272739
_symmetry_space_group_name_H-M "P N N A"
_symmetry_group_IT_number 52
_symmetry_cell_setting 'orthorhombic'
loop_
_space_group_symop_operation_xyz
x,y,z
1/2-x,-y,z
x,1/2-y,1/2-z
1/2-x,1/2+y,1/2-z
-x,-y,-z
1/2+x,y,-z
-x,1/2+y,1/2+z
1/2+x,1/2-y,1/2+z
loop_
_atom_site_type_symbol
_atom_site_label
_atom_site_fract_x
_atom_site_fract_y
_atom_site_fract_z
Si Si1 0.247331 0.750000 0.250000
Si Si2 0.895621 0.307327 0.545750
Si Si3 0.453782 0.750000 0.750000
Si Si4 0.612399 0.083562 0.545734
Si Si5 0.031079 0.750000 0.750000
O O1 0.184669 0.640229 0.356142
O O2 0.307516 0.842045 0.369098
O O3 0.979235 0.347504 0.642263
O O4 0.910629 0.349890 0.368847
O O5 0.885450 0.110644 0.543207
O O6 0.399306 0.847361 0.626183
O O7 0.531617 0.145248 0.643116
#
# Coordination Sequence:
#
# PCOD9409991 Si02
#       5
#     4   8   4   8   4
#     4  10  22  38  56  78 112 150 186 222 276 334
#     4  10  20  38  57  82 115 145 179 233 275 318
#     4   9  18  34  60  81 108 146 188 223 270 332
#     4  10  20  38  57  82 115 145 179 233 275 318
#     4   9  18  34  60  81 108 146 188 223 270 332
#
# _framework density 24.641974000000001
#
# number of rings (size 3 to 8) (size 9 to 14) (size 15 to 20)
#    0.000    2.286    0.000    4.286    0.000    1.143 
#    0.000   60.000    0.000    0.000    0.000    0.000 
#    0.000    0.000    0.000    0.000    0.000    0.000 
#
# Total GULP energy -156618.042773 kJ/mol
# GULP energy per Si atom -5593.501528 kJ/mol
# Density = 2.458589 g / cm^3
# Si number density = 24.641974 Si / 1000 Ang^3
#
#
#
# Elastic Constant Matrix: (Units=GPa)
#
#
# Indices 1 2 3 4 5 6 
#
# 1 145.2718 30.7837 79.0205 0.0000 0.0000 0.0000
# 2 30.7837 87.5020 48.6422 0.0000 0.0000 0.0000
# 3 79.0205 48.6422 239.6009 0.0000 0.0000 0.0000
# 4 0.0000 0.0000 0.0000 40.0550 0.0000 0.0000
# 5 0.0000 0.0000 0.0000 0.0000 51.2249 0.0000
# 6 0.0000 0.0000 0.0000 0.0000 0.0000 29.4372
#
#
#
# Elastic Compliance Matrix: (Units=1/GPa)
#
#
# Indices 1 2 3 4 5 6 
#
# 1 0.008590 -0.001631 -0.002502 0.000000 0.000000 0.000000
# 2 -0.001631 0.013192 -0.002140 0.000000 0.000000 0.000000
# 3 -0.002502 -0.002140 0.005433 0.000000 0.000000 0.000000
# 4 0.000000 0.000000 0.000000 0.024966 0.000000 0.000000
# 5 0.000000 0.000000 0.000000 0.000000 0.019522 0.000000
# 6 0.000000 0.000000 0.000000 0.000000 0.000000 0.033971
#
#
# Mechanical properties :
#
#
# Convention : Reuss Voigt Hill
#
# Bulk Modulus (GPa) = 68.17232 87.69636 77.93434
# Shear Modulus (GPa) = 40.61422 45.07198 42.84310
#
# Velocity S-wave (km/s) = 4.06417 4.28141 4.17420
# Velocity P-wave (km/s) = 7.05326 7.75281 7.41129
#
# Compressibility (1/GPa) = 0.01466871
#
# Stress axis : x y z
#
# Youngs Moduli (GPa) = 116.41140 75.80410 184.05343
#
# Poissons Ratio (x) = 0.12366 0.46048
# Poissons Ratio (y) = 0.18990 0.39390
# Poissons Ratio (z) = 0.29125 0.16223
#
# Static dielectric constant tensor:
#      x y z
#    x 1.972130 0.000000 0.000000 
#    y 0.000000 2.084270 0.000000 
#    z 0.000000 0.000000 2.018030 
# 
# From -- ./inp_files/11411.got.cif
#   From: 2010.05.17/outbox.cif.g08.bks.cpg/sg52_6_cif.got.tgz:11411.got - 2010.06.03 12:15:38.
