data_PCOD9409543
_publ_section_title
;
Structure prediction by ZEFSAII (Michael W. Deem and Ramdas Pophale) SiO2 
 PCOD9409543
Probable space group: P N N A
;
_chemical_formula_sum "Si O2"
_cell_formula_units_Z 64
_cell_length_a 21.153648
_cell_length_b 5.100581
_cell_length_c 31.090909
_cell_angle_alpha 90.000000
_cell_angle_beta 90.000000
_cell_angle_gamma 90.000000
_cell_volume 3354.581455
_symmetry_space_group_name_H-M "P N N A"
_symmetry_group_IT_number 52
_symmetry_cell_setting 'orthorhombic'
loop_
_space_group_symop_operation_xyz
x,y,z
1/2-x,-y,z
x,1/2-y,1/2-z
1/2-x,1/2+y,1/2-z
-x,-y,-z
1/2+x,y,-z
-x,1/2+y,1/2+z
1/2+x,1/2-y,1/2+z
loop_
_atom_site_type_symbol
_atom_site_label
_atom_site_fract_x
_atom_site_fract_y
_atom_site_fract_z
Si Si1 0.106819 0.971066 0.479730
Si Si2 0.176006 0.027414 0.049760
Si Si3 0.321801 0.392572 0.610456
Si Si4 0.704153 0.752677 0.203481
Si Si5 0.974510 0.538771 0.896732
Si Si6 0.889049 0.590288 0.077399
Si Si7 0.098001 0.544919 0.365994
Si Si8 0.676759 0.499337 0.719686
O O1 0.157421 0.175773 0.460723
O O2 0.049614 0.991820 0.445835
O O3 0.093137 0.071464 0.527333
O O4 0.135898 0.679238 0.478803
O O5 0.153271 0.962027 0.098041
O O6 0.250000 0.000000 0.043565
O O7 0.250000 0.500000 0.607849
O O8 0.334228 0.311422 0.660250
O O9 0.365672 0.625561 0.592673
O O10 0.334413 0.125689 0.584755
O O11 0.750000 0.500000 0.196894
O O12 0.669953 0.750000 0.250000
O O13 0.750000 0.000000 0.208010
O O14 0.937648 0.320801 0.869248
O O15 0.049201 0.497990 0.896230
O O16 0.951093 0.820699 0.880769
O O17 0.129392 0.498109 0.320155
O O18 0.750000 0.500000 0.704205
O O19 0.668025 0.250000 0.750000
O O20 0.667765 0.750000 0.750000
#
# Coordination Sequence:
#
# PCOD9409543 Si02
#       8
#     8   8   8   8   8   8   8   8
#     4  10  22  36  54  78 107 147 190 230 268 319
#     4  10  20  34  54  81 112 145 182 224 276 330
#     4  11  23  37  56  86 114 140 174 219 288 349
#     4   9  17  33  57  81 106 136 169 206 251 317
#     4  10  22  39  58  78 103 147 201 233 266 318
#     4  12  23  38  58  79 112 147 181 232 277 329
#     4  10  20  37  58  81 110 146 189 237 274 314
#     4  10  20  34  57  90 122 152 188 229 281 340
#
# _framework density 19.078385999999998
#
# number of rings (size 3 to 8) (size 9 to 14) (size 15 to 20)
#    0.000    1.750    0.000    5.250    0.000    3.000 
#    0.000    8.750    0.000    7.500    0.000    0.875 
#    0.000    0.000    0.000    0.000    0.000    0.000 
#
# Total GULP energy -357243.147989 kJ/mol
# GULP energy per Si atom -5581.924187 kJ/mol
# Density = 1.903496 g / cm^3
# Si number density = 19.078386 Si / 1000 Ang^3
#
#
#
# Elastic Constant Matrix: (Units=GPa)
#
#
# Indices 1 2 3 4 5 6 
#
# 1 52.3649 -5.5942 17.9007 0.0000 0.0000 0.0000
# 2 -5.5942 93.5279 11.8401 0.0000 0.0000 0.0000
# 3 17.9007 11.8401 90.9241 0.0000 0.0000 0.0000
# 4 0.0000 0.0000 0.0000 8.2232 0.0000 0.0000
# 5 0.0000 0.0000 0.0000 0.0000 0.4977 0.0000
# 6 0.0000 0.0000 0.0000 0.0000 0.0000 15.5566
#
#
#
# Elastic Compliance Matrix: (Units=1/GPa)
#
#
# Indices 1 2 3 4 5 6 
#
# 1 0.020765 0.001789 -0.004321 0.000000 0.000000 0.000000
# 2 0.001789 0.011025 -0.001788 0.000000 0.000000 0.000000
# 3 -0.004321 -0.001788 0.012082 0.000000 0.000000 0.000000
# 4 0.000000 0.000000 0.000000 0.121607 0.000000 0.000000
# 5 0.000000 0.000000 0.000000 0.000000 2.009097 0.000000
# 6 0.000000 0.000000 0.000000 0.000000 0.000000 0.064281
#
#
# Mechanical properties :
#
#
# Convention : Reuss Voigt Hill
#
# Bulk Modulus (GPa) = 28.38316 31.67889 30.03103
# Shear Modulus (GPa) = 2.21313 19.03353 10.62333
#
# Velocity S-wave (km/s) = 1.07821 3.16198 2.36227
# Velocity P-wave (km/s) = 4.05703 5.47462 4.81825
#
# Compressibility (1/GPa) = 0.03523216
#
# Stress axis : x y z
#
# Youngs Moduli (GPa) = 48.15784 90.70010 82.76966
#
# Poissons Ratio (x) = -0.16227 0.35766
# Poissons Ratio (y) = -0.08616 0.14799
# Poissons Ratio (z) = 0.20809 0.16217
#
# Static dielectric constant tensor:
#      x y z
#    x 1.643980 0.000000 0.000000 
#    y 0.000000 1.641390 0.000000 
#    z 0.000000 0.000000 1.692610 
# 
# From -- ./inp_files/45162.got.cif
#   From: 2010.05.17/outbox.cif.g08.bks.cpg/sg52_23_cif.got.tgz:45162.got - 2010.06.03 12:15:38.
