data_PCOD9409236
_publ_section_title
;
Structure prediction by ZEFSAII (Michael W. Deem and Ramdas Pophale) SiO2 
 PCOD9409236
Probable space group: P N N A
;
_chemical_formula_sum "Si O2"
_cell_formula_units_Z 44
_cell_length_a 14.417798
_cell_length_b 25.093137
_cell_length_c 5.779007
_cell_angle_alpha 90.000000
_cell_angle_beta 90.000000
_cell_angle_gamma 90.000000
_cell_volume 2090.774116
_symmetry_space_group_name_H-M "P N N A"
_symmetry_group_IT_number 52
_symmetry_cell_setting 'orthorhombic'
loop_
_space_group_symop_operation_xyz
x,y,z
1/2-x,-y,z
x,1/2-y,1/2-z
1/2-x,1/2+y,1/2-z
-x,-y,-z
1/2+x,y,-z
-x,1/2+y,1/2+z
1/2+x,1/2-y,1/2+z
loop_
_atom_site_type_symbol
_atom_site_label
_atom_site_fract_x
_atom_site_fract_y
_atom_site_fract_z
Si Si1 0.202061 0.344531 0.021833
Si Si2 0.645309 0.670490 0.602508
Si Si3 0.005600 0.372413 0.911904
Si Si4 0.838667 0.418006 0.223475
Si Si5 0.288152 0.250000 0.750000
Si Si6 0.952493 0.984802 0.247867
O O1 0.092958 0.350168 0.050715
O O2 0.248939 0.398360 0.917658
O O3 0.225075 0.297616 0.842921
O O4 0.262542 0.328726 0.242191
O O5 0.551772 0.667420 0.750481
O O6 0.655332 0.615314 0.459817
O O7 0.648380 0.721733 0.440351
O O8 0.046620 0.421052 0.759330
O O9 0.926513 0.395379 0.079487
O O10 0.858433 0.480410 0.252470
O O11 0.000000 0.000000 0.500000
O O12 0.000000 0.000000 0.000000
#
# Coordination Sequence:
#
# PCOD9409236 Si02
#       6
#     8   8   8   8   4   8
#     4  10  22  40  62  90 129 165 219 276 325 399
#     4  10  20  41  65  87 127 169 214 275 332 396
#     4  10  21  38  66  96 127 171 218 261 330 400
#     4   9  20  37  62  92 129 175 205 261 327 388
#     4  10  22  42  62  86 124 166 206 280 346 382
#     4  10  19  37  65  97 135 173 214 264 323 394
#
# _framework density 21.044834999999999
#
# number of rings (size 3 to 8) (size 9 to 14) (size 15 to 20)
#    0.000    2.182    1.818    0.545    0.000    3.636 
#    9.818    0.000    0.000    0.000    0.000    0.000 
#    0.000    0.000    0.000    0.000    0.000    0.000 
#
# Total GULP energy -245298.240356 kJ/mol
# GULP energy per Si atom -5574.960008 kJ/mol
# Density = 2.099694 g / cm^3
# Si number density = 21.044835 Si / 1000 Ang^3
#
#
#
# Elastic Constant Matrix: (Units=GPa)
#
#
# Indices 1 2 3 4 5 6 
#
# 1 129.6311 17.9840 31.5456 0.0000 0.0000 0.0000
# 2 17.9840 45.0730 6.6651 0.0000 0.0000 0.0000
# 3 31.5456 6.6651 78.3671 0.0000 0.0000 0.0000
# 4 0.0000 0.0000 0.0000 34.1546 0.0000 0.0000
# 5 0.0000 0.0000 0.0000 0.0000 -1.4353 0.0000
# 6 0.0000 0.0000 0.0000 0.0000 0.0000 7.3047
#
#
#
# Elastic Compliance Matrix: (Units=1/GPa)
#
#
# Indices 1 2 3 4 5 6 
#
# 1 0.008955 -0.003079 -0.003343 0.000000 0.000000 0.000000
# 2 -0.003079 0.023527 -0.000762 0.000000 0.000000 0.000000
# 3 -0.003343 -0.000762 0.014171 0.000000 0.000000 0.000000
# 4 0.000000 0.000000 0.000000 0.029279 0.000000 0.000000
# 5 0.000000 0.000000 0.000000 0.000000 -0.696696 0.000000
# 6 0.000000 0.000000 0.000000 0.000000 0.000000 0.136898
#
#
# Mechanical properties :
#
#
# Convention : Reuss Voigt Hill
#
# Bulk Modulus (GPa) = 30.97261 40.60671 35.78966
# Shear Modulus (GPa) = -10.89948 21.12988 5.11520
#
# Velocity S-wave (km/s) = -2.27825 3.17210 1.56074
# Velocity P-wave (km/s) = 2.79801 5.72307 4.50457
#
# Compressibility (1/GPa) = 0.03228659
#
# Stress axis : x y z
#
# Youngs Moduli (GPa) = 111.67238 42.50394 70.56744
#
# Poissons Ratio (x) = 0.13085 0.23589
# Poissons Ratio (y) = 0.34380 0.05375
# Poissons Ratio (z) = 0.37330 0.03238
#
# Static dielectric constant tensor:
#      x y z
#    x 1.748680 0.000000 0.000000 
#    y 0.000000 1.807290 0.000000 
#    z 0.000000 0.000000 1.821530 
# 
# From -- ./inp_files/2381.got.cif
#   From: 2010.05.17/outbox.cif.g08.bks.cpg/sg52_2_cif.got.tgz:2381.got - 2010.06.03 12:15:38.
