data_PCOD9409520
_publ_section_title
;
Structure prediction by ZEFSAII (Michael W. Deem and Ramdas Pophale) SiO2 
 PCOD9409520
Probable space group: P N N A
;
_chemical_formula_sum "Si O2"
_cell_formula_units_Z 56
_cell_length_a 9.752613
_cell_length_b 20.378610
_cell_length_c 13.651915
_cell_angle_alpha 90.000000
_cell_angle_beta 90.000000
_cell_angle_gamma 90.000000
_cell_volume 2713.245708
_symmetry_space_group_name_H-M "P N N A"
_symmetry_group_IT_number 52
_symmetry_cell_setting 'orthorhombic'
loop_
_space_group_symop_operation_xyz
x,y,z
1/2-x,-y,z
x,1/2-y,1/2-z
1/2-x,1/2+y,1/2-z
-x,-y,-z
1/2+x,y,-z
-x,1/2+y,1/2+z
1/2+x,1/2-y,1/2+z
loop_
_atom_site_type_symbol
_atom_site_label
_atom_site_fract_x
_atom_site_fract_y
_atom_site_fract_z
Si Si1 0.620156 0.235390 0.906029
Si Si2 0.576746 0.355771 0.780693
Si Si3 0.447629 0.645977 0.777998
Si Si4 0.828387 0.068799 0.791391
Si Si5 0.373219 0.049682 0.992161
Si Si6 0.319020 0.072847 0.773579
Si Si7 0.953386 0.237821 0.901301
O O1 0.572596 0.307596 0.872330
O O2 0.570815 0.188183 0.818173
O O3 0.787326 0.236130 0.912870
O O4 0.540091 0.216382 0.004003
O O5 0.727154 0.385120 0.768158
O O6 0.461177 0.411547 0.781088
O O7 0.528443 0.577376 0.763291
O O8 0.290012 0.626689 0.764096
O O9 0.492797 0.689081 0.870923
O O10 0.499761 0.691195 0.688001
O O11 0.750000 0.000000 0.793842
O O12 0.855071 0.087408 0.905636
O O13 0.359878 0.084668 0.888086
O O14 0.250000 0.000000 0.989622
O O15 0.500000 0.000000 0.000000
O O16 0.250000 0.000000 0.765471
#
# Coordination Sequence:
#
# PCOD9409520 Si02
#       7
#     8   8   8   8   8   8   8
#     4  11  25  44  66  93 122 163 218 268 318 367
#     4  11  23  41  64  92 129 166 212 254 312 388
#     4  11  23  41  64  92 132 163 213 258 314 380
#     4  11  20  36  63  87 125 175 204 251 317 381
#     4  10  20  34  50  86 130 162 202 237 291 370
#     4  11  24  38  59  99 136 167 207 256 309 380
#     4  11  25  44  66  93 122 164 215 271 317 367
#
# _framework density 20.639486999999999
#
# number of rings (size 3 to 8) (size 9 to 14) (size 15 to 20)
#    0.000    1.143    2.857    5.143    8.000    1.143 
#    0.000    0.000    0.000    5.143    0.000    0.000 
#    0.000    0.000    0.000    0.000    0.000    0.000 
#
# Total GULP energy -312274.115467 kJ/mol
# GULP energy per Si atom -5576.323490 kJ/mol
# Density = 2.059251 g / cm^3
# Si number density = 20.639487 Si / 1000 Ang^3
#
#
#
# Elastic Constant Matrix: (Units=GPa)
#
#
# Indices 1 2 3 4 5 6 
#
# 1 129.2397 11.7221 11.5042 0.0000 0.0000 0.0000
# 2 11.7221 52.4292 0.9126 0.0000 0.0000 0.0000
# 3 11.5042 0.9126 34.2139 0.0000 0.0000 0.0000
# 4 0.0000 0.0000 0.0000 27.6507 0.0000 0.0000
# 5 0.0000 0.0000 0.0000 0.0000 15.6455 0.0000
# 6 0.0000 0.0000 0.0000 0.0000 0.0000 38.7923
#
#
#
# Elastic Compliance Matrix: (Units=1/GPa)
#
#
# Indices 1 2 3 4 5 6 
#
# 1 0.008138 -0.001773 -0.002689 0.000000 0.000000 0.000000
# 2 -0.001773 0.019468 0.000077 0.000000 0.000000 0.000000
# 3 -0.002689 0.000077 0.030130 0.000000 0.000000 0.000000
# 4 0.000000 0.000000 0.000000 0.036165 0.000000 0.000000
# 5 0.000000 0.000000 0.000000 0.000000 0.063916 0.000000
# 6 0.000000 0.000000 0.000000 0.000000 0.000000 0.025778
#
#
# Mechanical properties :
#
#
# Convention : Reuss Voigt Hill
#
# Bulk Modulus (GPa) = 20.42223 29.35120 24.88672
# Shear Modulus (GPa) = 23.95926 29.20064 26.57995
#
# Velocity S-wave (km/s) = 3.41081 3.76546 3.59251
# Velocity P-wave (km/s) = 5.04259 5.75818 5.41223
#
# Compressibility (1/GPa) = 0.04896624
#
# Stress axis : x y z
#
# Youngs Moduli (GPa) = 122.88499 51.36553 33.18957
#
# Poissons Ratio (x) = 0.09105 0.08925
# Poissons Ratio (y) = 0.21783 -0.00255
# Poissons Ratio (z) = 0.33043 -0.00394
#
# Static dielectric constant tensor:
#      x y z
#    x 1.715670 0.000000 0.000000 
#    y 0.000000 1.725050 0.000000 
#    z 0.000000 0.000000 1.649940 
# 
# From -- ./inp_files/24941.got.cif
#   From: 2010.05.17/outbox.cif.g08.bks.cpg/sg52_13_cif.got.tgz:24941.got - 2010.06.03 12:15:38.
