data_PCOD9409709
_publ_section_title
;
Structure prediction by ZEFSAII (Michael W. Deem and Ramdas Pophale) SiO2 
 PCOD9409709
Probable space group: P N N A
;
_chemical_formula_sum "Si O2"
_cell_formula_units_Z 36
_cell_length_a 9.733540
_cell_length_b 20.095949
_cell_length_c 8.712801
_cell_angle_alpha 90.000000
_cell_angle_beta 90.000000
_cell_angle_gamma 90.000000
_cell_volume 1704.265030
_symmetry_space_group_name_H-M "P N N A"
_symmetry_group_IT_number 52
_symmetry_cell_setting 'orthorhombic'
loop_
_space_group_symop_operation_xyz
x,y,z
1/2-x,-y,z
x,1/2-y,1/2-z
1/2-x,1/2+y,1/2-z
-x,-y,-z
1/2+x,y,-z
-x,1/2+y,1/2+z
1/2+x,1/2-y,1/2+z
loop_
_atom_site_type_symbol
_atom_site_label
_atom_site_fract_x
_atom_site_fract_y
_atom_site_fract_z
Si Si1 0.299346 0.624281 0.151083
Si Si2 0.036339 0.367167 0.639686
Si Si3 0.280155 0.075285 0.012562
Si Si4 0.134959 0.750000 0.250000
Si Si5 0.038120 0.923762 0.474800
O O1 0.274671 0.587995 0.313790
O O2 0.234379 0.697541 0.166501
O O3 0.454970 0.619205 0.098455
O O4 0.201222 0.587177 0.028556
O O5 0.192714 0.374154 0.590530
O O6 0.941251 0.409225 0.522456
O O7 0.966211 0.294647 0.645812
O O8 0.012592 0.398458 0.807841
O O9 0.250000 0.000000 0.964897
O O10 0.000000 0.000000 0.500000
#
# Coordination Sequence:
#
# PCOD9409709 Si02
#       5
#     8   8   8   4   8
#     4  10  21  35  58  78 113 149 181 234 274 335
#     4  10  22  35  58  79 113 147 181 235 271 335
#     4  10  20  36  54  82 110 143 182 229 283 325
#     4   8  20  40  54  82 112 148 192 224 282 328
#     4  10  20  36  55  84 111 143 184 233 287 329
#
# _framework density 21.123474999999999
#
# number of rings (size 3 to 8) (size 9 to 14) (size 15 to 20)
#    0.000    2.667    0.000    4.000    0.000   10.667 
#    0.000    0.000    0.000   21.333    0.000    0.000 
#    0.000    0.000    0.000    0.000    0.000    0.000 
#
# Total GULP energy -200894.332487 kJ/mol
# GULP energy per Si atom -5580.398125 kJ/mol
# Density = 2.107540 g / cm^3
# Si number density = 21.123475 Si / 1000 Ang^3
#
#
#
# Elastic Constant Matrix: (Units=GPa)
#
#
# Indices 1 2 3 4 5 6 
#
# 1 35.7576 -5.0449 10.6350 0.0000 0.0000 0.0000
# 2 -5.0449 113.1414 -10.5720 0.0000 0.0000 0.0000
# 3 10.6350 -10.5720 20.4343 0.0000 0.0000 0.0000
# 4 0.0000 0.0000 0.0000 13.7342 0.0000 0.0000
# 5 0.0000 0.0000 0.0000 0.0000 36.0275 0.0000
# 6 0.0000 0.0000 0.0000 0.0000 0.0000 23.6991
#
#
#
# Elastic Compliance Matrix: (Units=1/GPa)
#
#
# Indices 1 2 3 4 5 6 
#
# 1 0.033090 -0.000141 -0.017294 0.000000 0.000000 0.000000
# 2 -0.000141 0.009288 0.004878 0.000000 0.000000 0.000000
# 3 -0.017294 0.004878 0.060462 0.000000 0.000000 0.000000
# 4 0.000000 0.000000 0.000000 0.072811 0.000000 0.000000
# 5 0.000000 0.000000 0.000000 0.000000 0.027757 0.000000
# 6 0.000000 0.000000 0.000000 0.000000 0.000000 0.042196
#
#
# Mechanical properties :
#
#
# Convention : Reuss Voigt Hill
#
# Bulk Modulus (GPa) = 12.86546 17.70771 15.28658
# Shear Modulus (GPa) = 16.85629 26.31318 21.58474
#
# Velocity S-wave (km/s) = 2.82793 3.53325 3.20009
# Velocity P-wave (km/s) = 4.09472 5.00463 4.57237
#
# Compressibility (1/GPa) = 0.07772747
#
# Stress axis : x y z
#
# Youngs Moduli (GPa) = 30.22069 107.66488 16.53927
#
# Poissons Ratio (x) = 0.01513 0.28603
# Poissons Ratio (y) = 0.00425 -0.08069
# Poissons Ratio (z) = 0.52265 -0.52524
#
# Static dielectric constant tensor:
#      x y z
#    x 1.756820 0.000000 0.000000 
#    y 0.000000 1.773110 0.000000 
#    z 0.000000 0.000000 1.777510 
# 
# From -- ./inp_files/7308.got.cif
#   From: 2010.05.17/outbox.cif.g08.bks.cpg/sg52_4_cif.got.tgz:7308.got - 2010.06.03 12:15:38.
