data_PCOD9409586
_publ_section_title
;
Structure prediction by ZEFSAII (Michael W. Deem and Ramdas Pophale) SiO2 
 PCOD9409586
Probable space group: P N N A
;
_chemical_formula_sum "Si O2"
_cell_formula_units_Z 56
_cell_length_a 17.641807
_cell_length_b 13.040711
_cell_length_c 9.672948
_cell_angle_alpha 90.000000
_cell_angle_beta 90.000000
_cell_angle_gamma 90.000000
_cell_volume 2225.374925
_symmetry_space_group_name_H-M "P N N A"
_symmetry_group_IT_number 52
_symmetry_cell_setting 'orthorhombic'
loop_
_space_group_symop_operation_xyz
x,y,z
1/2-x,-y,z
x,1/2-y,1/2-z
1/2-x,1/2+y,1/2-z
-x,-y,-z
1/2+x,y,-z
-x,1/2+y,1/2+z
1/2+x,1/2-y,1/2+z
loop_
_atom_site_type_symbol
_atom_site_label
_atom_site_fract_x
_atom_site_fract_y
_atom_site_fract_z
Si Si1 0.285824 0.666177 0.078485
Si Si2 0.456180 0.654765 0.094798
Si Si3 0.977730 0.535631 0.196289
Si Si4 0.773222 0.389440 0.494780
Si Si5 0.590907 0.728970 0.407429
Si Si6 0.630191 0.645491 0.834375
Si Si7 0.171787 0.368279 0.766659
O O1 0.369787 0.659837 0.140045
O O2 0.217400 0.612276 0.160011
O O3 0.262029 0.786625 0.064820
O O4 0.296039 0.622379 0.922311
O O5 0.509125 0.584880 0.190828
O O6 0.499600 0.762340 0.079105
O O7 0.457940 0.591448 0.950645
O O8 0.901742 0.565434 0.275008
O O9 0.062403 0.577009 0.223200
O O10 0.750000 0.500000 0.553427
O O11 0.862237 0.364573 0.473116
O O12 0.737384 0.387152 0.341916
O O13 0.614910 0.750000 0.250000
O O14 0.614852 0.825038 0.505730
O O15 0.624339 0.750000 0.750000
O O16 0.146377 0.250000 0.750000
#
# Coordination Sequence:
#
# PCOD9409586 Si02
#       7
#     8   8   8   8   8   8   8
#     4   9  19  37  55  81 120 160 198 255 311 364
#     4   9  19  35  57  84 120 153 199 251 312 360
#     4   9  18  33  56  90 113 152 203 254 295 366
#     4  10  20  34  58  88 115 157 206 253 310 382
#     4  10  21  38  62  87 120 154 196 254 313 355
#     4  10  20  36  62  86 119 163 205 243 300 368
#     4   9  17  33  54  86 119 150 193 256 314 357
#
# _framework density 25.164300000000001
#
# number of rings (size 3 to 8) (size 9 to 14) (size 15 to 20)
#    0.000    2.571    0.000    2.571    2.000    2.286 
#    5.143    0.714   18.857    0.000    0.000    0.000 
#    0.000    0.000    0.000    0.000    0.000    0.000 
#
# Total GULP energy -312672.338126 kJ/mol
# GULP energy per Si atom -5583.434609 kJ/mol
# Density = 2.510702 g / cm^3
# Si number density = 25.164300 Si / 1000 Ang^3
#
#
#
# Elastic Constant Matrix: (Units=GPa)
#
#
# Indices 1 2 3 4 5 6 
#
# 1 182.4723 42.1529 4.2658 0.0000 0.0000 0.0000
# 2 42.1529 85.7661 10.3439 0.0000 0.0000 0.0000
# 3 4.2658 10.3439 67.3530 0.0000 0.0000 0.0000
# 4 0.0000 0.0000 0.0000 16.2515 0.0000 0.0000
# 5 0.0000 0.0000 0.0000 0.0000 14.8559 0.0000
# 6 0.0000 0.0000 0.0000 0.0000 0.0000 12.5427
#
#
#
# Elastic Compliance Matrix: (Units=1/GPa)
#
#
# Indices 1 2 3 4 5 6 
#
# 1 0.006183 -0.003048 0.000077 0.000000 0.000000 0.000000
# 2 -0.003048 0.013382 -0.001862 0.000000 0.000000 0.000000
# 3 0.000077 -0.001862 0.015128 0.000000 0.000000 0.000000
# 4 0.000000 0.000000 0.000000 0.061533 0.000000 0.000000
# 5 0.000000 0.000000 0.000000 0.000000 0.067314 0.000000
# 6 0.000000 0.000000 0.000000 0.000000 0.000000 0.079728
#
#
# Mechanical properties :
#
#
# Convention : Reuss Voigt Hill
#
# Bulk Modulus (GPa) = 39.95844 49.90183 44.93014
# Shear Modulus (GPa) = 19.13683 27.31858 23.22771
#
# Velocity S-wave (km/s) = 2.76066 3.29843 3.04146
# Velocity P-wave (km/s) = 5.10639 5.86342 5.49795
#
# Compressibility (1/GPa) = 0.02502600
#
# Stress axis : x y z
#
# Youngs Moduli (GPa) = 161.74454 74.72606 66.10128
#
# Poissons Ratio (x) = 0.22776 -0.00506
# Poissons Ratio (y) = 0.49298 0.12309
# Poissons Ratio (z) = -0.01238 0.13915
#
# Static dielectric constant tensor:
#      x y z
#    x 2.045850 0.000000 0.000000 
#    y 0.000000 2.064400 0.000000 
#    z 0.000000 0.000000 2.083260 
# 
# From -- ./inp_files/19620.got.cif
#   From: 2010.05.17/outbox.cif.g08.bks.cpg/sg52_10_cif.got.tgz:19620.got - 2010.06.03 12:15:38.
