data_PCOD9409209
_publ_section_title
;
Structure prediction by ZEFSAII (Michael W. Deem and Ramdas Pophale) SiO2 
 PCOD9409209
Probable space group: P N N A
;
_chemical_formula_sum "Si O2"
_cell_formula_units_Z 40
_cell_length_a 13.657434
_cell_length_b 10.825652
_cell_length_c 11.865564
_cell_angle_alpha 90.000000
_cell_angle_beta 90.000000
_cell_angle_gamma 90.000000
_cell_volume 1754.331085
_symmetry_space_group_name_H-M "P N N A"
_symmetry_group_IT_number 52
_symmetry_cell_setting 'orthorhombic'
loop_
_space_group_symop_operation_xyz
x,y,z
1/2-x,-y,z
x,1/2-y,1/2-z
1/2-x,1/2+y,1/2-z
-x,-y,-z
1/2+x,y,-z
-x,1/2+y,1/2+z
1/2+x,1/2-y,1/2+z
loop_
_atom_site_type_symbol
_atom_site_label
_atom_site_fract_x
_atom_site_fract_y
_atom_site_fract_z
Si Si1 0.780882 0.239680 0.990212
Si Si2 0.088801 0.150905 0.428930
Si Si3 0.663110 0.127276 0.185661
Si Si4 0.897297 0.048213 0.369813
Si Si5 0.019216 0.633461 0.449144
O O1 0.722937 0.142145 0.069659
O O2 0.833921 0.344861 0.068449
O O3 0.700117 0.305515 0.910356
O O4 0.868842 0.168654 0.930447
O O5 0.011058 0.084476 0.346801
O O6 0.026941 0.270527 0.462622
O O7 0.097774 0.063133 0.539389
O O8 0.697107 0.250000 0.250000
O O9 0.549029 0.148396 0.157947
O O10 0.654774 0.002220 0.258142
O O11 0.000000 0.500000 0.500000
#
# Coordination Sequence:
#
# PCOD9409209 Si02
#       5
#     8   8   8   8   8
#     4  10  21  36  61  90 121 169 213 250 316 381
#     4   9  19  36  60  87 122 159 201 249 316 367
#     4  11  22  38  60  95 121 159 211 261 311 368
#     4  10  19  37  61  94 123 153 208 265 306 363
#     4  10  22  38  55  86 130 168 193 255 325 373
#
# _framework density 22.800713999999999
#
# number of rings (size 3 to 8) (size 9 to 14) (size 15 to 20)
#    0.000    2.000    4.000    0.600    0.000    6.400 
#    0.000    3.000    0.000    9.600    0.000    0.000 
#    0.000    0.000    0.000    0.000    0.000    0.000 
#
# Total GULP energy -223022.094572 kJ/mol
# GULP energy per Si atom -5575.552364 kJ/mol
# Density = 2.274882 g / cm^3
# Si number density = 22.800714 Si / 1000 Ang^3
#
#
#
# Elastic Constant Matrix: (Units=GPa)
#
#
# Indices 1 2 3 4 5 6 
#
# 1 246.2514 19.4055 40.7496 0.0000 0.0000 0.0000
# 2 19.4055 109.8481 -5.3239 0.0000 0.0000 0.0000
# 3 40.7496 -5.3239 31.1152 0.0000 0.0000 0.0000
# 4 0.0000 0.0000 0.0000 23.5191 0.0000 0.0000
# 5 0.0000 0.0000 0.0000 0.0000 28.9602 0.0000
# 6 0.0000 0.0000 0.0000 0.0000 0.0000 32.4380
#
#
#
# Elastic Compliance Matrix: (Units=1/GPa)
#
#
# Indices 1 2 3 4 5 6 
#
# 1 0.005362 -0.001298 -0.007244 0.000000 0.000000 0.000000
# 2 -0.001298 0.009494 0.003325 0.000000 0.000000 0.000000
# 3 -0.007244 0.003325 0.042195 0.000000 0.000000 0.000000
# 4 0.000000 0.000000 0.000000 0.042519 0.000000 0.000000
# 5 0.000000 0.000000 0.000000 0.000000 0.034530 0.000000
# 6 0.000000 0.000000 0.000000 0.000000 0.000000 0.030828
#
#
# Mechanical properties :
#
#
# Convention : Reuss Voigt Hill
#
# Bulk Modulus (GPa) = 21.45224 55.20858 38.33041
# Shear Modulus (GPa) = 26.19142 39.14236 32.66689
#
# Velocity S-wave (km/s) = 3.39294 4.14782 3.78923
# Velocity P-wave (km/s) = 4.97779 6.87061 5.99932
#
# Compressibility (1/GPa) = 0.04661517
#
# Stress axis : x y z
#
# Youngs Moduli (GPa) = 186.49712 105.32983 23.69942
#
# Poissons Ratio (x) = 0.13676 0.17169
# Poissons Ratio (y) = 0.24214 -0.07880
# Poissons Ratio (z) = 1.35107 -0.35020
#
# Static dielectric constant tensor:
#      x y z
#    x 1.939620 0.000000 0.000000 
#    y 0.000000 2.154050 0.000000 
#    z 0.000000 0.000000 1.862850 
# 
# From -- ./inp_files/25806.got.cif
#   From: 2010.05.17/outbox.cif.g08.bks.cpg/sg52_13_cif.got.tgz:25806.got - 2010.06.03 12:15:38.
