data_PCOD9409574
_publ_section_title
;
Structure prediction by ZEFSAII (Michael W. Deem and Ramdas Pophale) SiO2 
 PCOD9409574
Probable space group: P N N A
;
_chemical_formula_sum "Si O2"
_cell_formula_units_Z 40
_cell_length_a 8.037963
_cell_length_b 7.439278
_cell_length_c 28.340319
_cell_angle_alpha 90.000000
_cell_angle_beta 90.000000
_cell_angle_gamma 90.000000
_cell_volume 1694.655890
_symmetry_space_group_name_H-M "P N N A"
_symmetry_group_IT_number 52
_symmetry_cell_setting 'orthorhombic'
loop_
_space_group_symop_operation_xyz
x,y,z
1/2-x,-y,z
x,1/2-y,1/2-z
1/2-x,1/2+y,1/2-z
-x,-y,-z
1/2+x,y,-z
-x,1/2+y,1/2+z
1/2+x,1/2-y,1/2+z
loop_
_atom_site_type_symbol
_atom_site_label
_atom_site_fract_x
_atom_site_fract_y
_atom_site_fract_z
Si Si1 0.178478 0.698544 0.470081
Si Si2 0.598908 0.195279 0.335413
Si Si3 0.759360 0.787249 0.634296
Si Si4 0.059386 0.714549 0.802514
Si Si5 0.804582 0.703620 0.435428
O O1 0.250000 0.500000 0.477211
O O2 0.266314 0.766291 0.422322
O O3 0.196557 0.784672 0.521833
O O4 0.987248 0.692046 0.457287
O O5 0.416513 0.282384 0.344013
O O6 0.751333 0.286266 0.307533
O O7 0.676697 0.184817 0.387932
O O8 0.571803 0.999688 0.312572
O O9 0.924359 0.715505 0.659683
O O10 0.750000 0.000000 0.642836
O O11 0.997496 0.750000 0.750000
O O12 0.750000 0.500000 0.422556
#
# Coordination Sequence:
#
# PCOD9409574 Si02
#       5
#     8   8   8   8   8
#     4  10  20  34  56  92 123 164 207 242 296 370
#     4   9  21  41  59  90 122 153 207 254 305 375
#     4   9  20  40  60  88 126 157 201 256 304 368
#     4  10  21  40  65  83 115 163 202 261 321 366
#     4  10  20  35  59  88 127 167 198 253 300 363
#
# _framework density 23.603611999999998
#
# number of rings (size 3 to 8) (size 9 to 14) (size 15 to 20)
#    0.000    2.400    0.000    2.400    5.600    0.800 
#    7.200    6.000    0.000    0.000    0.000    0.000 
#    0.000    0.000    0.000    0.000    0.000    0.000 
#
# Total GULP energy -223221.036744 kJ/mol
# GULP energy per Si atom -5580.525919 kJ/mol
# Density = 2.354989 g / cm^3
# Si number density = 23.603612 Si / 1000 Ang^3
#
#
#
# Elastic Constant Matrix: (Units=GPa)
#
#
# Indices 1 2 3 4 5 6 
#
# 1 82.8529 10.8945 38.1238 0.0000 0.0000 0.0000
# 2 10.8945 76.8447 25.1356 0.0000 0.0000 0.0000
# 3 38.1238 25.1356 129.6055 0.0000 0.0000 0.0000
# 4 0.0000 0.0000 0.0000 34.5637 0.0000 0.0000
# 5 0.0000 0.0000 0.0000 0.0000 29.8357 0.0000
# 6 0.0000 0.0000 0.0000 0.0000 0.0000 -0.6565
#
#
#
# Elastic Compliance Matrix: (Units=1/GPa)
#
#
# Indices 1 2 3 4 5 6 
#
# 1 0.013992 -0.000681 -0.003984 0.000000 0.000000 0.000000
# 2 -0.000681 0.013928 -0.002501 0.000000 0.000000 0.000000
# 3 -0.003984 -0.002501 0.009373 0.000000 0.000000 0.000000
# 4 0.000000 0.000000 0.000000 0.028932 0.000000 0.000000
# 5 0.000000 0.000000 0.000000 0.000000 0.033517 0.000000
# 6 0.000000 0.000000 0.000000 0.000000 0.000000 -1.523165
#
#
# Mechanical properties :
#
#
# Convention : Reuss Voigt Hill
#
# Bulk Modulus (GPa) = 43.55059 48.62343 46.08701
# Shear Modulus (GPa) = -3.56776 27.09184 11.76204
#
# Velocity S-wave (km/s) = -1.23078 3.39157 2.23472
# Velocity P-wave (km/s) = 4.05846 5.99848 5.12117
#
# Compressibility (1/GPa) = 0.02296180
#
# Stress axis : x y z
#
# Youngs Moduli (GPa) = 71.46844 71.79885 106.69391
#
# Poissons Ratio (x) = 0.04887 0.42505
# Poissons Ratio (y) = 0.04864 0.26684
# Poissons Ratio (z) = 0.28472 0.17956
#
# Static dielectric constant tensor:
#      x y z
#    x 1.947270 0.000000 0.000000 
#    y 0.000000 1.857450 0.000000 
#    z 0.000000 0.000000 1.970940 
# 
# From -- ./inp_files/42117.got.cif
#   From: 2010.05.17/outbox.cif.g08.bks.cpg/sg52_22_cif.got.tgz:42117.got - 2010.06.03 12:15:38.
