data_PCOD9409376
_publ_section_title
;
Structure prediction by ZEFSAII (Michael W. Deem and Ramdas Pophale) SiO2 
 PCOD9409376
Probable space group: P N N A
;
_chemical_formula_sum "Si O2"
_cell_formula_units_Z 48
_cell_length_a 18.361710
_cell_length_b 11.215118
_cell_length_c 11.699196
_cell_angle_alpha 90.000000
_cell_angle_beta 90.000000
_cell_angle_gamma 90.000000
_cell_volume 2409.200742
_symmetry_space_group_name_H-M "P N N A"
_symmetry_group_IT_number 52
_symmetry_cell_setting 'orthorhombic'
loop_
_space_group_symop_operation_xyz
x,y,z
1/2-x,-y,z
x,1/2-y,1/2-z
1/2-x,1/2+y,1/2-z
-x,-y,-z
1/2+x,y,-z
-x,1/2+y,1/2+z
1/2+x,1/2-y,1/2+z
loop_
_atom_site_type_symbol
_atom_site_label
_atom_site_fract_x
_atom_site_fract_y
_atom_site_fract_z
Si Si1 0.663346 0.627422 0.863055
Si Si2 0.250000 0.000000 0.689924
Si Si3 0.816479 0.622895 0.974320
Si Si4 0.073347 0.304942 0.376484
Si Si5 0.681278 0.750000 0.250000
Si Si6 0.667379 0.539246 0.616390
Si Si7 0.587191 0.781958 0.032053
O O1 0.738493 0.669578 0.925413
O O2 0.662488 0.487414 0.893956
O O3 0.666513 0.626732 0.726492
O O4 0.596479 0.689809 0.927017
O O5 0.194191 0.063662 0.599084
O O6 0.277228 0.119989 0.757000
O O7 0.875988 0.723380 0.957553
O O8 0.065934 0.250000 0.250000
O O9 0.115657 0.427806 0.360608
O O10 0.994343 0.313183 0.433452
O O11 0.630179 0.731854 0.140523
O O12 0.750000 0.500000 0.598288
O O13 0.632186 0.604288 0.509434
#
# Coordination Sequence:
#
# PCOD9409376 Si02
#       7
#     8   4   8   8   4   8   8
#     4  10  19  42  69  97 119 164 222 278 331 381
#     4  10  24  42  70  96 134 172 250 272 334 404
#     4  10  19  41  66  97 120 166 224 277 323 394
#     4  12  24  41  64  97 136 174 217 272 349 420
#     4  12  24  46  66  98 134 192 222 274 332 426
#     4  12  24  42  72 101 125 166 231 298 334 389
#     4  12  26  41  63  94 141 175 213 270 350 417
#
# _framework density 19.923618999999999
#
# number of rings (size 3 to 8) (size 9 to 14) (size 15 to 20)
#    0.000    1.000    7.500    2.000    1.167    0.667 
#    3.000    0.000    0.000    0.000    0.000    0.000 
#    0.000    0.000    0.000    0.000    0.000    0.000 
#
# Total GULP energy -267774.124869 kJ/mol
# GULP energy per Si atom -5578.627601 kJ/mol
# Density = 1.987827 g / cm^3
# Si number density = 19.923619 Si / 1000 Ang^3
#
#
#
# Elastic Constant Matrix: (Units=GPa)
#
#
# Indices 1 2 3 4 5 6 
#
# 1 132.3954 67.2170 38.6255 0.0000 0.0000 0.0000
# 2 67.2170 86.9941 25.8035 0.0000 0.0000 0.0000
# 3 38.6255 25.8035 49.9980 0.0000 0.0000 0.0000
# 4 0.0000 0.0000 0.0000 65.4108 0.0000 0.0000
# 5 0.0000 0.0000 0.0000 0.0000 22.3253 0.0000
# 6 0.0000 0.0000 0.0000 0.0000 0.0000 19.3483
#
#
#
# Elastic Compliance Matrix: (Units=1/GPa)
#
#
# Indices 1 2 3 4 5 6 
#
# 1 0.013848 -0.008887 -0.006112 0.000000 0.000000 0.000000
# 2 -0.008887 0.019276 -0.003083 0.000000 0.000000 0.000000
# 3 -0.006112 -0.003083 0.026313 0.000000 0.000000 0.000000
# 4 0.000000 0.000000 0.000000 0.015288 0.000000 0.000000
# 5 0.000000 0.000000 0.000000 0.000000 0.044792 0.000000
# 6 0.000000 0.000000 0.000000 0.000000 0.000000 0.051684
#
#
# Mechanical properties :
#
#
# Convention : Reuss Voigt Hill
#
# Bulk Modulus (GPa) = 42.96507 59.18659 51.07583
# Shear Modulus (GPa) = 23.24252 30.59965 26.92109
#
# Velocity S-wave (km/s) = 3.41923 3.92324 3.67987
# Velocity P-wave (km/s) = 6.09917 7.09180 6.61413
#
# Compressibility (1/GPa) = 0.02327472
#
# Stress axis : x y z
#
# Youngs Moduli (GPa) = 72.21165 51.87772 38.00373
#
# Poissons Ratio (x) = 0.46104 0.23227
# Poissons Ratio (y) = 0.64176 0.11715
# Poissons Ratio (z) = 0.44134 0.15991
#
# Static dielectric constant tensor:
#      x y z
#    x 1.680000 0.000000 0.000000 
#    y 0.000000 2.144410 0.000000 
#    z 0.000000 0.000000 1.724450 
# 
# From -- ./inp_files/20656.got.cif
#   From: 2010.05.17/outbox.cif.g08.bks.cpg/sg52_11_cif.got.tgz:20656.got - 2010.06.03 12:15:38.
