data_PCOD9409932
_publ_section_title
;
Structure prediction by ZEFSAII (Michael W. Deem and Ramdas Pophale) SiO2 
 PCOD9409932
Probable space group: P N N A
;
_chemical_formula_sum "Si O2"
_cell_formula_units_Z 36
_cell_length_a 12.541457
_cell_length_b 6.130495
_cell_length_c 22.043004
_cell_angle_alpha 90.000000
_cell_angle_beta 90.000000
_cell_angle_gamma 90.000000
_cell_volume 1694.783845
_symmetry_space_group_name_H-M "P N N A"
_symmetry_group_IT_number 52
_symmetry_cell_setting 'orthorhombic'
loop_
_space_group_symop_operation_xyz
x,y,z
1/2-x,-y,z
x,1/2-y,1/2-z
1/2-x,1/2+y,1/2-z
-x,-y,-z
1/2+x,y,-z
-x,1/2+y,1/2+z
1/2+x,1/2-y,1/2+z
loop_
_atom_site_type_symbol
_atom_site_label
_atom_site_fract_x
_atom_site_fract_y
_atom_site_fract_z
Si Si1 0.132253 0.047438 0.825773
Si Si2 0.562861 0.708605 0.437664
Si Si3 0.516897 0.925411 0.650964
Si Si4 0.526565 0.250000 0.750000
Si Si5 0.864743 0.105193 0.936550
O O1 0.083169 0.288684 0.822149
O O2 0.250000 0.000000 0.801964
O O3 0.127904 0.958875 0.894977
O O4 0.047812 0.897042 0.791913
O O5 0.622874 0.740600 0.500997
O O6 0.448989 0.590602 0.445785
O O7 0.536376 0.926123 0.400922
O O8 0.595961 0.753352 0.619364
O O9 0.574501 0.077546 0.701522
O O10 0.750000 0.000000 0.927634
#
# Coordination Sequence:
#
# PCOD9409932 Si02
#       5
#     8   8   8   4   8
#     4  10  21  35  58  89 121 161 200 245 305 372
#     4   9  20  37  57  92 127 157 196 250 310 366
#     4  10  21  38  56  88 122 164 200 257 311 364
#     4  10  22  34  56  86 120 160 202 258 308 362
#     4  10  20  37  62  91 122 165 206 249 306 378
#
# _framework density 21.241647
#
# number of rings (size 3 to 8) (size 9 to 14) (size 15 to 20)
#    0.000    2.222    0.000    2.000    3.111    3.556 
#    0.000    2.222    0.000    0.000  208.000    0.000 
#    0.000    0.000    0.000    0.000    0.000    0.000 
#
# Total GULP energy -200836.425819 kJ/mol
# GULP energy per Si atom -5578.789606 kJ/mol
# Density = 2.119330 g / cm^3
# Si number density = 21.241647 Si / 1000 Ang^3
#
#
#
# Elastic Constant Matrix: (Units=GPa)
#
#
# Indices 1 2 3 4 5 6 
#
# 1 78.4153 40.7241 27.2200 0.0000 0.0000 0.0000
# 2 40.7241 102.2932 36.1539 0.0000 0.0000 0.0000
# 3 27.2200 36.1539 101.5481 0.0000 0.0000 0.0000
# 4 0.0000 0.0000 0.0000 43.0619 0.0000 0.0000
# 5 0.0000 0.0000 0.0000 0.0000 645.5539 0.0000
# 6 0.0000 0.0000 0.0000 0.0000 0.0000 6.1367
#
#
#
# Elastic Compliance Matrix: (Units=1/GPa)
#
#
# Indices 1 2 3 4 5 6 
#
# 1 0.016570 -0.005751 -0.002394 0.000000 0.000000 0.000000
# 2 -0.005751 0.013179 -0.003151 0.000000 0.000000 0.000000
# 3 -0.002394 -0.003151 0.011611 0.000000 0.000000 0.000000
# 4 0.000000 0.000000 0.000000 0.023222 0.000000 0.000000
# 5 0.000000 0.000000 0.000000 0.000000 0.001549 0.000000
# 6 0.000000 0.000000 0.000000 0.000000 0.000000 0.162954
#
#
# Mechanical properties :
#
#
# Convention : Reuss Voigt Hill
#
# Bulk Modulus (GPa) = 53.27895 54.49474 53.88684
# Shear Modulus (GPa) = 19.38488 150.82774 85.10631
#
# Velocity S-wave (km/s) = 3.02419 8.43563 6.33662
# Velocity P-wave (km/s) = 6.10991 10.98135 8.88598
#
# Compressibility (1/GPa) = 0.01876914
#
# Stress axis : x y z
#
# Youngs Moduli (GPa) = 60.34918 75.88010 86.12517
#
# Poissons Ratio (x) = 0.43635 0.20621
# Poissons Ratio (y) = 0.34704 0.27134
# Poissons Ratio (z) = 0.14449 0.23906
#
# Static dielectric constant tensor:
#      x y z
#    x 1.728750 0.000000 0.000000 
#    y 0.000000 1.658630 0.000000 
#    z 0.000000 0.000000 1.891020 
# 
# From -- ./inp_files/39906.got.cif
#   From: 2010.05.17/outbox.cif.g08.bks.cpg/sg52_20_cif.got.tgz:39906.got - 2010.06.03 12:15:38.
