data_PCOD9409909
_publ_section_title
;
Structure prediction by ZEFSAII (Michael W. Deem and Ramdas Pophale) SiO2 
 PCOD9409909
Probable space group: P N N A
;
_chemical_formula_sum "Si O2"
_cell_formula_units_Z 60
_cell_length_a 13.824471
_cell_length_b 23.478209
_cell_length_c 9.720366
_cell_angle_alpha 90.000000
_cell_angle_beta 90.000000
_cell_angle_gamma 90.000000
_cell_volume 3154.976319
_symmetry_space_group_name_H-M "P N N A"
_symmetry_group_IT_number 52
_symmetry_cell_setting 'orthorhombic'
loop_
_space_group_symop_operation_xyz
x,y,z
1/2-x,-y,z
x,1/2-y,1/2-z
1/2-x,1/2+y,1/2-z
-x,-y,-z
1/2+x,y,-z
-x,1/2+y,1/2+z
1/2+x,1/2-y,1/2+z
loop_
_atom_site_type_symbol
_atom_site_label
_atom_site_fract_x
_atom_site_fract_y
_atom_site_fract_z
Si Si1 0.750000 0.000000 0.761652
Si Si2 0.350763 0.813643 0.293220
Si Si3 0.206403 0.392629 0.442609
Si Si4 0.033750 0.053154 0.907870
Si Si5 0.552088 0.769082 0.400474
Si Si6 0.942111 0.028251 0.623020
Si Si7 0.900614 0.162410 0.924615
Si Si8 0.652882 0.650787 0.890914
O O1 0.743391 0.943251 0.854061
O O2 0.651624 0.006558 0.675781
O O3 0.315464 0.750000 0.250000
O O4 0.359336 0.853684 0.158654
O O5 0.450194 0.800595 0.371235
O O6 0.268533 0.845204 0.380405
O O7 0.140282 0.424461 0.553303
O O8 0.294334 0.351655 0.486908
O O9 0.015024 0.036388 0.750600
O O10 0.963852 0.106036 0.938202
O O11 0.000000 0.000000 0.000000
O O12 0.587316 0.750000 0.250000
O O13 0.547542 0.713629 0.497312
O O14 0.620273 0.810600 0.484102
O O15 0.894317 0.089179 0.588564
O O16 0.000000 0.000000 0.500000
O O17 0.883382 0.172075 0.760651
#
# Coordination Sequence:
#
# PCOD9409909 Si02
#       8
#     4   8   8   8   8   8   8   8
#     4  12  20  44  66  92 128 180 218 260 332 402
#     4  10  20  37  61  91 115 166 212 259 320 384
#     4  11  20  38  68  89 123 171 220 264 311 396
#     4  11  20  36  65  95 119 164 223 270 312 381
#     4  11  23  37  60  92 123 155 212 275 317 374
#     4  11  25  40  64  98 136 171 217 270 340 399
#     4  10  21  40  59  91 123 168 211 259 326 392
#     4  10  21  41  63  84 120 174 211 250 322 402
#
# _framework density 19.017576999999999
#
# number of rings (size 3 to 8) (size 9 to 14) (size 15 to 20)
#    0.000    1.333    5.333    3.600    1.867    1.067 
#    0.000    7.333    0.000    0.000    0.000    0.000 
#    0.000    0.000    0.000    0.000    0.000    0.000 
#
# Total GULP energy -334767.219817 kJ/mol
# GULP energy per Si atom -5579.453664 kJ/mol
# Density = 1.897429 g / cm^3
# Si number density = 19.017577 Si / 1000 Ang^3
#
#
#
# Elastic Constant Matrix: (Units=GPa)
#
#
# Indices 1 2 3 4 5 6 
#
# 1 88.5258 -2.1056 46.1611 0.0000 0.0000 0.0000
# 2 -2.1056 55.4377 33.2400 0.0000 0.0000 0.0000
# 3 46.1611 33.2400 83.3648 0.0000 0.0000 0.0000
# 4 0.0000 0.0000 0.0000 32.8405 0.0000 0.0000
# 5 0.0000 0.0000 0.0000 0.0000 34.3664 0.0000
# 6 0.0000 0.0000 0.0000 0.0000 0.0000 35.0713
#
#
#
# Elastic Compliance Matrix: (Units=1/GPa)
#
#
# Indices 1 2 3 4 5 6 
#
# 1 0.018871 0.009176 -0.014108 0.000000 0.000000 0.000000
# 2 0.009176 0.028167 -0.016312 0.000000 0.000000 0.000000
# 3 -0.014108 -0.016312 0.026311 0.000000 0.000000 0.000000
# 4 0.000000 0.000000 0.000000 0.030450 0.000000 0.000000
# 5 0.000000 0.000000 0.000000 0.000000 0.029098 0.000000
# 6 0.000000 0.000000 0.000000 0.000000 0.000000 0.028513
#
#
# Mechanical properties :
#
#
# Convention : Reuss Voigt Hill
#
# Bulk Modulus (GPa) = 32.40306 42.43547 37.41927
# Shear Modulus (GPa) = 23.34416 30.45782 26.90099
#
# Velocity S-wave (km/s) = 3.50738 4.00629 3.76511
# Velocity P-wave (km/s) = 5.78599 6.61534 6.21452
#
# Compressibility (1/GPa) = 0.03086128
#
# Stress axis : x y z
#
# Youngs Moduli (GPa) = 52.99192 35.50224 38.00642
#
# Poissons Ratio (x) = -0.32576 0.53619
# Poissons Ratio (y) = -0.48624 0.61996
# Poissons Ratio (z) = 0.74760 0.57911
#
# Static dielectric constant tensor:
#      x y z
#    x 1.692280 0.000000 0.000000 
#    y 0.000000 1.704040 0.000000 
#    z 0.000000 0.000000 1.658970 
# 
# From -- ./inp_files/10944.got.cif
#   From: 2010.05.17/outbox.cif.g08.bks.cpg/sg52_6_cif.got.tgz:10944.got - 2010.06.03 12:15:38.
