data_PCOD9409343
_publ_section_title
;
Structure prediction by ZEFSAII (Michael W. Deem and Ramdas Pophale) SiO2 
 PCOD9409343
Probable space group: P N N A
;
_chemical_formula_sum "Si O2"
_cell_formula_units_Z 52
_cell_length_a 5.249719
_cell_length_b 21.187774
_cell_length_c 21.715937
_cell_angle_alpha 90.000000
_cell_angle_beta 90.000000
_cell_angle_gamma 90.000000
_cell_volume 2415.460627
_symmetry_space_group_name_H-M "P N N A"
_symmetry_group_IT_number 52
_symmetry_cell_setting 'orthorhombic'
loop_
_space_group_symop_operation_xyz
x,y,z
1/2-x,-y,z
x,1/2-y,1/2-z
1/2-x,1/2+y,1/2-z
-x,-y,-z
1/2+x,y,-z
-x,1/2+y,1/2+z
1/2+x,1/2-y,1/2+z
loop_
_atom_site_type_symbol
_atom_site_label
_atom_site_fract_x
_atom_site_fract_y
_atom_site_fract_z
Si Si1 0.750000 0.500000 0.041880
Si Si2 0.557110 0.253015 0.041608
Si Si3 0.372057 0.410533 0.853489
Si Si4 0.302938 0.709509 0.140679
Si Si5 0.962629 0.250000 0.750000
Si Si6 0.351537 0.571694 0.725369
Si Si7 0.282969 0.317724 0.643660
Si Si8 0.750000 0.500000 0.780027
O O1 0.762448 0.559862 0.087583
O O2 0.500000 0.500000 0.000000
O O3 0.447161 0.294887 0.097872
O O4 0.619401 0.189425 0.080935
O O5 0.821672 0.260589 0.005439
O O6 0.515674 0.348053 0.873916
O O7 0.214682 0.397153 0.791502
O O8 0.557388 0.465501 0.826818
O O9 0.221271 0.704652 0.211539
O O10 0.456456 0.776732 0.134210
O O11 0.133708 0.282324 0.698739
O O12 0.250000 0.500000 0.722621
O O13 0.231418 0.611868 0.670399
O O14 0.648841 0.555612 0.735110
#
# Coordination Sequence:
#
# PCOD9409343 Si02
#       8
#     4   8   8   8   4   8   8   4
#     4  12  27  46  62  90 130 189 242 278 318 386
#     4  11  24  47  66  96 138 186 228 275 345 418
#     4  11  22  41  63  92 134 179 233 293 342 392
#     4  11  23  38  69  96 138 177 227 289 350 411
#     4  10  20  34  56 106 134 168 216 284 356 408
#     4  10  21  37  67  99 132 175 222 282 364 420
#     4  11  22  40  67 101 139 171 227 292 354 425
#     4  10  19  40  62  92 140 177 222 280 356 416
#
# _framework density 21.527985000000001
#
# number of rings (size 3 to 8) (size 9 to 14) (size 15 to 20)
#    0.000    1.231    3.846    3.692    0.000    6.154 
#    0.000    0.000    0.000    0.923    0.000    0.000 
#    0.000    0.000    0.000    0.000    0.000    0.000 
#
# Total GULP energy -289746.074107 kJ/mol
# GULP energy per Si atom -5572.039887 kJ/mol
# Density = 2.147899 g / cm^3
# Si number density = 21.527985 Si / 1000 Ang^3
#
#
#
# Elastic Constant Matrix: (Units=GPa)
#
#
# Indices 1 2 3 4 5 6 
#
# 1 92.2311 8.8806 11.2464 0.0000 0.0000 0.0000
# 2 8.8806 72.5626 4.3361 0.0000 0.0000 0.0000
# 3 11.2464 4.3361 53.7306 0.0000 0.0000 0.0000
# 4 0.0000 0.0000 0.0000 24.7017 0.0000 0.0000
# 5 0.0000 0.0000 0.0000 0.0000 38.8856 0.0000
# 6 0.0000 0.0000 0.0000 0.0000 0.0000 27.9303
#
#
#
# Elastic Compliance Matrix: (Units=1/GPa)
#
#
# Indices 1 2 3 4 5 6 
#
# 1 0.011236 -0.001241 -0.002252 0.000000 0.000000 0.000000
# 2 -0.001241 0.013985 -0.000869 0.000000 0.000000 0.000000
# 3 -0.002252 -0.000869 0.019153 0.000000 0.000000 0.000000
# 4 0.000000 0.000000 0.000000 0.040483 0.000000 0.000000
# 5 0.000000 0.000000 0.000000 0.000000 0.025716 0.000000
# 6 0.000000 0.000000 0.000000 0.000000 0.000000 0.035803
#
#
# Mechanical properties :
#
#
# Convention : Reuss Voigt Hill
#
# Bulk Modulus (GPa) = 28.04932 29.71674 28.88303
# Shear Modulus (GPa) = 29.94307 31.24092 30.59200
#
# Velocity S-wave (km/s) = 3.73351 3.81356 3.77375
# Velocity P-wave (km/s) = 5.62521 5.76409 5.69508
#
# Compressibility (1/GPa) = 0.03565149
#
# Stress axis : x y z
#
# Youngs Moduli (GPa) = 88.99684 71.50541 52.21166
#
# Poissons Ratio (x) = 0.08871 0.11757
# Poissons Ratio (y) = 0.11041 0.04537
# Poissons Ratio (z) = 0.20040 0.06213
#
# Static dielectric constant tensor:
#      x y z
#    x 1.997850 0.000000 0.000000 
#    y 0.000000 1.861350 0.000000 
#    z 0.000000 0.000000 1.797000 
# 
# From -- ./inp_files/35209.got.cif
#   From: 2010.05.17/outbox.cif.g08.bks.cpg/sg52_18_cif.got.tgz:35209.got - 2010.06.03 12:15:38.
