data_PCOD9409443
_publ_section_title
;
Structure prediction by ZEFSAII (Michael W. Deem and Ramdas Pophale) SiO2 
 PCOD9409443
Probable space group: P N N A
;
_chemical_formula_sum "Si O2"
_cell_formula_units_Z 56
_cell_length_a 25.087083
_cell_length_b 5.480106
_cell_length_c 20.523652
_cell_angle_alpha 90.000000
_cell_angle_beta 90.000000
_cell_angle_gamma 90.000000
_cell_volume 2821.589092
_symmetry_space_group_name_H-M "P N N A"
_symmetry_group_IT_number 52
_symmetry_cell_setting 'orthorhombic'
loop_
_space_group_symop_operation_xyz
x,y,z
1/2-x,-y,z
x,1/2-y,1/2-z
1/2-x,1/2+y,1/2-z
-x,-y,-z
1/2+x,y,-z
-x,1/2+y,1/2+z
1/2+x,1/2-y,1/2+z
loop_
_atom_site_type_symbol
_atom_site_label
_atom_site_fract_x
_atom_site_fract_y
_atom_site_fract_z
Si Si1 0.045879 0.929805 0.812250
Si Si2 0.347691 0.739978 0.818805
Si Si3 0.312123 0.973444 0.954005
Si Si4 0.560835 0.012032 0.518603
Si Si5 0.576106 0.506207 0.709790
Si Si6 0.892642 0.511603 0.569283
Si Si7 0.611119 0.635461 0.100848
O O1 0.046317 0.750000 0.750000
O O2 0.059344 0.788616 0.879116
O O3 0.986323 0.036517 0.812723
O O4 0.096638 0.111355 0.810437
O O5 0.317730 0.750000 0.750000
O O6 0.365698 0.466084 0.832648
O O7 0.319636 0.817735 0.886527
O O8 0.341780 0.219270 0.932349
O O9 0.250000 0.000000 0.966158
O O10 0.342631 0.922798 0.022325
O O11 0.570660 0.247777 0.562240
O O12 0.500000 0.000000 0.500000
O O13 0.581836 0.748595 0.545241
O O14 0.591607 0.062383 0.450435
O O15 0.579700 0.250000 0.750000
O O16 0.613921 0.506845 0.646601
O O17 0.588168 0.750000 0.750000
#
# Coordination Sequence:
#
# PCOD9409443 Si02
#       7
#     8   8   8   8   8   8   8
#     4  10  20  32  54  84 126 172 200 240 307 378
#     4  11  20  36  58  84 124 159 210 257 307 357
#     4  10  24  44  61  86 119 165 221 272 327 372
#     4  11  22  36  60  91 129 167 207 256 310 378
#     4  11  24  39  62  96 131 167 207 251 315 394
#     4  11  23  42  63  92 125 167 213 263 321 379
#     4  10  21  36  56  87 121 162 213 259 301 369
#
# _framework density 19.846973999999999
#
# number of rings (size 3 to 8) (size 9 to 14) (size 15 to 20)
#    0.000    1.429    2.857    2.571    4.000    0.571 
#    2.571    0.000    0.000    0.857    0.000    0.000 
#    0.000    0.000    0.000    0.000    0.000    0.000 
#
# Total GULP energy -311819.402483 kJ/mol
# GULP energy per Si atom -5568.203616 kJ/mol
# Density = 1.980180 g / cm^3
# Si number density = 19.846974 Si / 1000 Ang^3
#
#
#
# Elastic Constant Matrix: (Units=GPa)
#
#
# Indices 1 2 3 4 5 6 
#
# 1 81.2963 15.0944 57.5932 0.0000 0.0000 0.0000
# 2 15.0944 75.5658 40.5321 0.0000 0.0000 0.0000
# 3 57.5932 40.5321 134.9809 0.0000 0.0000 0.0000
# 4 0.0000 0.0000 0.0000 34.5425 0.0000 0.0000
# 5 0.0000 0.0000 0.0000 0.0000 21.7283 0.0000
# 6 0.0000 0.0000 0.0000 0.0000 0.0000 -9.0573
#
#
#
# Elastic Compliance Matrix: (Units=1/GPa)
#
#
# Indices 1 2 3 4 5 6 
#
# 1 0.017653 0.000613 -0.007716 0.000000 0.000000 0.000000
# 2 0.000613 0.015795 -0.005004 0.000000 0.000000 0.000000
# 3 -0.007716 -0.005004 0.012204 0.000000 0.000000 0.000000
# 4 0.000000 0.000000 0.000000 0.028950 0.000000 0.000000
# 5 0.000000 0.000000 0.000000 0.000000 0.046023 0.000000
# 6 0.000000 0.000000 0.000000 0.000000 0.000000 -0.110408
#
#
# Mechanical properties :
#
#
# Convention : Reuss Voigt Hill
#
# Bulk Modulus (GPa) = 46.65019 57.58693 52.11856
# Shear Modulus (GPa) = 120.25405 21.35092 70.80248
#
# Velocity S-wave (km/s) = 7.79244 3.28346 5.97927
# Velocity P-wave (km/s) = 10.22345 6.59191 8.60152
#
# Compressibility (1/GPa) = 0.02143614
#
# Stress axis : x y z
#
# Youngs Moduli (GPa) = 56.64635 63.30947 81.94363
#
# Poissons Ratio (x) = -0.03878 0.63229
# Poissons Ratio (y) = -0.03470 0.41008
# Poissons Ratio (z) = 0.43710 0.31683
#
# Static dielectric constant tensor:
#      x y z
#    x 1.698270 0.000000 0.000000 
#    y 0.000000 1.816520 0.000000 
#    z 0.000000 0.000000 1.756160 
# 
# From -- ./inp_files/38138.got.cif
#   From: 2010.05.17/outbox.cif.g08.bks.cpg/sg52_20_cif.got.tgz:38138.got - 2010.06.03 12:15:38.
