data_PCOD9409674
_publ_section_title
;
Structure prediction by ZEFSAII (Michael W. Deem and Ramdas Pophale) SiO2 
 PCOD9409674
Probable space group: P N N A
;
_chemical_formula_sum "Si O2"
_cell_formula_units_Z 32
_cell_length_a 14.501321
_cell_length_b 12.931901
_cell_length_c 5.875535
_cell_angle_alpha 90.000000
_cell_angle_beta 90.000000
_cell_angle_gamma 90.000000
_cell_volume 1101.837008
_symmetry_space_group_name_H-M "P N N A"
_symmetry_group_IT_number 52
_symmetry_cell_setting 'orthorhombic'
loop_
_space_group_symop_operation_xyz
x,y,z
1/2-x,-y,z
x,1/2-y,1/2-z
1/2-x,1/2+y,1/2-z
-x,-y,-z
1/2+x,y,-z
-x,1/2+y,1/2+z
1/2+x,1/2-y,1/2+z
loop_
_atom_site_type_symbol
_atom_site_label
_atom_site_fract_x
_atom_site_fract_y
_atom_site_fract_z
Si Si1 0.077814 0.585769 0.000000
Si Si2 0.203002 0.385405 0.500000
Si Si3 0.517207 0.250000 0.750000
Si Si4 0.982793 0.750000 0.250000
Si Si5 0.217717 0.147368 0.500000
O O1 0.049875 0.652882 0.779635
O O2 0.187076 0.583232 0.000000
O O3 0.049875 0.652882 0.220365
O O4 0.000000 0.500000 0.000000
O O5 0.250000 0.500000 0.500000
O O6 0.063267 0.258098 0.500000
O O7 0.249450 0.269388 0.500000
O O8 0.165226 0.381036 0.763462
O O9 0.665226 0.118964 0.736538
#
# Coordination Sequence:
#
# PCOD9409674 Si02
#       5
#     8   8   4   4   8
#     4  10  20  35  59  85 122 157 185 234 281 335
#     4  10  20  37  61  85 116 149 189 252 297 325
#     4   8  18  32  48  76 110 150 194 224 260 330
#     4   8  18  32  48  76 110 150 194 224 260 330
#     4  10  21  34  58  92 111 146 201 228 282 370
#
# _framework density 29.042404000000001
#
# number of rings (size 3 to 8) (size 9 to 14) (size 15 to 20)
#    1.500    1.000    0.000    3.750    3.500    1.000 
#    0.000    0.000    0.000   18.000    0.000    0.000 
#    0.000    0.000    0.000    0.000    0.000    0.000 
#
# Total GULP energy -178285.076292 kJ/mol
# GULP energy per Si atom -5571.408634 kJ/mol
# Density = 2.897630 g / cm^3
# Si number density = 29.042404 Si / 1000 Ang^3
#
#
#
# Elastic Constant Matrix: (Units=GPa)
#
#
# Indices 1 2 3 4 5 6 
#
# 1 145.9678 42.9729 70.3063 0.0000 0.0000 0.0000
# 2 42.9729 140.7495 29.0433 0.0000 0.0000 0.0000
# 3 70.3063 29.0433 319.1708 0.0000 0.0000 0.0000
# 4 0.0000 0.0000 0.0000 87.1372 0.0000 0.0000
# 5 0.0000 0.0000 0.0000 0.0000 28.7588 0.0000
# 6 0.0000 0.0000 0.0000 0.0000 0.0000 26.5906
#
#
#
# Elastic Compliance Matrix: (Units=1/GPa)
#
#
# Indices 1 2 3 4 5 6 
#
# 1 0.008279 -0.002192 -0.001624 0.000000 0.000000 0.000000
# 2 -0.002192 0.007821 -0.000229 0.000000 0.000000 0.000000
# 3 -0.001624 -0.000229 0.003512 0.000000 0.000000 0.000000
# 4 0.000000 0.000000 0.000000 0.011476 0.000000 0.000000
# 5 0.000000 0.000000 0.000000 0.000000 0.034772 0.000000
# 6 0.000000 0.000000 0.000000 0.000000 0.000000 0.037607
#
#
# Mechanical properties :
#
#
# Convention : Reuss Voigt Hill
#
# Bulk Modulus (GPa) = 86.79755 98.94810 92.87283
# Shear Modulus (GPa) = 43.32835 59.40170 51.36502
#
# Velocity S-wave (km/s) = 3.86670 4.52745 4.21006
# Velocity P-wave (km/s) = 7.06304 7.84058 7.46194
#
# Compressibility (1/GPa) = 0.01152106
#
# Stress axis : x y z
#
# Youngs Moduli (GPa) = 120.79448 127.85419 284.76373
#
# Poissons Ratio (x) = 0.28031 0.46248
# Poissons Ratio (y) = 0.26483 0.06515
# Poissons Ratio (z) = 0.19618 0.02925
#
# Static dielectric constant tensor:
#      x y z
#    x 2.320870 0.000000 0.000000 
#    y 0.000000 2.642210 0.000000 
#    z 0.000000 0.000000 2.220240 
# 
# From -- ./inp_files/9727.got.cif
#   From: 2010.05.17/outbox.cif.g08.bks.cpg/sg52_5_cif.got.tgz:9727.got - 2010.06.03 12:15:38.
