data_PCOD9409331
_publ_section_title
;
Structure prediction by ZEFSAII (Michael W. Deem and Ramdas Pophale) SiO2 
 PCOD9409331
Probable space group: P N N A
;
_chemical_formula_sum "Si O2"
_cell_formula_units_Z 40
_cell_length_a 10.112503
_cell_length_b 17.481046
_cell_length_c 10.511359
_cell_angle_alpha 90.000000
_cell_angle_beta 90.000000
_cell_angle_gamma 90.000000
_cell_volume 1858.167878
_symmetry_space_group_name_H-M "P N N A"
_symmetry_group_IT_number 52
_symmetry_cell_setting 'orthorhombic'
loop_
_space_group_symop_operation_xyz
x,y,z
1/2-x,-y,z
x,1/2-y,1/2-z
1/2-x,1/2+y,1/2-z
-x,-y,-z
1/2+x,y,-z
-x,1/2+y,1/2+z
1/2+x,1/2-y,1/2+z
loop_
_atom_site_type_symbol
_atom_site_label
_atom_site_fract_x
_atom_site_fract_y
_atom_site_fract_z
Si Si1 0.114462 0.546185 0.204004
Si Si2 0.874978 0.445089 0.509501
Si Si3 0.727304 0.785995 0.390394
Si Si4 0.037694 0.710063 0.112024
Si Si5 0.135348 0.937031 0.732031
O O1 0.250000 0.500000 0.175038
O O2 0.123584 0.583527 0.346492
O O3 0.073291 0.619920 0.123449
O O4 0.999367 0.482199 0.202226
O O5 0.750000 0.500000 0.506194
O O6 0.873859 0.401644 0.375295
O O7 0.000000 0.500000 0.500000
O O8 0.712604 0.750000 0.250000
O O9 0.635297 0.756324 0.504780
O O10 0.679781 0.872580 0.364651
O O11 0.882880 0.781295 0.424130
O O12 0.054243 0.750000 0.250000
O O13 0.250000 0.000000 0.734320
#
# Coordination Sequence:
#
# PCOD9409331 Si02
#       5
#     8   8   8   8   8
#     4  10  21  39  65 105 133 175 227 281 335 398
#     4   8  16  30  54  90 128 162 208 259 326 383
#     4  11  27  48  69 100 136 185 228 280 349 411
#     4  11  27  49  69  98 141 181 227 283 344 412
#     4  10  19  39  67  97 133 175 223 281 333 398
#
# _framework density 21.526579000000002
#
# number of rings (size 3 to 8) (size 9 to 14) (size 15 to 20)
#    0.000    2.000    2.000    0.000    5.600    2.400 
#    0.000    0.000    0.000    0.000    0.000    0.000 
#    0.000    0.000    0.000    0.000    0.000    0.000 
#
# Total GULP energy -223040.117478 kJ/mol
# GULP energy per Si atom -5576.002937 kJ/mol
# Density = 2.147758 g / cm^3
# Si number density = 21.526579 Si / 1000 Ang^3
#
#
#
# Elastic Constant Matrix: (Units=GPa)
#
#
# Indices 1 2 3 4 5 6 
#
# 1 210.6551 47.5925 76.8022 0.0000 0.0000 0.0000
# 2 47.5925 74.6670 26.7297 0.0000 0.0000 0.0000
# 3 76.8022 26.7297 117.9869 0.0000 0.0000 0.0000
# 4 0.0000 0.0000 0.0000 30.6614 0.0000 0.0000
# 5 0.0000 0.0000 0.0000 0.0000 37.8150 0.0000
# 6 0.0000 0.0000 0.0000 0.0000 0.0000 4.8219
#
#
#
# Elastic Compliance Matrix: (Units=1/GPa)
#
#
# Indices 1 2 3 4 5 6 
#
# 1 0.006785 -0.002986 -0.003740 0.000000 0.000000 0.000000
# 2 -0.002986 0.015889 -0.001656 0.000000 0.000000 0.000000
# 3 -0.003740 -0.001656 0.011285 0.000000 0.000000 0.000000
# 4 0.000000 0.000000 0.000000 0.032614 0.000000 0.000000
# 5 0.000000 0.000000 0.000000 0.000000 0.026445 0.000000
# 6 0.000000 0.000000 0.000000 0.000000 0.000000 0.207386
#
#
# Mechanical properties :
#
#
# Convention : Reuss Voigt Hill
#
# Bulk Modulus (GPa) = 58.15610 78.39529 68.27570
# Shear Modulus (GPa) = 15.48465 31.47198 23.47832
#
# Velocity S-wave (km/s) = 2.68494 3.82777 3.30611
# Velocity P-wave (km/s) = 6.05693 7.48550 6.80879
#
# Compressibility (1/GPa) = 0.01719510
#
# Stress axis : x y z
#
# Youngs Moduli (GPa) = 147.37492 62.93727 88.60979
#
# Poissons Ratio (x) = 0.18793 0.33144
# Poissons Ratio (y) = 0.44006 0.14673
# Poissons Ratio (z) = 0.55124 0.10422
#
# Static dielectric constant tensor:
#      x y z
#    x 1.726350 0.000000 0.000000 
#    y 0.000000 1.775190 0.000000 
#    z 0.000000 0.000000 1.854340 
# 
# From -- ./inp_files/16672.got.cif
#   From: 2010.05.17/outbox.cif.g08.bks.cpg/sg52_9_cif.got.tgz:16672.got - 2010.06.03 12:15:38.
