data_PCOD9409965
_publ_section_title
;
Structure prediction by ZEFSAII (Michael W. Deem and Ramdas Pophale) SiO2 
 PCOD9409965
Probable space group: P N N A
;
_chemical_formula_sum "Si O2"
_cell_formula_units_Z 28
_cell_length_a 13.047642
_cell_length_b 7.535758
_cell_length_c 11.723383
_cell_angle_alpha 90.000000
_cell_angle_beta 90.000000
_cell_angle_gamma 90.000000
_cell_volume 1152.688416
_symmetry_space_group_name_H-M "P N N A"
_symmetry_group_IT_number 52
_symmetry_cell_setting 'orthorhombic'
loop_
_space_group_symop_operation_xyz
x,y,z
1/2-x,-y,z
x,1/2-y,1/2-z
1/2-x,1/2+y,1/2-z
-x,-y,-z
1/2+x,y,-z
-x,1/2+y,1/2+z
1/2+x,1/2-y,1/2+z
loop_
_atom_site_type_symbol
_atom_site_label
_atom_site_fract_x
_atom_site_fract_y
_atom_site_fract_z
Si Si1 0.250000 0.500000 0.922270
Si Si2 0.830634 0.867222 0.033002
Si Si3 0.133931 0.047220 0.218670
Si Si4 0.963642 0.585193 0.120531
O O1 0.230468 0.318603 0.992261
O O2 0.144191 0.514364 0.852225
O O3 0.924901 0.786937 0.102888
O O4 0.750000 0.000000 0.089956
O O5 0.868838 0.960681 0.918380
O O6 0.112177 0.250000 0.250000
O O7 0.053936 0.938193 0.291887
O O8 0.250000 0.000000 0.250515
O O9 0.000000 0.500000 0.000000
#
# Coordination Sequence:
#
# PCOD9409965 Si02
#       4
#     4   8   8   8
#     4   8  20  40  70  94 146 194 252 304 380 446
#     4   9  20  40  68 100 140 196 256 309 373 443
#     4  11  22  37  65 105 141 194 255 312 368 453
#     4  10  20  37  65  98 138 198 244 318 381 426
#
# _framework density 24.291039000000001
#
# number of rings (size 3 to 8) (size 9 to 14) (size 15 to 20)
#    1.714    0.571    2.857    0.000    8.000    0.000 
#    0.000    4.286    0.000    1.714   14.857    0.000 
#    0.000    0.000    0.000    0.000    0.000    2.000 
#
# Total GULP energy -156320.735071 kJ/mol
# GULP energy per Si atom -5582.883395 kJ/mol
# Density = 2.423575 g / cm^3
# Si number density = 24.291039 Si / 1000 Ang^3
#
#
#
# Elastic Constant Matrix: (Units=GPa)
#
#
# Indices 1 2 3 4 5 6 
#
# 1 239.0163 73.5867 102.1598 0.0000 0.0000 0.0000
# 2 73.5867 129.0591 47.7017 0.0000 0.0000 0.0000
# 3 102.1598 47.7017 109.9583 0.0000 0.0000 0.0000
# 4 0.0000 0.0000 0.0000 9.8388 0.0000 0.0000
# 5 0.0000 0.0000 0.0000 0.0000 32.9601 0.0000
# 6 0.0000 0.0000 0.0000 0.0000 0.0000 54.4982
#
#
#
# Elastic Compliance Matrix: (Units=1/GPa)
#
#
# Indices 1 2 3 4 5 6 
#
# 1 0.007342 -0.001983 -0.005961 0.000000 0.000000 0.000000
# 2 -0.001983 0.009764 -0.002393 0.000000 0.000000 0.000000
# 3 -0.005961 -0.002393 0.015671 0.000000 0.000000 0.000000
# 4 0.000000 0.000000 0.000000 0.101638 0.000000 0.000000
# 5 0.000000 0.000000 0.000000 0.000000 0.030340 0.000000
# 6 0.000000 0.000000 0.000000 0.000000 0.000000 0.018349
#
#
# Mechanical properties :
#
#
# Convention : Reuss Voigt Hill
#
# Bulk Modulus (GPa) = 82.63167 102.77001 92.70084
# Shear Modulus (GPa) = 24.06010 36.43180 30.24595
#
# Velocity S-wave (km/s) = 3.15062 3.87693 3.53249
# Velocity P-wave (km/s) = 6.87942 7.90193 7.40834
#
# Compressibility (1/GPa) = 0.01210190
#
# Stress axis : x y z
#
# Youngs Moduli (GPa) = 136.19710 102.42081 63.81193
#
# Poissons Ratio (x) = 0.20311 0.38040
# Poissons Ratio (y) = 0.27009 0.15272
# Poissons Ratio (z) = 0.81191 0.24511
#
# Static dielectric constant tensor:
#      x y z
#    x 1.954150 0.000000 0.000000 
#    y 0.000000 1.943840 0.000000 
#    z 0.000000 0.000000 1.961110 
# 
# From -- ./inp_files/18743.got.cif
#   From: 2010.05.17/outbox.cif.g08.bks.cpg/sg52_10_cif.got.tgz:18743.got - 2010.06.03 12:15:38.
