data_PCOD9409014
_publ_section_title
;
Structure prediction by ZEFSAII (Michael W. Deem and Ramdas Pophale) SiO2 
 PCOD9409014
Probable space group: P N N A
;
_chemical_formula_sum "Si O2"
_cell_formula_units_Z 48
_cell_length_a 18.263391
_cell_length_b 26.717547
_cell_length_c 4.980906
_cell_angle_alpha 90.000000
_cell_angle_beta 90.000000
_cell_angle_gamma 90.000000
_cell_volume 2430.448062
_symmetry_space_group_name_H-M "P N N A"
_symmetry_group_IT_number 52
_symmetry_cell_setting 'orthorhombic'
loop_
_space_group_symop_operation_xyz
x,y,z
1/2-x,-y,z
x,1/2-y,1/2-z
1/2-x,1/2+y,1/2-z
-x,-y,-z
1/2+x,y,-z
-x,1/2+y,1/2+z
1/2+x,1/2-y,1/2+z
loop_
_atom_site_type_symbol
_atom_site_label
_atom_site_fract_x
_atom_site_fract_y
_atom_site_fract_z
Si Si1 0.968377 0.307854 0.819789
Si Si2 0.179925 0.096765 0.357283
Si Si3 0.408249 0.434502 0.770854
Si Si4 0.843643 0.118442 0.771214
Si Si5 0.467963 0.859873 0.178813
Si Si6 0.825787 0.970426 0.143627
O O1 0.973441 0.250000 0.750000
O O2 0.020053 0.340002 0.620314
O O3 0.887561 0.330167 0.767086
O O4 0.991620 0.321322 0.121226
O O5 0.259374 0.120124 0.307101
O O6 0.114712 0.132728 0.268238
O O7 0.171143 0.076785 0.658386
O O8 0.175240 0.048636 0.160220
O O9 0.356384 0.402297 0.569934
O O10 0.488734 0.412503 0.716675
O O11 0.391920 0.491787 0.705634
O O12 0.383750 0.420749 0.071077
O O13 0.750000 0.000000 0.198468
#
# Coordination Sequence:
#
# PCOD9409014 Si02
#       6
#     8   8   8   8   8   8
#     4  10  21  41  63  79 103 143 183 224 287 359
#     4  12  22  35  56  84 117 149 187 234 277 314
#     4  10  20  35  53  79 113 155 190 221 261 325
#     4  10  19  35  57  80 108 140 186 229 272 324
#     4  10  23  38  57  85 115 144 181 234 291 328
#     4  12  21  33  56  82 115 159 198 223 259 321
#
# _framework density 19.749442999999999
#
# number of rings (size 3 to 8) (size 9 to 14) (size 15 to 20)
#    0.000    1.333    3.333    3.000    0.000    1.333 
#    0.000    1.667    0.000    0.000    0.000    0.000 
#    0.000    0.000    0.000    0.000    0.000    0.000 
#
# Total GULP energy -268337.487002 kJ/mol
# GULP energy per Si atom -5590.364313 kJ/mol
# Density = 1.970449 g / cm^3
# Si number density = 19.749443 Si / 1000 Ang^3
#
#
#
# Elastic Constant Matrix: (Units=GPa)
#
#
# Indices 1 2 3 4 5 6 
#
# 1 69.4054 14.4657 -18.2398 0.0000 0.0000 0.0000
# 2 14.4657 40.9335 -11.4366 0.0000 0.0000 0.0000
# 3 -18.2398 -11.4366 55.7866 0.0000 0.0000 0.0000
# 4 0.0000 0.0000 0.0000 17.8284 0.0000 0.0000
# 5 0.0000 0.0000 0.0000 0.0000 4.4786 0.0000
# 6 0.0000 0.0000 0.0000 0.0000 0.0000 11.2935
#
#
#
# Elastic Compliance Matrix: (Units=1/GPa)
#
#
# Indices 1 2 3 4 5 6 
#
# 1 0.016540 -0.004598 0.004465 0.000000 0.000000 0.000000
# 2 -0.004598 0.027192 0.004071 0.000000 0.000000 0.000000
# 3 0.004465 0.004071 0.020220 0.000000 0.000000 0.000000
# 4 0.000000 0.000000 0.000000 0.056090 0.000000 0.000000
# 5 0.000000 0.000000 0.000000 0.000000 0.223284 0.000000
# 6 0.000000 0.000000 0.000000 0.000000 0.000000 0.088546
#
#
# Mechanical properties :
#
#
# Convention : Reuss Voigt Hill
#
# Bulk Modulus (GPa) = 13.92172 15.07825 14.49999
# Shear Modulus (GPa) = 11.16225 18.80918 14.98572
#
# Velocity S-wave (km/s) = 2.37996 3.08943 2.75761
# Velocity P-wave (km/s) = 3.82319 4.51414 4.18295
#
# Compressibility (1/GPa) = 0.07183018
#
# Stress axis : x y z
#
# Youngs Moduli (GPa) = 60.46021 36.77538 49.45589
#
# Poissons Ratio (x) = 0.16908 -0.22083
# Poissons Ratio (y) = 0.27797 -0.20135
# Poissons Ratio (z) = -0.26997 -0.14973
#
# Static dielectric constant tensor:
#      x y z
#    x 1.695260 0.000000 0.000000 
#    y 0.000000 1.667250 0.000000 
#    z 0.000000 0.000000 1.673490 
# 
# From -- ./inp_files/2438.got.cif
#   From: 2010.05.17/outbox.cif.g08.bks.cpg/sg52_2_cif.got.tgz:2438.got - 2010.06.03 12:15:38.
