data_PCOD9409760
_publ_section_title
;
Structure prediction by ZEFSAII (Michael W. Deem and Ramdas Pophale) SiO2 
 PCOD9409760
Probable space group: P N N A
;
_chemical_formula_sum "Si O2"
_cell_formula_units_Z 32
_cell_length_a 10.194754
_cell_length_b 5.056552
_cell_length_c 30.409413
_cell_angle_alpha 90.000000
_cell_angle_beta 90.000000
_cell_angle_gamma 90.000000
_cell_volume 1567.614476
_symmetry_space_group_name_H-M "P N N A"
_symmetry_group_IT_number 52
_symmetry_cell_setting 'orthorhombic'
loop_
_space_group_symop_operation_xyz
x,y,z
1/2-x,-y,z
x,1/2-y,1/2-z
1/2-x,1/2+y,1/2-z
-x,-y,-z
1/2+x,y,-z
-x,1/2+y,1/2+z
1/2+x,1/2-y,1/2+z
loop_
_atom_site_type_symbol
_atom_site_label
_atom_site_fract_x
_atom_site_fract_y
_atom_site_fract_z
Si Si1 0.250000 0.000000 0.549731
Si Si2 0.117075 0.668820 0.478387
Si Si3 0.656278 0.750000 0.250000
Si Si4 0.972593 0.878674 0.395816
Si Si5 0.095756 0.590236 0.656281
O O1 0.351848 0.131941 0.517503
O O2 0.165040 0.191634 0.579836
O O3 0.250000 0.500000 0.471362
O O4 0.000000 0.500000 0.500000
O O5 0.078509 0.820891 0.433629
O O6 0.750000 0.500000 0.239772
O O7 0.576085 0.685999 0.293874
O O8 0.985626 0.668426 0.357015
O O9 0.946828 0.172294 0.376801
O O10 0.250000 0.500000 0.655626
#
# Coordination Sequence:
#
# PCOD9409760 Si02
#       5
#     4   8   4   8   8
#     4  12  24  42  62  90 134 176 224 270 324 380
#     4  12  27  44  63  92 132 181 231 278 326 381
#     4  10  20  36  58  92 130 168 202 264 344 406
#     4  12  24  38  63  93 127 174 219 265 327 394
#     4  11  21  38  60  93 130 167 211 268 332 406
#
# _framework density 20.413184000000001
#
# number of rings (size 3 to 8) (size 9 to 14) (size 15 to 20)
#    0.000    0.500    5.000    5.250    3.500    0.000 
#    0.000    0.000    0.000    0.000    0.000    3.500 
#    0.000    0.000    0.000    0.000    0.000    0.000 
#
# Total GULP energy -178655.783878 kJ/mol
# GULP energy per Si atom -5582.993246 kJ/mol
# Density = 2.036672 g / cm^3
# Si number density = 20.413184 Si / 1000 Ang^3
#
#
#
# Elastic Constant Matrix: (Units=GPa)
#
#
# Indices 1 2 3 4 5 6 
#
# 1 68.6124 22.7024 28.4332 0.0000 0.0000 0.0000
# 2 22.7024 102.5145 27.9279 0.0000 0.0000 0.0000
# 3 28.4332 27.9279 120.4003 0.0000 0.0000 0.0000
# 4 0.0000 0.0000 0.0000 43.7151 0.0000 0.0000
# 5 0.0000 0.0000 0.0000 0.0000 18.9107 0.0000
# 6 0.0000 0.0000 0.0000 0.0000 0.0000 37.3456
#
#
#
# Elastic Compliance Matrix: (Units=1/GPa)
#
#
# Indices 1 2 3 4 5 6 
#
# 1 0.016893 -0.002833 -0.003332 0.000000 0.000000 0.000000
# 2 -0.002833 0.010888 -0.001856 0.000000 0.000000 0.000000
# 3 -0.003332 -0.001856 0.009523 0.000000 0.000000 0.000000
# 4 0.000000 0.000000 0.000000 0.022875 0.000000 0.000000
# 5 0.000000 0.000000 0.000000 0.000000 0.052880 0.000000
# 6 0.000000 0.000000 0.000000 0.000000 0.000000 0.026777
#
#
# Mechanical properties :
#
#
# Convention : Reuss Voigt Hill
#
# Bulk Modulus (GPa) = 47.03613 49.96159 48.49886
# Shear Modulus (GPa) = 30.68106 34.15853 32.41980
#
# Velocity S-wave (km/s) = 3.88106 4.09511 3.98952
# Velocity P-wave (km/s) = 6.57081 6.84749 6.71058
#
# Compressibility (1/GPa) = 0.02126025
#
# Stress axis : x y z
#
# Youngs Moduli (GPa) = 59.19624 91.84500 105.00721
#
# Poissons Ratio (x) = 0.26022 0.34990
# Poissons Ratio (y) = 0.16772 0.19494
# Poissons Ratio (z) = 0.19725 0.17051
#
# Static dielectric constant tensor:
#      x y z
#    x 1.797250 0.000000 0.000000 
#    y 0.000000 1.811420 0.000000 
#    z 0.000000 0.000000 1.754650 
# 
# From -- ./inp_files/39839.got.cif
#   From: 2010.05.17/outbox.cif.g08.bks.cpg/sg52_20_cif.got.tgz:39839.got - 2010.06.03 12:15:38.
