data_PCOD9409990
_publ_section_title
;
Structure prediction by ZEFSAII (Michael W. Deem and Ramdas Pophale) SiO2 
 PCOD9409990
Probable space group: P N N A
;
_chemical_formula_sum "Si O2"
_cell_formula_units_Z 48
_cell_length_a 5.150986
_cell_length_b 22.680272
_cell_length_c 15.968695
_cell_angle_alpha 90.000000
_cell_angle_beta 90.000000
_cell_angle_gamma 90.000000
_cell_volume 1865.554986
_symmetry_space_group_name_H-M "P N N A"
_symmetry_group_IT_number 52
_symmetry_cell_setting 'orthorhombic'
loop_
_space_group_symop_operation_xyz
x,y,z
1/2-x,-y,z
x,1/2-y,1/2-z
1/2-x,1/2+y,1/2-z
-x,-y,-z
1/2+x,y,-z
-x,1/2+y,1/2+z
1/2+x,1/2-y,1/2+z
loop_
_atom_site_type_symbol
_atom_site_label
_atom_site_fract_x
_atom_site_fract_y
_atom_site_fract_z
Si Si1 0.992482 0.396452 0.970889
Si Si2 0.250000 0.000000 0.906894
Si Si3 0.494517 0.306037 0.878391
Si Si4 0.730663 0.574469 0.622110
Si Si5 0.622875 0.628121 0.783600
Si Si6 0.197048 0.795880 0.054469
Si Si7 0.624094 0.250000 0.250000
O O1 0.016994 0.383294 0.872654
O O2 0.725837 0.429213 0.986343
O O3 0.939013 0.339311 0.033855
O O4 0.480101 0.045328 0.874503
O O5 0.008539 0.046278 0.934251
O O6 0.585849 0.355915 0.813091
O O7 0.736997 0.262243 0.892602
O O8 0.297257 0.264134 0.831063
O O9 0.617922 0.576221 0.716655
O O10 0.758164 0.641569 0.595257
O O11 0.520072 0.687834 0.740584
O O12 0.408692 0.792966 0.980268
#
# Coordination Sequence:
#
# PCOD9409990 Si02
#       7
#     8   4   8   8   8   8   4
#     4  10  20  38  56  89 135 181 217 251 308 379
#     4  10  26  50  74  96 126 164 228 328 366 402
#     4  11  24  38  59 103 150 190 221 263 318 402
#     4  11  25  48  72  99 128 170 239 294 365 411
#     4  11  24  38  65  97 135 182 228 269 330 410
#     4  12  26  42  67 101 144 189 224 269 335 417
#     4  12  22  36  60 102 140 188 226 270 308 406
#
# _framework density 25.729606
#
# number of rings (size 3 to 8) (size 9 to 14) (size 15 to 20)
#    0.000    1.000    1.667    5.500    9.333    0.000 
#    0.000    8.333    0.000    0.000    0.000   46.667 
#    0.000    0.000    0.000    0.000    0.000    0.000 
#
# Total GULP energy -267496.152750 kJ/mol
# GULP energy per Si atom -5572.836516 kJ/mol
# Density = 2.567104 g / cm^3
# Si number density = 25.729606 Si / 1000 Ang^3
#
#
#
# Elastic Constant Matrix: (Units=GPa)
#
#
# Indices 1 2 3 4 5 6 
#
# 1 132.5065 14.2311 32.2331 0.0000 0.0000 0.0000
# 2 14.2311 78.5025 40.1391 0.0000 0.0000 0.0000
# 3 32.2331 40.1391 116.3598 0.0000 0.0000 0.0000
# 4 0.0000 0.0000 0.0000 -11.6765 0.0000 0.0000
# 5 0.0000 0.0000 0.0000 0.0000 58.2828 0.0000
# 6 0.0000 0.0000 0.0000 0.0000 0.0000 18.9612
#
#
#
# Elastic Compliance Matrix: (Units=1/GPa)
#
#
# Indices 1 2 3 4 5 6 
#
# 1 0.008102 -0.000390 -0.002110 0.000000 0.000000 0.000000
# 2 -0.000390 0.015485 -0.005234 0.000000 0.000000 0.000000
# 3 -0.002110 -0.005234 0.010984 0.000000 0.000000 0.000000
# 4 0.000000 0.000000 0.000000 -0.085642 0.000000 0.000000
# 5 0.000000 0.000000 0.000000 0.000000 0.017158 0.000000
# 6 0.000000 0.000000 0.000000 0.000000 0.000000 0.052739
#
#
# Mechanical properties :
#
#
# Convention : Reuss Voigt Hill
#
# Bulk Modulus (GPa) = 52.34496 55.61948 53.98222
# Shear Modulus (GPa) = 122.96737 29.16451 76.06594
#
# Velocity S-wave (km/s) = 6.92069 3.37040 5.44314
# Velocity P-wave (km/s) = 9.17876 6.06712 7.78009
#
# Compressibility (1/GPa) = 0.01910403
#
# Stress axis : x y z
#
# Youngs Moduli (GPa) = 123.42771 64.57783 91.04247
#
# Poissons Ratio (x) = 0.02518 0.19208
# Poissons Ratio (y) = 0.04813 0.47649
# Poissons Ratio (z) = 0.26041 0.33798
#
# Static dielectric constant tensor:
#      x y z
#    x 2.194190 0.000000 0.000000 
#    y 0.000000 2.007760 0.000000 
#    z 0.000000 0.000000 2.133280 
# 
# From -- ./inp_files/30289.got.cif
#   From: 2010.05.17/outbox.cif.g08.bks.cpg/sg52_16_cif.got.tgz:30289.got - 2010.06.03 12:15:38.
