data_PCOD9409606
_publ_section_title
;
Structure prediction by ZEFSAII (Michael W. Deem and Ramdas Pophale) SiO2 
 PCOD9409606
Probable space group: P N N A
;
_chemical_formula_sum "Si O2"
_cell_formula_units_Z 56
_cell_length_a 17.818944
_cell_length_b 20.712448
_cell_length_c 7.240402
_cell_angle_alpha 90.000000
_cell_angle_beta 90.000000
_cell_angle_gamma 90.000000
_cell_volume 2672.243773
_symmetry_space_group_name_H-M "P N N A"
_symmetry_group_IT_number 52
_symmetry_cell_setting 'orthorhombic'
loop_
_space_group_symop_operation_xyz
x,y,z
1/2-x,-y,z
x,1/2-y,1/2-z
1/2-x,1/2+y,1/2-z
-x,-y,-z
1/2+x,y,-z
-x,1/2+y,1/2+z
1/2+x,1/2-y,1/2+z
loop_
_atom_site_type_symbol
_atom_site_label
_atom_site_fract_x
_atom_site_fract_y
_atom_site_fract_z
Si Si1 0.520505 0.700476 0.890091
Si Si2 0.145587 0.789856 0.937703
Si Si3 0.608909 0.110406 0.092184
Si Si4 0.936498 0.096835 0.905734
Si Si5 0.690024 0.235712 0.029335
Si Si6 0.333161 0.976156 0.192376
Si Si7 0.116030 0.364205 0.031123
O O1 0.477441 0.750000 0.750000
O O2 0.555326 0.642811 0.772726
O O3 0.465880 0.669751 0.041777
O O4 0.586228 0.744965 0.960257
O O5 0.153967 0.750000 0.750000
O O6 0.228362 0.791121 0.023851
O O7 0.109027 0.861071 0.942654
O O8 0.524258 0.087888 0.042575
O O9 0.628297 0.179942 0.003546
O O10 0.617870 0.115363 0.313457
O O11 0.667633 0.061718 0.002094
O O12 0.890276 0.034889 0.842969
O O13 0.691029 0.250000 0.250000
O O14 0.672233 0.304313 0.937862
O O15 0.365743 0.924651 0.340363
O O16 0.250000 0.000000 0.243649
#
# Coordination Sequence:
#
# PCOD9409606 Si02
#       7
#     8   8   8   8   8   8   8
#     4   9  19  38  62  88 125 161 202 269 317 370
#     4  10  20  34  63  97 121 157 205 266 328 378
#     4  10  22  44  66  86 127 169 208 263 316 378
#     4  10  22  42  60  86 130 163 210 262 312 377
#     4   9  18  37  62  91 122 156 204 260 323 371
#     4  12  27  41  60  95 128 169 217 259 316 385
#     4  10  22  41  65  89 123 167 211 256 317 383
#
# _framework density 20.956173
#
# number of rings (size 3 to 8) (size 9 to 14) (size 15 to 20)
#    0.000    2.000    0.000    4.286    4.000    3.429 
#    5.143    0.000    0.000    0.000    0.000    0.000 
#    0.000    0.000    0.000    0.000    0.000    0.000 
#
# Total GULP energy -312352.701083 kJ/mol
# GULP energy per Si atom -5577.726805 kJ/mol
# Density = 2.090848 g / cm^3
# Si number density = 20.956173 Si / 1000 Ang^3
#
#
#
# Elastic Constant Matrix: (Units=GPa)
#
#
# Indices 1 2 3 4 5 6 
#
# 1 132.1626 59.4835 30.0495 0.0000 0.0000 0.0000
# 2 59.4835 142.6731 33.6589 0.0000 0.0000 0.0000
# 3 30.0495 33.6589 45.1919 0.0000 0.0000 0.0000
# 4 0.0000 0.0000 0.0000 40.0183 0.0000 0.0000
# 5 0.0000 0.0000 0.0000 0.0000 -2.7962 0.0000
# 6 0.0000 0.0000 0.0000 0.0000 0.0000 29.2766
#
#
#
# Elastic Compliance Matrix: (Units=1/GPa)
#
#
# Indices 1 2 3 4 5 6 
#
# 1 0.009953 -0.003140 -0.004279 0.000000 0.000000 0.000000
# 2 -0.003140 0.009494 -0.004983 0.000000 0.000000 0.000000
# 3 -0.004279 -0.004983 0.028685 0.000000 0.000000 0.000000
# 4 0.000000 0.000000 0.000000 0.024989 0.000000 0.000000
# 5 0.000000 0.000000 0.000000 0.000000 -0.357630 0.000000
# 6 0.000000 0.000000 0.000000 0.000000 0.000000 0.034157
#
#
# Mechanical properties :
#
#
# Convention : Reuss Voigt Hill
#
# Bulk Modulus (GPa) = 42.86957 62.93459 52.90208
# Shear Modulus (GPa) = -22.95961 26.42213 1.73126
#
# Velocity S-wave (km/s) = -3.31358 3.55467 0.90991
# Velocity P-wave (km/s) = 2.42104 6.85159 5.13837
#
# Compressibility (1/GPa) = 0.02332657
#
# Stress axis : x y z
#
# Youngs Moduli (GPa) = 100.47621 105.33279 34.86187
#
# Poissons Ratio (x) = 0.33074 0.14918
# Poissons Ratio (y) = 0.31549 0.17372
# Poissons Ratio (z) = 0.42996 0.52488
#
# Static dielectric constant tensor:
#      x y z
#    x 1.810280 0.000000 0.000000 
#    y 0.000000 1.778270 0.000000 
#    z 0.000000 0.000000 1.907980 
# 
# From -- ./inp_files/12538.got.cif
#   From: 2010.05.17/outbox.cif.g08.bks.cpg/sg52_7_cif.got.tgz:12538.got - 2010.06.03 12:15:38.
