data_PCOD9409849
_publ_section_title
;
Structure prediction by ZEFSAII (Michael W. Deem and Ramdas Pophale) SiO2 
 PCOD9409849
Probable space group: P N N A
;
_chemical_formula_sum "Si O2"
_cell_formula_units_Z 36
_cell_length_a 15.007533
_cell_length_b 13.679753
_cell_length_c 8.914300
_cell_angle_alpha 90.000000
_cell_angle_beta 90.000000
_cell_angle_gamma 90.000000
_cell_volume 1830.099947
_symmetry_space_group_name_H-M "P N N A"
_symmetry_group_IT_number 52
_symmetry_cell_setting 'orthorhombic'
loop_
_space_group_symop_operation_xyz
x,y,z
1/2-x,-y,z
x,1/2-y,1/2-z
1/2-x,1/2+y,1/2-z
-x,-y,-z
1/2+x,y,-z
-x,1/2+y,1/2+z
1/2+x,1/2-y,1/2+z
loop_
_atom_site_type_symbol
_atom_site_label
_atom_site_fract_x
_atom_site_fract_y
_atom_site_fract_z
Si Si1 0.725586 0.894428 0.136965
Si Si2 0.517854 0.849749 0.150808
Si Si3 0.389231 0.736888 0.576085
Si Si4 0.750000 0.000000 0.437848
Si Si5 0.077608 0.443933 0.085132
O O1 0.620587 0.876841 0.124589
O O2 0.791479 0.813057 0.071216
O O3 0.750000 0.000000 0.068667
O O4 0.747440 0.911016 0.315823
O O5 0.520022 0.750000 0.250000
O O6 0.460746 0.925811 0.249834
O O7 0.462650 0.832104 0.000538
O O8 0.410588 0.750000 0.750000
O O9 0.399418 0.838433 0.487435
O O10 0.665831 0.996072 0.546247
O O11 0.000000 0.500000 0.000000
#
# Coordination Sequence:
#
# PCOD9409849 Si02
#       5
#     8   8   8   4   8
#     4  10  20  39  63  88 121 171 214 267 340 405
#     4  10  23  39  63  91 129 166 215 271 331 399
#     4  11  22  40  64  93 128 172 223 274 327 407
#     4  10  20  36  66  88 124 168 222 262 346 416
#     4  11  21  41  63  96 129 173 220 275 340 410
#
# _framework density 19.671057000000001
#
# number of rings (size 3 to 8) (size 9 to 14) (size 15 to 20)
#    0.667    0.889    4.444    0.667    0.000    0.889 
#    2.000    3.333    0.000    0.000    0.000    0.000 
#    0.000    0.000    0.000    0.000    0.000    0.000 
#
# Total GULP energy -200650.687189 kJ/mol
# GULP energy per Si atom -5573.630200 kJ/mol
# Density = 1.962629 g / cm^3
# Si number density = 19.671057 Si / 1000 Ang^3
#
#
#
# Elastic Constant Matrix: (Units=GPa)
#
#
# Indices 1 2 3 4 5 6 
#
# 1 178.7806 22.9927 38.2748 0.0000 0.0000 0.0000
# 2 22.9927 57.8729 6.4835 0.0000 0.0000 0.0000
# 3 38.2748 6.4835 55.3840 0.0000 0.0000 0.0000
# 4 0.0000 0.0000 0.0000 25.3087 0.0000 0.0000
# 5 0.0000 0.0000 0.0000 0.0000 36.2097 0.0000
# 6 0.0000 0.0000 0.0000 0.0000 0.0000 37.8370
#
#
#
# Elastic Compliance Matrix: (Units=1/GPa)
#
#
# Indices 1 2 3 4 5 6 
#
# 1 0.006834 -0.002215 -0.004463 0.000000 0.000000 0.000000
# 2 -0.002215 0.018227 -0.000603 0.000000 0.000000 0.000000
# 3 -0.004463 -0.000603 0.021211 0.000000 0.000000 0.000000
# 4 0.000000 0.000000 0.000000 0.039512 0.000000 0.000000
# 5 0.000000 0.000000 0.000000 0.000000 0.027617 0.000000
# 6 0.000000 0.000000 0.000000 0.000000 0.000000 0.026429
#
#
# Mechanical properties :
#
#
# Convention : Reuss Voigt Hill
#
# Bulk Modulus (GPa) = 31.53704 47.50440 39.52072
# Shear Modulus (GPa) = 30.30995 34.82352 32.56673
#
# Velocity S-wave (km/s) = 3.92961 4.21205 4.07328
# Velocity P-wave (km/s) = 6.05443 6.91787 6.50050
#
# Compressibility (1/GPa) = 0.03170875
#
# Stress axis : x y z
#
# Youngs Moduli (GPa) = 146.32940 54.86416 47.14545
#
# Poissons Ratio (x) = 0.12153 0.21043
# Poissons Ratio (y) = 0.32413 0.02843
# Poissons Ratio (z) = 0.65314 0.03308
#
# Static dielectric constant tensor:
#      x y z
#    x 1.652510 0.000000 0.000000 
#    y 0.000000 1.786250 0.000000 
#    z 0.000000 0.000000 1.501900 
# 
# From -- ./inp_files/9923.got.cif
#   From: 2010.05.17/outbox.cif.g08.bks.cpg/sg52_5_cif.got.tgz:9923.got - 2010.06.03 12:15:38.
