data_PCOD9409868
_publ_section_title
;
Structure prediction by ZEFSAII (Michael W. Deem and Ramdas Pophale) SiO2 
 PCOD9409868
Probable space group: P N N A
;
_chemical_formula_sum "Si O2"
_cell_formula_units_Z 48
_cell_length_a 12.253901
_cell_length_b 7.293358
_cell_length_c 26.868684
_cell_angle_alpha 90.000000
_cell_angle_beta 90.000000
_cell_angle_gamma 90.000000
_cell_volume 2401.310361
_symmetry_space_group_name_H-M "P N N A"
_symmetry_group_IT_number 52
_symmetry_cell_setting 'orthorhombic'
loop_
_space_group_symop_operation_xyz
x,y,z
1/2-x,-y,z
x,1/2-y,1/2-z
1/2-x,1/2+y,1/2-z
-x,-y,-z
1/2+x,y,-z
-x,1/2+y,1/2+z
1/2+x,1/2-y,1/2+z
loop_
_atom_site_type_symbol
_atom_site_label
_atom_site_fract_x
_atom_site_fract_y
_atom_site_fract_z
Si Si1 0.418169 0.985602 0.664519
Si Si2 0.344184 0.875766 0.478713
Si Si3 0.494233 0.812754 0.562708
Si Si4 0.800161 0.187729 0.893406
Si Si5 0.141808 0.602825 0.207800
Si Si6 0.268396 0.284566 0.694616
O O1 0.436330 0.891394 0.611352
O O2 0.532830 0.008652 0.693195
O O3 0.341730 0.837096 0.692476
O O4 0.353717 0.176845 0.659771
O O5 0.408879 0.760559 0.519927
O O6 0.283401 0.773431 0.433668
O O7 0.250000 0.000000 0.503955
O O8 0.430881 0.018293 0.456151
O O9 0.583195 0.663349 0.579241
O O10 0.822195 0.310520 0.845214
O O11 0.750000 0.000000 0.875606
O O12 0.250000 0.500000 0.226412
O O13 0.111936 0.750000 0.250000
O O14 0.250000 0.500000 0.685129
O O15 0.313580 0.250000 0.750000
#
# Coordination Sequence:
#
# PCOD9409868 Si02
#       6
#     8   8   8   8   8   8
#     4  10  22  40  64  88 128 158 208 258 306 378
#     4   9  18  35  62  78 112 156 200 244 308 369
#     4   9  19  37  57  86 110 157 202 246 306 366
#     4  10  20  37  57  85 123 156 197 255 305 368
#     4  11  23  41  61  91 122 164 209 252 310 375
#     4  11  22  41  64  91 121 165 205 253 319 370
#
# _framework density 19.989087000000001
#
# number of rings (size 3 to 8) (size 9 to 14) (size 15 to 20)
#    0.000    2.000    1.667    3.500    2.333    1.333 
#   12.000    0.833    0.000    0.000    0.000    0.000 
#    0.000    0.000    0.000    0.000    0.000    0.000 
#
# Total GULP energy -267572.629365 kJ/mol
# GULP energy per Si atom -5574.429778 kJ/mol
# Density = 1.994359 g / cm^3
# Si number density = 19.989087 Si / 1000 Ang^3
#
#
#
# Elastic Constant Matrix: (Units=GPa)
#
#
# Indices 1 2 3 4 5 6 
#
# 1 90.8017 32.2664 21.7723 0.0000 0.0000 0.0000
# 2 32.2664 80.5277 -6.6117 0.0000 0.0000 0.0000
# 3 21.7723 -6.6117 65.5509 0.0000 0.0000 0.0000
# 4 0.0000 0.0000 0.0000 -0.7155 0.0000 0.0000
# 5 0.0000 0.0000 0.0000 0.0000 39.2176 0.0000
# 6 0.0000 0.0000 0.0000 0.0000 0.0000 20.9064
#
#
#
# Elastic Compliance Matrix: (Units=1/GPa)
#
#
# Indices 1 2 3 4 5 6 
#
# 1 0.014556 -0.006282 -0.005468 0.000000 0.000000 0.000000
# 2 -0.006282 0.015232 0.003623 0.000000 0.000000 0.000000
# 3 -0.005468 0.003623 0.017437 0.000000 0.000000 0.000000
# 4 0.000000 0.000000 0.000000 -1.397587 0.000000 0.000000
# 5 0.000000 0.000000 0.000000 0.000000 0.025499 0.000000
# 6 0.000000 0.000000 0.000000 0.000000 0.000000 0.047832
#
#
# Mechanical properties :
#
#
# Convention : Reuss Voigt Hill
#
# Bulk Modulus (GPa) = 32.28770 36.85937 34.57354
# Shear Modulus (GPa) = -3.99855 24.51191 10.25668
#
# Velocity S-wave (km/s) = -1.41588 3.50561 2.26766
# Velocity P-wave (km/s) = 3.67625 5.90470 4.91835
#
# Compressibility (1/GPa) = 0.03097154
#
# Stress axis : x y z
#
# Youngs Moduli (GPa) = 68.69856 65.64927 57.34936
#
# Poissons Ratio (x) = 0.41238 0.31361
# Poissons Ratio (y) = 0.43153 -0.20776
# Poissons Ratio (z) = 0.37567 -0.23783
#
# Static dielectric constant tensor:
#      x y z
#    x 1.769090 0.000000 0.000000 
#    y 0.000000 1.813750 0.000000 
#    z 0.000000 0.000000 1.735390 
# 
# From -- ./inp_files/40156.got.cif
#   From: 2010.05.17/outbox.cif.g08.bks.cpg/sg52_21_cif.got.tgz:40156.got - 2010.06.03 12:15:38.
