data_PCOD9409727
_publ_section_title
;
Structure prediction by ZEFSAII (Michael W. Deem and Ramdas Pophale) SiO2 
 PCOD9409727
Probable space group: P N N A
;
_chemical_formula_sum "Si O2"
_cell_formula_units_Z 36
_cell_length_a 12.325503
_cell_length_b 8.995248
_cell_length_c 13.355823
_cell_angle_alpha 90.000000
_cell_angle_beta 90.000000
_cell_angle_gamma 90.000000
_cell_volume 1480.772867
_symmetry_space_group_name_H-M "P N N A"
_symmetry_group_IT_number 52
_symmetry_cell_setting 'orthorhombic'
loop_
_space_group_symop_operation_xyz
x,y,z
1/2-x,-y,z
x,1/2-y,1/2-z
1/2-x,1/2+y,1/2-z
-x,-y,-z
1/2+x,y,-z
-x,1/2+y,1/2+z
1/2+x,1/2-y,1/2+z
loop_
_atom_site_type_symbol
_atom_site_label
_atom_site_fract_x
_atom_site_fract_y
_atom_site_fract_z
Si Si1 0.905759 0.392489 0.545563
Si Si2 0.094774 0.341580 0.342361
Si Si3 0.438474 0.643675 0.963248
Si Si4 0.664020 0.847541 0.172165
Si Si5 0.250000 0.500000 0.831560
O O1 0.829166 0.352096 0.451812
O O2 0.000000 0.500000 0.500000
O O3 0.860232 0.496995 0.631218
O O4 0.971542 0.251327 0.585516
O O5 0.141255 0.250000 0.250000
O O6 0.966644 0.373056 0.318119
O O7 0.102473 0.234949 0.439772
O O8 0.500000 0.500000 0.000000
O O9 0.346009 0.586147 0.890368
O O10 0.684593 0.664276 0.193073
O O11 0.750000 0.000000 0.196662
#
# Coordination Sequence:
#
# PCOD9409727 Si02
#       5
#     8   8   8   8   4
#     4   8  17  35  54  78 118 166 201 243 324 399
#     4   9  18  38  59  78 117 171 209 251 323 401
#     4  10  20  36  56  86 128 163 203 271 337 395
#     4   9  18  31  50  83 123 153 194 260 321 382
#     4  12  22  32  60  96 124 160 216 274 324 392
#
# _framework density 24.311627000000001
#
# number of rings (size 3 to 8) (size 9 to 14) (size 15 to 20)
#    0.000    3.111    0.000    4.000    0.000    5.333 
#    0.000    7.778    0.000    6.667    0.000    0.000 
#    0.000    0.000    0.000    0.000    0.000    0.000 
#
# Total GULP energy -200593.084330 kJ/mol
# GULP energy per Si atom -5572.030120 kJ/mol
# Density = 2.425629 g / cm^3
# Si number density = 24.311627 Si / 1000 Ang^3
#
#
#
# Elastic Constant Matrix: (Units=GPa)
#
#
# Indices 1 2 3 4 5 6 
#
# 1 148.9863 74.2671 67.3386 0.0000 0.0000 0.0000
# 2 74.2671 221.9735 99.8676 0.0000 0.0000 0.0000
# 3 67.3386 99.8676 162.6213 0.0000 0.0000 0.0000
# 4 0.0000 0.0000 0.0000 71.5072 0.0000 0.0000
# 5 0.0000 0.0000 0.0000 0.0000 54.0514 0.0000
# 6 0.0000 0.0000 0.0000 0.0000 0.0000 21.1574
#
#
#
# Elastic Compliance Matrix: (Units=1/GPa)
#
#
# Indices 1 2 3 4 5 6 
#
# 1 0.008744 -0.001792 -0.002521 0.000000 0.000000 0.000000
# 2 -0.001792 0.006592 -0.003306 0.000000 0.000000 0.000000
# 3 -0.002521 -0.003306 0.009223 0.000000 0.000000 0.000000
# 4 0.000000 0.000000 0.000000 0.013985 0.000000 0.000000
# 5 0.000000 0.000000 0.000000 0.000000 0.018501 0.000000
# 6 0.000000 0.000000 0.000000 0.000000 0.000000 0.047265
#
#
# Mechanical properties :
#
#
# Convention : Reuss Voigt Hill
#
# Bulk Modulus (GPa) = 107.26554 112.94755 110.10655
# Shear Modulus (GPa) = 40.76471 48.81705 44.79088
#
# Velocity S-wave (km/s) = 4.09927 4.48590 4.29693
# Velocity P-wave (km/s) = 8.16224 8.56681 8.36697
#
# Compressibility (1/GPa) = 0.00932266
#
# Stress axis : x y z
#
# Youngs Moduli (GPa) = 114.35900 151.69820 108.41877
#
# Poissons Ratio (x) = 0.27178 0.27329
# Poissons Ratio (y) = 0.20489 0.35847
# Poissons Ratio (z) = 0.28826 0.50157
#
# Static dielectric constant tensor:
#      x y z
#    x 1.051540 0.000000 0.000000 
#    y 0.000000 1.988940 0.000000 
#    z 0.000000 0.000000 2.016830 
# 
# From -- ./inp_files/32796.got.cif
#   From: 2010.05.17/outbox.cif.g08.bks.cpg/sg52_17_cif.got.tgz:32796.got - 2010.06.03 12:15:38.
