data_PCOD9409557
_publ_section_title
;
Structure prediction by ZEFSAII (Michael W. Deem and Ramdas Pophale) SiO2 
 PCOD9409557
Probable space group: P N N A
;
_chemical_formula_sum "Si O2"
_cell_formula_units_Z 60
_cell_length_a 5.477605
_cell_length_b 26.693569
_cell_length_c 18.570778
_cell_angle_alpha 90.000000
_cell_angle_beta 90.000000
_cell_angle_gamma 90.000000
_cell_volume 2715.360234
_symmetry_space_group_name_H-M "P N N A"
_symmetry_group_IT_number 52
_symmetry_cell_setting 'orthorhombic'
loop_
_space_group_symop_operation_xyz
x,y,z
1/2-x,-y,z
x,1/2-y,1/2-z
1/2-x,1/2+y,1/2-z
-x,-y,-z
1/2+x,y,-z
-x,1/2+y,1/2+z
1/2+x,1/2-y,1/2+z
loop_
_atom_site_type_symbol
_atom_site_label
_atom_site_fract_x
_atom_site_fract_y
_atom_site_fract_z
Si Si1 0.187825 0.446150 0.274124
Si Si2 0.193697 0.070184 0.688218
Si Si3 0.964924 0.305739 0.971680
Si Si4 0.139980 0.750000 0.750000
Si Si5 0.054927 0.320488 0.817330
Si Si6 0.767144 0.944046 0.476351
Si Si7 0.200673 0.166915 0.185129
Si Si8 0.080842 0.308170 0.475772
O O1 0.250000 0.500000 0.310707
O O2 0.427502 0.438528 0.223634
O O3 0.164932 0.393381 0.316706
O O4 0.929950 0.449772 0.231195
O O5 0.216654 0.130007 0.679545
O O6 0.188405 0.050799 0.607681
O O7 0.890761 0.316316 0.888626
O O8 0.240546 0.325358 0.981149
O O9 0.013948 0.247729 0.995647
O O10 0.296194 0.730702 0.816919
O O11 0.996428 0.798692 0.774618
O O12 0.926443 0.323849 0.739370
O O13 0.506233 0.920011 0.490122
O O14 0.750000 0.000000 0.510448
O O15 0.192349 0.188020 0.104431
O O16 0.305269 0.331276 0.522537
#
# Coordination Sequence:
#
# PCOD9409557 Si02
#       8
#     8   8   8   4   8   8   8   8
#     4  11  23  43  67  95 129 168 221 282 338 389
#     4  11  23  41  60  96 124 166 213 278 338 383
#     4  10  23  39  58  87 129 180 217 263 329 390
#     4  12  22  40  64  92 142 164 220 278 324 408
#     4  11  26  39  65  96 136 174 228 268 332 403
#     4  10  20  34  55  82 114 162 212 259 318 383
#     4  11  26  41  69 102 135 182 228 279 337 403
#     4  10  23  41  63  92 132 177 217 263 335 404
#
# _framework density 22.096515
#
# number of rings (size 3 to 8) (size 9 to 14) (size 15 to 20)
#    0.000    1.333    1.333    4.000   11.200    2.133 
#    0.000    0.000    0.000    0.800    0.000    0.000 
#    0.000    0.000    0.000    0.000    0.000    0.000 
#
# Total GULP energy -334414.931231 kJ/mol
# GULP energy per Si atom -5573.582187 kJ/mol
# Density = 2.204622 g / cm^3
# Si number density = 22.096515 Si / 1000 Ang^3
#
#
#
# Elastic Constant Matrix: (Units=GPa)
#
#
# Indices 1 2 3 4 5 6 
#
# 1 135.5996 11.6303 15.6095 0.0000 0.0000 0.0000
# 2 11.6303 112.3299 14.4871 0.0000 0.0000 0.0000
# 3 15.6095 14.4871 84.8484 0.0000 0.0000 0.0000
# 4 0.0000 0.0000 0.0000 28.1295 0.0000 0.0000
# 5 0.0000 0.0000 0.0000 0.0000 27.0487 0.0000
# 6 0.0000 0.0000 0.0000 0.0000 0.0000 20.7853
#
#
#
# Elastic Compliance Matrix: (Units=1/GPa)
#
#
# Indices 1 2 3 4 5 6 
#
# 1 0.007576 -0.000618 -0.001288 0.000000 0.000000 0.000000
# 2 -0.000618 0.009153 -0.001449 0.000000 0.000000 0.000000
# 3 -0.001288 -0.001449 0.012270 0.000000 0.000000 0.000000
# 4 0.000000 0.000000 0.000000 0.035550 0.000000 0.000000
# 5 0.000000 0.000000 0.000000 0.000000 0.036970 0.000000
# 6 0.000000 0.000000 0.000000 0.000000 0.000000 0.048111
#
#
# Mechanical properties :
#
#
# Convention : Reuss Voigt Hill
#
# Bulk Modulus (GPa) = 44.86663 46.24796 45.55729
# Shear Modulus (GPa) = 30.53044 34.59610 32.56327
#
# Velocity S-wave (km/s) = 3.72114 3.96116 3.84302
# Velocity P-wave (km/s) = 6.22988 6.47275 6.35247
#
# Compressibility (1/GPa) = 0.02228828
#
# Stress axis : x y z
#
# Youngs Moduli (GPa) = 131.99628 109.25080 81.49872
#
# Poissons Ratio (x) = 0.06754 0.10499
# Poissons Ratio (y) = 0.08161 0.11810
# Poissons Ratio (z) = 0.17004 0.15831
#
# Static dielectric constant tensor:
#      x y z
#    x 1.945260 0.000000 0.000000 
#    y 0.000000 1.980390 0.000000 
#    z 0.000000 0.000000 1.822770 
# 
# From -- ./inp_files/30361.got.cif
#   From: 2010.05.17/outbox.cif.g08.bks.cpg/sg52_16_cif.got.tgz:30361.got - 2010.06.03 12:15:38.
