data_PCOD9409595
_publ_section_title
;
Structure prediction by ZEFSAII (Michael W. Deem and Ramdas Pophale) SiO2 
 PCOD9409595
Probable space group: P N N A
;
_chemical_formula_sum "Si O2"
_cell_formula_units_Z 48
_cell_length_a 28.645658
_cell_length_b 5.434979
_cell_length_c 14.583547
_cell_angle_alpha 90.000000
_cell_angle_beta 90.000000
_cell_angle_gamma 90.000000
_cell_volume 2270.491281
_symmetry_space_group_name_H-M "P N N A"
_symmetry_group_IT_number 52
_symmetry_cell_setting 'orthorhombic'
loop_
_space_group_symop_operation_xyz
x,y,z
1/2-x,-y,z
x,1/2-y,1/2-z
1/2-x,1/2+y,1/2-z
-x,-y,-z
1/2+x,y,-z
-x,1/2+y,1/2+z
1/2+x,1/2-y,1/2+z
loop_
_atom_site_type_symbol
_atom_site_label
_atom_site_fract_x
_atom_site_fract_y
_atom_site_fract_z
Si Si1 0.390271 0.485536 0.412984
Si Si2 0.061601 0.750000 0.250000
Si Si3 0.934839 0.319522 0.057181
Si Si4 0.750000 0.500000 0.189710
Si Si5 0.644817 0.000757 0.311338
Si Si6 0.696009 0.498167 0.691917
Si Si7 0.532430 0.372959 0.879269
O O1 0.405107 0.286292 0.336721
O O2 0.406622 0.406158 0.512781
O O3 0.336105 0.518370 0.397542
O O4 0.422402 0.703518 0.376809
O O5 0.029583 0.532570 0.212693
O O6 0.897971 0.474388 0.116939
O O7 0.982501 0.242471 0.107625
O O8 0.955395 0.466977 0.969849
O O9 0.749661 0.750000 0.250000
O O10 0.697711 0.496032 0.145083
O O11 0.640151 0.250000 0.250000
O O12 0.642173 0.750000 0.250000
O O13 0.750000 0.500000 0.666890
O O14 0.685816 0.250000 0.750000
O O15 0.688612 0.750000 0.750000
#
# Coordination Sequence:
#
# PCOD9409595 Si02
#       7
#     8   4   8   4   8   8   8
#     4  11  21  38  61  85 126 163 210 255 323 373
#     4  10  20  34  60  88 108 164 210 246 310 380
#     4  10  24  39  57  89 123 163 209 267 321 371
#     4   8  16  36  62  90 116 152 200 258 318 374
#     4  10  22  40  67  91 121 164 212 264 322 390
#     4  10  21  38  64  94 126 165 213 260 308 378
#     4  10  22  39  58  84 127 163 209 265 314 382
#
# _framework density 21.140799999999999
#
# number of rings (size 3 to 8) (size 9 to 14) (size 15 to 20)
#    0.000    2.000    0.833    2.000    5.833    1.333 
#    0.000    1.667    1.833    0.000    0.000    0.000 
#    0.000    0.000    0.000    0.000    0.000    0.000 
#
# Total GULP energy -267219.097259 kJ/mol
# GULP energy per Si atom -5567.064526 kJ/mol
# Density = 2.109268 g / cm^3
# Si number density = 21.140800 Si / 1000 Ang^3
#
#
#
# Elastic Constant Matrix: (Units=GPa)
#
#
# Indices 1 2 3 4 5 6 
#
# 1 130.6852 45.8813 42.4146 0.0000 0.0000 0.0000
# 2 45.8813 102.7532 24.4564 0.0000 0.0000 0.0000
# 3 42.4146 24.4564 52.6591 0.0000 0.0000 0.0000
# 4 0.0000 0.0000 0.0000 14.1460 0.0000 0.0000
# 5 0.0000 0.0000 0.0000 0.0000 22.9804 0.0000
# 6 0.0000 0.0000 0.0000 0.0000 0.0000 11.9759
#
#
#
# Elastic Compliance Matrix: (Units=1/GPa)
#
#
# Indices 1 2 3 4 5 6 
#
# 1 0.011233 -0.003218 -0.007553 0.000000 0.000000 0.000000
# 2 -0.003218 0.011863 -0.002918 0.000000 0.000000 0.000000
# 3 -0.007553 -0.002918 0.026429 0.000000 0.000000 0.000000
# 4 0.000000 0.000000 0.000000 0.070691 0.000000 0.000000
# 5 0.000000 0.000000 0.000000 0.000000 0.043515 0.000000
# 6 0.000000 0.000000 0.000000 0.000000 0.000000 0.083501
#
#
# Mechanical properties :
#
#
# Convention : Reuss Voigt Hill
#
# Bulk Modulus (GPa) = 45.15185 56.84467 50.99826
# Shear Modulus (GPa) = 17.73085 21.37680 19.55382
#
# Velocity S-wave (km/s) = 2.89918 3.18333 3.04457
# Velocity P-wave (km/s) = 5.71061 6.36069 6.04440
#
# Compressibility (1/GPa) = 0.02214749
#
# Stress axis : x y z
#
# Youngs Moduli (GPa) = 89.02139 84.29258 37.83728
#
# Poissons Ratio (x) = 0.27126 0.28580
# Poissons Ratio (y) = 0.28648 0.11040
# Poissons Ratio (z) = 0.67241 0.24594
#
# Static dielectric constant tensor:
#      x y z
#    x 1.832470 0.000000 0.000000 
#    y 0.000000 1.822080 0.000000 
#    z 0.000000 0.000000 1.852100 
# 
# From -- ./inp_files/29475.got.cif
#   From: 2010.05.17/outbox.cif.g08.bks.cpg/sg52_15_cif.got.tgz:29475.got - 2010.06.03 12:15:38.
