data_PCOD9409455
_publ_section_title
;
Structure prediction by ZEFSAII (Michael W. Deem and Ramdas Pophale) SiO2 
 PCOD9409455
Probable space group: P N N A
;
_chemical_formula_sum "Si O2"
_cell_formula_units_Z 52
_cell_length_a 20.483927
_cell_length_b 9.156482
_cell_length_c 14.418730
_cell_angle_alpha 90.000000
_cell_angle_beta 90.000000
_cell_angle_gamma 90.000000
_cell_volume 2704.387220
_symmetry_space_group_name_H-M "P N N A"
_symmetry_group_IT_number 52
_symmetry_cell_setting 'orthorhombic'
loop_
_space_group_symop_operation_xyz
x,y,z
1/2-x,-y,z
x,1/2-y,1/2-z
1/2-x,1/2+y,1/2-z
-x,-y,-z
1/2+x,y,-z
-x,1/2+y,1/2+z
1/2+x,1/2-y,1/2+z
loop_
_atom_site_type_symbol
_atom_site_label
_atom_site_fract_x
_atom_site_fract_y
_atom_site_fract_z
Si Si1 0.438851 0.344655 0.370999
Si Si2 0.093127 0.061137 0.580480
Si Si3 0.820631 0.150793 0.660871
Si Si4 0.098040 0.346804 0.339257
Si Si5 0.056585 0.250000 0.750000
Si Si6 0.807315 0.647380 0.931760
Si Si7 0.983754 0.273761 0.047622
O O1 0.394804 0.200831 0.356420
O O2 0.398766 0.480470 0.332370
O O3 0.506359 0.338045 0.315947
O O4 0.451095 0.345169 0.480413
O O5 0.094112 0.142317 0.679793
O O6 0.160758 0.078082 0.523878
O O7 0.037137 0.142107 0.517778
O O8 0.066760 0.895064 0.584283
O O9 0.799513 0.250000 0.750000
O O10 0.768551 0.186675 0.578991
O O11 0.818813 0.974521 0.650288
O O12 0.109071 0.250000 0.250000
O O13 0.150726 0.290161 0.412202
O O14 0.025963 0.304881 0.374733
#
# Coordination Sequence:
#
# PCOD9409455 Si02
#       7
#     8   8   8   8   4   8   8
#     4  11  20  33  52  80 114 144 184 233 294 352
#     4   9  17  34  55  78 109 144 191 232 286 349
#     4  11  21  35  55  78 113 149 194 236 285 366
#     4  11  21  31  49  77 111 145 186 232 285 348
#     4  10  20  32  58  86 108 146 188 236 292 348
#     4  10  22  37  52  78 110 153 192 233 289 353
#     4   9  18  31  51  75 109 146 176 232 289 343
#
# _framework density 19.228014000000002
#
# number of rings (size 3 to 8) (size 9 to 14) (size 15 to 20)
#    0.000    1.846    2.308    2.769    2.154    1.846 
#    0.000    0.000    0.000    0.000    2.000    6.462 
#    0.000    0.000    0.000    0.000    0.000    0.000 
#
# Total GULP energy -289557.471496 kJ/mol
# GULP energy per Si atom -5568.412913 kJ/mol
# Density = 1.918425 g / cm^3
# Si number density = 19.228014 Si / 1000 Ang^3
#
#
#
# Elastic Constant Matrix: (Units=GPa)
#
#
# Indices 1 2 3 4 5 6 
#
# 1 53.6697 -5.6512 29.0685 0.0000 0.0000 0.0000
# 2 -5.6512 66.3633 18.5769 0.0000 0.0000 0.0000
# 3 29.0685 18.5769 73.0807 0.0000 0.0000 0.0000
# 4 0.0000 0.0000 0.0000 26.9714 0.0000 0.0000
# 5 0.0000 0.0000 0.0000 0.0000 28.5467 0.0000
# 6 0.0000 0.0000 0.0000 0.0000 0.0000 18.5559
#
#
#
# Elastic Compliance Matrix: (Units=1/GPa)
#
#
# Indices 1 2 3 4 5 6 
#
# 1 0.025414 0.005376 -0.011475 0.000000 0.000000 0.000000
# 2 0.005376 0.017360 -0.006551 0.000000 0.000000 0.000000
# 3 -0.011475 -0.006551 0.019913 0.000000 0.000000 0.000000
# 4 0.000000 0.000000 0.000000 0.037076 0.000000 0.000000
# 5 0.000000 0.000000 0.000000 0.000000 0.035030 0.000000
# 6 0.000000 0.000000 0.000000 0.000000 0.000000 0.053891
#
#
# Mechanical properties :
#
#
# Convention : Reuss Voigt Hill
#
# Bulk Modulus (GPa) = 26.74745 30.78912 28.76829
# Shear Modulus (GPa) = 22.08012 24.88944 23.48478
#
# Velocity S-wave (km/s) = 3.39238 3.60173 3.49862
# Velocity P-wave (km/s) = 5.41158 5.77443 5.59595
#
# Compressibility (1/GPa) = 0.03738674
#
# Stress axis : x y z
#
# Youngs Moduli (GPa) = 39.34870 57.60263 50.21787
#
# Poissons Ratio (x) = -0.30969 0.57626
# Poissons Ratio (y) = -0.21155 0.32900
# Poissons Ratio (z) = 0.45154 0.37738
#
# Static dielectric constant tensor:
#      x y z
#    x 1.677730 0.000000 0.000000 
#    y 0.000000 1.687980 0.000000 
#    z 0.000000 0.000000 1.715430 
# 
# From -- ./inp_files/28694.got.cif
#   From: 2010.05.17/outbox.cif.g08.bks.cpg/sg52_15_cif.got.tgz:28694.got - 2010.06.03 12:15:38.
