data_PCOD9409935
_publ_section_title
;
Structure prediction by ZEFSAII (Michael W. Deem and Ramdas Pophale) SiO2 
 PCOD9409935
Probable space group: P N N A
;
_chemical_formula_sum "Si O2"
_cell_formula_units_Z 32
_cell_length_a 9.033864
_cell_length_b 19.916288
_cell_length_c 8.267023
_cell_angle_alpha 90.000000
_cell_angle_beta 90.000000
_cell_angle_gamma 90.000000
_cell_volume 1487.411353
_symmetry_space_group_name_H-M "P N N A"
_symmetry_group_IT_number 52
_symmetry_cell_setting 'orthorhombic'
loop_
_space_group_symop_operation_xyz
x,y,z
1/2-x,-y,z
x,1/2-y,1/2-z
1/2-x,1/2+y,1/2-z
-x,-y,-z
1/2+x,y,-z
-x,1/2+y,1/2+z
1/2+x,1/2-y,1/2+z
loop_
_atom_site_type_symbol
_atom_site_label
_atom_site_fract_x
_atom_site_fract_y
_atom_site_fract_z
Si Si1 0.680428 0.427711 0.785856
Si Si2 0.124103 0.052432 0.938326
Si Si3 0.090932 0.626277 0.947320
Si Si4 0.873504 0.674254 0.199247
O O1 0.750000 0.500000 0.767973
O O2 0.672824 0.405084 0.598755
O O3 0.513982 0.428158 0.858948
O O4 0.793626 0.395186 0.913424
O O5 0.080325 0.109062 0.807700
O O6 0.250000 0.000000 0.877654
O O7 0.000000 0.000000 0.000000
O O8 0.197808 0.662822 0.822068
O O9 0.967088 0.669855 0.034632
O O10 0.899965 0.750000 0.250000
#
# Coordination Sequence:
#
# PCOD9409935 Si02
#       4
#     8   8   8   8
#     4  10  20  37  62  92 127 165 210 267 328 389
#     4  11  23  40  63  93 126 168 217 272 327 392
#     4  10  23  39  60  92 126 169 216 269 331 400
#     4  11  25  44  65  93 131 176 223 276 340 409
#
# _framework density 21.513887
#
# number of rings (size 3 to 8) (size 9 to 14) (size 15 to 20)
#    0.000    1.500    0.000    5.250    0.000   12.000 
#    0.000    5.000    0.000    0.000    0.000    0.000 
#    0.000    0.000    0.000    0.000    0.000    0.000 
#
# Total GULP energy -178145.082299 kJ/mol
# GULP energy per Si atom -5567.033822 kJ/mol
# Density = 2.146492 g / cm^3
# Si number density = 21.513887 Si / 1000 Ang^3
#
#
#
# Elastic Constant Matrix: (Units=GPa)
#
#
# Indices 1 2 3 4 5 6 
#
# 1 112.8794 18.9136 6.8295 0.0000 0.0000 0.0000
# 2 18.9136 74.2600 21.7569 0.0000 0.0000 0.0000
# 3 6.8295 21.7569 50.0378 0.0000 0.0000 0.0000
# 4 0.0000 0.0000 0.0000 20.6768 0.0000 0.0000
# 5 0.0000 0.0000 0.0000 0.0000 41.8706 0.0000
# 6 0.0000 0.0000 0.0000 0.0000 0.0000 16.7375
#
#
#
# Elastic Compliance Matrix: (Units=1/GPa)
#
#
# Indices 1 2 3 4 5 6 
#
# 1 0.009257 -0.002278 -0.000273 0.000000 0.000000 0.000000
# 2 -0.002278 0.015993 -0.006643 0.000000 0.000000 0.000000
# 3 -0.000273 -0.006643 0.022911 0.000000 0.000000 0.000000
# 4 0.000000 0.000000 0.000000 0.048363 0.000000 0.000000
# 5 0.000000 0.000000 0.000000 0.000000 0.023883 0.000000
# 6 0.000000 0.000000 0.000000 0.000000 0.000000 0.059746
#
#
# Mechanical properties :
#
#
# Convention : Reuss Voigt Hill
#
# Bulk Modulus (GPa) = 33.58753 36.90855 35.24804
# Shear Modulus (GPa) = 23.98491 28.50213 26.24352
#
# Velocity S-wave (km/s) = 3.34257 3.64376 3.49641
# Velocity P-wave (km/s) = 5.52657 5.90725 5.72008
#
# Compressibility (1/GPa) = 0.02977295
#
# Stress axis : x y z
#
# Youngs Moduli (GPa) = 108.02419 62.52904 43.64805
#
# Poissons Ratio (x) = 0.14242 0.01192
# Poissons Ratio (y) = 0.24605 0.28995
# Poissons Ratio (z) = 0.02950 0.41537
#
# Static dielectric constant tensor:
#      x y z
#    x 1.826720 0.000000 0.000000 
#    y 0.000000 1.792360 0.000000 
#    z 0.000000 0.000000 1.900750 
# 
# From -- ./inp_files/7206.got.cif
#   From: 2010.05.17/outbox.cif.g08.bks.cpg/sg52_4_cif.got.tgz:7206.got - 2010.06.03 12:15:38.
