data_PCOD9409610
_publ_section_title
;
Structure prediction by ZEFSAII (Michael W. Deem and Ramdas Pophale) SiO2 
 PCOD9409610
Probable space group: P N N A
;
_chemical_formula_sum "Si O2"
_cell_formula_units_Z 40
_cell_length_a 31.911140
_cell_length_b 5.277543
_cell_length_c 13.914457
_cell_angle_alpha 90.000000
_cell_angle_beta 90.000000
_cell_angle_gamma 90.000000
_cell_volume 2343.367286
_symmetry_space_group_name_H-M "P N N A"
_symmetry_group_IT_number 52
_symmetry_cell_setting 'orthorhombic'
loop_
_space_group_symop_operation_xyz
x,y,z
1/2-x,-y,z
x,1/2-y,1/2-z
1/2-x,1/2+y,1/2-z
-x,-y,-z
1/2+x,y,-z
-x,1/2+y,1/2+z
1/2+x,1/2-y,1/2+z
loop_
_atom_site_type_symbol
_atom_site_label
_atom_site_fract_x
_atom_site_fract_y
_atom_site_fract_z
Si Si1 0.750000 0.500000 0.685405
Si Si2 0.986262 0.478131 0.387437
Si Si3 0.054544 0.250000 0.250000
Si Si4 0.887059 0.635144 0.911287
Si Si5 0.457520 0.973516 0.565028
Si Si6 0.160404 0.658544 0.361799
O O1 0.760164 0.750000 0.750000
O O2 0.791464 0.426774 0.627016
O O3 0.967387 0.747952 0.362901
O O4 0.000000 0.500000 0.500000
O O5 0.025378 0.408884 0.321359
O O6 0.954038 0.245130 0.385465
O O7 0.083746 0.417941 0.181814
O O8 0.853309 0.411029 0.917827
O O9 0.867731 0.914164 0.890934
O O10 0.918703 0.610808 0.000140
O O11 0.500000 0.000000 0.500000
O O12 0.157361 0.750000 0.250000
#
# Coordination Sequence:
#
# PCOD9409610 Si02
#       6
#     4   8   4   8   8   8
#     4  10  20  36  46  62  96 126 148 202 264 298
#     4  10  21  34  46  64  92 130 156 209 256 284
#     4  12  22  32  52  70  96 128 178 220 240 280
#     4  12  22  31  50  71  90 120 173 213 234 276
#     4  10  20  35  45  63  97 124 150 210 253 283
#     4  11  21  32  47  69  89 120 161 207 247 287
#
# _framework density 17.069452999999999
#
# number of rings (size 3 to 8) (size 9 to 14) (size 15 to 20)
#    0.000    1.200    6.000    3.600    2.800    2.400 
#    0.000    0.000    0.000    0.000    0.000    0.000 
#    0.000    0.000    0.000    0.000    0.000   56.000 
#
# Total GULP energy -222977.998993 kJ/mol
# GULP energy per Si atom -5574.449975 kJ/mol
# Density = 1.703060 g / cm^3
# Si number density = 17.069453 Si / 1000 Ang^3
#
#
#
# Elastic Constant Matrix: (Units=GPa)
#
#
# Indices 1 2 3 4 5 6 
#
# 1 93.5299 38.6243 23.3511 0.0000 0.0000 0.0000
# 2 38.6243 150.3941 15.2682 0.0000 0.0000 0.0000
# 3 23.3511 15.2682 37.9334 0.0000 0.0000 0.0000
# 4 0.0000 0.0000 0.0000 15.4469 0.0000 0.0000
# 5 0.0000 0.0000 0.0000 0.0000 20.2456 0.0000
# 6 0.0000 0.0000 0.0000 0.0000 0.0000 25.0215
#
#
#
# Elastic Compliance Matrix: (Units=1/GPa)
#
#
# Indices 1 2 3 4 5 6 
#
# 1 0.013655 -0.002767 -0.007292 0.000000 0.000000 0.000000
# 2 -0.002767 0.007493 -0.001313 0.000000 0.000000 0.000000
# 3 -0.007292 -0.001313 0.031379 0.000000 0.000000 0.000000
# 4 0.000000 0.000000 0.000000 0.064738 0.000000 0.000000
# 5 0.000000 0.000000 0.000000 0.000000 0.049393 0.000000
# 6 0.000000 0.000000 0.000000 0.000000 0.000000 0.039966
#
#
# Mechanical properties :
#
#
# Convention : Reuss Voigt Hill
#
# Bulk Modulus (GPa) = 33.57502 48.48271 41.02887
# Shear Modulus (GPa) = 20.89470 25.78373 23.33922
#
# Velocity S-wave (km/s) = 3.50251 3.89076 3.70173
# Velocity P-wave (km/s) = 6.00576 6.97487 6.50838
#
# Compressibility (1/GPa) = 0.02978405
#
# Stress axis : x y z
#
# Youngs Moduli (GPa) = 73.23421 133.45810 31.86808
#
# Poissons Ratio (x) = 0.36922 0.23239
# Poissons Ratio (y) = 0.20260 0.04184
# Poissons Ratio (z) = 0.53403 0.17522
#
# Static dielectric constant tensor:
#      x y z
#    x 1.511430 0.000000 0.000000 
#    y 0.000000 1.696030 0.000000 
#    z 0.000000 0.000000 1.563250 
# 
# From -- ./inp_files/29568.got.cif
#   From: 2010.05.17/outbox.cif.g08.bks.cpg/sg52_15_cif.got.tgz:29568.got - 2010.06.03 12:15:38.
