data_PCOD9409955
_publ_section_title
;
Structure prediction by ZEFSAII (Michael W. Deem and Ramdas Pophale) SiO2 
 PCOD9409955
Probable space group: P N N A
;
_chemical_formula_sum "Si O2"
_cell_formula_units_Z 32
_cell_length_a 14.594476
_cell_length_b 7.856231
_cell_length_c 10.908934
_cell_angle_alpha 90.000000
_cell_angle_beta 90.000000
_cell_angle_gamma 90.000000
_cell_volume 1250.791916
_symmetry_space_group_name_H-M "P N N A"
_symmetry_group_IT_number 52
_symmetry_cell_setting 'orthorhombic'
loop_
_space_group_symop_operation_xyz
x,y,z
1/2-x,-y,z
x,1/2-y,1/2-z
1/2-x,1/2+y,1/2-z
-x,-y,-z
1/2+x,y,-z
-x,1/2+y,1/2+z
1/2+x,1/2-y,1/2+z
loop_
_atom_site_type_symbol
_atom_site_label
_atom_site_fract_x
_atom_site_fract_y
_atom_site_fract_z
Si Si1 0.632031 0.610832 0.990569
Si Si2 0.806363 0.733310 0.109558
Si Si3 0.349604 0.551506 0.278723
Si Si4 0.991620 0.840343 0.116317
O O1 0.645099 0.544447 0.852531
O O2 0.538531 0.716107 0.983851
O O3 0.717109 0.729387 0.026706
O O4 0.643432 0.448685 0.080211
O O5 0.776956 0.750000 0.250000
O O6 0.885499 0.870701 0.086567
O O7 0.250000 0.500000 0.329566
O O8 0.353169 0.750000 0.250000
O O9 0.436933 0.489843 0.356446
O O10 0.985812 0.750000 0.250000
#
# Coordination Sequence:
#
# PCOD9409955 Si02
#       4
#     8   8   8   8
#     4  10  20  40  69  94 134 182 219 273 337 403
#     4  10  20  37  64  96 131 180 226 265 328 398
#     4  11  21  38  68 101 133 172 221 281 350 396
#     4   9  20  38  68 100 129 170 220 284 334 400
#
# _framework density 25.583791999999999
#
# number of rings (size 3 to 8) (size 9 to 14) (size 15 to 20)
#    0.000    2.000    2.500    3.000    0.000    0.000 
#    0.000    6.250    0.000   72.000    0.000    7.000 
#    0.000    0.000    0.000    0.000    0.000    0.000 
#
# Total GULP energy -179110.574818 kJ/mol
# GULP energy per Si atom -5597.205463 kJ/mol
# Density = 2.552556 g / cm^3
# Si number density = 25.583792 Si / 1000 Ang^3
#
#
#
# Elastic Constant Matrix: (Units=GPa)
#
#
# Indices 1 2 3 4 5 6 
#
# 1 155.8286 33.2626 12.7481 0.0000 0.0000 0.0000
# 2 33.2626 62.6595 33.2308 0.0000 0.0000 0.0000
# 3 12.7481 33.2308 123.6449 0.0000 0.0000 0.0000
# 4 0.0000 0.0000 0.0000 53.4918 0.0000 0.0000
# 5 0.0000 0.0000 0.0000 0.0000 -56.1929 0.0000
# 6 0.0000 0.0000 0.0000 0.0000 0.0000 14.0291
#
#
#
# Elastic Compliance Matrix: (Units=1/GPa)
#
#
# Indices 1 2 3 4 5 6 
#
# 1 0.007249 -0.004026 0.000335 0.000000 0.000000 0.000000
# 2 -0.004026 0.020848 -0.005188 0.000000 0.000000 0.000000
# 3 0.000335 -0.005188 0.009448 0.000000 0.000000 0.000000
# 4 0.000000 0.000000 0.000000 0.018694 0.000000 0.000000
# 5 0.000000 0.000000 0.000000 0.000000 -0.017796 0.000000
# 6 0.000000 0.000000 0.000000 0.000000 0.000000 0.071280
#
#
# Mechanical properties :
#
#
# Convention : Reuss Voigt Hill
#
# Bulk Modulus (GPa) = 50.54023 55.62402 53.08212
# Shear Modulus (GPa) = 37.29200 19.79171 28.54185
#
# Velocity S-wave (km/s) = 3.82205 2.78439 3.34372
# Velocity P-wave (km/s) = 6.26698 5.66800 5.97500
#
# Compressibility (1/GPa) = 0.01978622
#
# Stress axis : x y z
#
# Youngs Moduli (GPa) = 137.94551 47.96699 105.84805
#
# Poissons Ratio (x) = 0.19310 -0.03541
# Poissons Ratio (y) = 0.55532 0.54914
# Poissons Ratio (z) = -0.04615 0.24885
#
# Static dielectric constant tensor:
#      x y z
#    x 2.011450 0.000000 0.000000 
#    y 0.000000 2.048700 0.000000 
#    z 0.000000 0.000000 1.994580 
# 
# From -- ./inp_files/18987.got.cif
#   From: 2010.05.17/outbox.cif.g08.bks.cpg/sg52_10_cif.got.tgz:18987.got - 2010.06.03 12:15:38.
