data_PCOD9409202
_publ_section_title
;
Structure prediction by ZEFSAII (Michael W. Deem and Ramdas Pophale) SiO2 
 PCOD9409202
Probable space group: P N N A
;
_chemical_formula_sum "Si O2"
_cell_formula_units_Z 60
_cell_length_a 10.921947
_cell_length_b 18.402295
_cell_length_c 15.389644
_cell_angle_alpha 90.000000
_cell_angle_beta 90.000000
_cell_angle_gamma 90.000000
_cell_volume 3093.147475
_symmetry_space_group_name_H-M "P N N A"
_symmetry_group_IT_number 52
_symmetry_cell_setting 'orthorhombic'
loop_
_space_group_symop_operation_xyz
x,y,z
1/2-x,-y,z
x,1/2-y,1/2-z
1/2-x,1/2+y,1/2-z
-x,-y,-z
1/2+x,y,-z
-x,1/2+y,1/2+z
1/2+x,1/2-y,1/2+z
loop_
_atom_site_type_symbol
_atom_site_label
_atom_site_fract_x
_atom_site_fract_y
_atom_site_fract_z
Si Si1 0.072644 0.129518 0.444661
Si Si2 0.614015 0.526504 0.387040
Si Si3 0.357531 0.100522 0.430031
Si Si4 0.116206 0.291542 0.398744
Si Si5 0.608106 0.757667 0.850396
Si Si6 0.500357 0.615034 0.533224
Si Si7 0.250000 0.000000 0.285842
Si Si8 0.048000 0.396979 0.258509
O O1 0.215458 0.107724 0.464841
O O2 0.067665 0.217848 0.443801
O O3 0.047380 0.113863 0.343616
O O4 0.967008 0.089957 0.500655
O O5 0.750000 0.500000 0.379347
O O6 0.598996 0.588054 0.461605
O O7 0.535053 0.456888 0.415415
O O8 0.561151 0.556400 0.297428
O O9 0.397573 0.177777 0.390829
O O10 0.341845 0.043144 0.351218
O O11 0.249768 0.277220 0.361920
O O12 0.046734 0.323491 0.314853
O O13 0.107579 0.353755 0.471845
O O14 0.572890 0.750000 0.750000
O O15 0.538906 0.820705 0.902560
O O16 0.325324 0.942334 0.228795
#
# Coordination Sequence:
#
# PCOD9409202 Si02
#       8
#     8   8   8   8   8   8   4   8
#     4  10  20  41  60  90 114 162 208 253 314 357
#     4  10  22  40  56  91 125 159 198 243 318 378
#     4  10  22  38  61  85 123 156 210 261 307 376
#     4  10  19  37  61  87 119 153 203 246 309 361
#     4  11  21  35  61  92 117 156 204 262 302 360
#     4  10  21  37  63  85 120 162 195 251 310 376
#     4  10  22  40  58  90 118 158 218 256 306 356
#     4  10  22  36  61  86 119 160 196 255 294 378
#
# _framework density 19.397715999999999
#
# number of rings (size 3 to 8) (size 9 to 14) (size 15 to 20)
#    0.000    1.867    1.333    3.600    3.733    2.133 
#    6.000    0.000    0.000    0.000    0.000    0.000 
#    0.000    0.000    0.000    0.000    0.000    0.000 
#
# Total GULP energy -334391.953621 kJ/mol
# GULP energy per Si atom -5573.199227 kJ/mol
# Density = 1.935357 g / cm^3
# Si number density = 19.397716 Si / 1000 Ang^3
#
#
#
# Elastic Constant Matrix: (Units=GPa)
#
#
# Indices 1 2 3 4 5 6 
#
# 1 56.8746 2.7460 30.5594 0.0000 0.0000 0.0000
# 2 2.7460 73.0900 12.8590 0.0000 0.0000 0.0000
# 3 30.5594 12.8590 60.3052 0.0000 0.0000 0.0000
# 4 0.0000 0.0000 0.0000 31.3218 0.0000 0.0000
# 5 0.0000 0.0000 0.0000 0.0000 24.0981 0.0000
# 6 0.0000 0.0000 0.0000 0.0000 0.0000 27.2791
#
#
#
# Elastic Compliance Matrix: (Units=1/GPa)
#
#
# Indices 1 2 3 4 5 6 
#
# 1 0.024280 0.001301 -0.012581 0.000000 0.000000 0.000000
# 2 0.001301 0.014285 -0.003705 0.000000 0.000000 0.000000
# 3 -0.012581 -0.003705 0.023748 0.000000 0.000000 0.000000
# 4 0.000000 0.000000 0.000000 0.031927 0.000000 0.000000
# 5 0.000000 0.000000 0.000000 0.000000 0.041497 0.000000
# 6 0.000000 0.000000 0.000000 0.000000 0.000000 0.036658
#
#
# Mechanical properties :
#
#
# Convention : Reuss Voigt Hill
#
# Bulk Modulus (GPa) = 30.91969 31.39985 31.15977
# Shear Modulus (GPa) = 23.45819 26.14683 24.80251
#
# Velocity S-wave (km/s) = 3.48131 3.67540 3.57967
# Velocity P-wave (km/s) = 5.66867 5.85098 5.76055
#
# Compressibility (1/GPa) = 0.03234185
#
# Stress axis : x y z
#
# Youngs Moduli (GPa) = 41.18667 70.00461 42.10911
#
# Poissons Ratio (x) = -0.09109 0.52978
# Poissons Ratio (y) = -0.05359 0.15603
# Poissons Ratio (z) = 0.51817 0.25939
#
# Static dielectric constant tensor:
#      x y z
#    x 1.681510 0.000000 0.000000 
#    y 0.000000 1.723670 0.000000 
#    z 0.000000 0.000000 1.681610 
# 
# From -- ./inp_files/26326.got.cif
#   From: 2010.05.17/outbox.cif.g08.bks.cpg/sg52_14_cif.got.tgz:26326.got - 2010.06.03 12:15:38.
