data_PCOD9409531
_publ_section_title
;
Structure prediction by ZEFSAII (Michael W. Deem and Ramdas Pophale) SiO2 
 PCOD9409531
Probable space group: P N N A
;
_chemical_formula_sum "Si O2"
_cell_formula_units_Z 44
_cell_length_a 5.331684
_cell_length_b 16.547693
_cell_length_c 20.723683
_cell_angle_alpha 90.000000
_cell_angle_beta 90.000000
_cell_angle_gamma 90.000000
_cell_volume 1828.389831
_symmetry_space_group_name_H-M "P N N A"
_symmetry_group_IT_number 52
_symmetry_cell_setting 'orthorhombic'
loop_
_space_group_symop_operation_xyz
x,y,z
1/2-x,-y,z
x,1/2-y,1/2-z
1/2-x,1/2+y,1/2-z
-x,-y,-z
1/2+x,y,-z
-x,1/2+y,1/2+z
1/2+x,1/2-y,1/2+z
loop_
_atom_site_type_symbol
_atom_site_label
_atom_site_fract_x
_atom_site_fract_y
_atom_site_fract_z
Si Si1 0.750000 0.000000 0.540174
Si Si2 0.319407 0.406589 0.386009
Si Si3 0.136989 0.890793 0.267727
Si Si4 0.979632 0.637340 0.884839
Si Si5 0.341458 0.191126 0.890948
Si Si6 0.250000 0.000000 0.670369
Si Si7 0.243271 0.250000 0.750000
O O1 0.768921 0.915580 0.579347
O O2 0.500000 0.000000 0.500000
O O3 0.250000 0.500000 0.402051
O O4 0.311220 0.399750 0.307900
O O5 0.583561 0.359872 0.403325
O O6 0.082171 0.358571 0.413080
O O7 0.364579 0.858760 0.311981
O O8 0.934762 0.819946 0.277618
O O9 0.990833 0.973102 0.288338
O O10 0.095608 0.717840 0.914879
O O11 0.199843 0.574219 0.875580
O O12 0.358902 0.207287 0.813138
#
# Coordination Sequence:
#
# PCOD9409531 Si02
#       7
#     4   8   8   8   8   4   4
#     4  12  29  46  68  94 124 158 210 286 334 389
#     4  11  24  37  55  87 129 162 212 254 302 346
#     4  11  22  34  54  83 116 172 210 262 294 365
#     4  12  23  41  61  84 120 161 217 254 330 383
#     4  11  23  37  58  82 117 169 205 259 302 372
#     4  12  21  34  56  82 112 168 214 252 298 367
#     4  10  20  34  52  82 120 150 226 258 288 332
#
# _framework density 24.064889000000001
#
# number of rings (size 3 to 8) (size 9 to 14) (size 15 to 20)
#    0.000    0.727    3.636    5.455    7.636    0.727 
#    0.000    0.000    0.000    0.000    0.000    0.000 
#    0.000   14.545    0.000    0.000    0.000    0.000 
#
# Total GULP energy -245412.348829 kJ/mol
# GULP energy per Si atom -5577.553382 kJ/mol
# Density = 2.401012 g / cm^3
# Si number density = 24.064889 Si / 1000 Ang^3
#
#
#
# Elastic Constant Matrix: (Units=GPa)
#
#
# Indices 1 2 3 4 5 6 
#
# 1 164.5784 78.3590 6.2231 0.0000 0.0000 0.0000
# 2 78.3590 211.8643 -6.5250 0.0000 0.0000 0.0000
# 3 6.2231 -6.5250 8.3256 0.0000 0.0000 0.0000
# 4 0.0000 0.0000 0.0000 5.3300 0.0000 0.0000
# 5 0.0000 0.0000 0.0000 0.0000 9.2533 0.0000
# 6 0.0000 0.0000 0.0000 0.0000 0.0000 54.9290
#
#
#
# Elastic Compliance Matrix: (Units=1/GPa)
#
#
# Indices 1 2 3 4 5 6 
#
# 1 0.007910 -0.003185 -0.008409 0.000000 0.000000 0.000000
# 2 -0.003185 0.006119 0.007176 0.000000 0.000000 0.000000
# 3 -0.008409 0.007176 0.132020 0.000000 0.000000 0.000000
# 4 0.000000 0.000000 0.000000 0.187618 0.000000 0.000000
# 5 0.000000 0.000000 0.000000 0.000000 0.108070 0.000000
# 6 0.000000 0.000000 0.000000 0.000000 0.000000 0.018205
#
#
# Mechanical properties :
#
#
# Convention : Reuss Voigt Hill
#
# Bulk Modulus (GPa) = 7.28786 60.09805 33.69296
# Shear Modulus (GPa) = 9.71789 34.34987 22.03388
#
# Velocity S-wave (km/s) = 2.01171 3.78217 3.02918
# Velocity P-wave (km/s) = 2.90361 6.64083 5.12502
#
# Compressibility (1/GPa) = 0.13721442
#
# Stress axis : x y z
#
# Youngs Moduli (GPa) = 126.41664 163.42905 7.57462
#
# Poissons Ratio (x) = 0.52046 0.06369
# Poissons Ratio (y) = 0.40259 -0.05435
# Poissons Ratio (z) = 1.06298 -1.17275
#
# Static dielectric constant tensor:
#      x y z
#    x 2.000260 0.000000 0.000000 
#    y 0.000000 2.133770 0.000000 
#    z 0.000000 0.000000 1.995910 
# 
# From -- ./inp_files/41658.got.cif
#   From: 2010.05.17/outbox.cif.g08.bks.cpg/sg52_21_cif.got.tgz:41658.got - 2010.06.03 12:15:38.
