data_PCOD9409467
_publ_section_title
;
Structure prediction by ZEFSAII (Michael W. Deem and Ramdas Pophale) SiO2 
 PCOD9409467
Probable space group: P N N A
;
_chemical_formula_sum "Si O2"
_cell_formula_units_Z 64
_cell_length_a 5.557586
_cell_length_b 25.358772
_cell_length_c 27.074574
_cell_angle_alpha 90.000000
_cell_angle_beta 90.000000
_cell_angle_gamma 90.000000
_cell_volume 3815.715998
_symmetry_space_group_name_H-M "P N N A"
_symmetry_group_IT_number 52
_symmetry_cell_setting 'orthorhombic'
loop_
_space_group_symop_operation_xyz
x,y,z
1/2-x,-y,z
x,1/2-y,1/2-z
1/2-x,1/2+y,1/2-z
-x,-y,-z
1/2+x,y,-z
-x,1/2+y,1/2+z
1/2+x,1/2-y,1/2+z
loop_
_atom_site_type_symbol
_atom_site_label
_atom_site_fract_x
_atom_site_fract_y
_atom_site_fract_z
Si Si1 0.764869 0.945600 0.272094
Si Si2 0.128654 0.425836 0.975931
Si Si3 0.431577 0.048637 0.371610
Si Si4 0.092040 0.194742 0.486316
Si Si5 0.981274 0.288006 0.126132
Si Si6 0.113071 0.119798 0.315330
Si Si7 0.506529 0.836252 0.752838
Si Si8 0.503113 0.250352 0.332224
O O1 0.507045 0.931930 0.294402
O O2 0.927673 0.957146 0.320243
O O3 0.856945 0.890868 0.248447
O O4 0.750000 0.000000 0.242144
O O5 0.098276 0.440823 0.918753
O O6 0.884615 0.444887 0.003223
O O7 0.123200 0.362493 0.987075
O O8 0.287334 0.102400 0.359679
O O9 0.250000 0.000000 0.381073
O O10 0.854784 0.220877 0.509700
O O11 0.027433 0.192495 0.428952
O O12 0.935535 0.339755 0.159284
O O13 0.236953 0.263319 0.145638
O O14 0.736358 0.254185 0.132125
O O15 0.235066 0.146602 0.268343
O O16 0.443731 0.792218 0.711489
O O17 0.506335 0.806604 0.804732
#
# Coordination Sequence:
#
# PCOD9409467 Si02
#       8
#     8   8   8   8   8   8   8   8
#     4  11  21  34  55  73 100 138 179 217 265 311
#     4  10  23  36  50  66  89 125 167 224 277 318
#     4  11  23  35  49  70  95 132 181 231 268 314
#     4  10  20  33  50  71  97 128 169 215 260 320
#     4  11  21  34  55  75  99 131 173 216 270 317
#     4  10  20  34  50  72  97 131 167 219 263 310
#     4   9  21  33  51  76 104 128 166 220 266 321
#     4  10  21  35  54  79 101 131 168 216 275 318
#
# _framework density 16.772738
#
# number of rings (size 3 to 8) (size 9 to 14) (size 15 to 20)
#    0.000    1.750    2.500    2.250    7.000    1.500 
#    0.000    0.000    0.000    0.000    0.000    0.000 
#    0.000    0.000    0.000    0.000    0.000   12.500 
#
# Total GULP energy -356439.193216 kJ/mol
# GULP energy per Si atom -5569.362394 kJ/mol
# Density = 1.673456 g / cm^3
# Si number density = 16.772738 Si / 1000 Ang^3
#
#
#
# Elastic Constant Matrix: (Units=GPa)
#
#
# Indices 1 2 3 4 5 6 
#
# 1 73.8342 14.0794 14.8440 0.0000 0.0000 0.0000
# 2 14.0794 81.4532 30.1753 0.0000 0.0000 0.0000
# 3 14.8440 30.1753 35.6271 0.0000 0.0000 0.0000
# 4 0.0000 0.0000 0.0000 174.5060 0.0000 0.0000
# 5 0.0000 0.0000 0.0000 0.0000 25.6698 0.0000
# 6 0.0000 0.0000 0.0000 0.0000 0.0000 9.6676
#
#
#
# Elastic Compliance Matrix: (Units=1/GPa)
#
#
# Indices 1 2 3 4 5 6 
#
# 1 0.014791 -0.000399 -0.005825 0.000000 0.000000 0.000000
# 2 -0.000399 0.017901 -0.014996 0.000000 0.000000 0.000000
# 3 -0.005825 -0.014996 0.043196 0.000000 0.000000 0.000000
# 4 0.000000 0.000000 0.000000 0.005730 0.000000 0.000000
# 5 0.000000 0.000000 0.000000 0.000000 0.038956 0.000000
# 6 0.000000 0.000000 0.000000 0.000000 0.000000 0.103438
#
#
# Mechanical properties :
#
#
# Convention : Reuss Voigt Hill
#
# Bulk Modulus (GPa) = 29.89552 34.34577 32.12064
# Shear Modulus (GPa) = 18.01136 50.75640 34.38388
#
# Velocity S-wave (km/s) = 3.28052 5.50699 4.53259
# Velocity P-wave (km/s) = 5.67553 7.80753 6.82529
#
# Compressibility (1/GPa) = 0.03344983
#
# Stress axis : x y z
#
# Youngs Moduli (GPa) = 67.60889 55.86194 23.15003
#
# Poissons Ratio (x) = 0.02227 0.13485
# Poissons Ratio (y) = 0.02696 0.34715
# Poissons Ratio (z) = 0.39382 0.83769
#
# Static dielectric constant tensor:
#      x y z
#    x 1.722060 0.000000 0.000000 
#    y 0.000000 1.584580 0.000000 
#    z 0.000000 0.000000 1.561570 
# 
# From -- ./inp_files/38928.got.cif
#   From: 2010.05.17/outbox.cif.g08.bks.cpg/sg52_20_cif.got.tgz:38928.got - 2010.06.03 12:15:38.
