data_PCOD9409925
_publ_section_title
;
Structure prediction by ZEFSAII (Michael W. Deem and Ramdas Pophale) SiO2 
 PCOD9409925
Probable space group: P N N A
;
_chemical_formula_sum "Si O2"
_cell_formula_units_Z 48
_cell_length_a 33.046102
_cell_length_b 8.564840
_cell_length_c 8.831159
_cell_angle_alpha 90.000000
_cell_angle_beta 90.000000
_cell_angle_gamma 90.000000
_cell_volume 2499.523345
_symmetry_space_group_name_H-M "P N N A"
_symmetry_group_IT_number 52
_symmetry_cell_setting 'orthorhombic'
loop_
_space_group_symop_operation_xyz
x,y,z
1/2-x,-y,z
x,1/2-y,1/2-z
1/2-x,1/2+y,1/2-z
-x,-y,-z
1/2+x,y,-z
-x,1/2+y,1/2+z
1/2+x,1/2-y,1/2+z
loop_
_atom_site_type_symbol
_atom_site_label
_atom_site_fract_x
_atom_site_fract_y
_atom_site_fract_z
Si Si1 0.250657 0.685339 0.582124
Si Si2 0.417051 0.313432 0.077950
Si Si3 0.828876 0.186459 0.579208
Si Si4 0.419337 0.812957 0.421141
Si Si5 0.330219 0.812062 0.420803
Si Si6 0.999355 0.820934 0.071750
O O1 0.250000 0.500000 0.579933
O O2 0.250635 0.750000 0.750000
O O3 0.210211 0.747655 0.502839
O O4 0.291736 0.743263 0.504402
O O5 0.415255 0.250000 0.250000
O O6 0.373050 0.269977 0.010594
O O7 0.420609 0.499789 0.082330
O O8 0.458148 0.246548 0.008398
O O9 0.827777 0.250000 0.750000
O O10 0.827073 0.999115 0.580482
O O11 0.421649 0.750000 0.250000
O O12 0.374799 0.767795 0.483683
O O13 0.457759 0.748788 0.509125
O O14 0.329260 0.750000 0.250000
O O15 0.999860 0.750000 0.250000
O O16 0.000000 0.000000 0.000000
#
# Coordination Sequence:
#
# PCOD9409925 Si02
#       6
#     8   8   8   8   8   8
#     4  12  25  40  58  82 116 152 189 241 299 354
#     4   9  19  36  59  86 116 152 195 243 291 348
#     4  10  20  38  62  85 113 151 196 240 286 345
#     4  10  20  37  62  89 119 155 199 247 296 353
#     4  10  21  38  61  89 117 152 197 241 288 349
#     4  11  23  39  60  89 125 162 202 250 305 365
#
# _framework density 19.203662000000001
#
# number of rings (size 3 to 8) (size 9 to 14) (size 15 to 20)
#    0.000    1.667    0.000    5.500    0.000    4.667 
#    0.000    4.167    0.000    0.000    0.000    0.000 
#    0.000    0.000    0.000    0.000    0.000    0.000 
#
# Total GULP energy -267410.422523 kJ/mol
# GULP energy per Si atom -5571.050469 kJ/mol
# Density = 1.915995 g / cm^3
# Si number density = 19.203662 Si / 1000 Ang^3
#
#
#
# Elastic Constant Matrix: (Units=GPa)
#
#
# Indices 1 2 3 4 5 6 
#
# 1 264.8961 97.0502 77.9230 0.0000 0.0000 0.0000
# 2 97.0502 121.2729 34.2803 0.0000 0.0000 0.0000
# 3 77.9230 34.2803 60.6274 0.0000 0.0000 0.0000
# 4 0.0000 0.0000 0.0000 29.8963 0.0000 0.0000
# 5 0.0000 0.0000 0.0000 0.0000 27.5792 0.0000
# 6 0.0000 0.0000 0.0000 0.0000 0.0000 46.3542
#
#
#
# Elastic Compliance Matrix: (Units=1/GPa)
#
#
# Indices 1 2 3 4 5 6 
#
# 1 0.007289 -0.003791 -0.007225 0.000000 0.000000 0.000000
# 2 -0.003791 0.011786 -0.001792 0.000000 0.000000 0.000000
# 3 -0.007225 -0.001792 0.026794 0.000000 0.000000 0.000000
# 4 0.000000 0.000000 0.000000 0.033449 0.000000 0.000000
# 5 0.000000 0.000000 0.000000 0.000000 0.036259 0.000000
# 6 0.000000 0.000000 0.000000 0.000000 0.000000 0.021573
#
#
# Mechanical properties :
#
#
# Convention : Reuss Voigt Hill
#
# Bulk Modulus (GPa) = 49.37468 96.14480 72.75974
# Shear Modulus (GPa) = 29.49538 36.60211 33.04875
#
# Velocity S-wave (km/s) = 3.92334 4.37051 4.15295
# Velocity P-wave (km/s) = 6.80370 8.69730 7.80812
#
# Compressibility (1/GPa) = 0.02025330
#
# Stress axis : x y z
#
# Youngs Moduli (GPa) = 137.18435 84.84528 37.32197
#
# Poissons Ratio (x) = 0.32165 0.26967
# Poissons Ratio (y) = 0.52008 0.06687
# Poissons Ratio (z) = 0.99121 0.15201
#
# Static dielectric constant tensor:
#      x y z
#    x 1.706240 0.000000 0.000000 
#    y 0.000000 1.661330 0.000000 
#    z 0.000000 0.000000 1.665550 
# 
# From -- ./inp_files/15518.got.cif
#   From: 2010.05.17/outbox.cif.g08.bks.cpg/sg52_8_cif.got.tgz:15518.got - 2010.06.03 12:15:38.
