data_PCOD9409556
_publ_section_title
;
Structure prediction by ZEFSAII (Michael W. Deem and Ramdas Pophale) SiO2 
 PCOD9409556
Probable space group: P N N A
;
_chemical_formula_sum "Si O2"
_cell_formula_units_Z 32
_cell_length_a 22.565918
_cell_length_b 8.547038
_cell_length_c 7.154905
_cell_angle_alpha 90.000000
_cell_angle_beta 90.000000
_cell_angle_gamma 90.000000
_cell_volume 1379.979110
_symmetry_space_group_name_H-M "P N N A"
_symmetry_group_IT_number 52
_symmetry_cell_setting 'orthorhombic'
loop_
_space_group_symop_operation_xyz
x,y,z
1/2-x,-y,z
x,1/2-y,1/2-z
1/2-x,1/2+y,1/2-z
-x,-y,-z
1/2+x,y,-z
-x,1/2+y,1/2+z
1/2+x,1/2-y,1/2+z
loop_
_atom_site_type_symbol
_atom_site_label
_atom_site_fract_x
_atom_site_fract_y
_atom_site_fract_z
Si Si1 0.188181 0.934252 0.287266
Si Si2 0.564404 0.066657 0.719556
Si Si3 0.059298 0.436404 0.776811
Si Si4 0.687944 0.062232 0.281443
O O1 0.190139 0.750000 0.250000
O O2 0.250000 0.000000 0.209235
O O3 0.125284 0.992468 0.208881
O O4 0.187727 0.000237 0.502511
O O5 0.569149 0.250000 0.750000
O O6 0.561667 0.031983 0.498506
O O7 0.501271 0.010101 0.796765
O O8 0.055535 0.250000 0.750000
O O9 0.123716 0.491337 0.704754
O O10 0.688722 0.250000 0.250000
O O11 0.750000 0.000000 0.202995
#
# Coordination Sequence:
#
# PCOD9409556 Si02
#       4
#     8   8   8   8
#     4  10  20  37  59  84 114 149 191 239 290 345
#     4  10  20  34  55  82 110 145 190 237 285 340
#     4   9  19  36  53  75 111 148 186 232 283 342
#     4   9  19  37  58  82 114 153 193 237 291 348
#
# _framework density 23.188756999999999
#
# number of rings (size 3 to 8) (size 9 to 14) (size 15 to 20)
#    0.000    2.500    0.000    1.500    0.000    2.000 
#    0.000   20.000    0.000    0.000    0.000    0.000 
#    0.000    0.000    0.000    0.000    0.000    0.000 
#
# Total GULP energy -178444.346184 kJ/mol
# GULP energy per Si atom -5576.385818 kJ/mol
# Density = 2.313598 g / cm^3
# Si number density = 23.188757 Si / 1000 Ang^3
#
#
#
# Elastic Constant Matrix: (Units=GPa)
#
#
# Indices 1 2 3 4 5 6 
#
# 1 347.0965 112.3104 22.9047 0.0000 0.0000 0.0000
# 2 112.3104 119.1955 15.8702 0.0000 0.0000 0.0000
# 3 22.9047 15.8702 144.4748 0.0000 0.0000 0.0000
# 4 0.0000 0.0000 0.0000 27.1188 0.0000 0.0000
# 5 0.0000 0.0000 0.0000 0.0000 -58.9307 0.0000
# 6 0.0000 0.0000 0.0000 0.0000 0.0000 52.5267
#
#
#
# Elastic Compliance Matrix: (Units=1/GPa)
#
#
# Indices 1 2 3 4 5 6 
#
# 1 0.004152 -0.003882 -0.000232 0.000000 0.000000 0.000000
# 2 -0.003882 0.012143 -0.000718 0.000000 0.000000 0.000000
# 3 -0.000232 -0.000718 0.007037 0.000000 0.000000 0.000000
# 4 0.000000 0.000000 0.000000 0.036875 0.000000 0.000000
# 5 0.000000 0.000000 0.000000 0.000000 -0.016969 0.000000
# 6 0.000000 0.000000 0.000000 0.000000 0.000000 0.019038
#
#
# Mechanical properties :
#
#
# Convention : Reuss Voigt Hill
#
# Bulk Modulus (GPa) = 73.16189 101.43749 87.29969
# Shear Modulus (GPa) = 65.36295 34.78839 50.07567
#
# Velocity S-wave (km/s) = 5.31494 3.87748 4.65206
# Velocity P-wave (km/s) = 8.32369 7.99285 8.15995
#
# Compressibility (1/GPa) = 0.01366832
#
# Stress axis : x y z
#
# Youngs Moduli (GPa) = 240.82935 82.35457 142.09978
#
# Poissons Ratio (x) = 0.31967 0.03296
# Poissons Ratio (y) = 0.93480 0.10209
# Poissons Ratio (z) = 0.05585 0.05917
#
# Static dielectric constant tensor:
#      x y z
#    x 1.914580 0.000000 0.000000 
#    y 0.000000 1.767700 0.000000 
#    z 0.000000 0.000000 1.885920 
# 
# From -- ./inp_files/12815.got.cif
#   From: 2010.05.17/outbox.cif.g08.bks.cpg/sg52_7_cif.got.tgz:12815.got - 2010.06.03 12:15:38.
