data_PCOD9409762
_publ_section_title
;
Structure prediction by ZEFSAII (Michael W. Deem and Ramdas Pophale) SiO2 
 PCOD9409762
Probable space group: P N N A
;
_chemical_formula_sum "Si O2"
_cell_formula_units_Z 64
_cell_length_a 25.168008
_cell_length_b 27.295759
_cell_length_c 4.961998
_cell_angle_alpha 90.000000
_cell_angle_beta 90.000000
_cell_angle_gamma 90.000000
_cell_volume 3408.792795
_symmetry_space_group_name_H-M "P N N A"
_symmetry_group_IT_number 52
_symmetry_cell_setting 'orthorhombic'
loop_
_space_group_symop_operation_xyz
x,y,z
1/2-x,-y,z
x,1/2-y,1/2-z
1/2-x,1/2+y,1/2-z
-x,-y,-z
1/2+x,y,-z
-x,1/2+y,1/2+z
1/2+x,1/2-y,1/2+z
loop_
_atom_site_type_symbol
_atom_site_label
_atom_site_fract_x
_atom_site_fract_y
_atom_site_fract_z
Si Si1 0.161367 0.518609 0.159503
Si Si2 0.562870 0.546270 0.514996
Si Si3 0.891884 0.807174 0.273441
Si Si4 0.265353 0.926457 0.402421
Si Si5 0.508541 0.597685 0.018468
Si Si6 0.820478 0.889085 0.075482
Si Si7 0.586974 0.456687 0.241177
Si Si8 0.461040 0.808062 0.232585
O O1 0.124447 0.539737 0.394977
O O2 0.203508 0.560681 0.086664
O O3 0.200838 0.472891 0.212949
O O4 0.121721 0.494781 0.937610
O O5 0.543764 0.571319 0.242874
O O6 0.552166 0.488411 0.449427
O O7 0.537515 0.580895 0.743902
O O8 0.882149 0.750000 0.250000
O O9 0.841814 0.837773 0.181863
O O10 0.909248 0.815680 0.579698
O O11 0.941911 0.818897 0.072184
O O12 0.283901 0.914798 0.701700
O O13 0.287686 0.885789 0.199008
O O14 0.501077 0.652929 0.132295
O O15 0.450014 0.574432 0.960838
O O16 0.874405 0.921863 0.087368
O O17 0.476117 0.750000 0.250000
#
# Coordination Sequence:
#
# PCOD9409762 Si02
#       8
#     8   8   8   8   8   8   8   8
#     4  10  23  38  53  78 112 151 196 230 273 313
#     4  12  24  37  53  83 116 156 193 234 268 336
#     4  10  20  36  59  84 114 143 180 232 294 343
#     4  10  23  36  57  76 109 151 192 233 271 333
#     4  12  25  35  57  83 115 156 192 224 291 339
#     4  11  21  35  58  83 109 150 187 226 284 336
#     4  11  23  37  56  78 123 153 192 226 275 338
#     4  10  21  38  58  82 112 149 187 234 279 342
#
# _framework density 18.774974
#
# number of rings (size 3 to 8) (size 9 to 14) (size 15 to 20)
#    0.000    1.250    3.750    2.250    5.250    1.000 
#    0.000    0.000    0.000    0.000    0.000    5.250 
#    0.000    0.000    0.000    0.000    0.000    0.000 
#
# Total GULP energy -356504.928928 kJ/mol
# GULP energy per Si atom -5570.389515 kJ/mol
# Density = 1.873224 g / cm^3
# Si number density = 18.774974 Si / 1000 Ang^3
#
#
#
# Elastic Constant Matrix: (Units=GPa)
#
#
# Indices 1 2 3 4 5 6 
#
# 1 68.4545 25.4807 16.0525 0.0000 0.0000 0.0000
# 2 25.4807 79.4060 6.6772 0.0000 0.0000 0.0000
# 3 16.0525 6.6772 61.5111 0.0000 0.0000 0.0000
# 4 0.0000 0.0000 0.0000 25.5459 0.0000 0.0000
# 5 0.0000 0.0000 0.0000 0.0000 14.6015 0.0000
# 6 0.0000 0.0000 0.0000 0.0000 0.0000 15.2712
#
#
#
# Elastic Compliance Matrix: (Units=1/GPa)
#
#
# Indices 1 2 3 4 5 6 
#
# 1 0.017512 -0.005283 -0.003997 0.000000 0.000000 0.000000
# 2 -0.005283 0.014304 -0.000174 0.000000 0.000000 0.000000
# 3 -0.003997 -0.000174 0.017319 0.000000 0.000000 0.000000
# 4 0.000000 0.000000 0.000000 0.039145 0.000000 0.000000
# 5 0.000000 0.000000 0.000000 0.000000 0.068486 0.000000
# 6 0.000000 0.000000 0.000000 0.000000 0.000000 0.065483
#
#
# Mechanical properties :
#
#
# Convention : Reuss Voigt Hill
#
# Bulk Modulus (GPa) = 33.08307 33.97694 33.53000
# Shear Modulus (GPa) = 19.90189 21.82779 20.86484
#
# Velocity S-wave (km/s) = 3.25933 3.41339 3.33725
# Velocity P-wave (km/s) = 5.64122 5.80269 5.72253
#
# Compressibility (1/GPa) = 0.03022694
#
# Stress axis : x y z
#
# Youngs Moduli (GPa) = 57.10351 69.91289 57.73975
#
# Poissons Ratio (x) = 0.36938 0.23076
# Poissons Ratio (y) = 0.30170 0.01004
# Poissons Ratio (z) = 0.22822 0.01216
#
# Static dielectric constant tensor:
#      x y z
#    x 1.675960 0.000000 0.000000 
#    y 0.000000 1.700860 0.000000 
#    z 0.000000 0.000000 1.698120 
# 
# From -- ./inp_files/5356.got.cif
#   From: 2010.05.17/outbox.cif.g08.bks.cpg/sg52_3_cif.got.tgz:5356.got - 2010.06.03 12:15:38.
