data_PCOD9409476
_publ_section_title
;
Structure prediction by ZEFSAII (Michael W. Deem and Ramdas Pophale) SiO2 
 PCOD9409476
Probable space group: P N N A
;
_chemical_formula_sum "Si O2"
_cell_formula_units_Z 48
_cell_length_a 8.465751
_cell_length_b 26.015122
_cell_length_c 11.392510
_cell_angle_alpha 90.000000
_cell_angle_beta 90.000000
_cell_angle_gamma 90.000000
_cell_volume 2509.058435
_symmetry_space_group_name_H-M "P N N A"
_symmetry_group_IT_number 52
_symmetry_cell_setting 'orthorhombic'
loop_
_space_group_symop_operation_xyz
x,y,z
1/2-x,-y,z
x,1/2-y,1/2-z
1/2-x,1/2+y,1/2-z
-x,-y,-z
1/2+x,y,-z
-x,1/2+y,1/2+z
1/2+x,1/2-y,1/2+z
loop_
_atom_site_type_symbol
_atom_site_label
_atom_site_fract_x
_atom_site_fract_y
_atom_site_fract_z
Si Si1 0.068533 0.110316 0.622708
Si Si2 0.508675 0.303256 0.677486
Si Si3 0.439477 0.498008 0.134603
Si Si4 0.723351 0.270811 0.472106
Si Si5 0.430511 0.283181 0.144709
Si Si6 0.946583 0.107097 0.354248
O O1 0.257211 0.112774 0.635850
O O2 0.003888 0.057006 0.676065
O O3 0.978026 0.159330 0.675676
O O4 0.023654 0.112223 0.483856
O O5 0.509215 0.250000 0.750000
O O6 0.642314 0.302160 0.577374
O O7 0.344527 0.302962 0.605250
O O8 0.514824 0.349635 0.768569
O O9 0.250000 0.500000 0.136836
O O10 0.510368 0.549730 0.189859
O O11 0.500000 0.500000 0.000000
O O12 0.588712 0.246548 0.392597
O O13 0.816432 0.223463 0.533403
O O14 0.360428 0.250000 0.250000
#
# Coordination Sequence:
#
# PCOD9409476 Si02
#       6
#     8   8   8   8   8   8
#     4  11  20  33  54  82 116 146 183 231 280 343
#     4  11  22  37  57  82 115 154 189 230 283 334
#     4  10  20  33  51  79 114 146 180 226 283 342
#     4  10  22  36  51  81 115 144 188 229 267 331
#     4  11  21  34  53  78 107 143 178 220 274 325
#     4  11  21  35  56  82 115 151 184 226 286 347
#
# _framework density 19.130683999999999
#
# number of rings (size 3 to 8) (size 9 to 14) (size 15 to 20)
#    0.000    1.333    0.000   10.500    0.000    4.000 
#    0.000    0.000    0.000    0.000    0.000   29.167 
#    0.000    0.000    0.000    0.000    0.000    0.000 
#
# Total GULP energy -268251.516334 kJ/mol
# GULP energy per Si atom -5588.573257 kJ/mol
# Density = 1.908714 g / cm^3
# Si number density = 19.130684 Si / 1000 Ang^3
#
#
#
# Elastic Constant Matrix: (Units=GPa)
#
#
# Indices 1 2 3 4 5 6 
#
# 1 81.3336 13.1293 16.5142 0.0000 0.0000 0.0000
# 2 13.1293 152.9236 40.4985 0.0000 0.0000 0.0000
# 3 16.5142 40.4985 57.8129 0.0000 0.0000 0.0000
# 4 0.0000 0.0000 0.0000 27.4995 0.0000 0.0000
# 5 0.0000 0.0000 0.0000 0.0000 129.7430 0.0000
# 6 0.0000 0.0000 0.0000 0.0000 0.0000 8.3992
#
#
#
# Elastic Compliance Matrix: (Units=1/GPa)
#
#
# Indices 1 2 3 4 5 6 
#
# 1 0.013055 -0.000164 -0.003615 0.000000 0.000000 0.000000
# 2 -0.000164 0.008031 -0.005579 0.000000 0.000000 0.000000
# 3 -0.003615 -0.005579 0.022238 0.000000 0.000000 0.000000
# 4 0.000000 0.000000 0.000000 0.036364 0.000000 0.000000
# 5 0.000000 0.000000 0.000000 0.000000 0.007708 0.000000
# 6 0.000000 0.000000 0.000000 0.000000 0.000000 0.119058
#
#
# Mechanical properties :
#
#
# Convention : Reuss Voigt Hill
#
# Bulk Modulus (GPa) = 40.63452 48.03934 44.33693
# Shear Modulus (GPa) = 21.42507 47.92353 34.67430
#
# Velocity S-wave (km/s) = 3.35017 5.01049 4.26196
# Velocity P-wave (km/s) = 6.02092 7.65761 6.88805
#
# Compressibility (1/GPa) = 0.02460962
#
# Stress axis : x y z
#
# Youngs Moduli (GPa) = 76.59674 124.52210 44.96855
#
# Poissons Ratio (x) = 0.02037 0.16255
# Poissons Ratio (y) = 0.01253 0.25087
# Poissons Ratio (z) = 0.27687 0.69469
#
# Static dielectric constant tensor:
#      x y z
#    x 1.693610 0.000000 0.000000 
#    y 0.000000 1.717140 0.000000 
#    z 0.000000 0.000000 1.594740 
# 
# From -- ./inp_files/16972.got.cif
#   From: 2010.05.17/outbox.cif.g08.bks.cpg/sg52_9_cif.got.tgz:16972.got - 2010.06.03 12:15:38.
