data_PCOD9409034
_publ_section_title
;
Structure prediction by ZEFSAII (Michael W. Deem and Ramdas Pophale) SiO2 
 PCOD9409034
Probable space group: P N N A
;
_chemical_formula_sum "Si O2"
_cell_formula_units_Z 64
_cell_length_a 8.745865
_cell_length_b 23.978095
_cell_length_c 15.304794
_cell_angle_alpha 90.000000
_cell_angle_beta 90.000000
_cell_angle_gamma 90.000000
_cell_volume 3209.555828
_symmetry_space_group_name_H-M "P N N A"
_symmetry_group_IT_number 52
_symmetry_cell_setting 'orthorhombic'
loop_
_space_group_symop_operation_xyz
x,y,z
1/2-x,-y,z
x,1/2-y,1/2-z
1/2-x,1/2+y,1/2-z
-x,-y,-z
1/2+x,y,-z
-x,1/2+y,1/2+z
1/2+x,1/2-y,1/2+z
loop_
_atom_site_type_symbol
_atom_site_label
_atom_site_fract_x
_atom_site_fract_y
_atom_site_fract_z
Si Si1 0.596462 0.533276 0.343571
Si Si2 0.561999 0.209918 0.822897
Si Si3 0.167103 0.708867 0.924697
Si Si4 0.847773 0.373543 0.220116
Si Si5 0.903648 0.614098 0.546711
Si Si6 0.481742 0.232189 0.392305
Si Si7 0.587814 0.926381 0.888286
Si Si8 0.996799 0.838682 0.227891
O O1 0.750000 0.500000 0.366502
O O2 0.622260 0.562684 0.249287
O O3 0.546186 0.584713 0.404071
O O4 0.466186 0.487752 0.363108
O O5 0.645619 0.250000 0.750000
O O6 0.434566 0.249943 0.865343
O O7 0.480041 0.162768 0.765397
O O8 0.624826 0.174539 0.907103
O O9 0.152386 0.647473 0.880397
O O10 0.341738 0.726075 0.917246
O O11 0.116072 0.719032 0.023134
O O12 0.682866 0.354412 0.260158
O O13 0.749325 0.579906 0.564606
O O14 0.958477 0.605703 0.447104
O O15 0.450020 0.186626 0.318684
O O16 0.471163 0.291783 0.345161
O O17 0.592008 0.892223 0.798831
#
# Coordination Sequence:
#
# PCOD9409034 Si02
#       8
#     8   8   8   8   8   8   8   8
#     4  11  21  39  64  86 114 154 205 247 298 358
#     4   9  18  35  58  84 118 156 198 239 288 352
#     4  10  19  35  59  84 118 154 197 243 295 351
#     4   9  18  36  60  85 109 159 200 242 288 364
#     4  11  25  38  57  88 123 158 200 245 299 362
#     4  10  21  36  58  87 118 156 193 251 295 360
#     4  12  24  39  58  86 123 158 197 250 297 359
#     4  10  20  37  58  83 121 155 198 237 305 355
#
# _framework density 19.940453999999999
#
# number of rings (size 3 to 8) (size 9 to 14) (size 15 to 20)
#    0.000    1.750    2.500    2.250    1.750    3.000 
#    9.000    0.000    0.000    0.750    0.000    0.000 
#    0.000    0.000    0.000    0.000    0.000    0.000 
#
# Total GULP energy -356784.621548 kJ/mol
# GULP energy per Si atom -5574.759712 kJ/mol
# Density = 1.989507 g / cm^3
# Si number density = 19.940454 Si / 1000 Ang^3
#
#
#
# Elastic Constant Matrix: (Units=GPa)
#
#
# Indices 1 2 3 4 5 6 
#
# 1 73.7508 19.6892 21.8938 0.0000 0.0000 0.0000
# 2 19.6892 86.8078 46.7710 0.0000 0.0000 0.0000
# 3 21.8938 46.7710 109.0573 0.0000 0.0000 0.0000
# 4 0.0000 0.0000 0.0000 31.4550 0.0000 0.0000
# 5 0.0000 0.0000 0.0000 0.0000 64.6279 0.0000
# 6 0.0000 0.0000 0.0000 0.0000 0.0000 22.6608
#
#
#
# Elastic Compliance Matrix: (Units=1/GPa)
#
#
# Indices 1 2 3 4 5 6 
#
# 1 0.014757 -0.002277 -0.001986 0.000000 0.000000 0.000000
# 2 -0.002277 0.015333 -0.006119 0.000000 0.000000 0.000000
# 3 -0.001986 -0.006119 0.012192 0.000000 0.000000 0.000000
# 4 0.000000 0.000000 0.000000 0.031791 0.000000 0.000000
# 5 0.000000 0.000000 0.000000 0.000000 0.015473 0.000000
# 6 0.000000 0.000000 0.000000 0.000000 0.000000 0.044129
#
#
# Mechanical properties :
#
#
# Convention : Reuss Voigt Hill
#
# Bulk Modulus (GPa) = 46.47149 49.59155 48.03152
# Shear Modulus (GPa) = 30.93842 35.83287 33.38564
#
# Velocity S-wave (km/s) = 3.94323 4.24370 4.09622
# Velocity P-wave (km/s) = 6.63987 6.99541 6.81996
#
# Compressibility (1/GPa) = 0.02151857
#
# Stress axis : x y z
#
# Youngs Moduli (GPa) = 67.76622 65.21968 82.01935
#
# Poissons Ratio (x) = 0.14851 0.16288
# Poissons Ratio (y) = 0.15430 0.50184
# Poissons Ratio (z) = 0.13458 0.39905
#
# Static dielectric constant tensor:
#      x y z
#    x 1.747490 0.000000 0.000000 
#    y 0.000000 1.762040 0.000000 
#    z 0.000000 0.000000 1.872440 
# 
# From -- ./inp_files/25129.got.cif
#   From: 2010.05.17/outbox.cif.g08.bks.cpg/sg52_13_cif.got.tgz:25129.got - 2010.06.03 12:15:38.
