data_PCOD9409339
_publ_section_title
;
Structure prediction by ZEFSAII (Michael W. Deem and Ramdas Pophale) SiO2 
 PCOD9409339
Probable space group: P N N A
;
_chemical_formula_sum "Si O2"
_cell_formula_units_Z 52
_cell_length_a 8.577155
_cell_length_b 22.828081
_cell_length_c 13.829335
_cell_angle_alpha 90.000000
_cell_angle_beta 90.000000
_cell_angle_gamma 90.000000
_cell_volume 2707.783642
_symmetry_space_group_name_H-M "P N N A"
_symmetry_group_IT_number 52
_symmetry_cell_setting 'orthorhombic'
loop_
_space_group_symop_operation_xyz
x,y,z
1/2-x,-y,z
x,1/2-y,1/2-z
1/2-x,1/2+y,1/2-z
-x,-y,-z
1/2+x,y,-z
-x,1/2+y,1/2+z
1/2+x,1/2-y,1/2+z
loop_
_atom_site_type_symbol
_atom_site_label
_atom_site_fract_x
_atom_site_fract_y
_atom_site_fract_z
Si Si1 0.843451 0.750000 0.250000
Si Si2 0.250000 0.500000 0.951877
Si Si3 0.207397 0.374616 0.733595
Si Si4 0.310669 0.614952 0.081136
Si Si5 0.024450 0.551535 0.367500
Si Si6 0.969685 0.665985 0.095768
Si Si7 0.750000 0.500000 0.498906
Si Si8 0.976819 0.455633 0.212822
O O1 0.747111 0.692790 0.282096
O O2 0.941448 0.725357 0.158009
O O3 0.106773 0.516189 0.880895
O O4 0.280919 0.555578 0.020148
O O5 0.054141 0.389699 0.671764
O O6 0.342656 0.421983 0.725948
O O7 0.146576 0.376571 0.844010
O O8 0.145810 0.644546 0.102951
O O9 0.402711 0.592641 0.175029
O O10 0.413249 0.658920 0.014418
O O11 0.887934 0.524514 0.433990
O O12 0.045464 0.507406 0.277496
O O13 0.178661 0.550264 0.431690
#
# Coordination Sequence:
#
# PCOD9409339 Si02
#       8
#     4   4   8   8   8   8   4   8
#     4   8  22  38  64  74 110 166 202 242 300 338
#     4  12  19  33  50  96 128 162 182 227 293 378
#     4  10  19  40  59  79 117 162 191 245 298 348
#     4  12  23  32  60  90 128 155 194 239 294 369
#     4  11  21  38  60  86 119 153 195 250 306 360
#     4  10  21  40  56  83 117 160 197 245 289 343
#     4  10  23  37  58  86 114 154 200 245 297 360
#     4  12  21  35  59  93 125 159 189 237 312 367
#
# _framework density 19.203897000000001
#
# number of rings (size 3 to 8) (size 9 to 14) (size 15 to 20)
#    0.923    0.308    6.154    0.462    4.308    0.000 
#    0.000    2.308    0.000    0.000    0.000    0.000 
#    0.000    0.000    0.000    0.000    0.000    0.000 
#
# Total GULP energy -289713.179934 kJ/mol
# GULP energy per Si atom -5571.407306 kJ/mol
# Density = 1.916019 g / cm^3
# Si number density = 19.203897 Si / 1000 Ang^3
#
#
#
# Elastic Constant Matrix: (Units=GPa)
#
#
# Indices 1 2 3 4 5 6 
#
# 1 45.0579 -2.1300 6.6800 0.0000 0.0000 0.0000
# 2 -2.1300 69.4199 9.9322 0.0000 0.0000 0.0000
# 3 6.6800 9.9322 52.6681 0.0000 0.0000 0.0000
# 4 0.0000 0.0000 0.0000 16.5788 0.0000 0.0000
# 5 0.0000 0.0000 0.0000 0.0000 -4.3125 0.0000
# 6 0.0000 0.0000 0.0000 0.0000 0.0000 13.3686
#
#
#
# Elastic Compliance Matrix: (Units=1/GPa)
#
#
# Indices 1 2 3 4 5 6 
#
# 1 0.022706 0.001139 -0.003095 0.000000 0.000000 0.000000
# 2 0.001139 0.014862 -0.002947 0.000000 0.000000 0.000000
# 3 -0.003095 -0.002947 0.019935 0.000000 0.000000 0.000000
# 4 0.000000 0.000000 0.000000 0.060318 0.000000 0.000000
# 5 0.000000 0.000000 0.000000 0.000000 -0.231882 0.000000
# 6 0.000000 0.000000 0.000000 0.000000 0.000000 0.074802
#
#
# Mechanical properties :
#
#
# Convention : Reuss Voigt Hill
#
# Bulk Modulus (GPa) = 20.96513 21.79005 21.37759
# Shear Modulus (GPa) = -368.87237 15.30456 -176.78391
#
# Velocity S-wave (km/s) = -13.87440 2.82609 -9.60500
# Velocity P-wave (km/s) = 15.67560 4.69259 10.57601
#
# Compressibility (1/GPa) = 0.04769825
#
# Stress axis : x y z
#
# Youngs Moduli (GPa) = 44.04054 67.28702 50.16274
#
# Poissons Ratio (x) = -0.07667 0.15524
# Poissons Ratio (y) = -0.05018 0.14784
# Poissons Ratio (z) = 0.13630 0.19831
#
# Static dielectric constant tensor:
#      x y z
#    x 1.716790 0.000000 0.000000 
#    y 0.000000 1.689890 0.000000 
#    z 0.000000 0.000000 1.714240 
# 
# From -- ./inp_files/25184.got.cif
#   From: 2010.05.17/outbox.cif.g08.bks.cpg/sg52_13_cif.got.tgz:25184.got - 2010.06.03 12:15:38.
