data_PCOD9409105
_publ_section_title
;
Structure prediction by ZEFSAII (Michael W. Deem and Ramdas Pophale) SiO2 
 PCOD9409105
Probable space group: P N N A
;
_chemical_formula_sum "Si O2"
_cell_formula_units_Z 48
_cell_length_a 13.101707
_cell_length_b 8.938397
_cell_length_c 23.946157
_cell_angle_alpha 90.000000
_cell_angle_beta 90.000000
_cell_angle_gamma 90.000000
_cell_volume 2804.292745
_symmetry_space_group_name_H-M "P N N A"
_symmetry_group_IT_number 52
_symmetry_cell_setting 'orthorhombic'
loop_
_space_group_symop_operation_xyz
x,y,z
1/2-x,-y,z
x,1/2-y,1/2-z
1/2-x,1/2+y,1/2-z
-x,-y,-z
1/2+x,y,-z
-x,1/2+y,1/2+z
1/2+x,1/2-y,1/2+z
loop_
_atom_site_type_symbol
_atom_site_label
_atom_site_fract_x
_atom_site_fract_y
_atom_site_fract_z
Si Si1 0.280218 0.674051 0.960884
Si Si2 0.750000 0.500000 0.845675
Si Si3 0.899768 0.256605 0.689899
Si Si4 0.019741 0.176427 0.924942
Si Si5 0.250000 0.500000 0.347409
Si Si6 0.424375 0.163250 0.954074
Si Si7 0.358226 0.748430 0.082390
O O1 0.250000 0.500000 0.962463
O O2 0.386289 0.708318 0.929953
O O3 0.183658 0.766645 0.938704
O O4 0.304363 0.735309 0.022709
O O5 0.830502 0.391667 0.815664
O O6 0.680552 0.391236 0.882766
O O7 0.954785 0.250000 0.750000
O O8 0.819545 0.392695 0.689163
O O9 0.964463 0.288341 0.633569
O O10 0.065628 0.009142 0.934392
O O11 0.943615 0.184503 0.978817
O O12 0.320695 0.602588 0.386644
O O13 0.520944 0.246254 0.926628
#
# Coordination Sequence:
#
# PCOD9409105 Si02
#       7
#     8   4   8   8   4   8   8
#     4  11  23  33  54  85 122 149 182 231 293 350
#     4  10  21  34  56  86 116 146 179 238 284 336
#     4  11  22  38  58  84 114 154 196 236 281 334
#     4  10  22  36  58  82 113 154 190 235 277 348
#     4  10  19  36  58  84 114 148 189 226 290 340
#     4  10  20  36  57  85 114 150 188 224 290 352
#     4  10  20  33  56  84 119 146 182 228 285 349
#
# _framework density 17.116616
#
# number of rings (size 3 to 8) (size 9 to 14) (size 15 to 20)
#    0.000    1.667    2.500    3.000    7.000    1.333 
#    0.000    0.000    0.000    2.000    0.000    0.000 
#    0.000    0.000    0.000    0.000    0.000    0.000 
#
# Total GULP energy -267663.188994 kJ/mol
# GULP energy per Si atom -5576.316437 kJ/mol
# Density = 1.707766 g / cm^3
# Si number density = 17.116616 Si / 1000 Ang^3
#
#
#
# Elastic Constant Matrix: (Units=GPa)
#
#
# Indices 1 2 3 4 5 6 
#
# 1 66.7103 15.0041 31.1420 0.0000 0.0000 0.0000
# 2 15.0041 54.5766 19.3922 0.0000 0.0000 0.0000
# 3 31.1420 19.3922 108.7497 0.0000 0.0000 0.0000
# 4 0.0000 0.0000 0.0000 11.5295 0.0000 0.0000
# 5 0.0000 0.0000 0.0000 0.0000 18.3158 0.0000
# 6 0.0000 0.0000 0.0000 0.0000 0.0000 22.6559
#
#
#
# Elastic Compliance Matrix: (Units=1/GPa)
#
#
# Indices 1 2 3 4 5 6 
#
# 1 0.017843 -0.003299 -0.004521 0.000000 0.000000 0.000000
# 2 -0.003299 0.020172 -0.002652 0.000000 0.000000 0.000000
# 3 -0.004521 -0.002652 0.010963 0.000000 0.000000 0.000000
# 4 0.000000 0.000000 0.000000 0.086734 0.000000 0.000000
# 5 0.000000 0.000000 0.000000 0.000000 0.054598 0.000000
# 6 0.000000 0.000000 0.000000 0.000000 0.000000 0.044139
#
#
# Mechanical properties :
#
#
# Convention : Reuss Voigt Hill
#
# Bulk Modulus (GPa) = 35.67210 40.12367 37.89789
# Shear Modulus (GPa) = 18.88661 21.46679 20.17670
#
# Velocity S-wave (km/s) = 3.32536 3.54524 3.43706
# Velocity P-wave (km/s) = 5.96908 6.34433 6.15956
#
# Compressibility (1/GPa) = 0.02803311
#
# Stress axis : x y z
#
# Youngs Moduli (GPa) = 56.04503 49.57307 91.21464
#
# Poissons Ratio (x) = 0.16353 0.41241
# Poissons Ratio (y) = 0.18488 0.24194
# Poissons Ratio (z) = 0.25340 0.13149
#
# Static dielectric constant tensor:
#      x y z
#    x 1.576670 0.000000 0.000000 
#    y 0.000000 1.604180 0.000000 
#    z 0.000000 0.000000 1.594880 
# 
# From -- ./inp_files/40203.got.cif
#   From: 2010.05.17/outbox.cif.g08.bks.cpg/sg52_21_cif.got.tgz:40203.got - 2010.06.03 12:15:38.
