data_PCOD9409349
_publ_section_title
;
Structure prediction by ZEFSAII (Michael W. Deem and Ramdas Pophale) SiO2 
 PCOD9409349
Probable space group: P N N A
;
_chemical_formula_sum "Si O2"
_cell_formula_units_Z 40
_cell_length_a 13.252737
_cell_length_b 12.076434
_cell_length_c 12.524714
_cell_angle_alpha 90.000000
_cell_angle_beta 90.000000
_cell_angle_gamma 90.000000
_cell_volume 2004.527918
_symmetry_space_group_name_H-M "P N N A"
_symmetry_group_IT_number 52
_symmetry_cell_setting 'orthorhombic'
loop_
_space_group_symop_operation_xyz
x,y,z
1/2-x,-y,z
x,1/2-y,1/2-z
1/2-x,1/2+y,1/2-z
-x,-y,-z
1/2+x,y,-z
-x,1/2+y,1/2+z
1/2+x,1/2-y,1/2+z
loop_
_atom_site_type_symbol
_atom_site_label
_atom_site_fract_x
_atom_site_fract_y
_atom_site_fract_z
Si Si1 0.676464 0.258512 0.124515
Si Si2 0.440256 0.892407 0.034132
Si Si3 0.586139 0.373972 0.763542
Si Si4 0.365750 0.969261 0.492428
Si Si5 0.086391 0.810658 0.601136
O O1 0.652826 0.250000 0.250000
O O2 0.797753 0.274593 0.113306
O O3 0.636866 0.155025 0.053977
O O4 0.622375 0.365848 0.072605
O O5 0.393543 0.925159 0.149061
O O6 0.517273 0.790477 0.060131
O O7 0.500000 0.000000 0.000000
O O8 0.629252 0.250000 0.750000
O O9 0.624328 0.432262 0.869775
O O10 0.466552 0.357597 0.790905
O O11 0.250000 0.000000 0.509070
O O12 0.421650 0.082802 0.522965
#
# Coordination Sequence:
#
# PCOD9409349 Si02
#       5
#     8   8   8   8   8
#     4  11  23  40  64  97 126 159 220 265 307 384
#     4  11  25  40  61  93 132 169 204 263 331 366
#     4  10  19  40  65  84 126 163 204 254 324 373
#     4  10  21  39  66  93 117 166 215 253 310 385
#     4  10  22  42  67  89 121 174 213 258 316 377
#
# _framework density 19.954823999999999
#
# number of rings (size 3 to 8) (size 9 to 14) (size 15 to 20)
#    0.000    1.600    4.000    2.400    2.800    0.800 
#    7.200    0.000    0.000    0.000    0.000    0.000 
#    0.000    0.000    0.000    0.000    0.000    0.000 
#
# Total GULP energy -222902.127625 kJ/mol
# GULP energy per Si atom -5572.553191 kJ/mol
# Density = 1.990941 g / cm^3
# Si number density = 19.954824 Si / 1000 Ang^3
#
#
#
# Elastic Constant Matrix: (Units=GPa)
#
#
# Indices 1 2 3 4 5 6 
#
# 1 52.2514 7.8014 11.1632 0.0000 0.0000 0.0000
# 2 7.8014 89.3515 53.7193 0.0000 0.0000 0.0000
# 3 11.1632 53.7193 169.7323 0.0000 0.0000 0.0000
# 4 0.0000 0.0000 0.0000 38.9527 0.0000 0.0000
# 5 0.0000 0.0000 0.0000 0.0000 21.7684 0.0000
# 6 0.0000 0.0000 0.0000 0.0000 0.0000 27.0182
#
#
#
# Elastic Compliance Matrix: (Units=1/GPa)
#
#
# Indices 1 2 3 4 5 6 
#
# 1 0.019506 -0.001151 -0.000919 0.000000 0.000000 0.000000
# 2 -0.001151 0.013890 -0.004320 0.000000 0.000000 0.000000
# 3 -0.000919 -0.004320 0.007319 0.000000 0.000000 0.000000
# 4 0.000000 0.000000 0.000000 0.025672 0.000000 0.000000
# 5 0.000000 0.000000 0.000000 0.000000 0.045938 0.000000
# 6 0.000000 0.000000 0.000000 0.000000 0.000000 0.037012
#
#
# Mechanical properties :
#
#
# Convention : Reuss Voigt Hill
#
# Bulk Modulus (GPa) = 35.79636 50.74478 43.27057
# Shear Modulus (GPa) = 29.16656 33.45797 31.31226
#
# Velocity S-wave (km/s) = 3.82727 4.09918 3.96556
# Velocity P-wave (km/s) = 6.12441 6.92022 6.53444
#
# Compressibility (1/GPa) = 0.02793580
#
# Stress axis : x y z
#
# Youngs Moduli (GPa) = 51.26536 71.99604 136.62314
#
# Poissons Ratio (x) = 0.08285 0.12552
# Poissons Ratio (y) = 0.05900 0.59025
# Poissons Ratio (z) = 0.04710 0.31105
#
# Static dielectric constant tensor:
#      x y z
#    x 1.773050 0.000000 0.000000 
#    y 0.000000 1.740100 0.000000 
#    z 0.000000 0.000000 1.823700 
# 
# From -- ./inp_files/19230.got.cif
#   From: 2010.05.17/outbox.cif.g08.bks.cpg/sg52_10_cif.got.tgz:19230.got - 2010.06.03 12:15:38.
