data_PCOD9409997
_publ_section_title
;
Structure prediction by ZEFSAII (Michael W. Deem and Ramdas Pophale) SiO2 
 PCOD9409997
Probable space group: P N N A
;
_chemical_formula_sum "Si O2"
_cell_formula_units_Z 56
_cell_length_a 21.191455
_cell_length_b 24.758752
_cell_length_c 5.315629
_cell_angle_alpha 90.000000
_cell_angle_beta 90.000000
_cell_angle_gamma 90.000000
_cell_volume 2788.972218
_symmetry_space_group_name_H-M "P N N A"
_symmetry_group_IT_number 52
_symmetry_cell_setting 'orthorhombic'
loop_
_space_group_symop_operation_xyz
x,y,z
1/2-x,-y,z
x,1/2-y,1/2-z
1/2-x,1/2+y,1/2-z
-x,-y,-z
1/2+x,y,-z
-x,1/2+y,1/2+z
1/2+x,1/2-y,1/2+z
loop_
_atom_site_type_symbol
_atom_site_label
_atom_site_fract_x
_atom_site_fract_y
_atom_site_fract_z
Si Si1 0.481915 0.440488 0.568758
Si Si2 0.939565 0.633104 0.863324
Si Si3 0.045566 0.750000 0.250000
Si Si4 0.959118 0.750000 0.750000
Si Si5 0.823672 0.567105 0.061207
Si Si6 0.575615 0.865919 0.645470
Si Si7 0.143494 0.556997 0.832287
Si Si8 0.751045 0.435480 0.559142
O O1 0.500000 0.500000 0.500000
O O2 0.543683 0.406184 0.632962
O O3 0.444772 0.406047 0.364899
O O4 0.430849 0.450707 0.786042
O O5 0.921454 0.694062 0.790202
O O6 0.887976 0.600119 0.018516
O O7 0.009580 0.638791 0.986588
O O8 0.085899 0.804441 0.272190
O O9 0.002080 0.742449 0.499463
O O10 0.775833 0.581951 0.831481
O O11 0.832545 0.501115 0.065090
O O12 0.796531 0.580990 0.335089
O O13 0.637045 0.891714 0.515190
O O14 0.181700 0.573357 0.581021
O O15 0.750000 0.500000 0.577061
#
# Coordination Sequence:
#
# PCOD9409997 Si02
#       8
#     8   8   4   4   8   8   8   8
#     4  11  21  33  59  90 129 152 187 245 313 369
#     4  10  22  36  56  91 116 161 194 247 305 353
#     4  10  20  38  58  87 120 159 208 232 294 362
#     4  10  20  38  58  83 122 155 204 240 286 372
#     4  11  23  37  59  85 118 154 201 246 291 359
#     4  10  21  36  59  87 125 161 196 249 300 375
#     4  10  23  38  56  89 120 162 199 245 307 367
#     4  10  23  38  57  82 113 160 201 241 287 356
#
# _framework density 20.079082
#
# number of rings (size 3 to 8) (size 9 to 14) (size 15 to 20)
#    0.000    1.714    1.429    3.000   12.000    2.286 
#    0.000    0.000    0.000    0.857    3.714    0.000 
#    0.000    0.000    0.000    0.000    0.000    0.000 
#
# Total GULP energy -311841.987110 kJ/mol
# GULP energy per Si atom -5568.606913 kJ/mol
# Density = 2.003338 g / cm^3
# Si number density = 20.079082 Si / 1000 Ang^3
#
#
#
# Elastic Constant Matrix: (Units=GPa)
#
#
# Indices 1 2 3 4 5 6 
#
# 1 52.6309 17.4548 11.4413 0.0000 0.0000 0.0000
# 2 17.4548 135.9653 21.5629 0.0000 0.0000 0.0000
# 3 11.4413 21.5629 77.8347 0.0000 0.0000 0.0000
# 4 0.0000 0.0000 0.0000 12.4759 0.0000 0.0000
# 5 0.0000 0.0000 0.0000 0.0000 17.3223 0.0000
# 6 0.0000 0.0000 0.0000 0.0000 0.0000 -21.4251
#
#
#
# Elastic Compliance Matrix: (Units=1/GPa)
#
#
# Indices 1 2 3 4 5 6 
#
# 1 0.020251 -0.002225 -0.002360 0.000000 0.000000 0.000000
# 2 -0.002225 0.007937 -0.001872 0.000000 0.000000 0.000000
# 3 -0.002360 -0.001872 0.013713 0.000000 0.000000 0.000000
# 4 0.000000 0.000000 0.000000 0.080155 0.000000 0.000000
# 5 0.000000 0.000000 0.000000 0.000000 0.057729 0.000000
# 6 0.000000 0.000000 0.000000 0.000000 0.000000 -0.046674
#
#
# Mechanical properties :
#
#
# Convention : Reuss Voigt Hill
#
# Bulk Modulus (GPa) = 34.49841 40.81655 37.65748
# Shear Modulus (GPa) = 32.11530 16.07274 24.09402
#
# Velocity S-wave (km/s) = 4.00364 2.83233 3.46780
# Velocity P-wave (km/s) = 6.21214 5.57388 5.90165
#
# Compressibility (1/GPa) = 0.02898684
#
# Stress axis : x y z
#
# Youngs Moduli (GPa) = 49.37920 125.98639 72.92219
#
# Poissons Ratio (x) = 0.28038 0.17212
# Poissons Ratio (y) = 0.10989 0.13650
# Poissons Ratio (z) = 0.11655 0.23582
#
# Static dielectric constant tensor:
#      x y z
#    x 1.713780 0.000000 0.000000 
#    y 0.000000 1.771590 0.000000 
#    z 0.000000 0.000000 1.915500 
# 
# From -- ./inp_files/4611.got.cif
#   From: 2010.05.17/outbox.cif.g08.bks.cpg/sg52_3_cif.got.tgz:4611.got - 2010.06.03 12:15:38.
