data_PCOD9409138
_publ_section_title
;
Structure prediction by ZEFSAII (Michael W. Deem and Ramdas Pophale) SiO2 
 PCOD9409138
Probable space group: P N N A
;
_chemical_formula_sum "Si O2"
_cell_formula_units_Z 64
_cell_length_a 8.989594
_cell_length_b 21.617543
_cell_length_c 15.620695
_cell_angle_alpha 90.000000
_cell_angle_beta 90.000000
_cell_angle_gamma 90.000000
_cell_volume 3035.615504
_symmetry_space_group_name_H-M "P N N A"
_symmetry_group_IT_number 52
_symmetry_cell_setting 'orthorhombic'
loop_
_space_group_symop_operation_xyz
x,y,z
1/2-x,-y,z
x,1/2-y,1/2-z
1/2-x,1/2+y,1/2-z
-x,-y,-z
1/2+x,y,-z
-x,1/2+y,1/2+z
1/2+x,1/2-y,1/2+z
loop_
_atom_site_type_symbol
_atom_site_label
_atom_site_fract_x
_atom_site_fract_y
_atom_site_fract_z
Si Si1 0.878467 0.770816 0.092637
Si Si2 0.909368 0.438148 0.596705
Si Si3 0.859801 0.441614 0.200979
Si Si4 0.101075 0.370703 0.722157
Si Si5 0.903796 0.930012 0.840474
Si Si6 0.496845 0.132490 0.402878
Si Si7 0.770809 0.068619 0.488058
Si Si8 0.078737 0.839572 0.954400
O O1 0.917832 0.803157 0.182553
O O2 0.710499 0.794362 0.075297
O O3 0.926016 0.699701 0.092469
O O4 0.973854 0.801462 0.017332
O O5 0.921139 0.512008 0.593555
O O6 0.772976 0.422797 0.661252
O O7 0.870886 0.398823 0.512182
O O8 0.059127 0.413903 0.641776
O O9 0.750000 0.500000 0.215641
O O10 0.764981 0.385150 0.241747
O O11 0.871171 0.434762 0.098881
O O12 0.012145 0.447515 0.253050
O O13 0.996451 0.383309 0.802884
O O14 0.983177 0.869877 0.878811
O O15 0.611665 0.088041 0.451362
O O16 0.340800 0.118901 0.448333
O O17 0.750000 0.000000 0.525731
#
# Coordination Sequence:
#
# PCOD9409138 Si02
#       8
#     8   8   8   8   8   8   8   8
#     4  11  22  38  62  85 124 166 206 250 295 359
#     4  10  22  35  53  90 122 165 203 249 301 355
#     4  10  19  36  61  88 122 160 201 251 307 367
#     4  10  21  38  59  87 122 161 209 247 302 364
#     4  11  20  35  56  86 126 161 204 250 304 356
#     4  11  23  42  64  93 116 160 205 252 313 377
#     4  10  23  42  66  93 120 148 200 261 324 375
#     4  11  21  37  56  86 125 165 205 248 292 353
#
# _framework density 21.08304
#
# number of rings (size 3 to 8) (size 9 to 14) (size 15 to 20)
#    0.000    1.500    3.750    1.875    0.000    1.000 
#    4.500    0.000    0.000    0.000    0.000    0.000 
#    0.000    0.000    0.000    0.000    0.000    0.000 
#
# Total GULP energy -357085.612496 kJ/mol
# GULP energy per Si atom -5579.462695 kJ/mol
# Density = 2.103505 g / cm^3
# Si number density = 21.083040 Si / 1000 Ang^3
#
#
#
# Elastic Constant Matrix: (Units=GPa)
#
#
# Indices 1 2 3 4 5 6 
#
# 1 49.0201 -2.8478 13.1555 0.0000 0.0000 0.0000
# 2 -2.8478 81.7396 -5.4500 0.0000 0.0000 0.0000
# 3 13.1555 -5.4500 49.2857 0.0000 0.0000 0.0000
# 4 0.0000 0.0000 0.0000 20.8628 0.0000 0.0000
# 5 0.0000 0.0000 0.0000 0.0000 27.7243 0.0000
# 6 0.0000 0.0000 0.0000 0.0000 0.0000 28.0027
#
#
#
# Elastic Compliance Matrix: (Units=1/GPa)
#
#
# Indices 1 2 3 4 5 6 
#
# 1 0.021985 0.000377 -0.005827 0.000000 0.000000 0.000000
# 2 0.000377 0.012331 0.001263 0.000000 0.000000 0.000000
# 3 -0.005827 0.001263 0.021985 0.000000 0.000000 0.000000
# 4 0.000000 0.000000 0.000000 0.047932 0.000000 0.000000
# 5 0.000000 0.000000 0.000000 0.000000 0.036069 0.000000
# 6 0.000000 0.000000 0.000000 0.000000 0.000000 0.035711
#
#
# Mechanical properties :
#
#
# Convention : Reuss Voigt Hill
#
# Bulk Modulus (GPa) = 20.86428 21.08453 20.97441
# Shear Modulus (GPa) = 24.95470 26.99713 25.97592
#
# Velocity S-wave (km/s) = 3.44414 3.58231 3.51390
# Velocity P-wave (km/s) = 5.07285 5.20894 5.14134
#
# Compressibility (1/GPa) = 0.04792879
#
# Stress axis : x y z
#
# Youngs Moduli (GPa) = 45.48469 81.09428 45.48602
#
# Poissons Ratio (x) = -0.03061 0.26503
# Poissons Ratio (y) = -0.01717 -0.05744
# Poissons Ratio (z) = 0.26502 -0.10241
#
# Static dielectric constant tensor:
#      x y z
#    x 1.766910 0.000000 0.000000 
#    y 0.000000 1.790630 0.000000 
#    z 0.000000 0.000000 1.763750 
# 
# From -- ./inp_files/31606.got.cif
#   From: 2010.05.17/outbox.cif.g08.bks.cpg/sg52_16_cif.got.tgz:31606.got - 2010.06.03 12:15:38.
