data_PCOD9409850
_publ_section_title
;
Structure prediction by ZEFSAII (Michael W. Deem and Ramdas Pophale) SiO2 
 PCOD9409850
Probable space group: P N N A
;
_chemical_formula_sum "Si O2"
_cell_formula_units_Z 28
_cell_length_a 13.860981
_cell_length_b 7.178780
_cell_length_c 12.938245
_cell_angle_alpha 90.000000
_cell_angle_beta 90.000000
_cell_angle_gamma 90.000000
_cell_volume 1287.419204
_symmetry_space_group_name_H-M "P N N A"
_symmetry_group_IT_number 52
_symmetry_cell_setting 'orthorhombic'
loop_
_space_group_symop_operation_xyz
x,y,z
1/2-x,-y,z
x,1/2-y,1/2-z
1/2-x,1/2+y,1/2-z
-x,-y,-z
1/2+x,y,-z
-x,1/2+y,1/2+z
1/2+x,1/2-y,1/2+z
loop_
_atom_site_type_symbol
_atom_site_label
_atom_site_fract_x
_atom_site_fract_y
_atom_site_fract_z
Si Si1 0.323809 0.331380 0.364322
Si Si2 0.635356 0.750000 0.250000
Si Si3 0.731684 0.275874 0.435363
Si Si4 0.538834 0.384028 0.348433
O O1 0.250000 0.500000 0.355564
O O2 0.328593 0.250000 0.250000
O O3 0.277500 0.211821 0.456877
O O4 0.431856 0.393334 0.395668
O O5 0.707804 0.811912 0.341630
O O6 0.573506 0.583700 0.302219
O O7 0.750000 0.500000 0.427238
O O8 0.616910 0.279525 0.421015
O O9 0.533692 0.250000 0.250000
#
# Coordination Sequence:
#
# PCOD9409850 Si02
#       4
#     8   4   8   8
#     4  10  23  42  58  89 128 165 199 252 314 369
#     4  10  20  36  66  94 112 166 204 258 308 352
#     4   9  19  37  63  88 120 157 206 252 301 358
#     4  10  21  40  64  91 125 157 209 257 301 363
#
# _framework density 21.748937000000002
#
# number of rings (size 3 to 8) (size 9 to 14) (size 15 to 20)
#    0.000    2.286    1.429    0.000    2.000   10.286 
#    5.143    2.857    0.000    0.000    0.000    0.000 
#    0.000    0.000    0.000    0.000    0.000    0.000 
#
# Total GULP energy -156056.686824 kJ/mol
# GULP energy per Si atom -5573.453101 kJ/mol
# Density = 2.169944 g / cm^3
# Si number density = 21.748937 Si / 1000 Ang^3
#
#
#
# Elastic Constant Matrix: (Units=GPa)
#
#
# Indices 1 2 3 4 5 6 
#
# 1 224.1599 38.1501 72.1065 0.0000 0.0000 0.0000
# 2 38.1501 70.9933 7.1088 0.0000 0.0000 0.0000
# 3 72.1065 7.1088 149.7597 0.0000 0.0000 0.0000
# 4 0.0000 0.0000 0.0000 19.9034 0.0000 0.0000
# 5 0.0000 0.0000 0.0000 0.0000 27.3154 0.0000
# 6 0.0000 0.0000 0.0000 0.0000 0.0000 16.7143
#
#
#
# Elastic Compliance Matrix: (Units=1/GPa)
#
#
# Indices 1 2 3 4 5 6 
#
# 1 0.005801 -0.002851 -0.002658 0.000000 0.000000 0.000000
# 2 -0.002851 0.015555 0.000635 0.000000 0.000000 0.000000
# 3 -0.002658 0.000635 0.007927 0.000000 0.000000 0.000000
# 4 0.000000 0.000000 0.000000 0.050243 0.000000 0.000000
# 5 0.000000 0.000000 0.000000 0.000000 0.036609 0.000000
# 6 0.000000 0.000000 0.000000 0.000000 0.000000 0.059829
#
#
# Mechanical properties :
#
#
# Convention : Reuss Voigt Hill
#
# Bulk Modulus (GPa) = 51.19429 75.51596 63.35512
# Shear Modulus (GPa) = 26.01127 34.62314 30.31720
#
# Velocity S-wave (km/s) = 3.46204 3.99425 3.73763
# Velocity P-wave (km/s) = 6.29054 7.48793 6.91520
#
# Compressibility (1/GPa) = 0.01953343
#
# Stress axis : x y z
#
# Youngs Moduli (GPa) = 172.37353 64.28988 126.15162
#
# Poissons Ratio (x) = 0.18331 0.33530
# Poissons Ratio (y) = 0.49150 -0.08005
# Poissons Ratio (z) = 0.45815 -0.04079
#
# Static dielectric constant tensor:
#      x y z
#    x 1.843760 0.000000 0.000000 
#    y 0.000000 1.829810 0.000000 
#    z 0.000000 0.000000 1.927790 
# 
# From -- ./inp_files/18755.got.cif
#   From: 2010.05.17/outbox.cif.g08.bks.cpg/sg52_10_cif.got.tgz:18755.got - 2010.06.03 12:15:38.
