data_PCOD9409448
_publ_section_title
;
Structure prediction by ZEFSAII (Michael W. Deem and Ramdas Pophale) SiO2 
 PCOD9409448
Probable space group: P N N A
;
_chemical_formula_sum "Si O2"
_cell_formula_units_Z 52
_cell_length_a 19.286377
_cell_length_b 14.126232
_cell_length_c 10.912270
_cell_angle_alpha 90.000000
_cell_angle_beta 90.000000
_cell_angle_gamma 90.000000
_cell_volume 2972.980698
_symmetry_space_group_name_H-M "P N N A"
_symmetry_group_IT_number 52
_symmetry_cell_setting 'orthorhombic'
loop_
_space_group_symop_operation_xyz
x,y,z
1/2-x,-y,z
x,1/2-y,1/2-z
1/2-x,1/2+y,1/2-z
-x,-y,-z
1/2+x,y,-z
-x,1/2+y,1/2+z
1/2+x,1/2-y,1/2+z
loop_
_atom_site_type_symbol
_atom_site_label
_atom_site_fract_x
_atom_site_fract_y
_atom_site_fract_z
Si Si1 0.272732 0.349428 0.813442
Si Si2 0.990643 0.005420 0.804038
Si Si3 0.426211 0.157942 0.663010
Si Si4 0.391306 0.572242 0.506495
Si Si5 0.750000 0.000000 0.106275
Si Si6 0.499114 0.397092 0.064826
Si Si7 0.864074 0.778804 0.394692
O O1 0.286123 0.250000 0.750000
O O2 0.348096 0.380582 0.857908
O O3 0.249715 0.413690 0.700977
O O4 0.210236 0.331184 0.907033
O O5 0.029557 0.920463 0.734327
O O6 0.927303 0.961411 0.880764
O O7 0.048985 0.049770 0.893134
O O8 0.970340 0.082297 0.700789
O O9 0.428579 0.250000 0.750000
O O10 0.457767 0.171009 0.527777
O O11 0.321274 0.511944 0.531661
O O12 0.372422 0.683306 0.524941
O O13 0.574955 0.352253 0.078459
O O14 0.500000 0.500000 0.000000
O O15 0.868382 0.750000 0.250000
#
# Coordination Sequence:
#
# PCOD9409448 Si02
#       7
#     8   8   8   8   4   8   8
#     4  10  20  32  55  85 113 138 197 245 303 343
#     4  10  20  36  53  85 110 154 190 238 302 358
#     4  10  20  35  55  85 115 147 190 248 297 346
#     4  11  21  33  60  81 118 150 198 245 298 369
#     4  12  18  34  56  84 112 150 192 260 294 356
#     4  10  21  36  57  82 117 148 193 243 297 362
#     4  11  19  36  56  86 111 151 193 244 302 360
#
# _framework density 17.490863999999998
#
# number of rings (size 3 to 8) (size 9 to 14) (size 15 to 20)
#    0.000    1.538    6.154    0.923    2.154    0.000 
#    0.000    0.000    6.769    0.000    0.000    0.000 
#    0.000    0.000    0.000    0.000    0.000    0.000 
#
# Total GULP energy -289549.598042 kJ/mol
# GULP energy per Si atom -5568.261501 kJ/mol
# Density = 1.745105 g / cm^3
# Si number density = 17.490864 Si / 1000 Ang^3
#
#
#
# Elastic Constant Matrix: (Units=GPa)
#
#
# Indices 1 2 3 4 5 6 
#
# 1 132.3123 28.0521 58.6567 0.0000 0.0000 0.0000
# 2 28.0521 66.9466 25.8543 0.0000 0.0000 0.0000
# 3 58.6567 25.8543 94.1184 0.0000 0.0000 0.0000
# 4 0.0000 0.0000 0.0000 29.7928 0.0000 0.0000
# 5 0.0000 0.0000 0.0000 0.0000 16.5450 0.0000
# 6 0.0000 0.0000 0.0000 0.0000 0.0000 22.9705
#
#
#
# Elastic Compliance Matrix: (Units=1/GPa)
#
#
# Indices 1 2 3 4 5 6 
#
# 1 0.010710 -0.002137 -0.006088 0.000000 0.000000 0.000000
# 2 -0.002137 0.017136 -0.003376 0.000000 0.000000 0.000000
# 3 -0.006088 -0.003376 0.015346 0.000000 0.000000 0.000000
# 4 0.000000 0.000000 0.000000 0.033565 0.000000 0.000000
# 5 0.000000 0.000000 0.000000 0.000000 0.060441 0.000000
# 6 0.000000 0.000000 0.000000 0.000000 0.000000 0.043534
#
#
# Mechanical properties :
#
#
# Convention : Reuss Voigt Hill
#
# Bulk Modulus (GPa) = 50.01947 57.61148 53.81548
# Shear Modulus (GPa) = 23.74213 25.91596 24.82904
#
# Velocity S-wave (km/s) = 3.68829 3.85344 3.77177
# Velocity P-wave (km/s) = 6.84087 7.26693 7.05712
#
# Compressibility (1/GPa) = 0.01999221
#
# Stress axis : x y z
#
# Youngs Moduli (GPa) = 93.37420 58.35580 65.16305
#
# Poissons Ratio (x) = 0.12468 0.39668
# Poissons Ratio (y) = 0.19950 0.21997
# Poissons Ratio (z) = 0.56842 0.19699
#
# Static dielectric constant tensor:
#      x y z
#    x 1.644050 0.000000 0.000000 
#    y 0.000000 1.642890 0.000000 
#    z 0.000000 0.000000 1.609040 
# 
# From -- ./inp_files/20799.got.cif
#   From: 2010.05.17/outbox.cif.g08.bks.cpg/sg52_11_cif.got.tgz:20799.got - 2010.06.03 12:15:38.
