data_PCOD9409620
_publ_section_title
;
Structure prediction by ZEFSAII (Michael W. Deem and Ramdas Pophale) SiO2 
 PCOD9409620
Probable space group: P N N A
;
_chemical_formula_sum "Si O2"
_cell_formula_units_Z 64
_cell_length_a 9.287406
_cell_length_b 11.537898
_cell_length_c 29.224157
_cell_angle_alpha 90.000000
_cell_angle_beta 90.000000
_cell_angle_gamma 90.000000
_cell_volume 3131.577174
_symmetry_space_group_name_H-M "P N N A"
_symmetry_group_IT_number 52
_symmetry_cell_setting 'orthorhombic'
loop_
_space_group_symop_operation_xyz
x,y,z
1/2-x,-y,z
x,1/2-y,1/2-z
1/2-x,1/2+y,1/2-z
-x,-y,-z
1/2+x,y,-z
-x,1/2+y,1/2+z
1/2+x,1/2-y,1/2+z
loop_
_atom_site_type_symbol
_atom_site_label
_atom_site_fract_x
_atom_site_fract_y
_atom_site_fract_z
Si Si1 0.352263 0.742336 0.847433
Si Si2 0.498668 0.267029 0.995827
Si Si3 0.283052 0.863745 0.158615
Si Si4 0.767557 0.867747 0.440050
Si Si5 0.454443 0.239945 0.695659
Si Si6 0.967151 0.351858 0.717277
Si Si7 0.240910 0.860458 0.055265
Si Si8 0.078152 0.014024 0.703360
O O1 0.305911 0.719805 0.898964
O O2 0.451354 0.848335 0.831259
O O3 0.430343 0.623206 0.830764
O O4 0.209569 0.760494 0.817800
O O5 0.599718 0.354886 0.024569
O O6 0.399254 0.188342 0.029135
O O7 0.381676 0.329757 0.963689
O O8 0.614776 0.191263 0.967817
O O9 0.444574 0.825992 0.168085
O O10 0.192167 0.818911 0.201928
O O11 0.237366 0.822217 0.108377
O O12 0.250000 0.000000 0.159780
O O13 0.750000 0.000000 0.423391
O O14 0.471996 0.250000 0.750000
O O15 0.480341 0.105122 0.682788
O O16 0.026496 0.250000 0.750000
O O17 0.994859 0.461253 0.749179
O O18 0.250000 0.000000 0.053236
O O19 0.250000 0.000000 0.713117
#
# Coordination Sequence:
#
# PCOD9409620 Si02
#       8
#     8   8   8   8   8   8   8   8
#     4  10  20  35  58  82 107 142 188 238 281 332
#     4  10  22  38  60  84 109 147 189 235 298 359
#     4  11  23  36  52  79 113 147 182 228 282 340
#     4  11  21  37  58  84 116 148 186 235 289 349
#     4  11  20  34  55  79 110 150 189 227 276 333
#     4  10  20  35  53  77 111 146 183 227 274 327
#     4  10  21  39  60  82 110 143 188 242 296 351
#     4   9  18  34  56  81 107 145 191 234 276 327
#
# _framework density 20.436986000000001
#
# number of rings (size 3 to 8) (size 9 to 14) (size 15 to 20)
#    0.000    1.750    0.000    6.375    0.000    0.000 
#    0.000    1.875    0.000   12.000    0.000    0.000 
#    0.000    0.000    0.000    0.000    0.000    0.000 
#
# Total GULP energy -357002.616936 kJ/mol
# GULP energy per Si atom -5578.165890 kJ/mol
# Density = 2.039047 g / cm^3
# Si number density = 20.436986 Si / 1000 Ang^3
#
#
#
# Elastic Constant Matrix: (Units=GPa)
#
#
# Indices 1 2 3 4 5 6 
#
# 1 83.6392 19.3736 27.2369 0.0000 0.0000 0.0000
# 2 19.3736 44.5297 -1.1845 0.0000 0.0000 0.0000
# 3 27.2369 -1.1845 85.0849 0.0000 0.0000 0.0000
# 4 0.0000 0.0000 0.0000 10.8350 0.0000 0.0000
# 5 0.0000 0.0000 0.0000 0.0000 28.0269 0.0000
# 6 0.0000 0.0000 0.0000 0.0000 0.0000 20.0638
#
#
#
# Elastic Compliance Matrix: (Units=1/GPa)
#
#
# Indices 1 2 3 4 5 6 
#
# 1 0.015116 -0.006708 -0.004932 0.000000 0.000000 0.000000
# 2 -0.006708 0.025442 0.002501 0.000000 0.000000 0.000000
# 3 -0.004932 0.002501 0.013367 0.000000 0.000000 0.000000
# 4 0.000000 0.000000 0.000000 0.092294 0.000000 0.000000
# 5 0.000000 0.000000 0.000000 0.000000 0.035680 0.000000
# 6 0.000000 0.000000 0.000000 0.000000 0.000000 0.049841
#
#
# Mechanical properties :
#
#
# Convention : Reuss Voigt Hill
#
# Bulk Modulus (GPa) = 28.05256 33.78954 30.92105
# Shear Modulus (GPa) = 19.09133 22.97364 21.03249
#
# Velocity S-wave (km/s) = 3.05971 3.35643 3.21150
# Velocity P-wave (km/s) = 5.12236 5.62052 5.37721
#
# Compressibility (1/GPa) = 0.03564738
#
# Stress axis : x y z
#
# Youngs Moduli (GPa) = 66.15499 39.30541 74.81296
#
# Poissons Ratio (x) = 0.26365 0.36899
# Poissons Ratio (y) = 0.44375 -0.18714
# Poissons Ratio (z) = 0.32629 -0.09832
#
# Static dielectric constant tensor:
#      x y z
#    x 1.728340 0.000000 0.000000 
#    y 0.000000 1.779250 0.000000 
#    z 0.000000 0.000000 1.750060 
# 
# From -- ./inp_files/44594.got.cif
#   From: 2010.05.17/outbox.cif.g08.bks.cpg/sg52_23_cif.got.tgz:44594.got - 2010.06.03 12:15:38.
