data_PCOD9409654
_publ_section_title
;
Structure prediction by ZEFSAII (Michael W. Deem and Ramdas Pophale) SiO2 
 PCOD9409654
Probable space group: P N N A
;
_chemical_formula_sum "Si O2"
_cell_formula_units_Z 48
_cell_length_a 10.251135
_cell_length_b 11.857695
_cell_length_c 20.457191
_cell_angle_alpha 90.000000
_cell_angle_beta 90.000000
_cell_angle_gamma 90.000000
_cell_volume 2486.670420
_symmetry_space_group_name_H-M "P N N A"
_symmetry_group_IT_number 52
_symmetry_cell_setting 'orthorhombic'
loop_
_space_group_symop_operation_xyz
x,y,z
1/2-x,-y,z
x,1/2-y,1/2-z
1/2-x,1/2+y,1/2-z
-x,-y,-z
1/2+x,y,-z
-x,1/2+y,1/2+z
1/2+x,1/2-y,1/2+z
loop_
_atom_site_type_symbol
_atom_site_label
_atom_site_fract_x
_atom_site_fract_y
_atom_site_fract_z
Si Si1 0.990154 0.650510 0.132800
Si Si2 0.255250 0.131087 0.286139
Si Si3 0.695103 0.623665 0.444004
Si Si4 0.033640 0.096915 0.392211
Si Si5 0.452742 0.722034 0.505345
Si Si6 0.294733 0.289006 0.824107
O O1 0.998019 0.748061 0.078686
O O2 0.845783 0.655386 0.162790
O O3 0.098183 0.653170 0.188987
O O4 0.017505 0.534589 0.094651
O O5 0.216333 0.250000 0.250000
O O6 0.161981 0.119903 0.349284
O O7 0.250000 0.000000 0.256460
O O8 0.750000 0.500000 0.437116
O O9 0.552025 0.631608 0.475131
O O10 0.801582 0.688325 0.488781
O O11 0.694155 0.684217 0.373947
O O12 0.034448 0.171847 0.456889
O O13 0.911497 0.130653 0.346678
O O14 0.307410 0.250000 0.750000
#
# Coordination Sequence:
#
# PCOD9409654 Si02
#       6
#     8   8   8   8   8   8
#     4  10  20  35  57  81 107 139 178 227 276 323
#     4  10  21  38  57  81 112 146 186 228 273 328
#     4  10  21  36  55  78 108 145 178 219 270 328
#     4  10  20  35  57  81 107 139 178 227 276 323
#     4  10  20  36  56  80 108 136 178 224 272 328
#     4  10  21  36  54  79 110 141 181 221 267 326
#
# _framework density 19.302918999999999
#
# number of rings (size 3 to 8) (size 9 to 14) (size 15 to 20)
#    0.000    2.000    0.000    3.500    0.000    1.333 
#    0.000   18.333    0.000    0.000    0.000    0.000 
#    0.000    0.000    0.000    0.000    0.000    0.000 
#
# Total GULP energy -267619.173331 kJ/mol
# GULP energy per Si atom -5575.399444 kJ/mol
# Density = 1.925898 g / cm^3
# Si number density = 19.302919 Si / 1000 Ang^3
#
#
#
# Elastic Constant Matrix: (Units=GPa)
#
#
# Indices 1 2 3 4 5 6 
#
# 1 74.8075 -15.4116 27.9632 0.0000 0.0000 0.0000
# 2 -15.4116 59.0725 17.0866 0.0000 0.0000 0.0000
# 3 27.9632 17.0866 47.1739 0.0000 0.0000 0.0000
# 4 0.0000 0.0000 0.0000 17.7909 0.0000 0.0000
# 5 0.0000 0.0000 0.0000 0.0000 19.6884 0.0000
# 6 0.0000 0.0000 0.0000 0.0000 0.0000 32.5288
#
#
#
# Elastic Compliance Matrix: (Units=1/GPa)
#
#
# Indices 1 2 3 4 5 6 
#
# 1 0.021788 0.010522 -0.016726 0.000000 0.000000 0.000000
# 2 0.010522 0.023991 -0.014927 0.000000 0.000000 0.000000
# 3 -0.016726 -0.014927 0.036520 0.000000 0.000000 0.000000
# 4 0.000000 0.000000 0.000000 0.056209 0.000000 0.000000
# 5 0.000000 0.000000 0.000000 0.000000 0.050791 0.000000
# 6 0.000000 0.000000 0.000000 0.000000 0.000000 0.030742
#
#
# Mechanical properties :
#
#
# Convention : Reuss Voigt Hill
#
# Bulk Modulus (GPa) = 24.97721 26.70337 25.84029
# Shear Modulus (GPa) = 18.13908 24.09600 21.11754
#
# Velocity S-wave (km/s) = 3.06879 3.53697 3.31117
# Velocity P-wave (km/s) = 5.05216 5.52667 5.29474
#
# Compressibility (1/GPa) = 0.04003650
#
# Stress axis : x y z
#
# Youngs Moduli (GPa) = 45.89736 41.68210 27.38255
#
# Poissons Ratio (x) = -0.43859 0.45801
# Poissons Ratio (y) = -0.48295 0.40874
# Poissons Ratio (z) = 0.76769 0.62219
#
# Static dielectric constant tensor:
#      x y z
#    x 1.667200 0.000000 0.000000 
#    y 0.000000 1.706630 0.000000 
#    z 0.000000 0.000000 1.625890 
# 
# From -- ./inp_files/32226.got.cif
#   From: 2010.05.17/outbox.cif.g08.bks.cpg/sg52_17_cif.got.tgz:32226.got - 2010.06.03 12:15:38.
