data_PCOD9409980
_publ_section_title
;
Structure prediction by ZEFSAII (Michael W. Deem and Ramdas Pophale) SiO2 
 PCOD9409980
Probable space group: P N N A
;
_chemical_formula_sum "Si O2"
_cell_formula_units_Z 24
_cell_length_a 10.476827
_cell_length_b 8.434511
_cell_length_c 10.009920
_cell_angle_alpha 90.000000
_cell_angle_beta 90.000000
_cell_angle_gamma 90.000000
_cell_volume 884.545726
_symmetry_space_group_name_H-M "P N N A"
_symmetry_group_IT_number 52
_symmetry_cell_setting 'orthorhombic'
loop_
_space_group_symop_operation_xyz
x,y,z
1/2-x,-y,z
x,1/2-y,1/2-z
1/2-x,1/2+y,1/2-z
-x,-y,-z
1/2+x,y,-z
-x,1/2+y,1/2+z
1/2+x,1/2-y,1/2+z
loop_
_atom_site_type_symbol
_atom_site_label
_atom_site_fract_x
_atom_site_fract_y
_atom_site_fract_z
Si Si1 0.069395 0.441710 0.364778
Si Si2 0.865925 0.250000 0.250000
Si Si3 0.324502 0.668948 0.969181
Si Si4 0.958318 0.250000 0.750000
O O1 0.139680 0.280073 0.406535
O O2 0.000000 0.500000 0.500000
O O3 0.957414 0.398114 0.261428
O O4 0.124255 0.601890 0.301935
O O5 0.780061 0.242879 0.120591
O O6 0.250000 0.500000 0.994053
O O7 0.450612 0.685668 0.872388
#
# Coordination Sequence:
#
# PCOD9409980 Si02
#       4
#     8   4   8   4
#     4  10  22  39  70 102 143 198 244 297 375 440
#     4  11  22  42  74  97 146 191 244 306 363 436
#     4  10  20  37  69 105 144 195 250 296 370 449
#     4   9  18  38  60 103 150 195 236 308 359 450
#
# _framework density 27.132570999999999
#
# number of rings (size 3 to 8) (size 9 to 14) (size 15 to 20)
#    0.000    2.000    3.333    0.000    0.000    1.333 
#    0.000    0.000    7.333    0.000    0.000    0.000 
#    0.000    0.333    0.000    0.000    0.000    0.000 
#
# Total GULP energy -133917.072797 kJ/mol
# GULP energy per Si atom -5579.878033 kJ/mol
# Density = 2.707082 g / cm^3
# Si number density = 27.132571 Si / 1000 Ang^3
#
#
#
# Elastic Constant Matrix: (Units=GPa)
#
#
# Indices 1 2 3 4 5 6 
#
# 1 74.1944 44.8386 42.6744 0.0000 0.0000 0.0000
# 2 44.8386 209.3628 57.4554 0.0000 0.0000 0.0000
# 3 42.6744 57.4554 104.3615 0.0000 0.0000 0.0000
# 4 0.0000 0.0000 0.0000 68.6117 0.0000 0.0000
# 5 0.0000 0.0000 0.0000 0.0000 14.5820 0.0000
# 6 0.0000 0.0000 0.0000 0.0000 0.0000 39.5045
#
#
#
# Elastic Compliance Matrix: (Units=1/GPa)
#
#
# Indices 1 2 3 4 5 6 
#
# 1 0.018457 -0.002217 -0.006327 0.000000 0.000000 0.000000
# 2 -0.002217 0.005893 -0.002338 0.000000 0.000000 0.000000
# 3 -0.006327 -0.002338 0.013456 0.000000 0.000000 0.000000
# 4 0.000000 0.000000 0.000000 0.014575 0.000000 0.000000
# 5 0.000000 0.000000 0.000000 0.000000 0.068578 0.000000
# 6 0.000000 0.000000 0.000000 0.000000 0.000000 0.025314
#
#
# Mechanical properties :
#
#
# Convention : Reuss Voigt Hill
#
# Bulk Modulus (GPa) = 62.33146 75.31727 68.82437
# Shear Modulus (GPa) = 28.83812 40.73632 34.78722
#
# Velocity S-wave (km/s) = 3.26369 3.87897 3.58456
# Velocity P-wave (km/s) = 6.10123 6.91962 6.52327
#
# Compressibility (1/GPa) = 0.01604326
#
# Stress axis : x y z
#
# Youngs Moduli (GPa) = 54.18108 169.70235 74.31517
#
# Poissons Ratio (x) = 0.37615 0.47018
# Poissons Ratio (y) = 0.12010 0.17373
# Poissons Ratio (z) = 0.34279 0.39673
#
# Static dielectric constant tensor:
#      x y z
#    x 2.158290 0.000000 0.000000 
#    y 0.000000 2.125000 0.000000 
#    z 0.000000 0.000000 1.989400 
# 
# From -- ./inp_files/17438.got.cif
#   From: 2010.05.17/outbox.cif.g08.bks.cpg/sg52_9_cif.got.tgz:17438.got - 2010.06.03 12:15:38.
