data_PCOD9409060
_publ_section_title
;
Structure prediction by ZEFSAII (Michael W. Deem and Ramdas Pophale) SiO2 
 PCOD9409060
Probable space group: P N N A
;
_chemical_formula_sum "Si O2"
_cell_formula_units_Z 52
_cell_length_a 10.605542
_cell_length_b 8.455492
_cell_length_c 28.564575
_cell_angle_alpha 90.000000
_cell_angle_beta 90.000000
_cell_angle_gamma 90.000000
_cell_volume 2561.530421
_symmetry_space_group_name_H-M "P N N A"
_symmetry_group_IT_number 52
_symmetry_cell_setting 'orthorhombic'
loop_
_space_group_symop_operation_xyz
x,y,z
1/2-x,-y,z
x,1/2-y,1/2-z
1/2-x,1/2+y,1/2-z
-x,-y,-z
1/2+x,y,-z
-x,1/2+y,1/2+z
1/2+x,1/2-y,1/2+z
loop_
_atom_site_type_symbol
_atom_site_label
_atom_site_fract_x
_atom_site_fract_y
_atom_site_fract_z
Si Si1 0.615668 0.789757 0.424260
Si Si2 0.841756 0.705360 0.553435
Si Si3 0.750000 0.000000 0.026645
Si Si4 0.470582 0.823877 0.698009
Si Si5 0.144277 0.114113 0.285438
Si Si6 0.801460 0.327617 0.645773
Si Si7 0.750000 0.000000 0.497296
Si Si8 0.750000 0.500000 0.152648
O O1 0.474358 0.724381 0.420537
O O2 0.697684 0.638540 0.440510
O O3 0.643996 0.914537 0.465859
O O4 0.661259 0.889319 0.379736
O O5 0.846216 0.579024 0.510989
O O6 0.728183 0.679760 0.590428
O O7 0.814561 0.869912 0.528764
O O8 0.473188 0.750000 0.750000
O O9 0.557207 0.714371 0.663631
O O10 0.537304 0.994737 0.699831
O O11 0.332279 0.871622 0.680934
O O12 0.103368 0.250000 0.250000
O O13 0.214376 0.197959 0.328527
O O14 0.250000 0.000000 0.262640
O O15 0.750000 0.500000 0.659542
#
# Coordination Sequence:
#
# PCOD9409060 Si02
#       8
#     8   8   4   8   8   8   4   4
#     4  10  22  42  64  90 132 173 222 271 324 388
#     4  11  21  37  62  95 130 172 216 269 331 393
#     4  10  22  42  59 100 134 176 213 268 330 392
#     4  11  25  45  68  93 132 171 222 288 335 408
#     4  10  19  35  61  91 124 163 208 265 344 396
#     4  11  22  37  62 101 134 169 216 277 339 401
#     4   9  22  36  60  92 128 176 218 266 330 389
#     4  11  26  46  65  94 122 180 233 264 326 407
#
# _framework density 20.300364999999999
#
# number of rings (size 3 to 8) (size 9 to 14) (size 15 to 20)
#    0.000    1.538    0.769    5.077    5.385    1.846 
#    5.538    3.846    0.000    0.000    0.000    0.000 
#    0.000    0.000    0.000    0.000    0.000    0.000 
#
# Total GULP energy -290017.651784 kJ/mol
# GULP energy per Si atom -5577.262534 kJ/mol
# Density = 2.025416 g / cm^3
# Si number density = 20.300365 Si / 1000 Ang^3
#
#
#
# Elastic Constant Matrix: (Units=GPa)
#
#
# Indices 1 2 3 4 5 6 
#
# 1 79.2800 16.0593 24.7043 0.0000 0.0000 0.0000
# 2 16.0593 115.5101 29.3849 0.0000 0.0000 0.0000
# 3 24.7043 29.3849 70.3293 0.0000 0.0000 0.0000
# 4 0.0000 0.0000 0.0000 -47.9677 0.0000 0.0000
# 5 0.0000 0.0000 0.0000 0.0000 -1.9734 0.0000
# 6 0.0000 0.0000 0.0000 0.0000 0.0000 6.3875
#
#
#
# Elastic Compliance Matrix: (Units=1/GPa)
#
#
# Indices 1 2 3 4 5 6 
#
# 1 0.014228 -0.000791 -0.004667 0.000000 0.000000 0.000000
# 2 -0.000791 0.009731 -0.003788 0.000000 0.000000 0.000000
# 3 -0.004667 -0.003788 0.017441 0.000000 0.000000 0.000000
# 4 0.000000 0.000000 0.000000 -0.020847 0.000000 0.000000
# 5 0.000000 0.000000 0.000000 0.000000 -0.506742 0.000000
# 6 0.000000 0.000000 0.000000 0.000000 0.000000 0.156556
#
#
# Mechanical properties :
#
#
# Convention : Reuss Voigt Hill
#
# Bulk Modulus (GPa) = 43.65360 45.04627 44.34994
# Shear Modulus (GPa) = -16.47420 4.28734 -6.09343
#
# Velocity S-wave (km/s) = -2.85181 1.45483 -1.73440
# Velocity P-wave (km/s) = 3.27212 5.00601 4.22888
#
# Compressibility (1/GPa) = 0.02290762
#
# Stress axis : x y z
#
# Youngs Moduli (GPa) = 70.28336 102.76630 57.33609
#
# Poissons Ratio (x) = 0.08126 0.26761
# Poissons Ratio (y) = 0.05558 0.21719
# Poissons Ratio (z) = 0.32804 0.38927
#
# Static dielectric constant tensor:
#      x y z
#    x 1.798510 0.000000 0.000000 
#    y 0.000000 1.704710 0.000000 
#    z 0.000000 0.000000 1.729760 
# 
# From -- ./inp_files/42759.got.cif
#   From: 2010.05.17/outbox.cif.g08.bks.cpg/sg52_22_cif.got.tgz:42759.got - 2010.06.03 12:15:38.
