data_PCOD9409408
_publ_section_title
;
Structure prediction by ZEFSAII (Michael W. Deem and Ramdas Pophale) SiO2 
 PCOD9409408
Probable space group: P N N A
;
_chemical_formula_sum "Si O2"
_cell_formula_units_Z 28
_cell_length_a 13.741341
_cell_length_b 7.452038
_cell_length_c 12.276586
_cell_angle_alpha 90.000000
_cell_angle_beta 90.000000
_cell_angle_gamma 90.000000
_cell_volume 1257.134625
_symmetry_space_group_name_H-M "P N N A"
_symmetry_group_IT_number 52
_symmetry_cell_setting 'orthorhombic'
loop_
_space_group_symop_operation_xyz
x,y,z
1/2-x,-y,z
x,1/2-y,1/2-z
1/2-x,1/2+y,1/2-z
-x,-y,-z
1/2+x,y,-z
-x,1/2+y,1/2+z
1/2+x,1/2-y,1/2+z
loop_
_atom_site_type_symbol
_atom_site_label
_atom_site_fract_x
_atom_site_fract_y
_atom_site_fract_z
Si Si1 0.073658 0.573652 0.143266
Si Si2 0.978306 0.560540 0.355437
Si Si3 0.750000 0.000000 0.808017
Si Si4 0.382775 0.716789 0.460088
O O1 0.981246 0.541960 0.225120
O O2 0.053993 0.777836 0.111229
O O3 0.162625 0.550279 0.227332
O O4 0.095744 0.427836 0.050913
O O5 0.025524 0.380620 0.401542
O O6 0.883653 0.628119 0.420242
O O7 0.791384 0.844102 0.886966
#
# Coordination Sequence:
#
# PCOD9409408 Si02
#       4
#     8   8   4   8
#     4  10  20  32  54  77 106 141 178 228 275 322
#     4   9  19  33  49  77 105 139 177 214 279 336
#     4  10  20  30  52  84 106 134 178 226 282 314
#     4  10  20  32  50  79 109 135 175 228 271 331
#
# _framework density 22.272872
#
# number of rings (size 3 to 8) (size 9 to 14) (size 15 to 20)
#    0.000    2.286    0.000    4.286   16.000    0.000 
#    0.000    0.000    0.000    0.000   44.571    0.000 
#    0.000    0.000    0.000    0.000    0.000    0.000 
#
# Total GULP energy -155894.316080 kJ/mol
# GULP energy per Si atom -5567.654146 kJ/mol
# Density = 2.222218 g / cm^3
# Si number density = 22.272872 Si / 1000 Ang^3
#
#
#
# Elastic Constant Matrix: (Units=GPa)
#
#
# Indices 1 2 3 4 5 6 
#
# 1 36.6282 -3.0270 16.8541 0.0000 0.0000 0.0000
# 2 -3.0270 77.3985 -17.1906 0.0000 0.0000 0.0000
# 3 16.8541 -17.1906 60.2958 0.0000 0.0000 0.0000
# 4 0.0000 0.0000 0.0000 35.7711 0.0000 0.0000
# 5 0.0000 0.0000 0.0000 0.0000 40.3599 0.0000
# 6 0.0000 0.0000 0.0000 0.0000 0.0000 26.8668
#
#
#
# Elastic Compliance Matrix: (Units=1/GPa)
#
#
# Indices 1 2 3 4 5 6 
#
# 1 0.031374 -0.000770 -0.008989 0.000000 0.000000 0.000000
# 2 -0.000770 0.013812 0.004153 0.000000 0.000000 0.000000
# 3 -0.008989 0.004153 0.020282 0.000000 0.000000 0.000000
# 4 0.000000 0.000000 0.000000 0.027956 0.000000 0.000000
# 5 0.000000 0.000000 0.000000 0.000000 0.024777 0.000000
# 6 0.000000 0.000000 0.000000 0.000000 0.000000 0.037221
#
#
# Mechanical properties :
#
#
# Convention : Reuss Voigt Hill
#
# Bulk Modulus (GPa) = 18.43080 18.62171 18.52626
# Shear Modulus (GPa) = 27.06823 32.44529 29.75676
#
# Velocity S-wave (km/s) = 3.48990 3.82084 3.65911
# Velocity P-wave (km/s) = 4.95299 5.27674 5.11743
#
# Compressibility (1/GPa) = 0.05425700
#
# Stress axis : x y z
#
# Youngs Moduli (GPa) = 31.87344 72.39830 49.30560
#
# Poissons Ratio (x) = 0.05571 0.44322
# Poissons Ratio (y) = 0.02453 -0.20477
# Poissons Ratio (z) = 0.28652 -0.30068
#
# Static dielectric constant tensor:
#      x y z
#    x 1.896780 0.000000 0.000000 
#    y 0.000000 1.871210 0.000000 
#    z 0.000000 0.000000 1.960390 
# 
# From -- ./inp_files/20132.got.cif
#   From: 2010.05.17/outbox.cif.g08.bks.cpg/sg52_11_cif.got.tgz:20132.got - 2010.06.03 12:15:38.
