data_PCOD9409976
_publ_section_title
;
Structure prediction by ZEFSAII (Michael W. Deem and Ramdas Pophale) SiO2 
 PCOD9409976
Probable space group: P N N A
;
_chemical_formula_sum "Si O2"
_cell_formula_units_Z 48
_cell_length_a 14.081283
_cell_length_b 19.206731
_cell_length_c 9.138004
_cell_angle_alpha 90.000000
_cell_angle_beta 90.000000
_cell_angle_gamma 90.000000
_cell_volume 2471.422661
_symmetry_space_group_name_H-M "P N N A"
_symmetry_group_IT_number 52
_symmetry_cell_setting 'orthorhombic'
loop_
_space_group_symop_operation_xyz
x,y,z
1/2-x,-y,z
x,1/2-y,1/2-z
1/2-x,1/2+y,1/2-z
-x,-y,-z
1/2+x,y,-z
-x,1/2+y,1/2+z
1/2+x,1/2-y,1/2+z
loop_
_atom_site_type_symbol
_atom_site_label
_atom_site_fract_x
_atom_site_fract_y
_atom_site_fract_z
Si Si1 0.247612 0.078002 0.693829
Si Si2 0.605871 0.820597 0.152559
Si Si3 0.894469 0.830626 0.783845
Si Si4 0.880391 0.426395 0.913767
Si Si5 0.585281 0.085608 0.508763
Si Si6 0.689081 0.823406 0.837045
O O1 0.310105 0.130005 0.788028
O O2 0.298959 0.078122 0.535157
O O3 0.139481 0.091287 0.645703
O O4 0.250000 0.000000 0.756212
O O5 0.609454 0.750000 0.250000
O O6 0.499601 0.853363 0.165571
O O7 0.628267 0.810350 0.982125
O O8 0.904578 0.750000 0.750000
O O9 0.871940 0.863918 0.627902
O O10 0.799179 0.841320 0.877685
O O11 0.904929 0.509155 0.915514
O O12 0.851173 0.385440 0.767147
O O13 0.976465 0.394556 0.980607
O O14 0.690510 0.750000 0.750000
#
# Coordination Sequence:
#
# PCOD9409976 Si02
#       6
#     8   8   8   8   8   8
#     4  10  20  38  62  90 121 162 202 250 308 368
#     4  11  24  42  63  88 128 165 204 262 316 364
#     4  10  22  38  62  90 121 162 202 259 304 362
#     4  10  20  38  64  92 120 163 205 255 301 368
#     4  10  20  37  67  90 122 162 211 246 309 374
#     4  11  24  41  63  92 124 163 211 253 307 375
#
# _framework density 19.422011999999999
#
# number of rings (size 3 to 8) (size 9 to 14) (size 15 to 20)
#    0.000    1.667    3.333    1.000    4.667    1.333 
#    3.000    2.500    0.000    0.000    0.000    0.000 
#    0.000    0.000    0.000    0.000    0.000    0.000 
#
# Total GULP energy -267359.567900 kJ/mol
# GULP energy per Si atom -5569.990998 kJ/mol
# Density = 1.937781 g / cm^3
# Si number density = 19.422012 Si / 1000 Ang^3
#
#
#
# Elastic Constant Matrix: (Units=GPa)
#
#
# Indices 1 2 3 4 5 6 
#
# 1 95.9975 16.7499 15.0402 0.0000 0.0000 0.0000
# 2 16.7499 65.8368 29.8169 0.0000 0.0000 0.0000
# 3 15.0402 29.8169 70.3464 0.0000 0.0000 0.0000
# 4 0.0000 0.0000 0.0000 30.2788 0.0000 0.0000
# 5 0.0000 0.0000 0.0000 0.0000 44.2127 0.0000
# 6 0.0000 0.0000 0.0000 0.0000 0.0000 27.4096
#
#
#
# Elastic Compliance Matrix: (Units=1/GPa)
#
#
# Indices 1 2 3 4 5 6 
#
# 1 0.011018 -0.002149 -0.001445 0.000000 0.000000 0.000000
# 2 -0.002149 0.019217 -0.007686 0.000000 0.000000 0.000000
# 3 -0.001445 -0.007686 0.017782 0.000000 0.000000 0.000000
# 4 0.000000 0.000000 0.000000 0.033026 0.000000 0.000000
# 5 0.000000 0.000000 0.000000 0.000000 0.022618 0.000000
# 6 0.000000 0.000000 0.000000 0.000000 0.000000 0.036484
#
#
# Mechanical properties :
#
#
# Convention : Reuss Voigt Hill
#
# Bulk Modulus (GPa) = 39.28056 39.48830 39.38443
# Shear Modulus (GPa) = 29.20739 31.75179 30.47959
#
# Velocity S-wave (km/s) = 3.88213 4.04770 3.96578
# Velocity P-wave (km/s) = 6.35321 6.49777 6.42589
#
# Compressibility (1/GPa) = 0.02545789
#
# Stress axis : x y z
#
# Youngs Moduli (GPa) = 90.75848 52.03845 56.23679
#
# Poissons Ratio (x) = 0.11182 0.08126
# Poissons Ratio (y) = 0.19502 0.43222
# Poissons Ratio (z) = 0.13114 0.39995
#
# Static dielectric constant tensor:
#      x y z
#    x 1.723710 0.000000 0.000000 
#    y 0.000000 1.666680 0.000000 
#    z 0.000000 0.000000 1.641340 
# 
# From -- ./inp_files/10463.got.cif
#   From: 2010.05.17/outbox.cif.g08.bks.cpg/sg52_6_cif.got.tgz:10463.got - 2010.06.03 12:15:38.
