data_PCOD9409240
_publ_section_title
;
Structure prediction by ZEFSAII (Michael W. Deem and Ramdas Pophale) SiO2 
 PCOD9409240
Probable space group: P N N A
;
_chemical_formula_sum "Si O2"
_cell_formula_units_Z 48
_cell_length_a 17.133888
_cell_length_b 9.520152
_cell_length_c 14.552752
_cell_angle_alpha 90.000000
_cell_angle_beta 90.000000
_cell_angle_gamma 90.000000
_cell_volume 2373.804422
_symmetry_space_group_name_H-M "P N N A"
_symmetry_group_IT_number 52
_symmetry_cell_setting 'orthorhombic'
loop_
_space_group_symop_operation_xyz
x,y,z
1/2-x,-y,z
x,1/2-y,1/2-z
1/2-x,1/2+y,1/2-z
-x,-y,-z
1/2+x,y,-z
-x,1/2+y,1/2+z
1/2+x,1/2-y,1/2+z
loop_
_atom_site_type_symbol
_atom_site_label
_atom_site_fract_x
_atom_site_fract_y
_atom_site_fract_z
Si Si1 0.690462 0.619749 0.806429
Si Si2 0.671482 0.408548 0.276331
Si Si3 0.083177 0.686971 0.027427
Si Si4 0.055666 0.544801 0.584462
Si Si5 0.564909 0.091940 0.750790
Si Si6 0.549430 0.039412 0.386770
O O1 0.750000 0.500000 0.836698
O O2 0.723963 0.750000 0.750000
O O3 0.645948 0.685157 0.892677
O O4 0.628191 0.531927 0.745058
O O5 0.750000 0.500000 0.277390
O O6 0.694353 0.250000 0.250000
O O7 0.621213 0.442960 0.369426
O O8 0.611821 0.441417 0.192962
O O9 0.997832 0.676212 0.077547
O O10 0.093499 0.813420 0.956543
O O11 0.087147 0.542142 0.971022
O O12 0.000000 0.500000 0.500000
O O13 0.996415 0.579492 0.666962
O O14 0.596254 0.250000 0.750000
O O15 0.517397 0.060224 0.657294
#
# Coordination Sequence:
#
# PCOD9409240 Si02
#       6
#     8   8   8   8   8   8
#     4  11  24  42  60  88 128 175 215 261 322 389
#     4  11  26  43  65  94 136 180 213 264 336 401
#     4  10  20  38  66  99 119 165 214 274 319 377
#     4  11  22  39  68  97 128 161 218 274 319 379
#     4  10  19  37  66  93 123 167 206 260 319 388
#     4   9  20  38  65  93 129 159 219 258 322 388
#
# _framework density 20.220704999999999
#
# number of rings (size 3 to 8) (size 9 to 14) (size 15 to 20)
#    0.000    1.667    1.667    2.500    2.333    5.333 
#    0.000    3.333    0.000    0.000    0.000    0.000 
#    0.000    0.000    0.000    0.000    0.000    0.000 
#
# Total GULP energy -267630.493811 kJ/mol
# GULP energy per Si atom -5575.635288 kJ/mol
# Density = 2.017468 g / cm^3
# Si number density = 20.220705 Si / 1000 Ang^3
#
#
#
# Elastic Constant Matrix: (Units=GPa)
#
#
# Indices 1 2 3 4 5 6 
#
# 1 78.0105 45.5292 30.0461 0.0000 0.0000 0.0000
# 2 45.5292 106.9298 38.3029 0.0000 0.0000 0.0000
# 3 30.0461 38.3029 108.5956 0.0000 0.0000 0.0000
# 4 0.0000 0.0000 0.0000 31.8737 0.0000 0.0000
# 5 0.0000 0.0000 0.0000 0.0000 3.9337 0.0000
# 6 0.0000 0.0000 0.0000 0.0000 0.0000 27.2292
#
#
#
# Elastic Compliance Matrix: (Units=1/GPa)
#
#
# Indices 1 2 3 4 5 6 
#
# 1 0.017657 -0.006602 -0.002557 0.000000 0.000000 0.000000
# 2 -0.006602 0.013173 -0.002820 0.000000 0.000000 0.000000
# 3 -0.002557 -0.002820 0.010910 0.000000 0.000000 0.000000
# 4 0.000000 0.000000 0.000000 0.031374 0.000000 0.000000
# 5 0.000000 0.000000 0.000000 0.000000 0.254212 0.000000
# 6 0.000000 0.000000 0.000000 0.000000 0.000000 0.036725
#
#
# Mechanical properties :
#
#
# Convention : Reuss Voigt Hill
#
# Bulk Modulus (GPa) = 56.23233 57.92134 57.07684
# Shear Modulus (GPa) = 12.69244 24.58451 18.63847
#
# Velocity S-wave (km/s) = 2.50810 3.49063 3.03933
# Velocity P-wave (km/s) = 6.02139 6.70468 6.37220
#
# Compressibility (1/GPa) = 0.01778336
#
# Stress axis : x y z
#
# Youngs Moduli (GPa) = 56.63576 75.91258 91.65631
#
# Poissons Ratio (x) = 0.50119 0.23432
# Poissons Ratio (y) = 0.37392 0.25843
# Poissons Ratio (z) = 0.14479 0.21404
#
# Static dielectric constant tensor:
#      x y z
#    x 1.731170 0.000000 0.000000 
#    y 0.000000 1.770070 0.000000 
#    z 0.000000 0.000000 1.927300 
# 
# From -- ./inp_files/28046.got.cif
#   From: 2010.05.17/outbox.cif.g08.bks.cpg/sg52_15_cif.got.tgz:28046.got - 2010.06.03 12:15:38.
