data_PCOD9409218
_publ_section_title
;
Structure prediction by ZEFSAII (Michael W. Deem and Ramdas Pophale) SiO2 
 PCOD9409218
Probable space group: P N N A
;
_chemical_formula_sum "Si O2"
_cell_formula_units_Z 60
_cell_length_a 22.118331
_cell_length_b 11.811882
_cell_length_c 11.133364
_cell_angle_alpha 90.000000
_cell_angle_beta 90.000000
_cell_angle_gamma 90.000000
_cell_volume 2908.692835
_symmetry_space_group_name_H-M "P N N A"
_symmetry_group_IT_number 52
_symmetry_cell_setting 'orthorhombic'
loop_
_space_group_symop_operation_xyz
x,y,z
1/2-x,-y,z
x,1/2-y,1/2-z
1/2-x,1/2+y,1/2-z
-x,-y,-z
1/2+x,y,-z
-x,1/2+y,1/2+z
1/2+x,1/2-y,1/2+z
loop_
_atom_site_type_symbol
_atom_site_label
_atom_site_fract_x
_atom_site_fract_y
_atom_site_fract_z
Si Si1 0.844394 0.380056 0.238821
Si Si2 0.542731 0.328354 0.532945
Si Si3 0.845559 0.366903 0.966461
Si Si4 0.204895 0.867193 0.979204
Si Si5 0.524022 0.841489 0.639675
Si Si6 0.323594 0.892918 0.098516
Si Si7 0.464344 0.489621 0.681853
Si Si8 0.750000 0.500000 0.808318
O O1 0.866233 0.250000 0.250000
O O2 0.791295 0.382979 0.336359
O O3 0.896543 0.457890 0.288743
O O4 0.833729 0.409757 0.101583
O O5 0.516231 0.216875 0.466291
O O6 0.611801 0.333970 0.582004
O O7 0.500598 0.378705 0.638271
O O8 0.537728 0.421502 0.427064
O O9 0.912481 0.382555 0.914932
O O10 0.794984 0.421116 0.882785
O O11 0.839259 0.231805 0.980565
O O12 0.270154 0.830884 0.027468
O O13 0.179433 0.981758 0.037843
O O14 0.533280 0.750000 0.750000
O O15 0.493057 0.947968 0.704115
O O16 0.294490 0.920182 0.228210
#
# Coordination Sequence:
#
# PCOD9409218 Si02
#       8
#     8   8   8   8   8   8   8   4
#     4  10  20  38  62  89 118 166 209 250 316 388
#     4  10  19  37  62  94 120 158 215 266 323 387
#     4  11  23  40  60  85 129 159 212 258 313 402
#     4   9  20  37  62  87 112 162 207 258 313 372
#     4  10  23  36  63  96 118 167 212 265 329 390
#     4  10  21  36  64  90 119 154 213 266 318 377
#     4  10  20  36  61  88 126 157 206 263 315 380
#     4  10  24  38  58  96 120 172 212 262 344 376
#
# _framework density 20.627821999999998
#
# number of rings (size 3 to 8) (size 9 to 14) (size 15 to 20)
#    0.000    2.133    1.333    2.400    7.467    1.600 
#    2.400    4.667    5.867    0.000    0.000    0.000 
#    0.000    0.000    0.000    0.000    0.000    0.000 
#
# Total GULP energy -334604.665756 kJ/mol
# GULP energy per Si atom -5576.744429 kJ/mol
# Density = 2.058087 g / cm^3
# Si number density = 20.627822 Si / 1000 Ang^3
#
#
#
# Elastic Constant Matrix: (Units=GPa)
#
#
# Indices 1 2 3 4 5 6 
#
# 1 93.6733 9.0152 59.9214 0.0000 0.0000 0.0000
# 2 9.0152 29.9804 28.3783 0.0000 0.0000 0.0000
# 3 59.9214 28.3783 121.8235 0.0000 0.0000 0.0000
# 4 0.0000 0.0000 0.0000 18.0762 0.0000 0.0000
# 5 0.0000 0.0000 0.0000 0.0000 25.6357 0.0000
# 6 0.0000 0.0000 0.0000 0.0000 0.0000 26.2798
#
#
#
# Elastic Compliance Matrix: (Units=1/GPa)
#
#
# Indices 1 2 3 4 5 6 
#
# 1 0.015834 0.003349 -0.008569 0.000000 0.000000 0.000000
# 2 0.003349 0.043499 -0.011780 0.000000 0.000000 0.000000
# 3 -0.008569 -0.011780 0.015167 0.000000 0.000000 0.000000
# 4 0.000000 0.000000 0.000000 0.055321 0.000000 0.000000
# 5 0.000000 0.000000 0.000000 0.000000 0.039008 0.000000
# 6 0.000000 0.000000 0.000000 0.000000 0.000000 0.038052
#
#
# Mechanical properties :
#
#
# Convention : Reuss Voigt Hill
#
# Bulk Modulus (GPa) = 24.69057 48.90076 36.79567
# Shear Modulus (GPa) = 19.65550 23.87582 21.76566
#
# Velocity S-wave (km/s) = 3.09020 3.40583 3.25185
# Velocity P-wave (km/s) = 4.97272 6.26290 5.65473
#
# Compressibility (1/GPa) = 0.04050129
#
# Stress axis : x y z
#
# Youngs Moduli (GPa) = 63.15404 22.98917 65.93080
#
# Poissons Ratio (x) = -0.07700 0.56494
# Poissons Ratio (y) = -0.21152 0.77668
# Poissons Ratio (z) = 0.54114 0.27082
#
# Static dielectric constant tensor:
#      x y z
#    x 1.840910 0.000000 0.000000 
#    y 0.000000 1.760550 0.000000 
#    z 0.000000 0.000000 1.782340 
# 
# From -- ./inp_files/21750.got.cif
#   From: 2010.05.17/outbox.cif.g08.bks.cpg/sg52_11_cif.got.tgz:21750.got - 2010.06.03 12:15:38.
