data_PCOD9409385
_publ_section_title
;
Structure prediction by ZEFSAII (Michael W. Deem and Ramdas Pophale) SiO2 
 PCOD9409385
Probable space group: P N N A
;
_chemical_formula_sum "Si O2"
_cell_formula_units_Z 40
_cell_length_a 24.387079
_cell_length_b 6.606846
_cell_length_c 10.132506
_cell_angle_alpha 90.000000
_cell_angle_beta 90.000000
_cell_angle_gamma 90.000000
_cell_volume 1632.566342
_symmetry_space_group_name_H-M "P N N A"
_symmetry_group_IT_number 52
_symmetry_cell_setting 'orthorhombic'
loop_
_space_group_symop_operation_xyz
x,y,z
1/2-x,-y,z
x,1/2-y,1/2-z
1/2-x,1/2+y,1/2-z
-x,-y,-z
1/2+x,y,-z
-x,1/2+y,1/2+z
1/2+x,1/2-y,1/2+z
loop_
_atom_site_type_symbol
_atom_site_label
_atom_site_fract_x
_atom_site_fract_y
_atom_site_fract_z
Si Si1 0.537169 0.540497 0.131239
Si Si2 0.309077 0.395762 0.121799
Si Si3 0.459242 0.250000 0.250000
Si Si4 0.271492 0.750000 0.750000
Si Si5 0.637405 0.290577 0.031321
Si Si6 0.607442 0.661529 0.491285
O O1 0.497948 0.446822 0.241252
O O2 0.591889 0.407330 0.115657
O O3 0.500000 0.500000 0.000000
O O4 0.564860 0.760763 0.117641
O O5 0.250000 0.500000 0.113921
O O6 0.309975 0.250000 0.250000
O O7 0.331569 0.261641 0.997357
O O8 0.349485 0.587912 0.103146
O O9 0.420533 0.266149 0.374715
O O10 0.250000 0.500000 0.743651
O O11 0.308458 0.734788 0.881229
O O12 0.613538 0.073587 0.004286
#
# Coordination Sequence:
#
# PCOD9409385 Si02
#       6
#     8   8   4   4   8   8
#     4   9  21  42  65 103 146 193 256 309 390 467
#     4  11  26  43  68 108 147 193 245 319 397 475
#     4  10  19  42  70 104 154 192 249 312 394 478
#     4  12  31  54  84 118 154 222 281 344 408 470
#     4  11  26  48  75 105 154 201 264 330 391 485
#     4  10  23  43  69 104 146 197 248 317 389 478
#
# _framework density 24.501301999999999
#
# number of rings (size 3 to 8) (size 9 to 14) (size 15 to 20)
#    0.000    1.600    1.000    1.200   11.200    3.200 
#    0.000    8.000    0.000    0.000    0.000    0.000 
#    0.000    0.000    0.000    0.000    0.000    0.000 
#
# Total GULP energy -222859.726216 kJ/mol
# GULP energy per Si atom -5571.493155 kJ/mol
# Density = 2.444554 g / cm^3
# Si number density = 24.501302 Si / 1000 Ang^3
#
#
#
# Elastic Constant Matrix: (Units=GPa)
#
#
# Indices 1 2 3 4 5 6 
#
# 1 116.4648 67.1735 31.4277 0.0000 0.0000 0.0000
# 2 67.1735 196.2604 30.2077 0.0000 0.0000 0.0000
# 3 31.4277 30.2077 87.6929 0.0000 0.0000 0.0000
# 4 0.0000 0.0000 0.0000 32.5467 0.0000 0.0000
# 5 0.0000 0.0000 0.0000 0.0000 29.0687 0.0000
# 6 0.0000 0.0000 0.0000 0.0000 0.0000 44.6167
#
#
#
# Elastic Compliance Matrix: (Units=1/GPa)
#
#
# Indices 1 2 3 4 5 6 
#
# 1 0.011348 -0.003441 -0.002882 0.000000 0.000000 0.000000
# 2 -0.003441 0.006424 -0.000980 0.000000 0.000000 0.000000
# 3 -0.002882 -0.000980 0.012774 0.000000 0.000000 0.000000
# 4 0.000000 0.000000 0.000000 0.030725 0.000000 0.000000
# 5 0.000000 0.000000 0.000000 0.000000 0.034401 0.000000
# 6 0.000000 0.000000 0.000000 0.000000 0.000000 0.022413
#
#
# Mechanical properties :
#
#
# Convention : Reuss Voigt Hill
#
# Bulk Modulus (GPa) = 62.72980 73.11509 67.92245
# Shear Modulus (GPa) = 36.23097 39.35371 37.79234
#
# Velocity S-wave (km/s) = 3.84961 4.01208 3.93168
# Velocity P-wave (km/s) = 6.73925 7.16718 6.95651
#
# Compressibility (1/GPa) = 0.01594139
#
# Stress axis : x y z
#
# Youngs Moduli (GPa) = 88.11809 155.67407 78.28566
#
# Poissons Ratio (x) = 0.53562 0.22561
# Poissons Ratio (y) = 0.30318 0.07670
# Poissons Ratio (z) = 0.25395 0.15252
#
# Static dielectric constant tensor:
#      x y z
#    x 1.950570 0.000000 0.000000 
#    y 0.000000 2.084480 0.000000 
#    z 0.000000 0.000000 2.034390 
# 
# From -- ./inp_files/22653.got.cif
#   From: 2010.05.17/outbox.cif.g08.bks.cpg/sg52_12_cif.got.tgz:22653.got - 2010.06.03 12:15:38.
