data_PCOD9409515
_publ_section_title
;
Structure prediction by ZEFSAII (Michael W. Deem and Ramdas Pophale) SiO2 
 PCOD9409515
Probable space group: P N N A
;
_chemical_formula_sum "Si O2"
_cell_formula_units_Z 60
_cell_length_a 16.017584
_cell_length_b 12.686702
_cell_length_c 16.659102
_cell_angle_alpha 90.000000
_cell_angle_beta 90.000000
_cell_angle_gamma 90.000000
_cell_volume 3385.301365
_symmetry_space_group_name_H-M "P N N A"
_symmetry_group_IT_number 52
_symmetry_cell_setting 'orthorhombic'
loop_
_space_group_symop_operation_xyz
x,y,z
1/2-x,-y,z
x,1/2-y,1/2-z
1/2-x,1/2+y,1/2-z
-x,-y,-z
1/2+x,y,-z
-x,1/2+y,1/2+z
1/2+x,1/2-y,1/2+z
loop_
_atom_site_type_symbol
_atom_site_label
_atom_site_fract_x
_atom_site_fract_y
_atom_site_fract_z
Si Si1 0.425566 0.719950 0.838037
Si Si2 0.882496 0.559586 0.543504
Si Si3 0.597725 0.719442 0.081472
Si Si4 0.921234 0.480429 0.188386
Si Si5 0.966266 0.152608 0.940741
Si Si6 0.276191 0.822469 0.923192
Si Si7 0.750000 0.000000 0.211076
Si Si8 0.027872 0.344186 0.306003
O O1 0.393734 0.750000 0.750000
O O2 0.444667 0.596944 0.839466
O O3 0.502586 0.797568 0.858043
O O4 0.353182 0.746661 0.901316
O O5 0.893012 0.434180 0.556902
O O6 0.801253 0.608474 0.501229
O O7 0.908328 0.614112 0.627180
O O8 0.954528 0.591293 0.478950
O O9 0.587418 0.602731 0.115876
O O10 0.692848 0.754558 0.071369
O O11 0.551287 0.794638 0.146331
O O12 0.553722 0.749308 0.998350
O O13 0.832255 0.485027 0.234745
O O14 0.990067 0.435224 0.250111
O O15 0.264170 0.902048 0.848636
O O16 0.061578 0.250000 0.250000
#
# Coordination Sequence:
#
# PCOD9409515 Si02
#       8
#     8   8   8   8   8   8   4   8
#     4  11  21  33  49  76 102 140 177 217 264 323
#     4   9  18  32  50  74  97 136 173 220 264 306
#     4  10  20  34  49  75 102 140 169 216 273 318
#     4  11  21  30  50  74 109 140 171 212 273 331
#     4   9  19  33  50  69 104 133 178 217 254 315
#     4  11  21  31  51  76 107 133 174 217 271 328
#     4  12  20  30  48  78 110 140 168 222 272 334
#     4   9  18  33  52  74 102 132 173 215 260 315
#
# _framework density 17.723680000000002
#
# number of rings (size 3 to 8) (size 9 to 14) (size 15 to 20)
#    0.000    1.867    2.667    2.400    3.733    0.533 
#    0.000    0.000    0.000    0.800    0.000    0.000 
#    0.000    0.000    0.000    0.000    0.000    0.000 
#
# Total GULP energy -334591.721948 kJ/mol
# GULP energy per Si atom -5576.528699 kJ/mol
# Density = 1.768334 g / cm^3
# Si number density = 17.723680 Si / 1000 Ang^3
#
#
#
# Elastic Constant Matrix: (Units=GPa)
#
#
# Indices 1 2 3 4 5 6 
#
# 1 34.5205 21.2830 20.2897 0.0000 0.0000 0.0000
# 2 21.2830 106.7831 34.2788 0.0000 0.0000 0.0000
# 3 20.2897 34.2788 54.6258 0.0000 0.0000 0.0000
# 4 0.0000 0.0000 0.0000 22.9098 0.0000 0.0000
# 5 0.0000 0.0000 0.0000 0.0000 8.5274 0.0000
# 6 0.0000 0.0000 0.0000 0.0000 0.0000 14.3788
#
#
#
# Elastic Compliance Matrix: (Units=1/GPa)
#
#
# Indices 1 2 3 4 5 6 
#
# 1 0.038275 -0.003838 -0.011808 0.000000 0.000000 0.000000
# 2 -0.003838 0.012112 -0.006175 0.000000 0.000000 0.000000
# 3 -0.011808 -0.006175 0.026567 0.000000 0.000000 0.000000
# 4 0.000000 0.000000 0.000000 0.043649 0.000000 0.000000
# 5 0.000000 0.000000 0.000000 0.000000 0.117270 0.000000
# 6 0.000000 0.000000 0.000000 0.000000 0.000000 0.069547
#
#
# Mechanical properties :
#
#
# Convention : Reuss Voigt Hill
#
# Bulk Modulus (GPa) = 30.01926 38.62582 34.32254
# Shear Modulus (GPa) = 13.80584 17.16839 15.48712
#
# Velocity S-wave (km/s) = 2.79399 3.11572 2.95923
# Velocity P-wave (km/s) = 5.23285 5.89782 5.57526
#
# Compressibility (1/GPa) = 0.03331195
#
# Stress axis : x y z
#
# Youngs Moduli (GPa) = 26.12684 82.56285 37.64043
#
# Poissons Ratio (x) = 0.31688 0.44446
# Poissons Ratio (y) = 0.10028 0.23243
# Poissons Ratio (z) = 0.30851 0.50982
#
# Static dielectric constant tensor:
#      x y z
#    x 1.615460 0.000000 0.000000 
#    y 0.000000 1.621250 0.000000 
#    z 0.000000 0.000000 1.605880 
# 
# From -- ./inp_files/33261.got.cif
#   From: 2010.05.17/outbox.cif.g08.bks.cpg/sg52_17_cif.got.tgz:33261.got - 2010.06.03 12:15:38.
