data_PCOD9409818
_publ_section_title
;
Structure prediction by ZEFSAII (Michael W. Deem and Ramdas Pophale) SiO2 
 PCOD9409818
Probable space group: P N N A
;
_chemical_formula_sum "Si O2"
_cell_formula_units_Z 32
_cell_length_a 13.673863
_cell_length_b 5.133206
_cell_length_c 20.492001
_cell_angle_alpha 90.000000
_cell_angle_beta 90.000000
_cell_angle_gamma 90.000000
_cell_volume 1438.349034
_symmetry_space_group_name_H-M "P N N A"
_symmetry_group_IT_number 52
_symmetry_cell_setting 'orthorhombic'
loop_
_space_group_symop_operation_xyz
x,y,z
1/2-x,-y,z
x,1/2-y,1/2-z
1/2-x,1/2+y,1/2-z
-x,-y,-z
1/2+x,y,-z
-x,1/2+y,1/2+z
1/2+x,1/2-y,1/2+z
loop_
_atom_site_type_symbol
_atom_site_label
_atom_site_fract_x
_atom_site_fract_y
_atom_site_fract_z
Si Si1 0.012699 0.488672 0.792350
Si Si2 0.506228 0.745637 0.419525
Si Si3 0.839979 0.652039 0.359713
Si Si4 0.155927 0.384979 0.994904
O O1 0.016815 0.750000 0.750000
O O2 0.967652 0.560562 0.862514
O O3 0.118894 0.382482 0.815254
O O4 0.969661 0.250000 0.750000
O O5 0.566330 0.524091 0.381123
O O6 0.411972 0.689211 0.463778
O O7 0.583061 0.894284 0.466319
O O8 0.750000 0.500000 0.328962
O O9 0.803468 0.754342 0.429336
O O10 0.250000 0.500000 0.030989
#
# Coordination Sequence:
#
# PCOD9409818 Si02
#       4
#     8   8   8   8
#     4  11  23  43  61  87 125 170 214 259 314 378
#     4  10  21  38  59  91 123 167 204 264 317 386
#     4  11  21  38  61  91 132 167 211 260 324 392
#     4  10  20  36  62  92 126 159 206 262 327 384
#
# _framework density 22.247729
#
# number of rings (size 3 to 8) (size 9 to 14) (size 15 to 20)
#    0.000    1.500    5.000    0.750    0.000    0.000 
#    4.500    0.000    0.000    1.500    0.000    0.000 
#    0.000    0.000    0.000    0.000    0.000    0.000 
#
# Total GULP energy -178513.178277 kJ/mol
# GULP energy per Si atom -5578.536821 kJ/mol
# Density = 2.219709 g / cm^3
# Si number density = 22.247729 Si / 1000 Ang^3
#
#
#
# Elastic Constant Matrix: (Units=GPa)
#
#
# Indices 1 2 3 4 5 6 
#
# 1 57.8426 10.2937 15.3463 0.0000 0.0000 0.0000
# 2 10.2937 99.5074 17.7432 0.0000 0.0000 0.0000
# 3 15.3463 17.7432 68.4214 0.0000 0.0000 0.0000
# 4 0.0000 0.0000 0.0000 25.4757 0.0000 0.0000
# 5 0.0000 0.0000 0.0000 0.0000 3.7033 0.0000
# 6 0.0000 0.0000 0.0000 0.0000 0.0000 26.0011
#
#
#
# Elastic Compliance Matrix: (Units=1/GPa)
#
#
# Indices 1 2 3 4 5 6 
#
# 1 0.018525 -0.001232 -0.003835 0.000000 0.000000 0.000000
# 2 -0.001232 0.010619 -0.002477 0.000000 0.000000 0.000000
# 3 -0.003835 -0.002477 0.016118 0.000000 0.000000 0.000000
# 4 0.000000 0.000000 0.000000 0.039253 0.000000 0.000000
# 5 0.000000 0.000000 0.000000 0.000000 0.270028 0.000000
# 6 0.000000 0.000000 0.000000 0.000000 0.000000 0.038460
#
#
# Mechanical properties :
#
#
# Convention : Reuss Voigt Hill
#
# Bulk Modulus (GPa) = 33.14375 34.72643 33.93509
# Shear Modulus (GPa) = 11.95741 23.19525 17.57633
#
# Velocity S-wave (km/s) = 2.32085 3.23242 2.81379
# Velocity P-wave (km/s) = 4.70231 5.43822 5.08360
#
# Compressibility (1/GPa) = 0.03017160
#
# Stress axis : x y z
#
# Youngs Moduli (GPa) = 53.98050 94.17337 62.04255
#
# Poissons Ratio (x) = 0.11607 0.23796
# Poissons Ratio (y) = 0.06653 0.15369
# Poissons Ratio (z) = 0.20704 0.23329
#
# Static dielectric constant tensor:
#      x y z
#    x 1.792130 0.000000 0.000000 
#    y 0.000000 1.988570 0.000000 
#    z 0.000000 0.000000 1.891370 
# 
# From -- ./inp_files/37003.got.cif
#   From: 2010.05.17/outbox.cif.g08.bks.cpg/sg52_19_cif.got.tgz:37003.got - 2010.06.03 12:15:38.
