data_PCOD9409053
_publ_section_title
;
Structure prediction by ZEFSAII (Michael W. Deem and Ramdas Pophale) SiO2 
 PCOD9409053
Probable space group: P N N A
;
_chemical_formula_sum "Si O2"
_cell_formula_units_Z 32
_cell_length_a 5.403156
_cell_length_b 15.909973
_cell_length_c 14.034664
_cell_angle_alpha 90.000000
_cell_angle_beta 90.000000
_cell_angle_gamma 90.000000
_cell_volume 1206.476783
_symmetry_space_group_name_H-M "P N N A"
_symmetry_group_IT_number 52
_symmetry_cell_setting 'orthorhombic'
loop_
_space_group_symop_operation_xyz
x,y,z
1/2-x,-y,z
x,1/2-y,1/2-z
1/2-x,1/2+y,1/2-z
-x,-y,-z
1/2+x,y,-z
-x,1/2+y,1/2+z
1/2+x,1/2-y,1/2+z
loop_
_atom_site_type_symbol
_atom_site_label
_atom_site_fract_x
_atom_site_fract_y
_atom_site_fract_z
Si Si1 0.290076 0.310869 0.053693
Si Si2 0.750000 0.500000 0.891859
Si Si3 0.969364 0.750000 0.750000
Si Si4 0.567515 0.929799 0.226591
Si Si5 0.079607 0.407108 0.465721
O O1 0.305896 0.413379 0.056345
O O2 0.201692 0.273690 0.157144
O O3 0.563331 0.288986 0.017016
O O4 0.530184 0.472569 0.821283
O O5 0.141740 0.833388 0.756938
O O6 0.359797 0.914220 0.145746
O O7 0.750000 0.000000 0.185656
O O8 0.309283 0.367068 0.519523
O O9 0.000000 0.500000 0.500000
#
# Coordination Sequence:
#
# PCOD9409053 Si02
#       5
#     8   4   4   8   8
#     4  11  26  50  77 113 154 206 261 328 393 469
#     4  10  24  42  74 108 144 202 264 318 386 466
#     4  10  28  50  72 118 158 206 264 330 398 470
#     4  11  23  43  71 104 152 208 255 328 393 467
#     4  10  19  35  60  98 134 185 244 303 374 453
#
# _framework density 26.523510000000002
#
# number of rings (size 3 to 8) (size 9 to 14) (size 15 to 20)
#    0.000    1.500    2.500    2.250    7.000    3.000 
#    4.500    0.000    0.000    0.000    0.000    0.000 
#    0.000    0.000    0.000    0.000    0.000    0.000 
#
# Total GULP energy -178637.730343 kJ/mol
# GULP energy per Si atom -5582.429073 kJ/mol
# Density = 2.646314 g / cm^3
# Si number density = 26.523510 Si / 1000 Ang^3
#
#
#
# Elastic Constant Matrix: (Units=GPa)
#
#
# Indices 1 2 3 4 5 6 
#
# 1 129.1777 65.0119 29.0695 0.0000 0.0000 0.0000
# 2 65.0119 257.3749 19.0738 0.0000 0.0000 0.0000
# 3 29.0695 19.0738 89.2123 0.0000 0.0000 0.0000
# 4 0.0000 0.0000 0.0000 90.7762 0.0000 0.0000
# 5 0.0000 0.0000 0.0000 0.0000 34.4358 0.0000
# 6 0.0000 0.0000 0.0000 0.0000 0.0000 37.1046
#
#
#
# Elastic Compliance Matrix: (Units=1/GPa)
#
#
# Indices 1 2 3 4 5 6 
#
# 1 0.009429 -0.002189 -0.002604 0.000000 0.000000 0.000000
# 2 -0.002189 0.004456 -0.000240 0.000000 0.000000 0.000000
# 3 -0.002604 -0.000240 0.012109 0.000000 0.000000 0.000000
# 4 0.000000 0.000000 0.000000 0.011016 0.000000 0.000000
# 5 0.000000 0.000000 0.000000 0.000000 0.029040 0.000000
# 6 0.000000 0.000000 0.000000 0.000000 0.000000 0.026951
#
#
# Mechanical properties :
#
#
# Convention : Reuss Voigt Hill
#
# Bulk Modulus (GPa) = 62.77989 78.00838 70.39413
# Shear Modulus (GPa) = 46.13601 56.63731 51.38666
#
# Velocity S-wave (km/s) = 4.17518 4.62601 4.40637
# Velocity P-wave (km/s) = 6.85301 7.61631 7.24472
#
# Compressibility (1/GPa) = 0.01592867
#
# Stress axis : x y z
#
# Youngs Moduli (GPa) = 106.05727 224.41719 82.58271
#
# Poissons Ratio (x) = 0.49118 0.21508
# Poissons Ratio (y) = 0.23213 0.01978
# Poissons Ratio (z) = 0.27622 0.05375
#
# Static dielectric constant tensor:
#      x y z
#    x 2.175950 0.000000 0.000000 
#    y 0.000000 2.206720 0.000000 
#    z 0.000000 0.000000 2.136970 
# 
# From -- ./inp_files/23505.got.cif
#   From: 2010.05.17/outbox.cif.g08.bks.cpg/sg52_12_cif.got.tgz:23505.got - 2010.06.03 12:15:38.
