data_PCOD9409330
_publ_section_title
;
Structure prediction by ZEFSAII (Michael W. Deem and Ramdas Pophale) SiO2 
 PCOD9409330
Probable space group: P N N A
;
_chemical_formula_sum "Si O2"
_cell_formula_units_Z 48
_cell_length_a 19.731958
_cell_length_b 13.900773
_cell_length_c 8.509301
_cell_angle_alpha 90.000000
_cell_angle_beta 90.000000
_cell_angle_gamma 90.000000
_cell_volume 2334.011653
_symmetry_space_group_name_H-M "P N N A"
_symmetry_group_IT_number 52
_symmetry_cell_setting 'orthorhombic'
loop_
_space_group_symop_operation_xyz
x,y,z
1/2-x,-y,z
x,1/2-y,1/2-z
1/2-x,1/2+y,1/2-z
-x,-y,-z
1/2+x,y,-z
-x,1/2+y,1/2+z
1/2+x,1/2-y,1/2+z
loop_
_atom_site_type_symbol
_atom_site_label
_atom_site_fract_x
_atom_site_fract_y
_atom_site_fract_z
Si Si1 0.760107 0.750000 0.750000
Si Si2 0.858671 0.854629 0.507371
Si Si3 0.726941 0.250000 0.250000
Si Si4 0.290994 0.100982 0.995085
Si Si5 0.940597 0.432050 0.551098
Si Si6 0.569737 0.541204 0.925793
Si Si7 0.504883 0.770546 0.562067
O O1 0.810472 0.813439 0.642654
O O2 0.717642 0.671793 0.648116
O O3 0.821532 0.818667 0.352082
O O4 0.933579 0.806513 0.507093
O O5 0.871736 0.968842 0.520465
O O6 0.768364 0.174753 0.142251
O O7 0.250000 0.000000 0.007630
O O8 0.367154 0.063491 0.975909
O O9 0.931639 0.452919 0.736984
O O10 0.969540 0.329426 0.501698
O O11 0.000000 0.500000 0.500000
O O12 0.564347 0.652613 0.970826
O O13 0.500000 0.500000 0.000000
O O14 0.495884 0.750000 0.750000
#
# Coordination Sequence:
#
# PCOD9409330 Si02
#       7
#     4   8   4   8   8   8   8
#     4  10  24  40  68 100 136 180 232 292 346 432
#     4  10  19  39  67  95 132 178 232 274 345 415
#     4  10  24  46  68  98 138 192 234 294 346 428
#     4  11  26  48  70 101 142 186 239 292 361 424
#     4  11  25  42  68  97 138 178 226 294 351 409
#     4   9  20  38  62  99 129 174 222 276 340 418
#     4   9  19  36  63  92 136 172 218 276 340 405
#
# _framework density 20.565449999999998
#
# number of rings (size 3 to 8) (size 9 to 14) (size 15 to 20)
#    0.000    2.000    0.833    1.000   10.500    0.000 
#    9.000    1.667    0.000    0.000    0.000    0.000 
#    0.000    0.000    0.000    0.000    0.000    0.000 
#
# Total GULP energy -267538.846526 kJ/mol
# GULP energy per Si atom -5573.725969 kJ/mol
# Density = 2.051864 g / cm^3
# Si number density = 20.565450 Si / 1000 Ang^3
#
#
#
# Elastic Constant Matrix: (Units=GPa)
#
#
# Indices 1 2 3 4 5 6 
#
# 1 117.8471 64.8922 22.2004 0.0000 0.0000 0.0000
# 2 64.8922 181.2708 35.5156 0.0000 0.0000 0.0000
# 3 22.2004 35.5156 53.8677 0.0000 0.0000 0.0000
# 4 0.0000 0.0000 0.0000 19.8846 0.0000 0.0000
# 5 0.0000 0.0000 0.0000 0.0000 0.7768 0.0000
# 6 0.0000 0.0000 0.0000 0.0000 0.0000 28.6547
#
#
#
# Elastic Compliance Matrix: (Units=1/GPa)
#
#
# Indices 1 2 3 4 5 6 
#
# 1 0.010788 -0.003434 -0.002182 0.000000 0.000000 0.000000
# 2 -0.003434 0.007428 -0.003482 0.000000 0.000000 0.000000
# 3 -0.002182 -0.003482 0.021759 0.000000 0.000000 0.000000
# 4 0.000000 0.000000 0.000000 0.050290 0.000000 0.000000
# 5 0.000000 0.000000 0.000000 0.000000 1.287310 0.000000
# 6 0.000000 0.000000 0.000000 0.000000 0.000000 0.034898
#
#
# Mechanical properties :
#
#
# Convention : Reuss Voigt Hill
#
# Bulk Modulus (GPa) = 45.91651 66.46689 56.19170
# Shear Modulus (GPa) = 3.47722 25.22170 14.34946
#
# Velocity S-wave (km/s) = 1.30172 3.50582 2.64435
# Velocity P-wave (km/s) = 4.96334 6.98409 6.05856
#
# Compressibility (1/GPa) = 0.02177866
#
# Stress axis : x y z
#
# Youngs Moduli (GPa) = 92.69826 134.61992 45.95816
#
# Poissons Ratio (x) = 0.46234 0.10026
# Poissons Ratio (y) = 0.31836 0.16003
# Poissons Ratio (z) = 0.20223 0.46877
#
# Static dielectric constant tensor:
#      x y z
#    x 1.707020 0.000000 0.000000 
#    y 0.000000 1.747890 0.000000 
#    z 0.000000 0.000000 1.767580 
# 
# From -- ./inp_files/12129.got.cif
#   From: 2010.05.17/outbox.cif.g08.bks.cpg/sg52_7_cif.got.tgz:12129.got - 2010.06.03 12:15:38.
