data_PCOD9409895
_publ_section_title
;
Structure prediction by ZEFSAII (Michael W. Deem and Ramdas Pophale) SiO2 
 PCOD9409895
Probable space group: P N N A
;
_chemical_formula_sum "Si O2"
_cell_formula_units_Z 60
_cell_length_a 8.758887
_cell_length_b 15.503106
_cell_length_c 23.408223
_cell_angle_alpha 90.000000
_cell_angle_beta 90.000000
_cell_angle_gamma 90.000000
_cell_volume 3178.601515
_symmetry_space_group_name_H-M "P N N A"
_symmetry_group_IT_number 52
_symmetry_cell_setting 'orthorhombic'
loop_
_space_group_symop_operation_xyz
x,y,z
1/2-x,-y,z
x,1/2-y,1/2-z
1/2-x,1/2+y,1/2-z
-x,-y,-z
1/2+x,y,-z
-x,1/2+y,1/2+z
1/2+x,1/2-y,1/2+z
loop_
_atom_site_type_symbol
_atom_site_label
_atom_site_fract_x
_atom_site_fract_y
_atom_site_fract_z
Si Si1 0.250000 0.000000 0.650882
Si Si2 0.391841 0.056095 0.958751
Si Si3 0.691454 0.834919 0.789274
Si Si4 0.491357 0.231381 0.375294
Si Si5 0.313635 0.316974 0.899117
Si Si6 0.810435 0.269944 0.520439
Si Si7 0.596017 0.555663 0.815219
Si Si8 0.931949 0.686946 0.617721
O O1 0.294883 0.082485 0.612809
O O2 0.081565 0.019290 0.681452
O O3 0.482605 0.104991 0.909141
O O4 0.250000 0.000000 0.937573
O O5 0.324922 0.134497 0.995812
O O6 0.500000 0.000000 0.000000
O O7 0.707346 0.750000 0.750000
O O8 0.570271 0.809591 0.837801
O O9 0.635675 0.910859 0.748517
O O10 0.844824 0.843648 0.825898
O O11 0.669564 0.224235 0.367614
O O12 0.456910 0.246340 0.441627
O O13 0.413441 0.142077 0.354583
O O14 0.458055 0.268292 0.872718
O O15 0.303113 0.292967 0.966218
O O16 0.678789 0.275790 0.567889
O O17 0.750000 0.500000 0.831866
#
# Coordination Sequence:
#
# PCOD9409895 Si02
#       8
#     4   8   8   8   8   8   8   8
#     4  10  24  40  66  96 128 168 206 264 324 372
#     4  11  21  36  56  86 126 160 195 249 309 368
#     4   9  20  41  64  82 108 156 210 250 311 371
#     4   9  20  39  60  86 119 162 201 251 306 368
#     4  10  20  37  59  94 127 156 206 250 305 379
#     4  10  20  37  60  86 124 166 203 241 306 380
#     4  10  22  44  64  87 124 158 206 272 318 364
#     4  10  21  37  61  88 116 165 206 252 308 382
#
# _framework density 18.876225999999999
#
# number of rings (size 3 to 8) (size 9 to 14) (size 15 to 20)
#    0.000    2.133    1.333    1.600    7.467    0.000 
#    8.400    2.667    0.000    0.000    0.000    0.000 
#    0.000    0.000    0.000    0.000    0.000    0.000 
#
# Total GULP energy -334033.186488 kJ/mol
# GULP energy per Si atom -5567.219775 kJ/mol
# Density = 1.883326 g / cm^3
# Si number density = 18.876226 Si / 1000 Ang^3
#
#
#
# Elastic Constant Matrix: (Units=GPa)
#
#
# Indices 1 2 3 4 5 6 
#
# 1 96.4837 42.3169 23.0727 0.0000 0.0000 0.0000
# 2 42.3169 82.9458 27.5310 0.0000 0.0000 0.0000
# 3 23.0727 27.5310 65.0511 0.0000 0.0000 0.0000
# 4 0.0000 0.0000 0.0000 3.4726 0.0000 0.0000
# 5 0.0000 0.0000 0.0000 0.0000 12.0638 0.0000
# 6 0.0000 0.0000 0.0000 0.0000 0.0000 28.0708
#
#
#
# Elastic Compliance Matrix: (Units=1/GPa)
#
#
# Indices 1 2 3 4 5 6 
#
# 1 0.013617 -0.006217 -0.002198 0.000000 0.000000 0.000000
# 2 -0.006217 0.016865 -0.004932 0.000000 0.000000 0.000000
# 3 -0.002198 -0.004932 0.018240 0.000000 0.000000 0.000000
# 4 0.000000 0.000000 0.000000 0.287968 0.000000 0.000000
# 5 0.000000 0.000000 0.000000 0.000000 0.082893 0.000000
# 6 0.000000 0.000000 0.000000 0.000000 0.000000 0.035624
#
#
# Mechanical properties :
#
#
# Convention : Reuss Voigt Hill
#
# Bulk Modulus (GPa) = 45.40207 47.81353 46.60780
# Shear Modulus (GPa) = 10.21983 18.82543 14.52263
#
# Velocity S-wave (km/s) = 2.32935 3.16145 2.77674
# Velocity P-wave (km/s) = 5.59815 6.22184 5.91822
#
# Compressibility (1/GPa) = 0.02202543
#
# Stress axis : x y z
#
# Youngs Moduli (GPa) = 73.43720 59.29366 54.82515
#
# Poissons Ratio (x) = 0.36865 0.12053
# Poissons Ratio (y) = 0.45659 0.27042
# Poissons Ratio (z) = 0.16145 0.29247
#
# Static dielectric constant tensor:
#      x y z
#    x 1.765240 0.000000 0.000000 
#    y 0.000000 1.654850 0.000000 
#    z 0.000000 0.000000 1.640350 
# 
# From -- ./inp_files/39642.got.cif
#   From: 2010.05.17/outbox.cif.g08.bks.cpg/sg52_20_cif.got.tgz:39642.got - 2010.06.03 12:15:38.
