data_PCOD9409961
_publ_section_title
;
Structure prediction by ZEFSAII (Michael W. Deem and Ramdas Pophale) SiO2 
 PCOD9409961
Probable space group: P N N A
;
_chemical_formula_sum "Si O2"
_cell_formula_units_Z 56
_cell_length_a 14.038545
_cell_length_b 12.668183
_cell_length_c 16.127529
_cell_angle_alpha 90.000000
_cell_angle_beta 90.000000
_cell_angle_gamma 90.000000
_cell_volume 2868.165836
_symmetry_space_group_name_H-M "P N N A"
_symmetry_group_IT_number 52
_symmetry_cell_setting 'orthorhombic'
loop_
_space_group_symop_operation_xyz
x,y,z
1/2-x,-y,z
x,1/2-y,1/2-z
1/2-x,1/2+y,1/2-z
-x,-y,-z
1/2+x,y,-z
-x,1/2+y,1/2+z
1/2+x,1/2-y,1/2+z
loop_
_atom_site_type_symbol
_atom_site_label
_atom_site_fract_x
_atom_site_fract_y
_atom_site_fract_z
Si Si1 0.433301 0.022200 0.748530
Si Si2 0.141125 0.309138 0.389177
Si Si3 0.934982 0.441098 0.892980
Si Si4 0.250000 0.000000 0.632867
Si Si5 0.468095 0.026975 0.092816
Si Si6 0.854871 0.271869 0.654575
Si Si7 0.996611 0.750000 0.750000
Si Si8 0.128871 0.125240 0.511604
O O1 0.340153 0.005868 0.693678
O O2 0.441688 0.146823 0.757503
O O3 0.523501 0.980013 0.695159
O O4 0.445450 0.976234 0.840580
O O5 0.102604 0.428642 0.388453
O O6 0.246100 0.307206 0.351758
O O7 0.070502 0.244846 0.329619
O O8 0.138195 0.242795 0.474798
O O9 0.865499 0.342172 0.887120
O O10 0.883368 0.537402 0.939274
O O11 0.029309 0.395917 0.939794
O O12 0.217765 0.094038 0.570513
O O13 0.417081 0.138733 0.108835
O O14 0.500000 0.000000 0.000000
O O15 0.883908 0.250000 0.750000
#
# Coordination Sequence:
#
# PCOD9409961 Si02
#       8
#     8   8   8   4   8   8   4   8
#     4  10  21  42  65  87 134 168 219 264 329 400
#     4  11  22  40  63  95 127 164 212 270 324 387
#     4  10  20  37  65  92 128 164 205 259 329 386
#     4  10  22  40  62 102 126 164 220 274 332 394
#     4  11  25  46  65  91 129 180 223 269 331 403
#     4  12  23  39  64  97 125 167 214 268 323 392
#     4  10  20  38  62  88 122 176 206 256 332 386
#     4  10  20  38  63  95 127 159 203 267 322 387
#
# _framework density 19.524674000000001
#
# number of rings (size 3 to 8) (size 9 to 14) (size 15 to 20)
#    0.000    1.429    3.571    2.143    0.000    0.000 
#   10.286    2.857    0.000    0.000    0.000    0.000 
#    0.000    0.000    0.000    0.000    0.000    0.000 
#
# Total GULP energy -312269.755461 kJ/mol
# GULP energy per Si atom -5576.245633 kJ/mol
# Density = 1.948023 g / cm^3
# Si number density = 19.524674 Si / 1000 Ang^3
#
#
#
# Elastic Constant Matrix: (Units=GPa)
#
#
# Indices 1 2 3 4 5 6 
#
# 1 48.8289 5.1982 18.2623 0.0000 0.0000 0.0000
# 2 5.1982 72.9823 12.5229 0.0000 0.0000 0.0000
# 3 18.2623 12.5229 107.3806 0.0000 0.0000 0.0000
# 4 0.0000 0.0000 0.0000 20.5477 0.0000 0.0000
# 5 0.0000 0.0000 0.0000 0.0000 19.8175 0.0000
# 6 0.0000 0.0000 0.0000 0.0000 0.0000 4.5659
#
#
#
# Elastic Compliance Matrix: (Units=1/GPa)
#
#
# Indices 1 2 3 4 5 6 
#
# 1 0.021934 -0.000941 -0.003621 0.000000 0.000000 0.000000
# 2 -0.000941 0.014022 -0.001475 0.000000 0.000000 0.000000
# 3 -0.003621 -0.001475 0.010100 0.000000 0.000000 0.000000
# 4 0.000000 0.000000 0.000000 0.048667 0.000000 0.000000
# 5 0.000000 0.000000 0.000000 0.000000 0.050460 0.000000
# 6 0.000000 0.000000 0.000000 0.000000 0.000000 0.219017
#
#
# Mechanical properties :
#
#
# Convention : Reuss Voigt Hill
#
# Bulk Modulus (GPa) = 29.42659 33.46207 31.44433
# Shear Modulus (GPa) = 12.89983 21.86679 17.38331
#
# Velocity S-wave (km/s) = 2.57318 3.35021 2.98707
# Velocity P-wave (km/s) = 4.89209 5.66928 5.29497
#
# Compressibility (1/GPa) = 0.03398288
#
# Stress axis : x y z
#
# Youngs Moduli (GPa) = 45.59143 71.31600 99.00534
#
# Poissons Ratio (x) = 0.06711 0.35846
# Poissons Ratio (y) = 0.04290 0.14606
# Poissons Ratio (z) = 0.16507 0.10521
#
# Static dielectric constant tensor:
#      x y z
#    x 1.677890 0.000000 0.000000 
#    y 0.000000 1.607200 0.000000 
#    z 0.000000 0.000000 1.743090 
# 
# From -- ./inp_files/27340.got.cif
#   From: 2010.05.17/outbox.cif.g08.bks.cpg/sg52_14_cif.got.tgz:27340.got - 2010.06.03 12:15:38.
