data_PCOD9409863
_publ_section_title
;
Structure prediction by ZEFSAII (Michael W. Deem and Ramdas Pophale) SiO2 
 PCOD9409863
Probable space group: P N N A
;
_chemical_formula_sum "Si O2"
_cell_formula_units_Z 32
_cell_length_a 4.937312
_cell_length_b 17.069385
_cell_length_c 20.311556
_cell_angle_alpha 90.000000
_cell_angle_beta 90.000000
_cell_angle_gamma 90.000000
_cell_volume 1711.794555
_symmetry_space_group_name_H-M "P N N A"
_symmetry_group_IT_number 52
_symmetry_cell_setting 'orthorhombic'
loop_
_space_group_symop_operation_xyz
x,y,z
1/2-x,-y,z
x,1/2-y,1/2-z
1/2-x,1/2+y,1/2-z
-x,-y,-z
1/2+x,y,-z
-x,1/2+y,1/2+z
1/2+x,1/2-y,1/2+z
loop_
_atom_site_type_symbol
_atom_site_label
_atom_site_fract_x
_atom_site_fract_y
_atom_site_fract_z
Si Si1 0.459355 0.375288 0.455402
Si Si2 0.482850 0.553141 0.863793
Si Si3 0.372122 0.194774 0.455994
Si Si4 0.750000 0.500000 0.648512
Si Si5 0.250000 0.500000 0.737911
O O1 0.761708 0.388540 0.481813
O O2 0.419319 0.284745 0.435355
O O3 0.370157 0.432584 0.397938
O O4 0.750000 0.500000 0.859277
O O5 0.546580 0.632003 0.901739
O O6 0.365713 0.563876 0.789869
O O7 0.250000 0.500000 0.898176
O O8 0.566312 0.183763 0.519448
O O9 0.500093 0.472491 0.693849
#
# Coordination Sequence:
#
# PCOD9409863 Si02
#       5
#     8   8   8   4   4
#     4  10  21  37  57  88 113 136 179 237 285 338
#     4  10  20  37  56  76 118 144 188 233 267 322
#     4  10  21  35  57  84 115 142 178 231 288 334
#     4  12  20  37  64  77 110 152 188 222 288 330
#     4  10  22  37  54  81 108 150 196 232 252 336
#
# _framework density 18.693830999999999
#
# number of rings (size 3 to 8) (size 9 to 14) (size 15 to 20)
#    0.750    1.000    1.250    3.750    0.000    3.000 
#    0.000    1.250    5.500    0.000    0.000    0.000 
#    0.000    0.000    0.000    0.000    0.000    0.000 
#
# Total GULP energy -178513.444598 kJ/mol
# GULP energy per Si atom -5578.545144 kJ/mol
# Density = 1.865128 g / cm^3
# Si number density = 18.693831 Si / 1000 Ang^3
#
#
#
# Elastic Constant Matrix: (Units=GPa)
#
#
# Indices 1 2 3 4 5 6 
#
# 1 83.1441 21.1961 5.4141 0.0000 0.0000 0.0000
# 2 21.1961 99.6289 64.9274 0.0000 0.0000 0.0000
# 3 5.4141 64.9274 71.4998 0.0000 0.0000 0.0000
# 4 0.0000 0.0000 0.0000 -17.8091 0.0000 0.0000
# 5 0.0000 0.0000 0.0000 0.0000 -316.4376 0.0000
# 6 0.0000 0.0000 0.0000 0.0000 0.0000 21.2210
#
#
#
# Elastic Compliance Matrix: (Units=1/GPa)
#
#
# Indices 1 2 3 4 5 6 
#
# 1 0.013120 -0.005252 0.003776 0.000000 0.000000 0.000000
# 2 -0.005252 0.026691 -0.023839 0.000000 0.000000 0.000000
# 3 0.003776 -0.023839 0.035348 0.000000 0.000000 0.000000
# 4 0.000000 0.000000 0.000000 -0.056151 0.000000 0.000000
# 5 0.000000 0.000000 0.000000 0.000000 -0.003160 0.000000
# 6 0.000000 0.000000 0.000000 0.000000 0.000000 0.047123
#
#
# Mechanical properties :
#
#
# Convention : Reuss Voigt Hill
#
# Bulk Modulus (GPa) = 40.77019 48.59423 44.68221
# Shear Modulus (GPa) = 41.05826 -51.75611 -5.34893
#
# Velocity S-wave (km/s) = 4.69161 -5.26748 -1.69338
# Velocity P-wave (km/s) = 7.15577 3.30815 4.48672
#
# Compressibility (1/GPa) = 0.02452773
#
# Stress axis : x y z
#
# Youngs Moduli (GPa) = 76.21757 37.46642 28.28998
#
# Poissons Ratio (x) = 0.19677 -0.10681
# Poissons Ratio (y) = 0.40029 0.67442
# Poissons Ratio (z) = -0.28777 0.89318
#
# Static dielectric constant tensor:
#      x y z
#    x 1.665150 0.000000 0.000000 
#    y 0.000000 1.624430 0.000000 
#    z 0.000000 0.000000 1.646820 
# 
# From -- ./inp_files/23477.got.cif
#   From: 2010.05.17/outbox.cif.g08.bks.cpg/sg52_12_cif.got.tgz:23477.got - 2010.06.03 12:15:38.
