data_PCOD9409981
_publ_section_title
;
Structure prediction by ZEFSAII (Michael W. Deem and Ramdas Pophale) SiO2 
 PCOD9409981
Probable space group: P N N A
;
_chemical_formula_sum "Si O2"
_cell_formula_units_Z 48
_cell_length_a 7.629806
_cell_length_b 9.751251
_cell_length_c 30.213721
_cell_angle_alpha 90.000000
_cell_angle_beta 90.000000
_cell_angle_gamma 90.000000
_cell_volume 2247.905477
_symmetry_space_group_name_H-M "P N N A"
_symmetry_group_IT_number 52
_symmetry_cell_setting 'orthorhombic'
loop_
_space_group_symop_operation_xyz
x,y,z
1/2-x,-y,z
x,1/2-y,1/2-z
1/2-x,1/2+y,1/2-z
-x,-y,-z
1/2+x,y,-z
-x,1/2+y,1/2+z
1/2+x,1/2-y,1/2+z
loop_
_atom_site_type_symbol
_atom_site_label
_atom_site_fract_x
_atom_site_fract_y
_atom_site_fract_z
Si Si1 0.923655 0.151475 0.865010
Si Si2 0.250000 0.000000 0.772275
Si Si3 0.250000 0.000000 0.513825
Si Si4 0.495420 0.833304 0.712072
Si Si5 0.950989 0.446085 0.145880
Si Si6 0.521467 0.131373 0.840601
Si Si7 0.968366 0.120832 0.564992
O O1 0.733662 0.148304 0.840677
O O2 0.040643 0.229559 0.828379
O O3 0.918320 0.243697 0.908566
O O4 0.992306 0.998819 0.873893
O O5 0.333086 0.886840 0.740487
O O6 0.090926 0.929990 0.799788
O O7 0.164850 0.111108 0.546572
O O8 0.365335 0.086187 0.479392
O O9 0.603793 0.750000 0.750000
O O10 0.548204 0.972584 0.686015
O O11 0.750000 0.500000 0.146085
O O12 0.041615 0.498197 0.100858
O O13 0.955865 0.283121 0.149092
#
# Coordination Sequence:
#
# PCOD9409981 Si02
#       7
#     8   4   4   8   8   8   8
#     4  10  24  47  62  93 136 178 219 276 343 403
#     4  12  24  39  64  88 126 172 232 284 313 380
#     4  10  20  37  70 106 128 166 222 274 341 416
#     4  11  22  41  60  88 133 167 226 281 318 386
#     4  11  22  39  64  95 125 175 221 266 332 397
#     4  11  25  41  66  92 129 182 218 278 337 394
#     4  10  21  39  69  98 133 168 217 276 331 417
#
# _framework density 21.353209
#
# number of rings (size 3 to 8) (size 9 to 14) (size 15 to 20)
#    0.000    1.333    3.333    2.000    2.333    2.000 
#    6.000    0.000    0.000   18.000    0.000    0.000 
#    0.000    0.000    0.000    0.000    0.000    0.000 
#
# Total GULP energy -267302.304228 kJ/mol
# GULP energy per Si atom -5568.798005 kJ/mol
# Density = 2.130461 g / cm^3
# Si number density = 21.353209 Si / 1000 Ang^3
#
#
#
# Elastic Constant Matrix: (Units=GPa)
#
#
# Indices 1 2 3 4 5 6 
#
# 1 81.1173 37.3521 35.2121 0.0000 0.0000 0.0000
# 2 37.3521 206.1284 52.0392 0.0000 0.0000 0.0000
# 3 35.2121 52.0392 116.1763 0.0000 0.0000 0.0000
# 4 0.0000 0.0000 0.0000 5.9137 0.0000 0.0000
# 5 0.0000 0.0000 0.0000 0.0000 22.3529 0.0000
# 6 0.0000 0.0000 0.0000 0.0000 0.0000 21.6335
#
#
#
# Elastic Compliance Matrix: (Units=1/GPa)
#
#
# Indices 1 2 3 4 5 6 
#
# 1 0.014728 -0.001738 -0.003685 0.000000 0.000000 0.000000
# 2 -0.001738 0.005675 -0.002015 0.000000 0.000000 0.000000
# 3 -0.003685 -0.002015 0.010627 0.000000 0.000000 0.000000
# 4 0.000000 0.000000 0.000000 0.169098 0.000000 0.000000
# 5 0.000000 0.000000 0.000000 0.000000 0.044737 0.000000
# 6 0.000000 0.000000 0.000000 0.000000 0.000000 0.046225
#
#
# Mechanical properties :
#
#
# Convention : Reuss Voigt Hill
#
# Bulk Modulus (GPa) = 61.90923 72.51432 67.21178
# Shear Modulus (GPa) = 16.05898 28.56793 22.31346
#
# Velocity S-wave (km/s) = 2.74535 3.66167 3.23611
# Velocity P-wave (km/s) = 6.25341 7.20488 6.74594
#
# Compressibility (1/GPa) = 0.01615268
#
# Stress axis : x y z
#
# Youngs Moduli (GPa) = 67.89762 176.20783 94.09793
#
# Poissons Ratio (x) = 0.30633 0.34677
# Poissons Ratio (y) = 0.11804 0.18962
# Poissons Ratio (z) = 0.25022 0.35509
#
# Static dielectric constant tensor:
#      x y z
#    x 1.942040 0.000000 0.000000 
#    y 0.000000 1.824060 0.000000 
#    z 0.000000 0.000000 1.748650 
# 
# From -- ./inp_files/44419.got.cif
#   From: 2010.05.17/outbox.cif.g08.bks.cpg/sg52_23_cif.got.tgz:44419.got - 2010.06.03 12:15:38.
