data_PCOD9409749
_publ_section_title
;
Structure prediction by ZEFSAII (Michael W. Deem and Ramdas Pophale) SiO2 
 PCOD9409749
Probable space group: P N N A
;
_chemical_formula_sum "Si O2"
_cell_formula_units_Z 40
_cell_length_a 8.004794
_cell_length_b 18.989442
_cell_length_c 15.131702
_cell_angle_alpha 90.000000
_cell_angle_beta 90.000000
_cell_angle_gamma 90.000000
_cell_volume 2300.118140
_symmetry_space_group_name_H-M "P N N A"
_symmetry_group_IT_number 52
_symmetry_cell_setting 'orthorhombic'
loop_
_space_group_symop_operation_xyz
x,y,z
1/2-x,-y,z
x,1/2-y,1/2-z
1/2-x,1/2+y,1/2-z
-x,-y,-z
1/2+x,y,-z
-x,1/2+y,1/2+z
1/2+x,1/2-y,1/2+z
loop_
_atom_site_type_symbol
_atom_site_label
_atom_site_fract_x
_atom_site_fract_y
_atom_site_fract_z
Si Si1 0.057477 0.770133 0.108285
Si Si2 0.507530 0.250000 0.750000
Si Si3 0.321983 0.193483 0.920080
Si Si4 0.066962 0.967414 0.908552
Si Si5 0.806353 0.348383 0.773942
Si Si6 0.750000 0.500000 0.719380
O O1 0.874091 0.800228 0.094838
O O2 0.074255 0.695258 0.159352
O O3 0.145912 0.825194 0.174209
O O4 0.139748 0.768293 0.012399
O O5 0.403276 0.227124 0.833916
O O6 0.625409 0.313158 0.783986
O O7 0.394349 0.114699 0.924506
O O8 0.914230 0.979934 0.839599
O O9 0.250000 0.000000 0.884054
O O10 0.000000 0.000000 0.000000
O O11 0.799348 0.431773 0.776684
#
# Coordination Sequence:
#
# PCOD9409749 Si02
#       6
#     8   4   8   8   8   4
#     4  10  22  36  60  84 122 154 212 242 303 359
#     4  10  20  36  58  82 114 150 208 234 302 352
#     4  12  21  38  59  89 118 161 200 259 293 372
#     4  12  24  34  57  94 131 163 197 246 324 386
#     4  10  21  39  57  87 117 163 193 253 301 368
#     4  12  22  40  60  86 134 156 202 258 318 374
#
# _framework density 17.390409999999999
#
# number of rings (size 3 to 8) (size 9 to 14) (size 15 to 20)
#    0.000    1.200    3.000    7.200    0.000    0.000 
#    0.000    0.000    0.000    4.800    0.000    0.000 
#    0.000    0.000    0.000    0.000    0.000    0.000 
#
# Total GULP energy -223187.943075 kJ/mol
# GULP energy per Si atom -5579.698577 kJ/mol
# Density = 1.735083 g / cm^3
# Si number density = 17.390410 Si / 1000 Ang^3
#
#
#
# Elastic Constant Matrix: (Units=GPa)
#
#
# Indices 1 2 3 4 5 6 
#
# 1 84.6125 14.9650 18.6212 0.0000 0.0000 0.0000
# 2 14.9650 125.7983 40.0660 0.0000 0.0000 0.0000
# 3 18.6212 40.0660 88.3298 0.0000 0.0000 0.0000
# 4 0.0000 0.0000 0.0000 18.7574 0.0000 0.0000
# 5 0.0000 0.0000 0.0000 0.0000 -0.5164 0.0000
# 6 0.0000 0.0000 0.0000 0.0000 0.0000 15.2951
#
#
#
# Elastic Compliance Matrix: (Units=1/GPa)
#
#
# Indices 1 2 3 4 5 6 
#
# 1 0.012455 -0.000754 -0.002283 0.000000 0.000000 0.000000
# 2 -0.000754 0.009337 -0.004076 0.000000 0.000000 0.000000
# 3 -0.002283 -0.004076 0.013652 0.000000 0.000000 0.000000
# 4 0.000000 0.000000 0.000000 0.053312 0.000000 0.000000
# 5 0.000000 0.000000 0.000000 0.000000 -1.936397 0.000000
# 6 0.000000 0.000000 0.000000 0.000000 0.000000 0.065380
#
#
# Mechanical properties :
#
#
# Convention : Reuss Voigt Hill
#
# Bulk Modulus (GPa) = 47.13598 49.56053 48.34825
# Shear Modulus (GPa) = -2.83936 21.71310 9.43687
#
# Velocity S-wave (km/s) = -1.27916 3.53734 2.33201
# Velocity P-wave (km/s) = 4.99817 6.72639 5.92563
#
# Compressibility (1/GPa) = 0.02121522
#
# Stress axis : x y z
#
# Youngs Moduli (GPa) = 80.29203 107.09791 73.25157
#
# Poissons Ratio (x) = 0.08079 0.16726
# Poissons Ratio (y) = 0.06057 0.29860
# Poissons Ratio (z) = 0.18334 0.43656
#
# Static dielectric constant tensor:
#      x y z
#    x 1.615630 0.000000 0.000000 
#    y 0.000000 1.606200 0.000000 
#    z 0.000000 0.000000 1.487300 
# 
# From -- ./inp_files/16714.got.cif
#   From: 2010.05.17/outbox.cif.g08.bks.cpg/sg52_9_cif.got.tgz:16714.got - 2010.06.03 12:15:38.
