data_PCOD9409419
_publ_section_title
;
Structure prediction by ZEFSAII (Michael W. Deem and Ramdas Pophale) SiO2 
 PCOD9409419
Probable space group: P N N A
;
_chemical_formula_sum "Si O2"
_cell_formula_units_Z 44
_cell_length_a 7.568499
_cell_length_b 13.800336
_cell_length_c 17.541407
_cell_angle_alpha 90.000000
_cell_angle_beta 90.000000
_cell_angle_gamma 90.000000
_cell_volume 1832.161883
_symmetry_space_group_name_H-M "P N N A"
_symmetry_group_IT_number 52
_symmetry_cell_setting 'orthorhombic'
loop_
_space_group_symop_operation_xyz
x,y,z
1/2-x,-y,z
x,1/2-y,1/2-z
1/2-x,1/2+y,1/2-z
-x,-y,-z
1/2+x,y,-z
-x,1/2+y,1/2+z
1/2+x,1/2-y,1/2+z
loop_
_atom_site_type_symbol
_atom_site_label
_atom_site_fract_x
_atom_site_fract_y
_atom_site_fract_z
Si Si1 0.295777 0.316308 0.930112
Si Si2 0.750000 0.000000 0.738137
Si Si3 0.591052 0.153992 0.695999
Si Si4 0.902647 0.355105 0.900270
Si Si5 0.809193 0.134319 0.881029
Si Si6 0.660378 0.398707 0.471090
O O1 0.461538 0.324470 0.874248
O O2 0.250778 0.203151 0.945682
O O3 0.112873 0.361869 0.898246
O O4 0.343921 0.364860 0.011803
O O5 0.538639 0.052076 0.731745
O O6 0.802927 0.087690 0.800258
O O7 0.593074 0.250000 0.750000
O O8 0.773369 0.092828 0.660432
O O9 0.838126 0.248757 0.874689
O O10 0.972510 0.100829 0.931701
O O11 0.646999 0.112730 0.937154
O O12 0.750000 0.500000 0.452382
#
# Coordination Sequence:
#
# PCOD9409419 Si02
#       6
#     8   4   8   8   8   8
#     4  10  22  40  71  99 126 179 232 275 341 403
#     4  12  26  42  62  94 140 182 220 274 368 400
#     4  12  26  44  69  96 141 180 222 287 350 407
#     4  10  20  43  71  98 125 175 230 283 334 407
#     4  10  21  35  59  96 134 165 206 275 335 425
#     4  10  20  31  61  97 129 162 217 263 330 408
#
# _framework density 24.015345
#
# number of rings (size 3 to 8) (size 9 to 14) (size 15 to 20)
#    0.000    1.455    4.545    0.545    5.091    0.727 
#    0.000    1.818    0.000    0.000    0.000    0.000 
#    0.000    0.000    0.000    0.000    0.000    0.000 
#
# Total GULP energy -244966.882763 kJ/mol
# GULP energy per Si atom -5567.429154 kJ/mol
# Density = 2.396068 g / cm^3
# Si number density = 24.015345 Si / 1000 Ang^3
#
#
#
# Elastic Constant Matrix: (Units=GPa)
#
#
# Indices 1 2 3 4 5 6 
#
# 1 127.4553 33.2134 76.7413 0.0000 0.0000 0.0000
# 2 33.2134 135.2916 36.7630 0.0000 0.0000 0.0000
# 3 76.7413 36.7630 174.7467 0.0000 0.0000 0.0000
# 4 0.0000 0.0000 0.0000 -10.7434 0.0000 0.0000
# 5 0.0000 0.0000 0.0000 0.0000 54.2244 0.0000
# 6 0.0000 0.0000 0.0000 0.0000 0.0000 32.1309
#
#
#
# Elastic Compliance Matrix: (Units=1/GPa)
#
#
# Indices 1 2 3 4 5 6 
#
# 1 0.010933 -0.001463 -0.004493 0.000000 0.000000 0.000000
# 2 -0.001463 0.008035 -0.001048 0.000000 0.000000 0.000000
# 3 -0.004493 -0.001048 0.007916 0.000000 0.000000 0.000000
# 4 0.000000 0.000000 0.000000 -0.093080 0.000000 0.000000
# 5 0.000000 0.000000 0.000000 0.000000 0.018442 0.000000
# 6 0.000000 0.000000 0.000000 0.000000 0.000000 0.031123
#
#
# Mechanical properties :
#
#
# Convention : Reuss Voigt Hill
#
# Bulk Modulus (GPa) = 77.66565 81.21433 79.43999
# Shear Modulus (GPa) = 2995.44876 34.50744 1514.97810
#
# Velocity S-wave (km/s) = 35.35554 3.79475 25.14373
# Velocity P-wave (km/s) = 41.22009 7.28637 29.59887
#
# Compressibility (1/GPa) = 0.01287570
#
# Stress axis : x y z
#
# Youngs Moduli (GPa) = 91.46982 124.45001 126.32103
#
# Poissons Ratio (x) = 0.18206 0.56760
# Poissons Ratio (y) = 0.13381 0.13239
# Poissons Ratio (z) = 0.41101 0.13043
#
# Static dielectric constant tensor:
#      x y z
#    x 2.183650 0.000000 0.000000 
#    y 0.000000 2.182650 0.000000 
#    z 0.000000 0.000000 2.150410 
# 
# From -- ./inp_files/24641.got.cif
#   From: 2010.05.17/outbox.cif.g08.bks.cpg/sg52_13_cif.got.tgz:24641.got - 2010.06.03 12:15:38.
