data_PCOD9409842
_publ_section_title
;
Structure prediction by ZEFSAII (Michael W. Deem and Ramdas Pophale) SiO2 
 PCOD9409842
Probable space group: P N N A
;
_chemical_formula_sum "Si O2"
_cell_formula_units_Z 48
_cell_length_a 9.625311
_cell_length_b 7.981739
_cell_length_c 27.167833
_cell_angle_alpha 90.000000
_cell_angle_beta 90.000000
_cell_angle_gamma 90.000000
_cell_volume 2087.215504
_symmetry_space_group_name_H-M "P N N A"
_symmetry_group_IT_number 52
_symmetry_cell_setting 'orthorhombic'
loop_
_space_group_symop_operation_xyz
x,y,z
1/2-x,-y,z
x,1/2-y,1/2-z
1/2-x,1/2+y,1/2-z
-x,-y,-z
1/2+x,y,-z
-x,1/2+y,1/2+z
1/2+x,1/2-y,1/2+z
loop_
_atom_site_type_symbol
_atom_site_label
_atom_site_fract_x
_atom_site_fract_y
_atom_site_fract_z
Si Si1 0.192194 0.691475 0.616776
Si Si2 0.905210 0.781780 0.197040
Si Si3 0.260298 0.294286 0.436800
Si Si4 0.969901 0.193548 0.016684
Si Si5 0.789465 0.311647 0.824751
Si Si6 0.489074 0.839129 0.199812
O O1 0.250000 0.500000 0.616028
O O2 0.314894 0.772591 0.649804
O O3 0.141464 0.715697 0.561015
O O4 0.056690 0.733161 0.649877
O O5 0.837049 0.750000 0.250000
O O6 0.055217 0.700483 0.194312
O O7 0.945671 0.977317 0.197506
O O8 0.250000 0.500000 0.433341
O O9 0.392608 0.238102 0.468826
O O10 0.281209 0.223660 0.382769
O O11 0.117429 0.241305 0.463705
O O12 0.000000 0.000000 0.000000
O O13 0.750000 0.500000 0.813162
O O14 0.676439 0.182144 0.803299
O O15 0.530784 0.750000 0.250000
#
# Coordination Sequence:
#
# PCOD9409842 Si02
#       6
#     8   8   8   8   8   8
#     4  10  21  37  63  97 130 167 209 270 327 394
#     4  11  24  41  65  97 129 170 222 268 331 392
#     4  10  21  37  66  96 126 165 212 273 325 389
#     4  10  20  36  65 101 131 161 218 267 333 388
#     4  12  25  42  63  91 131 174 223 268 326 391
#     4  11  22  41  68  91 129 167 216 272 331 389
#
# _framework density 22.997146000000001
#
# number of rings (size 3 to 8) (size 9 to 14) (size 15 to 20)
#    0.000    1.333    1.667    5.000    9.333    0.000 
#    0.000    3.333    0.000    0.000    0.000    0.000 
#    0.000    0.000    0.000    0.000    0.000    0.000 
#
# Total GULP energy -267862.668766 kJ/mol
# GULP energy per Si atom -5580.472266 kJ/mol
# Density = 2.294480 g / cm^3
# Si number density = 22.997146 Si / 1000 Ang^3
#
#
#
# Elastic Constant Matrix: (Units=GPa)
#
#
# Indices 1 2 3 4 5 6 
#
# 1 111.2899 2.5417 29.4513 0.0000 0.0000 0.0000
# 2 2.5417 31.2740 7.9494 0.0000 0.0000 0.0000
# 3 29.4513 7.9494 123.9664 0.0000 0.0000 0.0000
# 4 0.0000 0.0000 0.0000 25.4387 0.0000 0.0000
# 5 0.0000 0.0000 0.0000 0.0000 60.6200 0.0000
# 6 0.0000 0.0000 0.0000 0.0000 0.0000 -165.5484
#
#
#
# Elastic Compliance Matrix: (Units=1/GPa)
#
#
# Indices 1 2 3 4 5 6 
#
# 1 0.009590 -0.000204 -0.002265 0.000000 0.000000 0.000000
# 2 -0.000204 0.032510 -0.002036 0.000000 0.000000 0.000000
# 3 -0.002265 -0.002036 0.008735 0.000000 0.000000 0.000000
# 4 0.000000 0.000000 0.000000 0.039310 0.000000 0.000000
# 5 0.000000 0.000000 0.000000 0.000000 0.016496 0.000000
# 6 0.000000 0.000000 0.000000 0.000000 0.000000 -0.006041
#
#
# Mechanical properties :
#
#
# Convention : Reuss Voigt Hill
#
# Bulk Modulus (GPa) = 23.90946 38.49057 31.20002
# Shear Modulus (GPa) = 40.46872 -0.79207 19.83832
#
# Velocity S-wave (km/s) = 4.19946 -0.58751 2.94026
# Velocity P-wave (km/s) = 5.82523 4.03896 5.01231
#
# Compressibility (1/GPa) = 0.04182445
#
# Stress axis : x y z
#
# Youngs Moduli (GPa) = 104.27917 30.76014 114.47625
#
# Poissons Ratio (x) = 0.00626 0.25931
# Poissons Ratio (y) = 0.02123 0.23311
# Poissons Ratio (z) = 0.23621 0.06264
#
# Static dielectric constant tensor:
#      x y z
#    x 1.905130 0.000000 0.000000 
#    y 0.000000 1.816230 0.000000 
#    z 0.000000 0.000000 1.960110 
# 
# From -- ./inp_files/44401.got.cif
#   From: 2010.05.17/outbox.cif.g08.bks.cpg/sg52_23_cif.got.tgz:44401.got - 2010.06.03 12:15:38.
