data_PCOD9409282
_publ_section_title
;
Structure prediction by ZEFSAII (Michael W. Deem and Ramdas Pophale) SiO2 
 PCOD9409282
Probable space group: P N N A
;
_chemical_formula_sum "Si O2"
_cell_formula_units_Z 32
_cell_length_a 16.053128
_cell_length_b 10.082186
_cell_length_c 9.098008
_cell_angle_alpha 90.000000
_cell_angle_beta 90.000000
_cell_angle_gamma 90.000000
_cell_volume 1472.518257
_symmetry_space_group_name_H-M "P N N A"
_symmetry_group_IT_number 52
_symmetry_cell_setting 'orthorhombic'
loop_
_space_group_symop_operation_xyz
x,y,z
1/2-x,-y,z
x,1/2-y,1/2-z
1/2-x,1/2+y,1/2-z
-x,-y,-z
1/2+x,y,-z
-x,1/2+y,1/2+z
1/2+x,1/2-y,1/2+z
loop_
_atom_site_type_symbol
_atom_site_label
_atom_site_fract_x
_atom_site_fract_y
_atom_site_fract_z
Si Si1 0.694526 0.616272 0.153100
Si Si2 0.975876 0.402121 0.271090
Si Si3 0.615988 0.978077 0.930258
Si Si4 0.771801 0.712641 0.588774
O O1 0.750000 0.500000 0.221650
O O2 0.695216 0.750000 0.250000
O O3 0.597946 0.570995 0.153615
O O4 0.741166 0.662327 0.005528
O O5 0.001691 0.250000 0.250000
O O6 0.931836 0.417159 0.430783
O O7 0.055090 0.496640 0.292107
O O8 0.655844 0.119680 0.977539
O O9 0.690866 0.880379 0.893849
O O10 0.800368 0.750000 0.750000
#
# Coordination Sequence:
#
# PCOD9409282 Si02
#       4
#     8   8   8   8
#     4  11  22  40  67  96 125 165 222 274 322 392
#     4  10  19  38  64  96 123 169 215 271 327 388
#     4  10  21  39  65  89 131 172 211 266 334 388
#     4  11  23  40  63  93 129 172 217 266 328 394
#
# _framework density 21.731480000000001
#
# number of rings (size 3 to 8) (size 9 to 14) (size 15 to 20)
#    0.000    1.500    5.000    2.250    3.500    0.000 
#    0.000    7.500    0.000    0.000    0.000    0.000 
#    0.000    0.000    0.000    0.000    0.000    0.000 
#
# Total GULP energy -178548.245969 kJ/mol
# GULP energy per Si atom -5579.632687 kJ/mol
# Density = 2.168202 g / cm^3
# Si number density = 21.731480 Si / 1000 Ang^3
#
#
#
# Elastic Constant Matrix: (Units=GPa)
#
#
# Indices 1 2 3 4 5 6 
#
# 1 94.6800 32.8317 6.7960 0.0000 0.0000 0.0000
# 2 32.8317 75.3622 17.0698 0.0000 0.0000 0.0000
# 3 6.7960 17.0698 68.0541 0.0000 0.0000 0.0000
# 4 0.0000 0.0000 0.0000 32.6196 0.0000 0.0000
# 5 0.0000 0.0000 0.0000 0.0000 4.5880 0.0000
# 6 0.0000 0.0000 0.0000 0.0000 0.0000 5.4746
#
#
#
# Elastic Compliance Matrix: (Units=1/GPa)
#
#
# Indices 1 2 3 4 5 6 
#
# 1 0.012442 -0.005449 0.000124 0.000000 0.000000 0.000000
# 2 -0.005449 0.016455 -0.003583 0.000000 0.000000 0.000000
# 3 0.000124 -0.003583 0.015581 0.000000 0.000000 0.000000
# 4 0.000000 0.000000 0.000000 0.030656 0.000000 0.000000
# 5 0.000000 0.000000 0.000000 0.000000 0.217961 0.000000
# 6 0.000000 0.000000 0.000000 0.000000 0.000000 0.182663
#
#
# Mechanical properties :
#
#
# Convention : Reuss Voigt Hill
#
# Bulk Modulus (GPa) = 37.50631 39.05461 38.28046
# Shear Modulus (GPa) = 9.95103 20.62968 15.29035
#
# Velocity S-wave (km/s) = 2.14220 3.08441 2.65543
# Velocity P-wave (km/s) = 4.83892 5.54033 5.20146
#
# Compressibility (1/GPa) = 0.02666218
#
# Stress axis : x y z
#
# Youngs Moduli (GPa) = 80.37032 60.77331 64.18266
#
# Poissons Ratio (x) = 0.33114 -0.00797
# Poissons Ratio (y) = 0.43791 0.22998
# Poissons Ratio (z) = -0.00998 0.21776
#
# Static dielectric constant tensor:
#      x y z
#    x 1.844040 0.000000 0.000000 
#    y 0.000000 1.792510 0.000000 
#    z 0.000000 0.000000 1.802900 
# 
# From -- ./inp_files/11499.got.cif
#   From: 2010.05.17/outbox.cif.g08.bks.cpg/sg52_6_cif.got.tgz:11499.got - 2010.06.03 12:15:38.
