data_PCOD9409894
_publ_section_title
;
Structure prediction by ZEFSAII (Michael W. Deem and Ramdas Pophale) SiO2 
 PCOD9409894
Probable space group: P N N A
;
_chemical_formula_sum "Si O2"
_cell_formula_units_Z 60
_cell_length_a 8.889350
_cell_length_b 25.791286
_cell_length_c 11.347950
_cell_angle_alpha 90.000000
_cell_angle_beta 90.000000
_cell_angle_gamma 90.000000
_cell_volume 2601.719170
_symmetry_space_group_name_H-M "P N N A"
_symmetry_group_IT_number 52
_symmetry_cell_setting 'orthorhombic'
loop_
_space_group_symop_operation_xyz
x,y,z
1/2-x,-y,z
x,1/2-y,1/2-z
1/2-x,1/2+y,1/2-z
-x,-y,-z
1/2+x,y,-z
-x,1/2+y,1/2+z
1/2+x,1/2-y,1/2+z
loop_
_atom_site_type_symbol
_atom_site_label
_atom_site_fract_x
_atom_site_fract_y
_atom_site_fract_z
Si Si1 0.560657 0.057149 0.234474
Si Si2 0.441473 0.250000 0.750000
Si Si3 0.932188 0.136056 0.594826
Si Si4 0.366696 0.538769 0.283442
Si Si5 0.256555 0.177987 0.620519
Si Si6 0.258767 0.693704 0.286232
Si Si7 0.352708 0.108652 0.061743
Si Si8 0.131833 0.598434 0.713467
O O1 0.489121 0.080584 0.355580
O O2 0.504446 0.098399 0.136253
O O3 0.737594 0.058222 0.247443
O O4 0.494044 0.003523 0.186311
O O5 0.337128 0.232928 0.640360
O O6 0.563122 0.295215 0.718667
O O7 0.848247 0.142961 0.472046
O O8 0.808385 0.155777 0.687927
O O9 0.080551 0.172841 0.594390
O O10 0.250000 0.500000 0.217662
O O11 0.267638 0.566874 0.384041
O O12 0.471265 0.583496 0.229522
O O13 0.290770 0.151081 0.744588
O O14 0.192900 0.750000 0.250000
O O15 0.209886 0.665587 0.405976
O O16 0.384842 0.099458 0.926455
#
# Coordination Sequence:
#
# PCOD9409894 Si02
#       8
#     8   4   8   8   8   8   8   8
#     4   9  21  38  59  91 121 166 212 257 320 386
#     4  10  22  38  62  96 122 162 228 260 334 394
#     4  10  22  43  64  88 128 171 216 272 324 381
#     4  10  21  35  60  90 125 167 206 251 317 382
#     4  11  24  41  64  92 126 175 220 270 327 388
#     4   9  21  40  65  91 127 163 213 265 330 391
#     4  10  20  37  59  91 128 165 202 263 326 380
#     4  11  22  37  59  91 132 163 209 264 315 390
#
# _framework density 23.061675999999999
#
# number of rings (size 3 to 8) (size 9 to 14) (size 15 to 20)
#    0.400    1.600    0.000    2.800    0.933    9.067 
#    0.000    0.667    0.000    4.800    0.000    0.000 
#    0.000    0.000    0.000    0.000    0.000    0.000 
#
# Total GULP energy -334176.059810 kJ/mol
# GULP energy per Si atom -5569.600997 kJ/mol
# Density = 2.300919 g / cm^3
# Si number density = 23.061676 Si / 1000 Ang^3
#
#
#
# Elastic Constant Matrix: (Units=GPa)
#
#
# Indices 1 2 3 4 5 6 
#
# 1 151.7130 30.1494 17.7941 0.0000 0.0000 0.0000
# 2 30.1494 83.9269 14.0606 0.0000 0.0000 0.0000
# 3 17.7941 14.0606 61.9493 0.0000 0.0000 0.0000
# 4 0.0000 0.0000 0.0000 3.7585 0.0000 0.0000
# 5 0.0000 0.0000 0.0000 0.0000 15.2985 0.0000
# 6 0.0000 0.0000 0.0000 0.0000 0.0000 -31.1327
#
#
#
# Elastic Compliance Matrix: (Units=1/GPa)
#
#
# Indices 1 2 3 4 5 6 
#
# 1 0.007238 -0.002341 -0.001548 0.000000 0.000000 0.000000
# 2 -0.002341 0.013143 -0.002311 0.000000 0.000000 0.000000
# 3 -0.001548 -0.002311 0.017111 0.000000 0.000000 0.000000
# 4 0.000000 0.000000 0.000000 0.266066 0.000000 0.000000
# 5 0.000000 0.000000 0.000000 0.000000 0.065366 0.000000
# 6 0.000000 0.000000 0.000000 0.000000 0.000000 -0.032121
#
#
# Mechanical properties :
#
#
# Convention : Reuss Voigt Hill
#
# Bulk Modulus (GPa) = 39.85034 46.84416 43.34725
# Shear Modulus (GPa) = 13.98338 13.29052 13.63695
#
# Velocity S-wave (km/s) = 2.46508 2.40324 2.43436
# Velocity P-wave (km/s) = 5.04178 5.29692 5.17093
#
# Compressibility (1/GPa) = 0.02509389
#
# Stress axis : x y z
#
# Youngs Moduli (GPa) = 138.15742 76.08511 58.44104
#
# Poissons Ratio (x) = 0.17811 0.09045
# Poissons Ratio (y) = 0.32341 0.13504
# Poissons Ratio (z) = 0.21383 0.17581
#
# Static dielectric constant tensor:
#      x y z
#    x 1.913790 0.000000 0.000000 
#    y 0.000000 2.112370 0.000000 
#    z 0.000000 0.000000 1.848210 
# 
# From -- ./inp_files/17218.got.cif
#   From: 2010.05.17/outbox.cif.g08.bks.cpg/sg52_9_cif.got.tgz:17218.got - 2010.06.03 12:15:38.
