data_PCOD9409919
_publ_section_title
;
Structure prediction by ZEFSAII (Michael W. Deem and Ramdas Pophale) SiO2 
 PCOD9409919
Probable space group: P N N A
;
_chemical_formula_sum "Si O2"
_cell_formula_units_Z 36
_cell_length_a 15.683425
_cell_length_b 23.028638
_cell_length_c 5.349475
_cell_angle_alpha 90.000000
_cell_angle_beta 90.000000
_cell_angle_gamma 90.000000
_cell_volume 1932.058742
_symmetry_space_group_name_H-M "P N N A"
_symmetry_group_IT_number 52
_symmetry_cell_setting 'orthorhombic'
loop_
_space_group_symop_operation_xyz
x,y,z
1/2-x,-y,z
x,1/2-y,1/2-z
1/2-x,1/2+y,1/2-z
-x,-y,-z
1/2+x,y,-z
-x,1/2+y,1/2+z
1/2+x,1/2-y,1/2+z
loop_
_atom_site_type_symbol
_atom_site_label
_atom_site_fract_x
_atom_site_fract_y
_atom_site_fract_z
Si Si1 0.412124 0.483013 0.636066
Si Si2 0.250000 0.000000 0.219962
Si Si3 0.356054 0.582003 0.005085
Si Si4 0.946437 0.816112 0.287096
Si Si5 0.994602 0.133042 0.220587
O O1 0.500000 0.500000 0.500000
O O2 0.331740 0.488686 0.452496
O O3 0.423939 0.416871 0.726882
O O4 0.398961 0.528450 0.859477
O O5 0.231313 0.055928 0.393812
O O6 0.415074 0.599640 0.238806
O O7 0.367601 0.638963 0.832418
O O8 0.919452 0.750000 0.250000
O O9 0.003260 0.825148 0.537864
O O10 0.998964 0.836051 0.044672
#
# Coordination Sequence:
#
# PCOD9409919 Si02
#       5
#     8   4   8   8   8
#     4  12  20  40  59  93 136 165 214 275 339 400
#     4  12  24  34  60  98 138 170 218 268 356 400
#     4  10  22  35  61  95 129 168 214 270 336 390
#     4  10  20  37  61  95 122 166 223 263 319 396
#     4  10  21  35  65  89 124 166 209 270 325 379
#
# _framework density 18.632974000000001
#
# number of rings (size 3 to 8) (size 9 to 14) (size 15 to 20)
#    1.333    0.000    4.444    2.000    3.111    0.000 
#    0.000    0.000    0.000    0.000   17.333    0.000 
#    0.000    0.000    0.000    0.000    0.000    0.000 
#
# Total GULP energy -200434.882940 kJ/mol
# GULP energy per Si atom -5567.635637 kJ/mol
# Density = 1.859056 g / cm^3
# Si number density = 18.632974 Si / 1000 Ang^3
#
#
#
# Elastic Constant Matrix: (Units=GPa)
#
#
# Indices 1 2 3 4 5 6 
#
# 1 67.4596 23.0590 23.6531 0.0000 0.0000 0.0000
# 2 23.0590 134.1433 37.3103 0.0000 0.0000 0.0000
# 3 23.6531 37.3103 101.7091 0.0000 0.0000 0.0000
# 4 0.0000 0.0000 0.0000 19.0184 0.0000 0.0000
# 5 0.0000 0.0000 0.0000 0.0000 13.3124 0.0000
# 6 0.0000 0.0000 0.0000 0.0000 0.0000 12.3605
#
#
#
# Elastic Compliance Matrix: (Units=1/GPa)
#
#
# Indices 1 2 3 4 5 6 
#
# 1 0.016600 -0.001982 -0.003133 0.000000 0.000000 0.000000
# 2 -0.001982 0.008538 -0.002671 0.000000 0.000000 0.000000
# 3 -0.003133 -0.002671 0.011541 0.000000 0.000000 0.000000
# 4 0.000000 0.000000 0.000000 0.052581 0.000000 0.000000
# 5 0.000000 0.000000 0.000000 0.000000 0.075118 0.000000
# 6 0.000000 0.000000 0.000000 0.000000 0.000000 0.080903
#
#
# Mechanical properties :
#
#
# Convention : Reuss Voigt Hill
#
# Bulk Modulus (GPa) = 47.38073 52.37295 49.87684
# Shear Modulus (GPa) = 18.66449 23.55757 21.11103
#
# Velocity S-wave (km/s) = 3.16838 3.55955 3.36965
# Velocity P-wave (km/s) = 6.23446 6.71286 6.47808
#
# Compressibility (1/GPa) = 0.02110563
#
# Stress axis : x y z
#
# Youngs Moduli (GPa) = 60.24168 117.11814 86.65112
#
# Poissons Ratio (x) = 0.23213 0.27151
# Poissons Ratio (y) = 0.11940 0.23147
# Poissons Ratio (z) = 0.18876 0.31285
#
# Static dielectric constant tensor:
#      x y z
#    x 1.634420 0.000000 0.000000 
#    y 0.000000 1.670500 0.000000 
#    z 0.000000 0.000000 1.702010 
# 
# From -- ./inp_files/2240.got.cif
#   From: 2010.05.17/outbox.cif.g08.bks.cpg/sg52_2_cif.got.tgz:2240.got - 2010.06.03 12:15:38.
