data_PCOD9409074
_publ_section_title
;
Structure prediction by ZEFSAII (Michael W. Deem and Ramdas Pophale) SiO2 
 PCOD9409074
Probable space group: P N N A
;
_chemical_formula_sum "Si O2"
_cell_formula_units_Z 48
_cell_length_a 28.748465
_cell_length_b 5.827652
_cell_length_c 13.930980
_cell_angle_alpha 90.000000
_cell_angle_beta 90.000000
_cell_angle_gamma 90.000000
_cell_volume 2333.941356
_symmetry_space_group_name_H-M "P N N A"
_symmetry_group_IT_number 52
_symmetry_cell_setting 'orthorhombic'
loop_
_space_group_symop_operation_xyz
x,y,z
1/2-x,-y,z
x,1/2-y,1/2-z
1/2-x,1/2+y,1/2-z
-x,-y,-z
1/2+x,y,-z
-x,1/2+y,1/2+z
1/2+x,1/2-y,1/2+z
loop_
_atom_site_type_symbol
_atom_site_label
_atom_site_fract_x
_atom_site_fract_y
_atom_site_fract_z
Si Si1 0.113894 0.791052 0.862215
Si Si2 0.974921 0.996058 0.193532
Si Si3 0.423964 0.896708 0.151731
Si Si4 0.834431 0.293190 0.646647
Si Si5 0.129073 0.086036 0.494624
Si Si6 0.697632 0.034296 0.035995
O O1 0.120955 0.750000 0.750000
O O2 0.071608 0.971800 0.869221
O O3 0.161815 0.876825 0.906516
O O4 0.103411 0.566576 0.925423
O O5 0.971991 0.750000 0.250000
O O6 0.974968 0.250000 0.250000
O O7 0.024640 0.999356 0.141220
O O8 0.423565 0.750000 0.250000
O O9 0.407076 0.746251 0.061824
O O10 0.384200 0.086138 0.162693
O O11 0.812469 0.250000 0.750000
O O12 0.805707 0.454632 0.575073
O O13 0.846757 0.066119 0.587915
O O14 0.172216 0.221349 0.541961
O O15 0.750000 0.000000 0.069309
#
# Coordination Sequence:
#
# PCOD9409074 Si02
#       6
#     8   8   8   8   8   8
#     4  10  24  44  66  92 129 180 226 289 347 397
#     4  10  23  39  66 101 139 184 232 282 334 407
#     4  10  19  35  65  96 137 182 224 266 330 403
#     4  10  19  37  62  95 135 176 215 261 331 402
#     4  10  22  40  66  95 134 173 220 282 331 411
#     4  10  24  44  63  97 127 167 223 289 343 411
#
# _framework density 20.566067
#
# number of rings (size 3 to 8) (size 9 to 14) (size 15 to 20)
#    0.000    2.000    1.667    0.500    7.000    3.333 
#    6.000    7.500    0.000    0.000    0.000    0.000 
#    0.000    0.000    0.000    0.000    0.000    0.000 
#
# Total GULP energy -267610.618593 kJ/mol
# GULP energy per Si atom -5575.221221 kJ/mol
# Density = 2.051926 g / cm^3
# Si number density = 20.566067 Si / 1000 Ang^3
#
#
#
# Elastic Constant Matrix: (Units=GPa)
#
#
# Indices 1 2 3 4 5 6 
#
# 1 149.6866 33.3813 7.4011 0.0000 0.0000 0.0000
# 2 33.3813 100.9450 30.3276 0.0000 0.0000 0.0000
# 3 7.4011 30.3276 70.9758 0.0000 0.0000 0.0000
# 4 0.0000 0.0000 0.0000 33.2105 0.0000 0.0000
# 5 0.0000 0.0000 0.0000 0.0000 8.0749 0.0000
# 6 0.0000 0.0000 0.0000 0.0000 0.0000 -34.2261
#
#
#
# Elastic Compliance Matrix: (Units=1/GPa)
#
#
# Indices 1 2 3 4 5 6 
#
# 1 0.007218 -0.002479 0.000307 0.000000 0.000000 0.000000
# 2 -0.002479 0.012217 -0.004962 0.000000 0.000000 0.000000
# 3 0.000307 -0.004962 0.016177 0.000000 0.000000 0.000000
# 4 0.000000 0.000000 0.000000 0.030111 0.000000 0.000000
# 5 0.000000 0.000000 0.000000 0.000000 0.123841 0.000000
# 6 0.000000 0.000000 0.000000 0.000000 0.000000 -0.029217
#
#
# Mechanical properties :
#
#
# Convention : Reuss Voigt Hill
#
# Bulk Modulus (GPa) = 46.85106 51.53637 49.19372
# Shear Modulus (GPa) = 27.51327 18.11168 22.81248
#
# Velocity S-wave (km/s) = 3.66156 2.97081 3.33412
# Velocity P-wave (km/s) = 6.38015 6.07297 6.22845
#
# Compressibility (1/GPa) = 0.02134423
#
# Stress axis : x y z
#
# Youngs Moduli (GPa) = 138.53624 81.85398 61.81447
#
# Poissons Ratio (x) = 0.20293 -0.01895
# Poissons Ratio (y) = 0.34345 0.30670
# Poissons Ratio (z) = -0.04248 0.40613
#
# Static dielectric constant tensor:
#      x y z
#    x 1.716250 0.000000 0.000000 
#    y 0.000000 1.855610 0.000000 
#    z 0.000000 0.000000 1.917620 
# 
# From -- ./inp_files/29604.got.cif
#   From: 2010.05.17/outbox.cif.g08.bks.cpg/sg52_15_cif.got.tgz:29604.got - 2010.06.03 12:15:38.
