data_PCOD9409954
_publ_section_title
;
Structure prediction by ZEFSAII (Michael W. Deem and Ramdas Pophale) SiO2 
 PCOD9409954
Probable space group: P N N A
;
_chemical_formula_sum "Si O2"
_cell_formula_units_Z 48
_cell_length_a 16.701099
_cell_length_b 14.326369
_cell_length_c 9.218380
_cell_angle_alpha 90.000000
_cell_angle_beta 90.000000
_cell_angle_gamma 90.000000
_cell_volume 2205.645895
_symmetry_space_group_name_H-M "P N N A"
_symmetry_group_IT_number 52
_symmetry_cell_setting 'orthorhombic'
loop_
_space_group_symop_operation_xyz
x,y,z
1/2-x,-y,z
x,1/2-y,1/2-z
1/2-x,1/2+y,1/2-z
-x,-y,-z
1/2+x,y,-z
-x,1/2+y,1/2+z
1/2+x,1/2-y,1/2+z
loop_
_atom_site_type_symbol
_atom_site_label
_atom_site_fract_x
_atom_site_fract_y
_atom_site_fract_z
Si Si1 0.110775 0.750000 0.250000
Si Si2 0.439172 0.603923 0.119840
Si Si3 0.436515 0.250000 0.750000
Si Si4 0.998589 0.582235 0.201891
Si Si5 0.806120 0.294031 0.478735
Si Si6 0.776410 0.898533 0.500909
Si Si7 0.657946 0.143354 0.195281
O O1 0.162109 0.688524 0.361526
O O2 0.052737 0.673091 0.181624
O O3 0.504311 0.679311 0.167642
O O4 0.451657 0.512400 0.218120
O O5 0.347719 0.637199 0.105832
O O6 0.454500 0.574136 0.953074
O O7 0.376647 0.303559 0.639556
O O8 0.930154 0.599862 0.323413
O O9 0.788329 0.182839 0.489133
O O10 0.725404 0.346137 0.428068
O O11 0.803462 0.908108 0.333002
O O12 0.750000 0.000000 0.552450
O O13 0.644068 0.250000 0.250000
#
# Coordination Sequence:
#
# PCOD9409954 Si02
#       7
#     4   8   4   8   8   8   8
#     4  12  22  38  66  98 130 168 218 280 328 396
#     4  10  23  38  66  95 129 171 222 276 319 397
#     4  12  22  42  62  96 136 168 220 270 330 396
#     4  10  20  38  66  97 124 170 226 268 329 390
#     4  11  23  37  62  95 133 173 216 266 336 393
#     4  10  20  37  64  96 127 165 228 277 322 396
#     4   9  18  34  58  90 126 160 213 269 324 388
#
# _framework density 21.762333000000002
#
# number of rings (size 3 to 8) (size 9 to 14) (size 15 to 20)
#    0.000    1.667    5.000    1.000    4.667    0.667 
#    0.000    0.833    0.000   15.000    0.000    0.000 
#    0.000    0.000    0.000    0.000    0.000    0.000 
#
# Total GULP energy -267517.559469 kJ/mol
# GULP energy per Si atom -5573.282489 kJ/mol
# Density = 2.171280 g / cm^3
# Si number density = 21.762333 Si / 1000 Ang^3
#
#
#
# Elastic Constant Matrix: (Units=GPa)
#
#
# Indices 1 2 3 4 5 6 
#
# 1 92.1517 18.5565 25.7053 0.0000 0.0000 0.0000
# 2 18.5565 44.0943 -4.5056 0.0000 0.0000 0.0000
# 3 25.7053 -4.5056 38.0705 0.0000 0.0000 0.0000
# 4 0.0000 0.0000 0.0000 17.6409 0.0000 0.0000
# 5 0.0000 0.0000 0.0000 0.0000 11.7151 0.0000
# 6 0.0000 0.0000 0.0000 0.0000 0.0000 8.9305
#
#
#
# Elastic Compliance Matrix: (Units=1/GPa)
#
#
# Indices 1 2 3 4 5 6 
#
# 1 0.015604 -0.007737 -0.011452 0.000000 0.000000 0.000000
# 2 -0.007737 0.026792 0.008395 0.000000 0.000000 0.000000
# 3 -0.011452 0.008395 0.034993 0.000000 0.000000 0.000000
# 4 0.000000 0.000000 0.000000 0.056686 0.000000 0.000000
# 5 0.000000 0.000000 0.000000 0.000000 0.085360 0.000000
# 6 0.000000 0.000000 0.000000 0.000000 0.000000 0.111976
#
#
# Mechanical properties :
#
#
# Convention : Reuss Voigt Hill
#
# Bulk Modulus (GPa) = 17.92054 28.20323 23.06188
# Shear Modulus (GPa) = 13.45535 16.62798 15.04166
#
# Velocity S-wave (km/s) = 2.48923 2.76718 2.63188
# Velocity P-wave (km/s) = 4.06377 4.81638 4.45599
#
# Compressibility (1/GPa) = 0.05580189
#
# Stress axis : x y z
#
# Youngs Moduli (GPa) = 64.08616 37.32400 28.57743
#
# Poissons Ratio (x) = 0.28877 0.32725
# Poissons Ratio (y) = 0.49583 -0.23990
# Poissons Ratio (z) = 0.73388 -0.31333
#
# Static dielectric constant tensor:
#      x y z
#    x 1.883460 0.000000 0.000000 
#    y 0.000000 1.881220 0.000000 
#    z 0.000000 0.000000 1.835470 
# 
# From -- ./inp_files/12172.got.cif
#   From: 2010.05.17/outbox.cif.g08.bks.cpg/sg52_7_cif.got.tgz:12172.got - 2010.06.03 12:15:38.
