data_PCOD9409157
_publ_section_title
;
Structure prediction by ZEFSAII (Michael W. Deem and Ramdas Pophale) SiO2 
 PCOD9409157
Probable space group: P N N A
;
_chemical_formula_sum "Si O2"
_cell_formula_units_Z 48
_cell_length_a 25.170772
_cell_length_b 9.929395
_cell_length_c 8.412614
_cell_angle_alpha 90.000000
_cell_angle_beta 90.000000
_cell_angle_gamma 90.000000
_cell_volume 2102.569140
_symmetry_space_group_name_H-M "P N N A"
_symmetry_group_IT_number 52
_symmetry_cell_setting 'orthorhombic'
loop_
_space_group_symop_operation_xyz
x,y,z
1/2-x,-y,z
x,1/2-y,1/2-z
1/2-x,1/2+y,1/2-z
-x,-y,-z
1/2+x,y,-z
-x,1/2+y,1/2+z
1/2+x,1/2-y,1/2+z
loop_
_atom_site_type_symbol
_atom_site_label
_atom_site_fract_x
_atom_site_fract_y
_atom_site_fract_z
Si Si1 0.802858 0.577518 0.404653
Si Si2 0.945267 0.224273 0.434666
Si Si3 0.853932 0.387394 0.843467
Si Si4 0.409122 0.493813 0.460144
Si Si5 0.062236 0.214843 0.437457
Si Si6 0.325272 0.877423 0.535779
O O1 0.750000 0.500000 0.450359
O O2 0.853807 0.487334 0.445074
O O3 0.806671 0.722512 0.494590
O O4 0.805975 0.597775 0.214810
O O5 0.935643 0.250000 0.250000
O O6 0.894906 0.160251 0.520758
O O7 0.948206 0.373173 0.507254
O O8 0.003056 0.157937 0.456459
O O9 0.835656 0.250000 0.750000
O O10 0.888946 0.473309 0.719187
O O11 0.813294 0.494085 0.922881
O O12 0.433325 0.635434 0.508381
O O13 0.070505 0.250000 0.250000
O O14 0.110506 0.135783 0.518020
#
# Coordination Sequence:
#
# PCOD9409157 Si02
#       6
#     8   8   8   8   8   8
#     4  10  23  44  69  96 121 171 235 299 365 417
#     4  10  21  36  57  97 134 184 220 269 332 413
#     4  10  21  39  62  95 137 177 215 275 343 412
#     4  10  20  40  62  89 133 170 222 285 333 407
#     4  10  19  36  64  92 133 179 228 267 336 417
#     4  10  21  43  67  97 129 175 223 291 351 429
#
# _framework density 22.829214
#
# number of rings (size 3 to 8) (size 9 to 14) (size 15 to 20)
#    0.000    2.000    1.667    1.500    0.000    0.667 
#   36.000    0.833    3.667    0.000    0.000    0.000 
#    0.000    0.000    0.000    0.000    0.000    0.000 
#
# Total GULP energy -267679.331580 kJ/mol
# GULP energy per Si atom -5576.652741 kJ/mol
# Density = 2.277725 g / cm^3
# Si number density = 22.829214 Si / 1000 Ang^3
#
#
#
# Elastic Constant Matrix: (Units=GPa)
#
#
# Indices 1 2 3 4 5 6 
#
# 1 99.6137 32.5026 14.6240 0.0000 0.0000 0.0000
# 2 32.5026 138.7941 20.7668 0.0000 0.0000 0.0000
# 3 14.6240 20.7668 42.2688 0.0000 0.0000 0.0000
# 4 0.0000 0.0000 0.0000 34.3280 0.0000 0.0000
# 5 0.0000 0.0000 0.0000 0.0000 46.0819 0.0000
# 6 0.0000 0.0000 0.0000 0.0000 0.0000 10.3766
#
#
#
# Elastic Compliance Matrix: (Units=1/GPa)
#
#
# Indices 1 2 3 4 5 6 
#
# 1 0.011165 -0.002198 -0.002783 0.000000 0.000000 0.000000
# 2 -0.002198 0.008209 -0.003273 0.000000 0.000000 0.000000
# 3 -0.002783 -0.003273 0.026229 0.000000 0.000000 0.000000
# 4 0.000000 0.000000 0.000000 0.029131 0.000000 0.000000
# 5 0.000000 0.000000 0.000000 0.000000 0.021700 0.000000
# 6 0.000000 0.000000 0.000000 0.000000 0.000000 0.096371
#
#
# Mechanical properties :
#
#
# Convention : Reuss Voigt Hill
#
# Bulk Modulus (GPa) = 34.36968 46.27373 40.32170
# Shear Modulus (GPa) = 22.82995 32.34285 27.58640
#
# Velocity S-wave (km/s) = 3.16576 3.76803 3.47995
# Velocity P-wave (km/s) = 5.33390 6.26453 5.81785
#
# Compressibility (1/GPa) = 0.02909541
#
# Stress axis : x y z
#
# Youngs Moduli (GPa) = 89.56946 121.81222 38.12603
#
# Poissons Ratio (x) = 0.26776 0.10609
# Poissons Ratio (y) = 0.19689 0.12478
# Poissons Ratio (z) = 0.24925 0.39867
#
# Static dielectric constant tensor:
#      x y z
#    x 1.841740 0.000000 0.000000 
#    y 0.000000 1.925210 0.000000 
#    z 0.000000 0.000000 1.734860 
# 
# From -- ./inp_files/14229.got.cif
#   From: 2010.05.17/outbox.cif.g08.bks.cpg/sg52_8_cif.got.tgz:14229.got - 2010.06.03 12:15:38.
