data_PCOD9409344
_publ_section_title
;
Structure prediction by ZEFSAII (Michael W. Deem and Ramdas Pophale) SiO2 
 PCOD9409344
Probable space group: P N N A
;
_chemical_formula_sum "Si O2"
_cell_formula_units_Z 48
_cell_length_a 25.231986
_cell_length_b 10.825409
_cell_length_c 8.828771
_cell_angle_alpha 90.000000
_cell_angle_beta 90.000000
_cell_angle_gamma 90.000000
_cell_volume 2411.548501
_symmetry_space_group_name_H-M "P N N A"
_symmetry_group_IT_number 52
_symmetry_cell_setting 'orthorhombic'
loop_
_space_group_symop_operation_xyz
x,y,z
1/2-x,-y,z
x,1/2-y,1/2-z
1/2-x,1/2+y,1/2-z
-x,-y,-z
1/2+x,y,-z
-x,1/2+y,1/2+z
1/2+x,1/2-y,1/2+z
loop_
_atom_site_type_symbol
_atom_site_label
_atom_site_fract_x
_atom_site_fract_y
_atom_site_fract_z
Si Si1 0.661695 0.110764 0.799798
Si Si2 0.284258 0.385959 0.818298
Si Si3 0.638238 0.179732 0.110458
Si Si4 0.071069 0.121561 0.422748
Si Si5 0.479657 0.250000 0.750000
Si Si6 0.250000 0.000000 0.393894
Si Si7 0.093077 0.969621 0.702526
O O1 0.676835 0.250000 0.750000
O O2 0.602354 0.090023 0.733016
O O3 0.699662 0.021032 0.709241
O O4 0.667309 0.102728 0.980256
O O5 0.250000 0.500000 0.746238
O O6 0.281953 0.250000 0.750000
O O7 0.345803 0.428520 0.821909
O O8 0.260791 0.388108 0.989208
O O9 0.666828 0.250000 0.250000
O O10 0.596745 0.089870 0.191815
O O11 0.609462 0.284400 0.012195
O O12 0.018504 0.195535 0.378687
O O13 0.067961 0.008544 0.540370
O O14 0.440816 0.135936 0.783522
#
# Coordination Sequence:
#
# PCOD9409344 Si02
#       7
#     8   8   8   8   4   4   8
#     4  10  19  40  64  89 125 167 218 268 336 405
#     4  10  22  41  66  96 137 180 227 283 341 405
#     4   9  20  37  65  90 125 164 224 274 324 404
#     4  10  19  40  63  90 123 175 213 264 333 402
#     4  12  22  36  66  92 132 174 216 264 342 390
#     4  10  22  40  68  92 132 176 228 282 336 414
#     4  11  22  38  62  95 131 163 223 280 325 403
#
# _framework density 19.904223999999999
#
# number of rings (size 3 to 8) (size 9 to 14) (size 15 to 20)
#    0.500    1.333    5.000    0.500    0.000    5.333 
#    4.500    0.000    0.000    0.000    0.000    0.000 
#    0.000    0.000    0.000    0.000    0.000    0.000 
#
# Total GULP energy -267337.189661 kJ/mol
# GULP energy per Si atom -5569.524785 kJ/mol
# Density = 1.985892 g / cm^3
# Si number density = 19.904224 Si / 1000 Ang^3
#
#
#
# Elastic Constant Matrix: (Units=GPa)
#
#
# Indices 1 2 3 4 5 6 
#
# 1 89.1396 24.2699 32.5946 0.0000 0.0000 0.0000
# 2 24.2699 85.1809 36.7000 0.0000 0.0000 0.0000
# 3 32.5946 36.7000 133.1957 0.0000 0.0000 0.0000
# 4 0.0000 0.0000 0.0000 27.7563 0.0000 0.0000
# 5 0.0000 0.0000 0.0000 0.0000 15.6043 0.0000
# 6 0.0000 0.0000 0.0000 0.0000 0.0000 12.9603
#
#
#
# Elastic Compliance Matrix: (Units=1/GPa)
#
#
# Indices 1 2 3 4 5 6 
#
# 1 0.012812 -0.002609 -0.002416 0.000000 0.000000 0.000000
# 2 -0.002609 0.013853 -0.003178 0.000000 0.000000 0.000000
# 3 -0.002416 -0.003178 0.008975 0.000000 0.000000 0.000000
# 4 0.000000 0.000000 0.000000 0.036028 0.000000 0.000000
# 5 0.000000 0.000000 0.000000 0.000000 0.064085 0.000000
# 6 0.000000 0.000000 0.000000 0.000000 0.000000 0.077159
#
#
# Mechanical properties :
#
#
# Convention : Reuss Voigt Hill
#
# Bulk Modulus (GPa) = 51.99786 54.96056 53.47921
# Shear Modulus (GPa) = 21.21071 25.52762 23.36916
#
# Velocity S-wave (km/s) = 3.26795 3.58512 3.43020
# Velocity P-wave (km/s) = 6.35768 6.69402 6.52802
#
# Compressibility (1/GPa) = 0.01923156
#
# Stress axis : x y z
#
# Youngs Moduli (GPa) = 78.04948 72.18873 111.42319
#
# Poissons Ratio (x) = 0.18837 0.26924
# Poissons Ratio (y) = 0.20367 0.35414
# Poissons Ratio (z) = 0.18860 0.22944
#
# Static dielectric constant tensor:
#      x y z
#    x 1.735060 0.000000 0.000000 
#    y 0.000000 1.738330 0.000000 
#    z 0.000000 0.000000 1.749490 
# 
# From -- ./inp_files/14958.got.cif
#   From: 2010.05.17/outbox.cif.g08.bks.cpg/sg52_8_cif.got.tgz:14958.got - 2010.06.03 12:15:38.
