data_PCOD9409256
_publ_section_title
;
Structure prediction by ZEFSAII (Michael W. Deem and Ramdas Pophale) SiO2 
 PCOD9409256
Probable space group: P N N A
;
_chemical_formula_sum "Si O2"
_cell_formula_units_Z 52
_cell_length_a 16.258990
_cell_length_b 8.471577
_cell_length_c 19.426772
_cell_angle_alpha 90.000000
_cell_angle_beta 90.000000
_cell_angle_gamma 90.000000
_cell_volume 2675.829699
_symmetry_space_group_name_H-M "P N N A"
_symmetry_group_IT_number 52
_symmetry_cell_setting 'orthorhombic'
loop_
_space_group_symop_operation_xyz
x,y,z
1/2-x,-y,z
x,1/2-y,1/2-z
1/2-x,1/2+y,1/2-z
-x,-y,-z
1/2+x,y,-z
-x,1/2+y,1/2+z
1/2+x,1/2-y,1/2+z
loop_
_atom_site_type_symbol
_atom_site_label
_atom_site_fract_x
_atom_site_fract_y
_atom_site_fract_z
Si Si1 0.987365 0.924694 0.341728
Si Si2 0.622892 0.750000 0.750000
Si Si3 0.020733 0.705986 0.460112
Si Si4 0.750000 0.000000 0.157947
Si Si5 0.160140 0.528172 0.373976
Si Si6 0.415486 0.426301 0.591265
Si Si7 0.039376 0.277246 0.326889
Si Si8 0.850452 0.750000 0.250000
O O1 0.908467 0.850930 0.302355
O O2 0.064074 0.855164 0.298328
O O3 0.996018 0.861137 0.419357
O O4 0.997534 0.111108 0.343445
O O5 0.667670 0.627635 0.697971
O O6 0.099399 0.629525 0.421490
O O7 0.047667 0.704158 0.539154
O O8 0.944867 0.586603 0.445754
O O9 0.679028 0.924549 0.110317
O O10 0.794744 0.869374 0.205340
O O11 0.250000 0.500000 0.403273
O O12 0.115264 0.359038 0.365251
O O13 0.467406 0.407346 0.661906
O O14 0.068133 0.250000 0.250000
#
# Coordination Sequence:
#
# PCOD9409256 Si02
#       8
#     8   4   8   4   8   8   8   4
#     4  10  19  38  60  81 120 159 203 251 305 375
#     4   9  18  32  52  79 112 146 194 241 294 364
#     4   9  20  42  60  84 116 168 210 243 296 378
#     4  12  24  38  62  96 128 160 200 272 326 374
#     4  10  21  34  57  87 115 154 195 254 309 360
#     4  10  22  39  62  86 120 162 210 248 306 377
#     4  11  21  36  60  87 116 154 204 251 308 375
#     4  11  24  38  60  97 130 162 206 261 326 374
#
# _framework density 19.433223999999999
#
# number of rings (size 3 to 8) (size 9 to 14) (size 15 to 20)
#    0.000    1.846    3.077    0.923    5.385    0.615 
#    0.000    2.308    0.000    1.846    0.000    0.000 
#    0.000    0.000    0.000    0.000    0.000    0.000 
#
# Total GULP energy -289752.671763 kJ/mol
# GULP energy per Si atom -5572.166765 kJ/mol
# Density = 1.938899 g / cm^3
# Si number density = 19.433224 Si / 1000 Ang^3
#
#
#
# Elastic Constant Matrix: (Units=GPa)
#
#
# Indices 1 2 3 4 5 6 
#
# 1 114.0962 27.4021 14.9037 0.0000 0.0000 0.0000
# 2 27.4021 84.4933 17.6755 0.0000 0.0000 0.0000
# 3 14.9037 17.6755 47.9553 0.0000 0.0000 0.0000
# 4 0.0000 0.0000 0.0000 23.8102 0.0000 0.0000
# 5 0.0000 0.0000 0.0000 0.0000 13.4794 0.0000
# 6 0.0000 0.0000 0.0000 0.0000 0.0000 19.4119
#
#
#
# Elastic Compliance Matrix: (Units=1/GPa)
#
#
# Indices 1 2 3 4 5 6 
#
# 1 0.009680 -0.002720 -0.002006 0.000000 0.000000 0.000000
# 2 -0.002720 0.013588 -0.004163 0.000000 0.000000 0.000000
# 3 -0.002006 -0.004163 0.023011 0.000000 0.000000 0.000000
# 4 0.000000 0.000000 0.000000 0.041999 0.000000 0.000000
# 5 0.000000 0.000000 0.000000 0.000000 0.074187 0.000000
# 6 0.000000 0.000000 0.000000 0.000000 0.000000 0.051515
#
#
# Mechanical properties :
#
#
# Convention : Reuss Voigt Hill
#
# Bulk Modulus (GPa) = 35.08628 40.72304 37.90466
# Shear Modulus (GPa) = 20.72479 23.77786 22.25132
#
# Velocity S-wave (km/s) = 3.26922 3.50175 3.38748
# Velocity P-wave (km/s) = 5.68721 6.11151 5.90317
#
# Compressibility (1/GPa) = 0.02850117
#
# Stress axis : x y z
#
# Youngs Moduli (GPa) = 103.30884 73.59343 43.45826
#
# Poissons Ratio (x) = 0.20015 0.08717
# Poissons Ratio (y) = 0.28096 0.18092
# Poissons Ratio (z) = 0.20723 0.30638
#
# Static dielectric constant tensor:
#      x y z
#    x 1.656820 0.000000 0.000000 
#    y 0.000000 1.722750 0.000000 
#    z 0.000000 0.000000 1.760420 
# 
# From -- ./inp_files/37285.got.cif
#   From: 2010.05.17/outbox.cif.g08.bks.cpg/sg52_19_cif.got.tgz:37285.got - 2010.06.03 12:15:38.
