data_PCOD9409383
_publ_section_title
;
Structure prediction by ZEFSAII (Michael W. Deem and Ramdas Pophale) SiO2 
 PCOD9409383
Probable space group: P N N A
;
_chemical_formula_sum "Si O2"
_cell_formula_units_Z 36
_cell_length_a 15.701792
_cell_length_b 9.270440
_cell_length_c 11.008003
_cell_angle_alpha 90.000000
_cell_angle_beta 90.000000
_cell_angle_gamma 90.000000
_cell_volume 1602.352664
_symmetry_space_group_name_H-M "P N N A"
_symmetry_group_IT_number 52
_symmetry_cell_setting 'orthorhombic'
loop_
_space_group_symop_operation_xyz
x,y,z
1/2-x,-y,z
x,1/2-y,1/2-z
1/2-x,1/2+y,1/2-z
-x,-y,-z
1/2+x,y,-z
-x,1/2+y,1/2+z
1/2+x,1/2-y,1/2+z
loop_
_atom_site_type_symbol
_atom_site_label
_atom_site_fract_x
_atom_site_fract_y
_atom_site_fract_z
Si Si1 0.772121 0.831636 0.021069
Si Si2 0.924139 0.875647 0.863728
Si Si3 0.913257 0.301589 0.526319
Si Si4 0.982579 0.463252 0.858302
Si Si5 0.384289 0.750000 0.750000
O O1 0.828714 0.787057 0.134115
O O2 0.750000 0.000000 0.027324
O O3 0.834018 0.806442 0.905017
O O4 0.678566 0.763805 0.028756
O O5 0.944207 0.592472 0.777609
O O6 0.914009 0.040475 0.914129
O O7 0.006511 0.811295 0.934173
O O8 0.925127 0.177990 0.625693
O O9 0.062144 0.393263 0.785954
O O10 0.000000 0.500000 0.000000
#
# Coordination Sequence:
#
# PCOD9409383 Si02
#       5
#     8   8   8   8   4
#     4  10  22  38  70  98 126 180 224 273 343 392
#     4  10  19  42  67  91 132 177 222 273 337 399
#     4  10  20  41  68  96 127 180 221 275 338 391
#     4  12  24  40  70  96 132 180 222 274 343 402
#     4  12  22  46  64  94 142 168 222 286 328 402
#
# _framework density 22.466964000000001
#
# number of rings (size 3 to 8) (size 9 to 14) (size 15 to 20)
#    0.000    1.333    4.444    2.667    0.000    4.444 
#    0.000   11.111    0.000    0.000    0.000    0.000 
#    0.000    0.000    0.000    0.000    0.000    0.000 
#
# Total GULP energy -200846.920476 kJ/mol
# GULP energy per Si atom -5579.081124 kJ/mol
# Density = 2.241583 g / cm^3
# Si number density = 22.466964 Si / 1000 Ang^3
#
#
#
# Elastic Constant Matrix: (Units=GPa)
#
#
# Indices 1 2 3 4 5 6 
#
# 1 115.8506 31.4811 17.1638 0.0000 0.0000 0.0000
# 2 31.4811 24.8823 29.1727 0.0000 0.0000 0.0000
# 3 17.1638 29.1727 96.2294 0.0000 0.0000 0.0000
# 4 0.0000 0.0000 0.0000 52.8812 0.0000 0.0000
# 5 0.0000 0.0000 0.0000 0.0000 20.9123 0.0000
# 6 0.0000 0.0000 0.0000 0.0000 0.0000 17.9505
#
#
#
# Elastic Compliance Matrix: (Units=1/GPa)
#
#
# Indices 1 2 3 4 5 6 
#
# 1 0.014340 -0.023495 0.004565 0.000000 0.000000 0.000000
# 2 -0.023495 0.100846 -0.026382 0.000000 0.000000 0.000000
# 3 0.004565 -0.026382 0.017575 0.000000 0.000000 0.000000
# 4 0.000000 0.000000 0.000000 0.018910 0.000000 0.000000
# 5 0.000000 0.000000 0.000000 0.000000 0.047819 0.000000
# 6 0.000000 0.000000 0.000000 0.000000 0.000000 0.055709
#
#
# Mechanical properties :
#
#
# Convention : Reuss Voigt Hill
#
# Bulk Modulus (GPa) = 23.73161 43.62194 33.67678
# Shear Modulus (GPa) = 13.89395 28.95844 21.42619
#
# Velocity S-wave (km/s) = 2.48950 3.59407 3.09151
# Velocity P-wave (km/s) = 4.34158 6.05651 5.26928
#
# Compressibility (1/GPa) = 0.04213789
#
# Stress axis : x y z
#
# Youngs Moduli (GPa) = 69.73490 9.91611 56.89770
#
# Poissons Ratio (x) = 0.23298 -0.25974
# Poissons Ratio (y) = 1.63843 1.50105
# Poissons Ratio (z) = -0.31834 0.26160
#
# Static dielectric constant tensor:
#      x y z
#    x 1.879130 0.000000 0.000000 
#    y 0.000000 2.158490 0.000000 
#    z 0.000000 0.000000 1.781300 
# 
# From -- ./inp_files/26748.got.cif
#   From: 2010.05.17/outbox.cif.g08.bks.cpg/sg52_14_cif.got.tgz:26748.got - 2010.06.03 12:15:38.
