data_PCOD9409438
_publ_section_title
;
Structure prediction by ZEFSAII (Michael W. Deem and Ramdas Pophale) SiO2 
 PCOD9409438
Probable space group: P N N A
;
_chemical_formula_sum "Si O2"
_cell_formula_units_Z 48
_cell_length_a 10.550175
_cell_length_b 12.631455
_cell_length_c 18.746800
_cell_angle_alpha 90.000000
_cell_angle_beta 90.000000
_cell_angle_gamma 90.000000
_cell_volume 2498.274694
_symmetry_space_group_name_H-M "P N N A"
_symmetry_group_IT_number 52
_symmetry_cell_setting 'orthorhombic'
loop_
_space_group_symop_operation_xyz
x,y,z
1/2-x,-y,z
x,1/2-y,1/2-z
1/2-x,1/2+y,1/2-z
-x,-y,-z
1/2+x,y,-z
-x,1/2+y,1/2+z
1/2+x,1/2-y,1/2+z
loop_
_atom_site_type_symbol
_atom_site_label
_atom_site_fract_x
_atom_site_fract_y
_atom_site_fract_z
Si Si1 0.802774 0.889305 0.693779
Si Si2 0.651489 0.147190 0.213586
Si Si3 0.458591 0.628776 0.573544
Si Si4 0.725159 0.835622 0.852769
Si Si5 0.525219 0.109363 0.918256
Si Si6 0.067739 0.908586 0.766043
O O1 0.735802 0.874428 0.771267
O O2 0.768075 0.786882 0.648019
O O3 0.952797 0.888915 0.711983
O O4 0.750000 0.000000 0.664389
O O5 0.591202 0.250000 0.250000
O O6 0.652494 0.163038 0.127620
O O7 0.790390 0.131090 0.247890
O O8 0.579408 0.036025 0.225102
O O9 0.586715 0.654147 0.615758
O O10 0.452740 0.501134 0.567905
O O11 0.472778 0.670826 0.493147
O O12 0.827001 0.901263 0.898420
O O13 0.469126 0.144596 0.842123
#
# Coordination Sequence:
#
# PCOD9409438 Si02
#       6
#     8   8   8   8   8   8
#     4  10  20  34  56  77 107 136 184 228 271 311
#     4  10  21  32  54  78 111 137 174 217 273 330
#     4  10  20  32  53  80 111 140 175 221 268 329
#     4  10  20  32  55  80 103 143 179 221 271 327
#     4   9  19  34  52  77 109 140 173 219 271 325
#     4   9  20  36  50  79 107 141 173 221 270 328
#
# _framework density 19.213259999999998
#
# number of rings (size 3 to 8) (size 9 to 14) (size 15 to 20)
#    0.000    2.333    0.000    3.500   11.667    0.000 
#    0.000    0.000    0.000    1.000    4.333    0.000 
#    0.000    0.000    0.000    0.000    0.000    0.000 
#
# Total GULP energy -267385.424523 kJ/mol
# GULP energy per Si atom -5570.529678 kJ/mol
# Density = 1.916953 g / cm^3
# Si number density = 19.213260 Si / 1000 Ang^3
#
#
#
# Elastic Constant Matrix: (Units=GPa)
#
#
# Indices 1 2 3 4 5 6 
#
# 1 67.5719 -10.6527 -0.4614 0.0000 0.0000 0.0000
# 2 -10.6527 76.5450 9.0421 0.0000 0.0000 0.0000
# 3 -0.4614 9.0421 38.6681 0.0000 0.0000 0.0000
# 4 0.0000 0.0000 0.0000 6.3638 0.0000 0.0000
# 5 0.0000 0.0000 0.0000 0.0000 3.4908 0.0000
# 6 0.0000 0.0000 0.0000 0.0000 0.0000 17.3600
#
#
#
# Elastic Compliance Matrix: (Units=1/GPa)
#
#
# Indices 1 2 3 4 5 6 
#
# 1 0.015135 0.002144 -0.000321 0.000000 0.000000 0.000000
# 2 0.002144 0.013739 -0.003187 0.000000 0.000000 0.000000
# 3 -0.000321 -0.003187 0.026603 0.000000 0.000000 0.000000
# 4 0.000000 0.000000 0.000000 0.157139 0.000000 0.000000
# 5 0.000000 0.000000 0.000000 0.000000 0.286466 0.000000
# 6 0.000000 0.000000 0.000000 0.000000 0.000000 0.057604
#
#
# Mechanical properties :
#
#
# Convention : Reuss Voigt Hill
#
# Bulk Modulus (GPa) = 18.95769 19.84901 19.40335
# Shear Modulus (GPa) = 8.66558 17.76674 13.21616
#
# Velocity S-wave (km/s) = 2.12603 3.04421 2.62557
# Velocity P-wave (km/s) = 3.98937 4.76546 4.39458
#
# Compressibility (1/GPa) = 0.05274904
#
# Stress axis : x y z
#
# Youngs Moduli (GPa) = 66.07251 72.78495 37.59042
#
# Poissons Ratio (x) = -0.15607 0.01206
# Poissons Ratio (y) = -0.14167 0.11981
# Poissons Ratio (z) = 0.02120 0.23198
#
# Static dielectric constant tensor:
#      x y z
#    x 1.713530 0.000000 0.000000 
#    y 0.000000 1.721950 0.000000 
#    z 0.000000 0.000000 1.706390 
# 
# From -- ./inp_files/32239.got.cif
#   From: 2010.05.17/outbox.cif.g08.bks.cpg/sg52_17_cif.got.tgz:32239.got - 2010.06.03 12:15:38.
