data_PCOD9409327
_publ_section_title
;
Structure prediction by ZEFSAII (Michael W. Deem and Ramdas Pophale) SiO2 
 PCOD9409327
Probable space group: P N N A
;
_chemical_formula_sum "Si O2"
_cell_formula_units_Z 64
_cell_length_a 16.635767
_cell_length_b 15.393021
_cell_length_c 11.175127
_cell_angle_alpha 90.000000
_cell_angle_beta 90.000000
_cell_angle_gamma 90.000000
_cell_volume 2861.667414
_symmetry_space_group_name_H-M "P N N A"
_symmetry_group_IT_number 52
_symmetry_cell_setting 'orthorhombic'
loop_
_space_group_symop_operation_xyz
x,y,z
1/2-x,-y,z
x,1/2-y,1/2-z
1/2-x,1/2+y,1/2-z
-x,-y,-z
1/2+x,y,-z
-x,1/2+y,1/2+z
1/2+x,1/2-y,1/2+z
loop_
_atom_site_type_symbol
_atom_site_label
_atom_site_fract_x
_atom_site_fract_y
_atom_site_fract_z
Si Si1 0.084072 0.007877 0.936783
Si Si2 0.095777 0.607045 0.894425
Si Si3 0.969167 0.928699 0.305509
Si Si4 0.941423 0.692093 0.970698
Si Si5 0.853833 0.068989 0.657175
Si Si6 0.688656 0.126850 0.719432
Si Si7 0.827016 0.843759 0.986842
Si Si8 0.707336 0.903000 0.178547
O O1 0.076534 0.069338 0.819559
O O2 0.125885 0.919959 0.896500
O O3 0.146189 0.056269 0.020142
O O4 0.000000 0.000000 0.000000
O O5 0.038726 0.530367 0.841765
O O6 0.170412 0.626057 0.805999
O O7 0.033764 0.684274 0.926375
O O8 0.128396 0.564584 0.016001
O O9 0.935118 0.871462 0.413963
O O10 0.061452 0.902216 0.287165
O O11 0.882493 0.663800 0.863150
O O12 0.904965 0.784252 0.008020
O O13 0.777963 0.131436 0.666373
O O14 0.832375 0.976234 0.713922
O O15 0.697816 0.169892 0.849676
O O16 0.763644 0.842399 0.096302
O O17 0.750000 0.000000 0.193737
#
# Coordination Sequence:
#
# PCOD9409327 Si02
#       8
#     8   8   8   8   8   8   8   8
#     4  10  22  38  67  93 125 174 223 276 329 405
#     4  10  19  40  69 101 124 170 234 278 334 394
#     4  10  19  39  65  99 127 163 229 281 328 390
#     4  11  22  42  66  93 137 173 225 279 340 408
#     4  10  20  33  66  96 120 164 222 288 317 386
#     4  11  22  35  62  93 130 175 216 272 342 396
#     4  11  25  41  61  96 136 183 215 271 351 414
#     4   9  22  39  64  96 133 171 228 285 330 408
#
# _framework density 22.364584000000001
#
# number of rings (size 3 to 8) (size 9 to 14) (size 15 to 20)
#    0.000    1.750    2.500    1.875   10.500    1.500 
#    0.000    2.500    5.500    6.000    0.000    0.000 
#    0.000    0.000    0.000    0.000    0.000    0.000 
#
# Total GULP energy -356666.735774 kJ/mol
# GULP energy per Si atom -5572.917746 kJ/mol
# Density = 2.231368 g / cm^3
# Si number density = 22.364584 Si / 1000 Ang^3
#
#
#
# Elastic Constant Matrix: (Units=GPa)
#
#
# Indices 1 2 3 4 5 6 
#
# 1 109.9169 15.8522 58.9654 0.0000 0.0000 0.0000
# 2 15.8522 40.7251 30.9579 0.0000 0.0000 0.0000
# 3 58.9654 30.9579 104.5060 0.0000 0.0000 0.0000
# 4 0.0000 0.0000 0.0000 12.3417 0.0000 0.0000
# 5 0.0000 0.0000 0.0000 0.0000 46.8357 0.0000
# 6 0.0000 0.0000 0.0000 0.0000 0.0000 24.7967
#
#
#
# Elastic Compliance Matrix: (Units=1/GPa)
#
#
# Indices 1 2 3 4 5 6 
#
# 1 0.013061 0.000669 -0.007567 0.000000 0.000000 0.000000
# 2 0.000669 0.031725 -0.009775 0.000000 0.000000 0.000000
# 3 -0.007567 -0.009775 0.016734 0.000000 0.000000 0.000000
# 4 0.000000 0.000000 0.000000 0.081026 0.000000 0.000000
# 5 0.000000 0.000000 0.000000 0.000000 0.021351 0.000000
# 6 0.000000 0.000000 0.000000 0.000000 0.000000 0.040328
#
#
# Mechanical properties :
#
#
# Convention : Reuss Voigt Hill
#
# Bulk Modulus (GPa) = 35.49569 51.85544 43.67556
# Shear Modulus (GPa) = 20.24577 26.75299 23.49938
#
# Velocity S-wave (km/s) = 3.01202 3.46240 3.24503
# Velocity P-wave (km/s) = 5.29171 6.26267 5.79755
#
# Compressibility (1/GPa) = 0.02817244
#
# Stress axis : x y z
#
# Youngs Moduli (GPa) = 76.56416 31.52044 59.75744
#
# Poissons Ratio (x) = -0.02107 0.45221
# Poissons Ratio (y) = -0.05118 0.58414
# Poissons Ratio (z) = 0.57939 0.30812
#
# Static dielectric constant tensor:
#      x y z
#    x 1.824900 0.000000 0.000000 
#    y 0.000000 1.894340 0.000000 
#    z 0.000000 0.000000 1.878040 
# 
# From -- ./inp_files/20898.got.cif
#   From: 2010.05.17/outbox.cif.g08.bks.cpg/sg52_11_cif.got.tgz:20898.got - 2010.06.03 12:15:38.
