data_PCOD9409655
_publ_section_title
;
Structure prediction by ZEFSAII (Michael W. Deem and Ramdas Pophale) SiO2 
 PCOD9409655
Probable space group: P N N A
;
_chemical_formula_sum "Si O2"
_cell_formula_units_Z 40
_cell_length_a 21.271596
_cell_length_b 5.501757
_cell_length_c 14.493343
_cell_angle_alpha 90.000000
_cell_angle_beta 90.000000
_cell_angle_gamma 90.000000
_cell_volume 1696.172630
_symmetry_space_group_name_H-M "P N N A"
_symmetry_group_IT_number 52
_symmetry_cell_setting 'orthorhombic'
loop_
_space_group_symop_operation_xyz
x,y,z
1/2-x,-y,z
x,1/2-y,1/2-z
1/2-x,1/2+y,1/2-z
-x,-y,-z
1/2+x,y,-z
-x,1/2+y,1/2+z
1/2+x,1/2-y,1/2+z
loop_
_atom_site_type_symbol
_atom_site_label
_atom_site_fract_x
_atom_site_fract_y
_atom_site_fract_z
Si Si1 0.628409 0.961310 0.005178
Si Si2 0.074227 0.470361 0.052269
Si Si3 0.808413 0.331197 0.855150
Si Si4 0.155983 0.001061 0.783433
Si Si5 0.512148 0.499127 0.208416
O O1 0.590308 0.707014 0.009022
O O2 0.678226 0.896221 0.924277
O O3 0.587144 0.199540 0.983528
O O4 0.654786 0.002901 0.106528
O O5 0.128086 0.510519 0.131778
O O6 0.007819 0.505012 0.102291
O O7 0.750000 0.500000 0.884422
O O8 0.799953 0.250000 0.750000
O O9 0.184942 0.250000 0.750000
O O10 0.183903 0.750000 0.750000
O O11 0.085534 0.001925 0.736781
O O12 0.486324 0.750000 0.250000
O O13 0.485406 0.250000 0.250000
#
# Coordination Sequence:
#
# PCOD9409655 Si02
#       5
#     8   8   8   8   8
#     4  10  23  40  62  94 128 169 216 268 325 383
#     4  10  22  37  61  86 133 166 209 267 320 379
#     4  10  25  38  67  96 130 164 208 260 340 398
#     4  10  21  41  64  90 125 175 226 268 322 374
#     4  10  20  35  57  82 123 173 216 263 308 369
#
# _framework density 23.582507
#
# number of rings (size 3 to 8) (size 9 to 14) (size 15 to 20)
#    1.200    0.800    0.000    3.000    5.600    0.000 
#    0.000   24.000    0.000    0.000    5.200    0.000 
#    0.000    0.000    0.000    0.000    0.000    0.000 
#
# Total GULP energy -223224.521705 kJ/mol
# GULP energy per Si atom -5580.613043 kJ/mol
# Density = 2.352883 g / cm^3
# Si number density = 23.582507 Si / 1000 Ang^3
#
#
#
# Elastic Constant Matrix: (Units=GPa)
#
#
# Indices 1 2 3 4 5 6 
#
# 1 59.2405 46.4983 34.5474 0.0000 0.0000 0.0000
# 2 46.4983 246.8254 75.4940 0.0000 0.0000 0.0000
# 3 34.5474 75.4940 148.6063 0.0000 0.0000 0.0000
# 4 0.0000 0.0000 0.0000 -205.8003 0.0000 0.0000
# 5 0.0000 0.0000 0.0000 0.0000 -26.8440 0.0000
# 6 0.0000 0.0000 0.0000 0.0000 0.0000 -2.3303
#
#
#
# Elastic Compliance Matrix: (Units=1/GPa)
#
#
# Indices 1 2 3 4 5 6 
#
# 1 0.021191 -0.002943 -0.003432 0.000000 0.000000 0.000000
# 2 -0.002943 0.005205 -0.001960 0.000000 0.000000 0.000000
# 3 -0.003432 -0.001960 0.008523 0.000000 0.000000 0.000000
# 4 0.000000 0.000000 0.000000 -0.004859 0.000000 0.000000
# 5 0.000000 0.000000 0.000000 0.000000 -0.037252 0.000000
# 6 0.000000 0.000000 0.000000 0.000000 0.000000 -0.429125
#
#
# Mechanical properties :
#
#
# Convention : Reuss Voigt Hill
#
# Bulk Modulus (GPa) = 54.79314 85.30576 70.04945
# Shear Modulus (GPa) = -12.09001 -27.11943 -19.60472
#
# Velocity S-wave (km/s) = -2.26667 -3.39482 -2.88640
# Velocity P-wave (km/s) = 4.05397 4.57006 4.31973
#
# Compressibility (1/GPa) = 0.01825046
#
# Stress axis : x y z
#
# Youngs Moduli (GPa) = 47.18946 192.10963 117.33194
#
# Poissons Ratio (x) = 0.56529 0.40264
# Poissons Ratio (y) = 0.13886 0.23001
# Poissons Ratio (z) = 0.16194 0.37660
#
# Static dielectric constant tensor:
#      x y z
#    x 1.911520 0.000000 0.000000 
#    y 0.000000 1.874630 0.000000 
#    z 0.000000 0.000000 1.928720 
# 
# From -- ./inp_files/29301.got.cif
#   From: 2010.05.17/outbox.cif.g08.bks.cpg/sg52_15_cif.got.tgz:29301.got - 2010.06.03 12:15:38.
