data_PCOD9409590
_publ_section_title
;
Structure prediction by ZEFSAII (Michael W. Deem and Ramdas Pophale) SiO2 
 PCOD9409590
Probable space group: P N N A
;
_chemical_formula_sum "Si O2"
_cell_formula_units_Z 60
_cell_length_a 13.421621
_cell_length_b 16.402356
_cell_length_c 10.949602
_cell_angle_alpha 90.000000
_cell_angle_beta 90.000000
_cell_angle_gamma 90.000000
_cell_volume 2410.513335
_symmetry_space_group_name_H-M "P N N A"
_symmetry_group_IT_number 52
_symmetry_cell_setting 'orthorhombic'
loop_
_space_group_symop_operation_xyz
x,y,z
1/2-x,-y,z
x,1/2-y,1/2-z
1/2-x,1/2+y,1/2-z
-x,-y,-z
1/2+x,y,-z
-x,1/2+y,1/2+z
1/2+x,1/2-y,1/2+z
loop_
_atom_site_type_symbol
_atom_site_label
_atom_site_fract_x
_atom_site_fract_y
_atom_site_fract_z
Si Si1 0.446815 0.130878 0.987399
Si Si2 0.174616 0.343222 0.094314
Si Si3 0.893854 0.544510 0.388414
Si Si4 0.716244 0.750000 0.250000
Si Si5 0.607173 0.048769 0.378794
Si Si6 0.463947 0.197176 0.612383
Si Si7 0.115224 0.587508 0.082166
Si Si8 0.227346 0.172904 0.001509
O O1 0.516873 0.109360 0.099687
O O2 0.484317 0.206408 0.905869
O O3 0.340138 0.156520 0.033850
O O4 0.431525 0.046101 0.915765
O O5 0.275270 0.390611 0.136728
O O6 0.063851 0.349960 0.152958
O O7 0.150103 0.376128 0.957341
O O8 0.193464 0.246892 0.086040
O O9 0.848163 0.545802 0.254914
O O10 0.824615 0.584972 0.492627
O O11 0.635772 0.812948 0.308329
O O12 0.773333 0.791134 0.138073
O O13 0.485981 0.051043 0.358001
O O14 0.630963 0.973518 0.467634
O O15 0.429040 0.168593 0.478989
#
# Coordination Sequence:
#
# PCOD9409590 Si02
#       8
#     8   8   8   4   8   8   8   8
#     4  10  22  39  58  89 130 158 196 255 307 360
#     4  11  20  39  62  88 124 159 203 256 308 371
#     4  11  23  39  62  93 122 160 204 254 306 366
#     4  10  20  34  58  90 120 160 210 262 296 362
#     4  10  24  38  63  93 118 159 205 259 308 363
#     4  10  21  37  60  87 122 166 200 254 307 360
#     4  10  21  41  60  87 125 156 202 256 313 357
#     4  11  21  36  62  91 121 159 209 248 309 364
#
# _framework density 24.890962999999999
#
# number of rings (size 3 to 8) (size 9 to 14) (size 15 to 20)
#    0.000    1.600    4.000    1.600    3.733    1.067 
#    0.000    1.333    0.000    8.000    0.000    0.000 
#    0.000    0.000    0.000    0.000    0.000    0.000 
#
# Total GULP energy -334592.051950 kJ/mol
# GULP energy per Si atom -5576.534199 kJ/mol
# Density = 2.483431 g / cm^3
# Si number density = 24.890963 Si / 1000 Ang^3
#
#
#
# Elastic Constant Matrix: (Units=GPa)
#
#
# Indices 1 2 3 4 5 6 
#
# 1 113.3356 32.8907 -17.6965 0.0000 0.0000 0.0000
# 2 32.8907 98.9863 -2.6060 0.0000 0.0000 0.0000
# 3 -17.6965 -2.6060 24.3113 0.0000 0.0000 0.0000
# 4 0.0000 0.0000 0.0000 14.8155 0.0000 0.0000
# 5 0.0000 0.0000 0.0000 0.0000 20.5364 0.0000
# 6 0.0000 0.0000 0.0000 0.0000 0.0000 210.3063
#
#
#
# Elastic Compliance Matrix: (Units=1/GPa)
#
#
# Indices 1 2 3 4 5 6 
#
# 1 0.011023 -0.003461 0.007653 0.000000 0.000000 0.000000
# 2 -0.003461 0.011218 -0.001317 0.000000 0.000000 0.000000
# 3 0.007653 -0.001317 0.046562 0.000000 0.000000 0.000000
# 4 0.000000 0.000000 0.000000 0.067497 0.000000 0.000000
# 5 0.000000 0.000000 0.000000 0.000000 0.048694 0.000000
# 6 0.000000 0.000000 0.000000 0.000000 0.000000 0.004755
#
#
# Mechanical properties :
#
#
# Convention : Reuss Voigt Hill
#
# Bulk Modulus (GPa) = 13.41347 29.08995 21.25171
# Shear Modulus (GPa) = 23.94058 64.06797 44.00427
#
# Velocity S-wave (km/s) = 3.10468 5.07891 4.20918
# Velocity P-wave (km/s) = 4.27231 6.79015 5.67269
#
# Compressibility (1/GPa) = 0.07455193
#
# Stress axis : x y z
#
# Youngs Moduli (GPa) = 90.72208 89.14420 21.47656
#
# Poissons Ratio (x) = 0.30854 -0.16435
# Poissons Ratio (y) = 0.31400 0.02828
# Poissons Ratio (z) = -0.69425 0.11739
#
# Static dielectric constant tensor:
#      x y z
#    x 2.083550 0.000000 0.000000 
#    y 0.000000 2.049930 0.000000 
#    z 0.000000 0.000000 1.988100 
# 
# From -- ./inp_files/19836.got.cif
#   From: 2010.05.17/outbox.cif.g08.bks.cpg/sg52_10_cif.got.tgz:19836.got - 2010.06.03 12:15:38.
