data_PCOD9409199
_publ_section_title
;
Structure prediction by ZEFSAII (Michael W. Deem and Ramdas Pophale) SiO2 
 PCOD9409199
Probable space group: P N N A
;
_chemical_formula_sum "Si O2"
_cell_formula_units_Z 48
_cell_length_a 19.178499
_cell_length_b 16.274247
_cell_length_c 7.150756
_cell_angle_alpha 90.000000
_cell_angle_beta 90.000000
_cell_angle_gamma 90.000000
_cell_volume 2231.862713
_symmetry_space_group_name_H-M "P N N A"
_symmetry_group_IT_number 52
_symmetry_cell_setting 'orthorhombic'
loop_
_space_group_symop_operation_xyz
x,y,z
1/2-x,-y,z
x,1/2-y,1/2-z
1/2-x,1/2+y,1/2-z
-x,-y,-z
1/2+x,y,-z
-x,1/2+y,1/2+z
1/2+x,1/2-y,1/2+z
loop_
_atom_site_type_symbol
_atom_site_label
_atom_site_fract_x
_atom_site_fract_y
_atom_site_fract_z
Si Si1 0.679372 0.169102 0.379712
Si Si2 0.446428 0.568359 0.771104
Si Si3 0.771246 0.113774 0.073934
Si Si4 0.092844 0.561321 0.068609
Si Si5 0.309230 0.215516 0.446788
Si Si6 0.856799 0.963246 0.918906
O O1 0.674459 0.250000 0.250000
O O2 0.603729 0.131093 0.382129
O O3 0.729680 0.105898 0.267476
O O4 0.727412 0.190962 0.553346
O O5 0.526137 0.590745 0.810160
O O6 0.420239 0.564985 0.555233
O O7 0.433201 0.482309 0.879060
O O8 0.808446 0.201958 0.072271
O O9 0.824628 0.043240 0.022183
O O10 0.706147 0.102587 0.930221
O O11 0.143719 0.636078 0.017460
O O12 0.126760 0.493930 0.210136
O O13 0.332627 0.250000 0.250000
#
# Coordination Sequence:
#
# PCOD9409199 Si02
#       6
#     8   8   8   8   8   8
#     4   9  20  38  60  82 118 154 192 248 296 356
#     4  10  23  40  58  85 119 161 199 237 300 363
#     4   9  19  35  57  89 113 147 201 243 301 345
#     4  11  23  37  60  87 120 157 200 245 297 360
#     4  11  21  35  57  90 115 148 198 254 295 348
#     4  10  19  37  61  85 117 155 195 247 291 354
#
# _framework density 21.506698
#
# number of rings (size 3 to 8) (size 9 to 14) (size 15 to 20)
#    0.000    2.000    1.667    1.500    2.333    2.667 
#    0.000    0.000    0.000    3.000    0.000    0.000 
#    0.000    0.000    0.000    0.000    0.000    0.000 
#
# Total GULP energy -267421.439665 kJ/mol
# GULP energy per Si atom -5571.279993 kJ/mol
# Density = 2.145775 g / cm^3
# Si number density = 21.506698 Si / 1000 Ang^3
#
#
#
# Elastic Constant Matrix: (Units=GPa)
#
#
# Indices 1 2 3 4 5 6 
#
# 1 88.4915 32.1616 1.6647 0.0000 0.0000 0.0000
# 2 32.1616 85.1250 18.4836 0.0000 0.0000 0.0000
# 3 1.6647 18.4836 37.7565 0.0000 0.0000 0.0000
# 4 0.0000 0.0000 0.0000 23.8876 0.0000 0.0000
# 5 0.0000 0.0000 0.0000 0.0000 -0.5655 0.0000
# 6 0.0000 0.0000 0.0000 0.0000 0.0000 27.0248
#
#
#
# Elastic Compliance Matrix: (Units=1/GPa)
#
#
# Indices 1 2 3 4 5 6 
#
# 1 0.013245 -0.005457 0.002088 0.000000 0.000000 0.000000
# 2 -0.005457 0.015393 -0.007295 0.000000 0.000000 0.000000
# 3 0.002088 -0.007295 0.029965 0.000000 0.000000 0.000000
# 4 0.000000 0.000000 0.000000 0.041863 0.000000 0.000000
# 5 0.000000 0.000000 0.000000 0.000000 -1.768319 0.000000
# 6 0.000000 0.000000 0.000000 0.000000 0.000000 0.037003
#
#
# Mechanical properties :
#
#
# Convention : Reuss Voigt Hill
#
# Bulk Modulus (GPa) = 26.82896 35.11030 30.96963
# Shear Modulus (GPa) = -3.13068 20.67359 8.77145
#
# Velocity S-wave (km/s) = -1.20782 3.10379 2.02171
# Velocity P-wave (km/s) = 3.24910 5.40420 4.45881
#
# Compressibility (1/GPa) = 0.03727316
#
# Stress axis : x y z
#
# Youngs Moduli (GPa) = 75.50194 64.96310 33.37248
#
# Poissons Ratio (x) = 0.35453 -0.06967
# Poissons Ratio (y) = 0.41204 0.24346
# Poissons Ratio (z) = -0.15762 0.47392
#
# Static dielectric constant tensor:
#      x y z
#    x 1.775920 0.000000 0.000000 
#    y 0.000000 1.874090 0.000000 
#    z 0.000000 0.000000 1.876080 
# 
# From -- ./inp_files/12268.got.cif
#   From: 2010.05.17/outbox.cif.g08.bks.cpg/sg52_7_cif.got.tgz:12268.got - 2010.06.03 12:15:38.
