data_PCOD9409646
_publ_section_title
;
Structure prediction by ZEFSAII (Michael W. Deem and Ramdas Pophale) SiO2 
 PCOD9409646
Probable space group: P N N A
;
_chemical_formula_sum "Si O2"
_cell_formula_units_Z 32
_cell_length_a 14.201815
_cell_length_b 8.717566
_cell_length_c 10.909551
_cell_angle_alpha 90.000000
_cell_angle_beta 90.000000
_cell_angle_gamma 90.000000
_cell_volume 1350.659793
_symmetry_space_group_name_H-M "P N N A"
_symmetry_group_IT_number 52
_symmetry_cell_setting 'orthorhombic'
loop_
_space_group_symop_operation_xyz
x,y,z
1/2-x,-y,z
x,1/2-y,1/2-z
1/2-x,1/2+y,1/2-z
-x,-y,-z
1/2+x,y,-z
-x,1/2+y,1/2+z
1/2+x,1/2-y,1/2+z
loop_
_atom_site_type_symbol
_atom_site_label
_atom_site_fract_x
_atom_site_fract_y
_atom_site_fract_z
Si Si1 0.024513 0.644304 0.363969
Si Si2 0.796540 0.664289 0.374008
Si Si3 0.997500 0.791059 0.875583
Si Si4 0.702554 0.335937 0.876296
O O1 0.054564 0.750000 0.250000
O O2 0.910324 0.648299 0.368545
O O3 0.053157 0.708287 0.497347
O O4 0.046927 0.462996 0.361152
O O5 0.750000 0.500000 0.376199
O O6 0.769339 0.750000 0.250000
O O7 0.770476 0.750917 0.498578
O O8 0.050164 0.750000 0.750000
O O9 0.911722 0.670470 0.882642
O O10 0.750000 0.500000 0.873669
O O11 0.727209 0.250000 0.750000
#
# Coordination Sequence:
#
# PCOD9409646 Si02
#       4
#     8   8   8   8
#     4   9  19  36  55  77 110 146 183 228 273 327
#     4  10  20  35  56  83 114 149 188 229 277 331
#     4   9  19  36  55  80 109 142 185 226 276 330
#     4  10  20  37  58  81 111 145 186 233 282 336
#
# _framework density 23.692125000000001
#
# number of rings (size 3 to 8) (size 9 to 14) (size 15 to 20)
#    0.000    2.500    0.000    1.500    0.000    2.000 
#    0.000   20.000    0.000    0.000    0.000    0.000 
#    0.000    0.000    0.000    0.000    0.000    0.000 
#
# Total GULP energy -178988.823437 kJ/mol
# GULP energy per Si atom -5593.400732 kJ/mol
# Density = 2.363820 g / cm^3
# Si number density = 23.692125 Si / 1000 Ang^3
#
#
#
# Elastic Constant Matrix: (Units=GPa)
#
#
# Indices 1 2 3 4 5 6 
#
# 1 86.2843 0.3634 -6.7667 0.0000 0.0000 0.0000
# 2 0.3634 87.8669 59.4074 0.0000 0.0000 0.0000
# 3 -6.7667 59.4074 257.5218 0.0000 0.0000 0.0000
# 4 0.0000 0.0000 0.0000 57.6119 0.0000 0.0000
# 5 0.0000 0.0000 0.0000 0.0000 62.0940 0.0000
# 6 0.0000 0.0000 0.0000 0.0000 0.0000 36.9195
#
#
#
# Elastic Compliance Matrix: (Units=1/GPa)
#
#
# Indices 1 2 3 4 5 6 
#
# 1 0.011620 -0.000302 0.000375 0.000000 0.000000 0.000000
# 2 -0.000302 0.013492 -0.003120 0.000000 0.000000 0.000000
# 3 0.000375 -0.003120 0.004613 0.000000 0.000000 0.000000
# 4 0.000000 0.000000 0.000000 0.017358 0.000000 0.000000
# 5 0.000000 0.000000 0.000000 0.000000 0.016105 0.000000
# 6 0.000000 0.000000 0.000000 0.000000 0.000000 0.027086
#
#
# Mechanical properties :
#
#
# Convention : Reuss Voigt Hill
#
# Bulk Modulus (GPa) = 42.31737 59.74237 51.02987
# Shear Modulus (GPa) = 47.96446 56.56968 52.26707
#
# Velocity S-wave (km/s) = 4.50431 4.89171 4.70200
# Velocity P-wave (km/s) = 6.70462 7.56148 7.14591
#
# Compressibility (1/GPa) = 0.02363096
#
# Stress axis : x y z
#
# Youngs Moduli (GPa) = 86.05660 74.11923 216.78609
#
# Poissons Ratio (x) = 0.02235 -0.08127
# Poissons Ratio (y) = 0.02595 0.67644
# Poissons Ratio (z) = -0.03226 0.23128
#
# Static dielectric constant tensor:
#      x y z
#    x 1.904750 0.000000 0.000000 
#    y 0.000000 1.822720 0.000000 
#    z 0.000000 0.000000 1.888430 
# 
# From -- ./inp_files/18854.got.cif
#   From: 2010.05.17/outbox.cif.g08.bks.cpg/sg52_10_cif.got.tgz:18854.got - 2010.06.03 12:15:38.
