data_PCOD9409621
_publ_section_title
;
Structure prediction by ZEFSAII (Michael W. Deem and Ramdas Pophale) SiO2 
 PCOD9409621
Probable space group: P N N A
;
_chemical_formula_sum "Si O2"
_cell_formula_units_Z 48
_cell_length_a 21.662132
_cell_length_b 15.827371
_cell_length_c 5.454612
_cell_angle_alpha 90.000000
_cell_angle_beta 90.000000
_cell_angle_gamma 90.000000
_cell_volume 1870.138814
_symmetry_space_group_name_H-M "P N N A"
_symmetry_group_IT_number 52
_symmetry_cell_setting 'orthorhombic'
loop_
_space_group_symop_operation_xyz
x,y,z
1/2-x,-y,z
x,1/2-y,1/2-z
1/2-x,1/2+y,1/2-z
-x,-y,-z
1/2+x,y,-z
-x,1/2+y,1/2+z
1/2+x,1/2-y,1/2+z
loop_
_atom_site_type_symbol
_atom_site_label
_atom_site_fract_x
_atom_site_fract_y
_atom_site_fract_z
Si Si1 0.197802 0.656157 0.349050
Si Si2 0.902408 0.985532 0.412975
Si Si3 0.381287 0.708011 0.000359
Si Si4 0.569470 0.948304 0.912596
Si Si5 0.021827 0.723389 0.503669
Si Si6 0.780970 0.412160 0.148049
O O1 0.186390 0.750000 0.250000
O O2 0.135321 0.600749 0.384748
O O3 0.226285 0.650449 0.622423
O O4 0.237896 0.616547 0.125303
O O5 0.876816 0.892826 0.478721
O O6 0.942988 0.012548 0.646756
O O7 0.851626 0.059657 0.392968
O O8 0.926232 0.986042 0.134967
O O9 0.357571 0.750000 0.750000
O O10 0.455287 0.730836 0.005907
O O11 0.356028 0.750000 0.250000
O O12 0.521872 0.876552 0.996000
O O13 0.051867 0.750000 0.250000
O O14 0.056287 0.750000 0.750000
O O15 0.750000 0.500000 0.222767
#
# Coordination Sequence:
#
# PCOD9409621 Si02
#       6
#     8   8   8   8   8   8
#     4  10  20  35  59  87 116 147 185 232 283 336
#     4  10  21  38  59  81 109 151 191 228 285 345
#     4  10  21  39  56  77 111 148 187 232 278 333
#     4  10  20  35  58  84 110 145 187 233 284 333
#     4  10  20  35  53  78 110 144 181 229 279 324
#     4  10  21  38  59  85 118 149 185 236 284 333
#
# _framework density 25.666543000000001
#
# number of rings (size 3 to 8) (size 9 to 14) (size 15 to 20)
#    0.000    2.000    0.000    3.500    0.000    2.667 
#    0.000   22.500    0.000    0.000    0.000    0.000 
#    0.000    0.000    0.000    0.000    0.000    0.000 
#
# Total GULP energy -268232.674765 kJ/mol
# GULP energy per Si atom -5588.180724 kJ/mol
# Density = 2.560812 g / cm^3
# Si number density = 25.666543 Si / 1000 Ang^3
#
#
#
# Elastic Constant Matrix: (Units=GPa)
#
#
# Indices 1 2 3 4 5 6 
#
# 1 35.1273 23.3274 21.0871 0.0000 0.0000 0.0000
# 2 23.3274 114.4963 105.5333 0.0000 0.0000 0.0000
# 3 21.0871 105.5333 282.3198 0.0000 0.0000 0.0000
# 4 0.0000 0.0000 0.0000 58.4097 0.0000 0.0000
# 5 0.0000 0.0000 0.0000 0.0000 -26.7372 0.0000
# 6 0.0000 0.0000 0.0000 0.0000 0.0000 27.7740
#
#
#
# Elastic Compliance Matrix: (Units=1/GPa)
#
#
# Indices 1 2 3 4 5 6 
#
# 1 0.032923 -0.006776 0.000074 0.000000 0.000000 0.000000
# 2 -0.006776 0.014719 -0.004996 0.000000 0.000000 0.000000
# 3 0.000074 -0.004996 0.005404 0.000000 0.000000 0.000000
# 4 0.000000 0.000000 0.000000 0.017120 0.000000 0.000000
# 5 0.000000 0.000000 0.000000 0.000000 -0.037401 0.000000
# 6 0.000000 0.000000 0.000000 0.000000 0.000000 0.036005
#
#
# Mechanical properties :
#
#
# Convention : Reuss Voigt Hill
#
# Bulk Modulus (GPa) = 33.72616 81.31545 57.52081
# Shear Modulus (GPa) = 48.99513 30.68901 39.84207
#
# Velocity S-wave (km/s) = 4.37385 3.46161 3.94419
# Velocity P-wave (km/s) = 6.21901 6.90850 6.57280
#
# Compressibility (1/GPa) = 0.02965058
#
# Stress axis : x y z
#
# Youngs Moduli (GPa) = 30.37365 67.93755 185.04234
#
# Poissons Ratio (x) = 0.46032 -0.01364
# Poissons Ratio (y) = 0.20580 0.92450
# Poissons Ratio (z) = -0.00224 0.33942
#
# Static dielectric constant tensor:
#      x y z
#    x 2.127810 0.000000 0.000000 
#    y 0.000000 1.950750 0.000000 
#    z 0.000000 0.000000 2.066970 
# 
# From -- ./inp_files/6378.got.cif
#   From: 2010.05.17/outbox.cif.g08.bks.cpg/sg52_4_cif.got.tgz:6378.got - 2010.06.03 12:15:38.
