data_PCOD9409054
_publ_section_title
;
Structure prediction by ZEFSAII (Michael W. Deem and Ramdas Pophale) SiO2 
 PCOD9409054
Probable space group: P N N A
;
_chemical_formula_sum "Si O2"
_cell_formula_units_Z 36
_cell_length_a 17.358368
_cell_length_b 6.341802
_cell_length_c 12.865451
_cell_angle_alpha 90.000000
_cell_angle_beta 90.000000
_cell_angle_gamma 90.000000
_cell_volume 1416.271725
_symmetry_space_group_name_H-M "P N N A"
_symmetry_group_IT_number 52
_symmetry_cell_setting 'orthorhombic'
loop_
_space_group_symop_operation_xyz
x,y,z
1/2-x,-y,z
x,1/2-y,1/2-z
1/2-x,1/2+y,1/2-z
-x,-y,-z
1/2+x,y,-z
-x,1/2+y,1/2+z
1/2+x,1/2-y,1/2+z
loop_
_atom_site_type_symbol
_atom_site_label
_atom_site_fract_x
_atom_site_fract_y
_atom_site_fract_z
Si Si1 0.528831 0.750000 0.750000
Si Si2 0.395574 0.236366 0.045762
Si Si3 0.678213 0.127274 0.659285
Si Si4 0.920676 0.093760 0.346729
Si Si5 0.750000 0.500000 0.199356
Si Si6 0.250000 0.500000 0.472372
O O1 0.576979 0.859644 0.844058
O O2 0.475020 0.594971 0.814051
O O3 0.366227 0.459930 0.090936
O O4 0.329662 0.099101 0.986292
O O5 0.450867 0.292045 0.950778
O O6 0.634706 0.250000 0.750000
O O7 0.717545 0.299783 0.587962
O O8 0.750000 0.000000 0.709948
O O9 0.919917 0.250000 0.250000
O O10 0.832049 0.012433 0.358810
O O11 0.745937 0.250000 0.250000
#
# Coordination Sequence:
#
# PCOD9409054 Si02
#       6
#     4   8   8   8   4   4
#     4  12  26  50  72 108 158 202 250 324 394 488
#     4  11  26  43  74 112 150 200 255 314 392 475
#     4  10  19  35  61 100 147 190 239 294 370 453
#     4  11  27  48  75 108 149 206 265 325 397 473
#     4  10  22  47  79 114 154 208 283 347 400 486
#     4  10  22  39  67 108 148 196 247 311 380 448
#
# _framework density 25.418852000000001
#
# number of rings (size 3 to 8) (size 9 to 14) (size 15 to 20)
#    0.000    1.333    2.222    2.000    7.778    8.889 
#    0.000    0.000    0.000    0.000    0.000    0.000 
#    0.000    0.000    0.000    0.000    0.000    0.000 
#
# Total GULP energy -200564.904545 kJ/mol
# GULP energy per Si atom -5571.247348 kJ/mol
# Density = 2.536100 g / cm^3
# Si number density = 25.418852 Si / 1000 Ang^3
#
#
#
# Elastic Constant Matrix: (Units=GPa)
#
#
# Indices 1 2 3 4 5 6 
#
# 1 75.3889 26.2431 20.3861 0.0000 0.0000 0.0000
# 2 26.2431 117.5450 24.3313 0.0000 0.0000 0.0000
# 3 20.3861 24.3313 139.7075 0.0000 0.0000 0.0000
# 4 0.0000 0.0000 0.0000 33.0224 0.0000 0.0000
# 5 0.0000 0.0000 0.0000 0.0000 19.8516 0.0000
# 6 0.0000 0.0000 0.0000 0.0000 0.0000 1.1412
#
#
#
# Elastic Compliance Matrix: (Units=1/GPa)
#
#
# Indices 1 2 3 4 5 6 
#
# 1 0.014734 -0.002951 -0.001636 0.000000 0.000000 0.000000
# 2 -0.002951 0.009417 -0.001209 0.000000 0.000000 0.000000
# 3 -0.001636 -0.001209 0.007607 0.000000 0.000000 0.000000
# 4 0.000000 0.000000 0.000000 0.030282 0.000000 0.000000
# 5 0.000000 0.000000 0.000000 0.000000 0.050374 0.000000
# 6 0.000000 0.000000 0.000000 0.000000 0.000000 0.876255
#
#
# Mechanical properties :
#
#
# Convention : Reuss Voigt Hill
#
# Bulk Modulus (GPa) = 49.59045 52.72916 51.15980
# Shear Modulus (GPa) = 4.96532 28.24844 16.60688
#
# Velocity S-wave (km/s) = 1.39916 3.33726 2.55880
# Velocity P-wave (km/s) = 4.70764 5.96983 5.37591
#
# Compressibility (1/GPa) = 0.02016517
#
# Stress axis : x y z
#
# Youngs Moduli (GPa) = 67.86944 106.19619 131.45483
#
# Poissons Ratio (x) = 0.31337 0.21507
# Poissons Ratio (y) = 0.20028 0.15898
# Poissons Ratio (z) = 0.11104 0.12843
#
# Static dielectric constant tensor:
#      x y z
#    x 2.162770 0.000000 0.000000 
#    y 0.000000 1.874640 0.000000 
#    z 0.000000 0.000000 2.059980 
# 
# From -- ./inp_files/28539.got.cif
#   From: 2010.05.17/outbox.cif.g08.bks.cpg/sg52_15_cif.got.tgz:28539.got - 2010.06.03 12:15:38.
