data_PCOD9409029
_publ_section_title
;
Structure prediction by ZEFSAII (Michael W. Deem and Ramdas Pophale) SiO2 
 PCOD9409029
Probable space group: P N N A
;
_chemical_formula_sum "Si O2"
_cell_formula_units_Z 64
_cell_length_a 17.009917
_cell_length_b 11.829007
_cell_length_c 14.487714
_cell_angle_alpha 90.000000
_cell_angle_beta 90.000000
_cell_angle_gamma 90.000000
_cell_volume 2915.079124
_symmetry_space_group_name_H-M "P N N A"
_symmetry_group_IT_number 52
_symmetry_cell_setting 'orthorhombic'
loop_
_space_group_symop_operation_xyz
x,y,z
1/2-x,-y,z
x,1/2-y,1/2-z
1/2-x,1/2+y,1/2-z
-x,-y,-z
1/2+x,y,-z
-x,1/2+y,1/2+z
1/2+x,1/2-y,1/2+z
loop_
_atom_site_type_symbol
_atom_site_label
_atom_site_fract_x
_atom_site_fract_y
_atom_site_fract_z
Si Si1 0.104562 0.491379 0.913296
Si Si2 0.105852 0.128368 0.767628
Si Si3 0.497732 0.810031 0.485556
Si Si4 0.510494 0.657136 0.327635
Si Si5 0.339800 0.028267 0.905408
Si Si6 0.184864 0.919574 0.411671
Si Si7 0.643277 0.679910 0.580144
Si Si8 0.568838 0.934635 0.750551
O O1 0.132982 0.462556 0.810256
O O2 0.040521 0.592405 0.923095
O O3 0.168154 0.534810 0.985937
O O4 0.065261 0.377043 0.953962
O O5 0.142398 0.250000 0.750000
O O6 0.013134 0.131083 0.748584
O O7 0.118487 0.087540 0.872368
O O8 0.468619 0.715406 0.414962
O O9 0.563695 0.743303 0.544601
O O10 0.519107 0.750000 0.250000
O O11 0.598496 0.615499 0.356379
O O12 0.458157 0.554530 0.291016
O O13 0.250000 0.000000 0.876434
O O14 0.336736 0.080874 0.007745
O O15 0.202612 0.786093 0.415316
O O16 0.107865 0.938989 0.349170
O O17 0.250000 0.000000 0.368898
O O18 0.627211 0.627300 0.679425
#
# Coordination Sequence:
#
# PCOD9409029 Si02
#       8
#     8   8   8   8   8   8   8   8
#     4  10  19  35  58  87 122 153 198 254 304 367
#     4  11  22  36  63  94 122 160 205 260 316 373
#     4   9  17  33  59  87 116 155 196 247 311 369
#     4  10  20  36  62  91 121 161 207 263 319 376
#     4  10  24  41  58  88 126 165 208 249 313 385
#     4  11  24  41  62  89 121 168 216 253 309 380
#     4  10  22  41  63  84 124 167 201 258 318 374
#     4  11  22  40  64  93 125 159 211 266 320 376
#
# _framework density 21.954806999999999
#
# number of rings (size 3 to 8) (size 9 to 14) (size 15 to 20)
#    0.000    1.750    0.000    6.375    0.000    8.000 
#    0.000    5.000    0.000    0.000    0.000    0.000 
#    0.000    0.000    0.000    0.000    0.000    0.000 
#
# Total GULP energy -356966.828006 kJ/mol
# GULP energy per Si atom -5577.606688 kJ/mol
# Density = 2.190484 g / cm^3
# Si number density = 21.954807 Si / 1000 Ang^3
#
#
#
# Elastic Constant Matrix: (Units=GPa)
#
#
# Indices 1 2 3 4 5 6 
#
# 1 49.6212 13.9190 13.2782 0.0000 0.0000 0.0000
# 2 13.9190 100.2380 45.0227 0.0000 0.0000 0.0000
# 3 13.2782 45.0227 87.8295 0.0000 0.0000 0.0000
# 4 0.0000 0.0000 0.0000 27.1345 0.0000 0.0000
# 5 0.0000 0.0000 0.0000 0.0000 8.8885 0.0000
# 6 0.0000 0.0000 0.0000 0.0000 0.0000 13.5352
#
#
#
# Elastic Compliance Matrix: (Units=1/GPa)
#
#
# Indices 1 2 3 4 5 6 
#
# 1 0.021296 -0.001963 -0.002213 0.000000 0.000000 0.000000
# 2 -0.001963 0.013141 -0.006440 0.000000 0.000000 0.000000
# 3 -0.002213 -0.006440 0.015021 0.000000 0.000000 0.000000
# 4 0.000000 0.000000 0.000000 0.036853 0.000000 0.000000
# 5 0.000000 0.000000 0.000000 0.000000 0.112505 0.000000
# 6 0.000000 0.000000 0.000000 0.000000 0.000000 0.073881
#
#
# Mechanical properties :
#
#
# Convention : Reuss Voigt Hill
#
# Bulk Modulus (GPa) = 35.42778 42.45872 38.94325
# Shear Modulus (GPa) = 16.48321 20.94289 18.71305
#
# Velocity S-wave (km/s) = 2.74301 3.09189 2.92266
# Velocity P-wave (km/s) = 5.11897 5.66812 5.40053
#
# Compressibility (1/GPa) = 0.02822643
#
# Stress axis : x y z
#
# Youngs Moduli (GPa) = 46.95813 76.09623 66.57195
#
# Poissons Ratio (x) = 0.14938 0.14734
# Poissons Ratio (y) = 0.09218 0.42870
# Poissons Ratio (z) = 0.10393 0.49003
#
# Static dielectric constant tensor:
#      x y z
#    x 1.822000 0.000000 0.000000 
#    y 0.000000 1.853810 0.000000 
#    z 0.000000 0.000000 1.825180 
# 
# From -- ./inp_files/28312.got.cif
#   From: 2010.05.17/outbox.cif.g08.bks.cpg/sg52_15_cif.got.tgz:28312.got - 2010.06.03 12:15:38.
