data_PCOD9409332
_publ_section_title
;
Structure prediction by ZEFSAII (Michael W. Deem and Ramdas Pophale) SiO2 
 PCOD9409332
Probable space group: P N N A
;
_chemical_formula_sum "Si O2"
_cell_formula_units_Z 48
_cell_length_a 8.612559
_cell_length_b 13.887750
_cell_length_c 19.348781
_cell_angle_alpha 90.000000
_cell_angle_beta 90.000000
_cell_angle_gamma 90.000000
_cell_volume 2314.289629
_symmetry_space_group_name_H-M "P N N A"
_symmetry_group_IT_number 52
_symmetry_cell_setting 'orthorhombic'
loop_
_space_group_symop_operation_xyz
x,y,z
1/2-x,-y,z
x,1/2-y,1/2-z
1/2-x,1/2+y,1/2-z
-x,-y,-z
1/2+x,y,-z
-x,1/2+y,1/2+z
1/2+x,1/2-y,1/2+z
loop_
_atom_site_type_symbol
_atom_site_label
_atom_site_fract_x
_atom_site_fract_y
_atom_site_fract_z
Si Si1 0.408193 0.562459 0.054732
Si Si2 0.777134 0.614178 0.424390
Si Si3 0.064501 0.024053 0.292132
Si Si4 0.312182 0.833257 0.192114
Si Si5 0.044704 0.145651 0.783734
Si Si6 0.547139 0.284561 0.545442
O O1 0.250000 0.500000 0.059896
O O2 0.473995 0.567061 0.133218
O O3 0.415722 0.672733 0.029262
O O4 0.500000 0.500000 0.000000
O O5 0.750000 0.500000 0.434190
O O6 0.841108 0.629211 0.347041
O O7 0.898889 0.650896 0.481359
O O8 0.627147 0.681478 0.437451
O O9 0.065593 0.091994 0.224954
O O10 0.250000 0.000000 0.296348
O O11 0.954902 0.934209 0.276252
O O12 0.311479 0.750000 0.250000
O O13 0.359128 0.804127 0.115922
O O14 0.132982 0.865754 0.188944
O O15 0.064785 0.250000 0.750000
#
# Coordination Sequence:
#
# PCOD9409332 Si02
#       6
#     8   8   8   8   8   8
#     4  11  24  42  66  98 135 175 226 278 340 412
#     4  12  27  46  65 100 135 180 231 286 344 408
#     4   9  19  38  65  94 126 167 218 270 330 404
#     4  10  19  39  67  98 126 169 222 270 338 405
#     4  10  23  41  67  93 132 175 218 277 340 407
#     4  12  25  43  72  96 137 178 223 282 339 412
#
# _framework density 20.740705999999999
#
# number of rings (size 3 to 8) (size 9 to 14) (size 15 to 20)
#    0.000    1.333    1.667    3.500    4.667    2.667 
#    3.000    0.000    0.000    0.000    0.000    0.000 
#    0.000    0.000    0.000    0.000    0.000    0.000 
#
# Total GULP energy -267791.648291 kJ/mol
# GULP energy per Si atom -5578.992673 kJ/mol
# Density = 2.069350 g / cm^3
# Si number density = 20.740706 Si / 1000 Ang^3
#
#
#
# Elastic Constant Matrix: (Units=GPa)
#
#
# Indices 1 2 3 4 5 6 
#
# 1 60.0035 26.5370 25.0864 0.0000 0.0000 0.0000
# 2 26.5370 158.5371 44.6892 0.0000 0.0000 0.0000
# 3 25.0864 44.6892 99.2963 0.0000 0.0000 0.0000
# 4 0.0000 0.0000 0.0000 28.1197 0.0000 0.0000
# 5 0.0000 0.0000 0.0000 0.0000 -9.0258 0.0000
# 6 0.0000 0.0000 0.0000 0.0000 0.0000 5.7655
#
#
#
# Elastic Compliance Matrix: (Units=1/GPa)
#
#
# Indices 1 2 3 4 5 6 
#
# 1 0.019236 -0.002119 -0.003906 0.000000 0.000000 0.000000
# 2 -0.002119 0.007458 -0.002821 0.000000 0.000000 0.000000
# 3 -0.003906 -0.002821 0.012327 0.000000 0.000000 0.000000
# 4 0.000000 0.000000 0.000000 0.035562 0.000000 0.000000
# 5 0.000000 0.000000 0.000000 0.000000 -0.110793 0.000000
# 6 0.000000 0.000000 0.000000 0.000000 0.000000 0.173444
#
#
# Mechanical properties :
#
#
# Convention : Reuss Voigt Hill
#
# Bulk Modulus (GPa) = 46.88509 56.71803 51.80156
# Shear Modulus (GPa) = 30.85743 19.74018 25.29880
#
# Velocity S-wave (km/s) = 3.86135 3.08841 3.49630
# Velocity P-wave (km/s) = 6.52184 6.33429 6.42875
#
# Compressibility (1/GPa) = 0.02132874
#
# Stress axis : x y z
#
# Youngs Moduli (GPa) = 51.98632 134.09272 81.12018
#
# Poissons Ratio (x) = 0.28410 0.31687
# Poissons Ratio (y) = 0.11014 0.22884
# Poissons Ratio (z) = 0.20307 0.37828
#
# Static dielectric constant tensor:
#      x y z
#    x 1.788500 0.000000 0.000000 
#    y 0.000000 1.691910 0.000000 
#    z 0.000000 0.000000 1.713240 
# 
# From -- ./inp_files/31215.got.cif
#   From: 2010.05.17/outbox.cif.g08.bks.cpg/sg52_16_cif.got.tgz:31215.got - 2010.06.03 12:15:38.
