data_PCOD9409582
_publ_section_title
;
Structure prediction by ZEFSAII (Michael W. Deem and Ramdas Pophale) SiO2 
 PCOD9409582
Probable space group: P N N A
;
_chemical_formula_sum "Si O2"
_cell_formula_units_Z 64
_cell_length_a 13.516606
_cell_length_b 9.695155
_cell_length_c 23.331708
_cell_angle_alpha 90.000000
_cell_angle_beta 90.000000
_cell_angle_gamma 90.000000
_cell_volume 3057.517446
_symmetry_space_group_name_H-M "P N N A"
_symmetry_group_IT_number 52
_symmetry_cell_setting 'orthorhombic'
loop_
_space_group_symop_operation_xyz
x,y,z
1/2-x,-y,z
x,1/2-y,1/2-z
1/2-x,1/2+y,1/2-z
-x,-y,-z
1/2+x,y,-z
-x,1/2+y,1/2+z
1/2+x,1/2-y,1/2+z
loop_
_atom_site_type_symbol
_atom_site_label
_atom_site_fract_x
_atom_site_fract_y
_atom_site_fract_z
Si Si1 0.912912 0.247179 0.129847
Si Si2 0.858100 0.250431 0.817690
Si Si3 0.468276 0.964381 0.682359
Si Si4 0.268060 0.664197 0.086827
Si Si5 0.393837 0.326001 0.996458
Si Si6 0.183337 0.244689 0.866394
Si Si7 0.973765 0.968785 0.180331
Si Si8 0.613205 0.145911 0.482293
O O1 0.960463 0.389938 0.151088
O O2 0.798035 0.240754 0.150432
O O3 0.973078 0.119992 0.154642
O O4 0.906002 0.241130 0.061190
O O5 0.838501 0.250000 0.750000
O O6 0.758064 0.263899 0.853891
O O7 0.930544 0.381036 0.830829
O O8 0.927184 0.119240 0.831779
O O9 0.375759 0.872443 0.661599
O O10 0.462903 0.975793 0.750981
O O11 0.250000 0.500000 0.094001
O O12 0.186394 0.719519 0.041923
O O13 0.365839 0.682162 0.048803
O O14 0.498011 0.333985 0.028696
O O15 0.366090 0.482503 0.977415
O O16 0.173419 0.270691 0.934803
O O17 0.120057 0.113100 0.846253
#
# Coordination Sequence:
#
# PCOD9409582 Si02
#       8
#     8   8   8   8   8   8   8   8
#     4  12  22  33  56  87 126 156 200 257 302 355
#     4   9  20  42  65  86 119 158 201 251 302 363
#     4  10  21  35  60  87 115 163 210 251 298 348
#     4  10  20  35  66  98 113 150 208 249 304 355
#     4  10  20  34  57  91 122 146 196 261 306 339
#     4  11  20  36  55  83 123 159 203 249 303 356
#     4  10  23  38  55  83 124 170 202 236 309 379
#     4  10  20  35  59  91 117 150 200 258 297 359
#
# _framework density 20.932013999999999
#
# number of rings (size 3 to 8) (size 9 to 14) (size 15 to 20)
#    0.000    1.750    2.500    3.750    3.500    3.000 
#    0.000    2.500    5.500    0.000    0.000    0.000 
#    0.000    0.000    0.000    0.000    0.000    0.000 
#
# Total GULP energy -357598.485996 kJ/mol
# GULP energy per Si atom -5587.476344 kJ/mol
# Density = 2.088437 g / cm^3
# Si number density = 20.932014 Si / 1000 Ang^3
#
#
#
# Elastic Constant Matrix: (Units=GPa)
#
#
# Indices 1 2 3 4 5 6 
#
# 1 39.9311 -1.5612 15.2951 0.0000 0.0000 0.0000
# 2 -1.5612 82.0998 24.9491 0.0000 0.0000 0.0000
# 3 15.2951 24.9491 94.9995 0.0000 0.0000 0.0000
# 4 0.0000 0.0000 0.0000 -3.4913 0.0000 0.0000
# 5 0.0000 0.0000 0.0000 0.0000 -7.2115 0.0000
# 6 0.0000 0.0000 0.0000 0.0000 0.0000 6.2053
#
#
#
# Elastic Compliance Matrix: (Units=1/GPa)
#
#
# Indices 1 2 3 4 5 6 
#
# 1 0.026986 0.001992 -0.004868 0.000000 0.000000 0.000000
# 2 0.001992 0.013384 -0.003836 0.000000 0.000000 0.000000
# 3 -0.004868 -0.003836 0.012317 0.000000 0.000000 0.000000
# 4 0.000000 0.000000 0.000000 -0.286429 0.000000 0.000000
# 5 0.000000 0.000000 0.000000 0.000000 -0.138667 0.000000
# 6 0.000000 0.000000 0.000000 0.000000 0.000000 0.161154
#
#
# Mechanical properties :
#
#
# Convention : Reuss Voigt Hill
#
# Bulk Modulus (GPa) = 25.46828 32.71070 29.08949
# Shear Modulus (GPa) = -27.06440 10.99031 -8.03704
#
# Velocity S-wave (km/s) = -3.59969 2.29388 -1.96161
# Velocity P-wave (km/s) = 2.25465 4.76202 2.96593
#
# Compressibility (1/GPa) = 0.03926453
#
# Stress axis : x y z
#
# Youngs Moduli (GPa) = 37.05666 74.71711 81.18542
#
# Poissons Ratio (x) = -0.14887 0.39521
# Poissons Ratio (y) = -0.07384 0.31140
# Poissons Ratio (z) = 0.18039 0.28659
#
# Static dielectric constant tensor:
#      x y z
#    x 1.775470 0.000000 0.000000 
#    y 0.000000 1.729830 0.000000 
#    z 0.000000 0.000000 1.759170 
# 
# From -- ./inp_files/40664.got.cif
#   From: 2010.05.17/outbox.cif.g08.bks.cpg/sg52_21_cif.got.tgz:40664.got - 2010.06.03 12:15:38.
