data_PCOD9409525
_publ_section_title
;
Structure prediction by ZEFSAII (Michael W. Deem and Ramdas Pophale) SiO2 
 PCOD9409525
Probable space group: P N N A
;
_chemical_formula_sum "Si O2"
_cell_formula_units_Z 40
_cell_length_a 5.077453
_cell_length_b 13.015222
_cell_length_c 33.764169
_cell_angle_alpha 90.000000
_cell_angle_beta 90.000000
_cell_angle_gamma 90.000000
_cell_volume 2231.277354
_symmetry_space_group_name_H-M "P N N A"
_symmetry_group_IT_number 52
_symmetry_cell_setting 'orthorhombic'
loop_
_space_group_symop_operation_xyz
x,y,z
1/2-x,-y,z
x,1/2-y,1/2-z
1/2-x,1/2+y,1/2-z
-x,-y,-z
1/2+x,y,-z
-x,1/2+y,1/2+z
1/2+x,1/2-y,1/2+z
loop_
_atom_site_type_symbol
_atom_site_label
_atom_site_fract_x
_atom_site_fract_y
_atom_site_fract_z
Si Si1 0.855413 0.287603 0.848058
Si Si2 0.006531 0.071165 0.724738
Si Si3 0.836121 0.380897 0.111404
Si Si4 0.300162 0.377962 0.979623
Si Si5 0.996768 0.571453 0.314570
O O1 0.942801 0.342509 0.807163
O O2 0.572474 0.333623 0.861901
O O3 0.068961 0.320607 0.880230
O O4 0.904962 0.167458 0.840355
O O5 0.068358 0.108020 0.769462
O O6 0.750000 0.000000 0.726242
O O7 0.250000 0.000000 0.711918
O O8 0.750000 0.500000 0.118560
O O9 0.902177 0.368812 0.065074
O O10 0.250000 0.500000 0.985771
O O11 0.513922 0.334616 0.010105
O O12 0.750000 0.500000 0.327831
O O13 0.250000 0.500000 0.311552
#
# Coordination Sequence:
#
# PCOD9409525 Si02
#       5
#     8   8   8   8   8
#     4  12  21  34  53  76 107 138 173 219 271 306
#     4  10  20  34  52  74 101 135 173 212 261 316
#     4  11  22  33  51  81 112 139 169 207 255 316
#     4   9  17  31  49  70 103 143 170 192 235 304
#     4  10  22  38  53  71  98 138 187 227 258 305
#
# _framework density 17.926950999999999
#
# number of rings (size 3 to 8) (size 9 to 14) (size 15 to 20)
#    0.000    1.600    0.000    6.600    0.000    3.200 
#    0.000    8.000    0.000    0.000    0.000    0.000 
#    0.000   56.000    0.000    0.000    0.000    0.000 
#
# Total GULP energy -222871.875789 kJ/mol
# GULP energy per Si atom -5571.796895 kJ/mol
# Density = 1.788615 g / cm^3
# Si number density = 17.926951 Si / 1000 Ang^3
#
#
#
# Elastic Constant Matrix: (Units=GPa)
#
#
# Indices 1 2 3 4 5 6 
#
# 1 102.1306 35.8847 27.7124 0.0000 0.0000 0.0000
# 2 35.8847 78.2285 33.4376 0.0000 0.0000 0.0000
# 3 27.7124 33.4376 57.9615 0.0000 0.0000 0.0000
# 4 0.0000 0.0000 0.0000 6.9711 0.0000 0.0000
# 5 0.0000 0.0000 0.0000 0.0000 166.8243 0.0000
# 6 0.0000 0.0000 0.0000 0.0000 0.0000 20.0655
#
#
#
# Elastic Compliance Matrix: (Units=1/GPa)
#
#
# Indices 1 2 3 4 5 6 
#
# 1 0.012171 -0.004109 -0.003449 0.000000 0.000000 0.000000
# 2 -0.004109 0.018354 -0.008624 0.000000 0.000000 0.000000
# 3 -0.003449 -0.008624 0.023877 0.000000 0.000000 0.000000
# 4 0.000000 0.000000 0.000000 0.143449 0.000000 0.000000
# 5 0.000000 0.000000 0.000000 0.000000 0.005994 0.000000
# 6 0.000000 0.000000 0.000000 0.000000 0.000000 0.049837
#
#
# Mechanical properties :
#
#
# Convention : Reuss Voigt Hill
#
# Bulk Modulus (GPa) = 45.37444 48.04334 46.70889
# Shear Modulus (GPa) = 17.04214 48.19125 32.61669
#
# Velocity S-wave (km/s) = 3.08660 5.19041 4.27010
# Velocity P-wave (km/s) = 6.16996 7.92327 7.10094
#
# Compressibility (1/GPa) = 0.02203884
#
# Stress axis : x y z
#
# Youngs Moduli (GPa) = 82.16345 54.48413 41.88178
#
# Poissons Ratio (x) = 0.22387 0.14444
# Poissons Ratio (y) = 0.33760 0.36118
# Poissons Ratio (z) = 0.28336 0.46986
#
# Static dielectric constant tensor:
#      x y z
#    x 1.641920 0.000000 0.000000 
#    y 0.000000 1.618830 0.000000 
#    z 0.000000 0.000000 1.654950 
# 
# From -- ./inp_files/43663.got.cif
#   From: 2010.05.17/outbox.cif.g08.bks.cpg/sg52_22_cif.got.tgz:43663.got - 2010.06.03 12:15:38.
