data_PCOD9409258
_publ_section_title
;
Structure prediction by ZEFSAII (Michael W. Deem and Ramdas Pophale) SiO2 
 PCOD9409258
Probable space group: P N N A
;
_chemical_formula_sum "Si O2"
_cell_formula_units_Z 40
_cell_length_a 12.852327
_cell_length_b 11.683402
_cell_length_c 14.229750
_cell_angle_alpha 90.000000
_cell_angle_beta 90.000000
_cell_angle_gamma 90.000000
_cell_volume 2136.723650
_symmetry_space_group_name_H-M "P N N A"
_symmetry_group_IT_number 52
_symmetry_cell_setting 'orthorhombic'
loop_
_space_group_symop_operation_xyz
x,y,z
1/2-x,-y,z
x,1/2-y,1/2-z
1/2-x,1/2+y,1/2-z
-x,-y,-z
1/2+x,y,-z
-x,1/2+y,1/2+z
1/2+x,1/2-y,1/2+z
loop_
_atom_site_type_symbol
_atom_site_label
_atom_site_fract_x
_atom_site_fract_y
_atom_site_fract_z
Si Si1 0.652011 0.850531 0.076602
Si Si2 0.447656 0.841183 0.174414
Si Si3 0.089539 0.736744 0.389847
Si Si4 0.143054 0.937440 0.259525
Si Si5 0.614960 0.115799 0.039796
O O1 0.570310 0.821253 0.156908
O O2 0.774905 0.857000 0.088590
O O3 0.612981 0.976814 0.040710
O O4 0.634766 0.760536 0.993449
O O5 0.406057 0.750000 0.250000
O O6 0.431041 0.964058 0.220995
O O7 0.395904 0.843934 0.069647
O O8 0.092872 0.858511 0.339436
O O9 0.158833 0.650190 0.327209
O O10 0.976793 0.677734 0.402720
O O11 0.250000 0.000000 0.286769
#
# Coordination Sequence:
#
# PCOD9409258 Si02
#       5
#     8   8   8   8   8
#     4  10  19  38  60  86 112 158 198 242 294 355
#     4  11  22  37  58  89 119 147 198 250 294 353
#     4  10  20  37  59  85 118 151 198 248 292 354
#     4  11  22  34  57  91 116 151 196 252 301 340
#     4  10  19  38  62  83 115 157 201 241 293 355
#
# _framework density 18.720248999999999
#
# number of rings (size 3 to 8) (size 9 to 14) (size 15 to 20)
#    0.000    1.600    4.000    2.400    5.600    0.000 
#    3.600    4.000    0.000    0.000    0.000    0.000 
#    0.000    0.000    0.000    0.000    0.000    0.000 
#
# Total GULP energy -222946.317715 kJ/mol
# GULP energy per Si atom -5573.657943 kJ/mol
# Density = 1.867764 g / cm^3
# Si number density = 18.720249 Si / 1000 Ang^3
#
#
#
# Elastic Constant Matrix: (Units=GPa)
#
#
# Indices 1 2 3 4 5 6 
#
# 1 95.7193 18.1209 20.2714 0.0000 0.0000 0.0000
# 2 18.1209 81.0599 47.5076 0.0000 0.0000 0.0000
# 3 20.2714 47.5076 72.6114 0.0000 0.0000 0.0000
# 4 0.0000 0.0000 0.0000 31.8853 0.0000 0.0000
# 5 0.0000 0.0000 0.0000 0.0000 15.2082 0.0000
# 6 0.0000 0.0000 0.0000 0.0000 0.0000 16.2739
#
#
#
# Elastic Compliance Matrix: (Units=1/GPa)
#
#
# Indices 1 2 3 4 5 6 
#
# 1 0.011162 -0.001085 -0.002406 0.000000 0.000000 0.000000
# 2 -0.001085 0.020115 -0.012858 0.000000 0.000000 0.000000
# 3 -0.002406 -0.012858 0.022856 0.000000 0.000000 0.000000
# 4 0.000000 0.000000 0.000000 0.031362 0.000000 0.000000
# 5 0.000000 0.000000 0.000000 0.000000 0.065754 0.000000
# 6 0.000000 0.000000 0.000000 0.000000 0.000000 0.061448
#
#
# Mechanical properties :
#
#
# Convention : Reuss Voigt Hill
#
# Bulk Modulus (GPa) = 46.65229 46.79892 46.72561
# Shear Modulus (GPa) = 19.79883 23.57287 21.68585
#
# Velocity S-wave (km/s) = 3.25563 3.55240 3.40724
# Velocity P-wave (km/s) = 6.25356 6.47143 6.36343
#
# Compressibility (1/GPa) = 0.02143517
#
# Stress axis : x y z
#
# Youngs Moduli (GPa) = 89.58774 49.71506 43.75207
#
# Poissons Ratio (x) = 0.05394 0.10528
# Poissons Ratio (y) = 0.09720 0.56254
# Poissons Ratio (z) = 0.21558 0.63921
#
# Static dielectric constant tensor:
#      x y z
#    x 1.703390 0.000000 0.000000 
#    y 0.000000 1.642560 0.000000 
#    z 0.000000 0.000000 1.654990 
# 
# From -- ./inp_files/27034.got.cif
#   From: 2010.05.17/outbox.cif.g08.bks.cpg/sg52_14_cif.got.tgz:27034.got - 2010.06.03 12:15:38.
