data_PCOD9409388
_publ_section_title
;
Structure prediction by ZEFSAII (Michael W. Deem and Ramdas Pophale) SiO2 
 PCOD9409388
Probable space group: P N N A
;
_chemical_formula_sum "Si O2"
_cell_formula_units_Z 36
_cell_length_a 15.442865
_cell_length_b 14.281618
_cell_length_c 7.862852
_cell_angle_alpha 90.000000
_cell_angle_beta 90.000000
_cell_angle_gamma 90.000000
_cell_volume 1734.144922
_symmetry_space_group_name_H-M "P N N A"
_symmetry_group_IT_number 52
_symmetry_cell_setting 'orthorhombic'
loop_
_space_group_symop_operation_xyz
x,y,z
1/2-x,-y,z
x,1/2-y,1/2-z
1/2-x,1/2+y,1/2-z
-x,-y,-z
1/2+x,y,-z
-x,1/2+y,1/2+z
1/2+x,1/2-y,1/2+z
loop_
_atom_site_type_symbol
_atom_site_label
_atom_site_fract_x
_atom_site_fract_y
_atom_site_fract_z
Si Si1 0.360138 0.750000 0.250000
Si Si2 0.233115 0.612179 0.690870
Si Si3 0.088375 0.378420 0.527787
Si Si4 0.724340 0.609982 0.923861
Si Si5 0.604706 0.911808 0.889331
O O1 0.418705 0.699170 0.385641
O O2 0.299470 0.674032 0.156135
O O3 0.250000 0.500000 0.694036
O O4 0.328307 0.648213 0.640133
O O5 0.162567 0.631621 0.543479
O O6 0.206305 0.639474 0.881534
O O7 0.108847 0.477092 0.433054
O O8 0.996329 0.387981 0.616017
O O9 0.750000 0.500000 0.926517
O O10 0.646912 0.615005 0.789054
#
# Coordination Sequence:
#
# PCOD9409388 Si02
#       5
#     4   8   8   8   8
#     4  12  22  40  66  94 126 176 216 270 326 384
#     4   9  19  39  65  94 123 171 218 266 329 386
#     4  10  21  39  66  96 131 173 219 275 326 395
#     4  11  21  41  67  91 129 173 217 269 329 388
#     4  10  19  43  65  90 134 174 216 269 335 388
#
# _framework density 20.759511
#
# number of rings (size 3 to 8) (size 9 to 14) (size 15 to 20)
#    0.000    1.778    4.444    0.667    0.000    0.889 
#    8.000    4.444    0.000    0.000    0.000    0.000 
#    0.000    0.000    0.000    0.000    0.000    0.000 
#
# Total GULP energy -201017.224259 kJ/mol
# GULP energy per Si atom -5583.811785 kJ/mol
# Density = 2.071226 g / cm^3
# Si number density = 20.759511 Si / 1000 Ang^3
#
#
#
# Elastic Constant Matrix: (Units=GPa)
#
#
# Indices 1 2 3 4 5 6 
#
# 1 55.0415 6.1160 37.3335 0.0000 0.0000 0.0000
# 2 6.1160 54.8227 6.2148 0.0000 0.0000 0.0000
# 3 37.3335 6.2148 143.1430 0.0000 0.0000 0.0000
# 4 0.0000 0.0000 0.0000 23.1983 0.0000 0.0000
# 5 0.0000 0.0000 0.0000 0.0000 18.4300 0.0000
# 6 0.0000 0.0000 0.0000 0.0000 0.0000 9.0736
#
#
#
# Elastic Compliance Matrix: (Units=1/GPa)
#
#
# Indices 1 2 3 4 5 6 
#
# 1 0.022255 -0.001834 -0.005725 0.000000 0.000000 0.000000
# 2 -0.001834 0.018482 -0.000324 0.000000 0.000000 0.000000
# 3 -0.005725 -0.000324 0.008493 0.000000 0.000000 0.000000
# 4 0.000000 0.000000 0.000000 0.043107 0.000000 0.000000
# 5 0.000000 0.000000 0.000000 0.000000 0.054259 0.000000
# 6 0.000000 0.000000 0.000000 0.000000 0.000000 0.110210
#
#
# Mechanical properties :
#
#
# Convention : Reuss Voigt Hill
#
# Bulk Modulus (GPa) = 29.88227 39.14841 34.51534
# Shear Modulus (GPa) = 17.62262 23.69657 20.65960
#
# Velocity S-wave (km/s) = 2.91674 3.38225 3.15808
# Velocity P-wave (km/s) = 5.07631 5.84395 5.47360
#
# Compressibility (1/GPa) = 0.03346466
#
# Stress axis : x y z
#
# Youngs Moduli (GPa) = 44.93408 54.10688 117.74155
#
# Poissons Ratio (x) = 0.09922 0.67404
# Poissons Ratio (y) = 0.08240 0.03817
# Poissons Ratio (z) = 0.25724 0.01754
#
# Static dielectric constant tensor:
#      x y z
#    x 1.725030 0.000000 0.000000 
#    y 0.000000 1.833290 0.000000 
#    z 0.000000 0.000000 1.737710 
# 
# From -- ./inp_files/9926.got.cif
#   From: 2010.05.17/outbox.cif.g08.bks.cpg/sg52_5_cif.got.tgz:9926.got - 2010.06.03 12:15:38.
