data_PCOD9409430
_publ_section_title
;
Structure prediction by ZEFSAII (Michael W. Deem and Ramdas Pophale) SiO2 
 PCOD9409430
Probable space group: P N N A
;
_chemical_formula_sum "Si O2"
_cell_formula_units_Z 56
_cell_length_a 14.626424
_cell_length_b 7.283144
_cell_length_c 24.929924
_cell_angle_alpha 90.000000
_cell_angle_beta 90.000000
_cell_angle_gamma 90.000000
_cell_volume 2655.693864
_symmetry_space_group_name_H-M "P N N A"
_symmetry_group_IT_number 52
_symmetry_cell_setting 'orthorhombic'
loop_
_space_group_symop_operation_xyz
x,y,z
1/2-x,-y,z
x,1/2-y,1/2-z
1/2-x,1/2+y,1/2-z
-x,-y,-z
1/2+x,y,-z
-x,1/2+y,1/2+z
1/2+x,1/2-y,1/2+z
loop_
_atom_site_type_symbol
_atom_site_label
_atom_site_fract_x
_atom_site_fract_y
_atom_site_fract_z
Si Si1 0.434865 0.754368 0.039060
Si Si2 0.562837 0.856657 0.136466
Si Si3 0.250000 0.500000 0.784174
Si Si4 0.094612 0.750000 0.750000
Si Si5 0.228149 0.706259 0.051098
Si Si6 0.879260 0.779206 0.363412
Si Si7 0.225927 0.716651 0.565905
Si Si8 0.538159 0.671713 0.932914
O O1 0.489164 0.843544 0.088901
O O2 0.326884 0.804422 0.044926
O O3 0.441376 0.534266 0.047046
O O4 0.483658 0.780943 0.980680
O O5 0.540570 0.768999 0.194263
O O6 0.651049 0.754667 0.111644
O O7 0.596817 0.065358 0.144244
O O8 0.168261 0.586627 0.750586
O O9 0.189372 0.357015 0.819101
O O10 0.250000 0.500000 0.069760
O O11 0.135642 0.766496 0.080881
O O12 0.192306 0.707478 0.989885
O O13 0.819449 0.809451 0.417020
O O14 0.977037 0.858338 0.379767
O O15 0.250000 0.500000 0.561885
#
# Coordination Sequence:
#
# PCOD9409430 Si02
#       8
#     8   8   4   4   8   8   8   8
#     4  10  20  34  55  81 118 153 193 233 281 343
#     4  11  23  39  53  83 117 152 193 236 286 338
#     4  12  24  38  60  84 116 152 192 238 292 350
#     4  12  24  38  60  82 112 150 192 236 284 342
#     4  10  20  33  54  82 116 156 195 226 277 344
#     4  11  23  36  57  82 116 153 186 235 288 346
#     4  10  20  32  49  78 117 150 182 225 276 334
#     4  10  20  33  55  85 114 158 191 226 286 347
#
# _framework density 21.086770000000001
#
# number of rings (size 3 to 8) (size 9 to 14) (size 15 to 20)
#    0.000    1.429    4.286    1.714    2.000    1.714 
#    0.000    0.000    0.000    0.000    0.000   11.000 
#    0.000    0.000    0.000    0.000    0.000    0.000 
#
# Total GULP energy -312202.808832 kJ/mol
# GULP energy per Si atom -5575.050158 kJ/mol
# Density = 2.103878 g / cm^3
# Si number density = 21.086770 Si / 1000 Ang^3
#
#
#
# Elastic Constant Matrix: (Units=GPa)
#
#
# Indices 1 2 3 4 5 6 
#
# 1 141.3203 15.3827 35.4499 0.0000 0.0000 0.0000
# 2 15.3827 49.8031 14.9993 0.0000 0.0000 0.0000
# 3 35.4499 14.9993 81.3221 0.0000 0.0000 0.0000
# 4 0.0000 0.0000 0.0000 23.6243 0.0000 0.0000
# 5 0.0000 0.0000 0.0000 0.0000 25.7964 0.0000
# 6 0.0000 0.0000 0.0000 0.0000 0.0000 20.0201
#
#
#
# Elastic Compliance Matrix: (Units=1/GPa)
#
#
# Indices 1 2 3 4 5 6 
#
# 1 0.008051 -0.001514 -0.003230 0.000000 0.000000 0.000000
# 2 -0.001514 0.021545 -0.003314 0.000000 0.000000 0.000000
# 3 -0.003230 -0.003314 0.014316 0.000000 0.000000 0.000000
# 4 0.000000 0.000000 0.000000 0.042329 0.000000 0.000000
# 5 0.000000 0.000000 0.000000 0.000000 0.038765 0.000000
# 6 0.000000 0.000000 0.000000 0.000000 0.000000 0.049950
#
#
# Mechanical properties :
#
#
# Convention : Reuss Voigt Hill
#
# Bulk Modulus (GPa) = 35.97666 44.90103 40.43884
# Shear Modulus (GPa) = 24.95779 27.66238 26.31009
#
# Velocity S-wave (km/s) = 3.44405 3.62586 3.53612
# Velocity P-wave (km/s) = 5.73703 6.23448 5.99092
#
# Compressibility (1/GPa) = 0.02779580
#
# Stress axis : x y z
#
# Youngs Moduli (GPa) = 124.20397 46.41509 69.85072
#
# Poissons Ratio (x) = 0.07027 0.22565
# Poissons Ratio (y) = 0.18803 0.23148
# Poissons Ratio (z) = 0.40124 0.15381
#
# Static dielectric constant tensor:
#      x y z
#    x 1.817550 0.000000 0.000000 
#    y 0.000000 1.881880 0.000000 
#    z 0.000000 0.000000 1.753450 
# 
# From -- ./inp_files/37379.got.cif
#   From: 2010.05.17/outbox.cif.g08.bks.cpg/sg52_19_cif.got.tgz:37379.got - 2010.06.03 12:15:38.
