data_PCOD9409340
_publ_section_title
;
Structure prediction by ZEFSAII (Michael W. Deem and Ramdas Pophale) SiO2 
 PCOD9409340
Probable space group: P N N A
;
_chemical_formula_sum "Si O2"
_cell_formula_units_Z 32
_cell_length_a 21.271190
_cell_length_b 10.521536
_cell_length_c 7.108959
_cell_angle_alpha 90.000000
_cell_angle_beta 90.000000
_cell_angle_gamma 90.000000
_cell_volume 1591.024773
_symmetry_space_group_name_H-M "P N N A"
_symmetry_group_IT_number 52
_symmetry_cell_setting 'orthorhombic'
loop_
_space_group_symop_operation_xyz
x,y,z
1/2-x,-y,z
x,1/2-y,1/2-z
1/2-x,1/2+y,1/2-z
-x,-y,-z
1/2+x,y,-z
-x,1/2+y,1/2+z
1/2+x,1/2-y,1/2+z
loop_
_atom_site_type_symbol
_atom_site_label
_atom_site_fract_x
_atom_site_fract_y
_atom_site_fract_z
Si Si1 0.128564 0.226557 0.474267
Si Si2 0.496586 0.370435 0.153621
Si Si3 0.561462 0.895802 0.278902
Si Si4 0.820522 0.544454 0.269915
O O1 0.128781 0.250000 0.250000
O O2 0.058689 0.190280 0.551845
O O3 0.154315 0.352181 0.579683
O O4 0.170486 0.113276 0.566067
O O5 0.466034 0.250000 0.250000
O O6 0.517389 0.486865 0.286739
O O7 0.447471 0.418723 0.001386
O O8 0.543461 0.750000 0.250000
O O9 0.631501 0.926645 0.218155
O O10 0.750000 0.500000 0.300633
#
# Coordination Sequence:
#
# PCOD9409340 Si02
#       4
#     8   8   8   8
#     4  10  20  40  65  88 117 169 210 254 323 371
#     4  10  19  40  59  90 128 159 207 261 320 378
#     4  10  21  36  59  90 119 162 209 254 314 370
#     4  10  22  41  61  88 127 165 210 261 310 375
#
# _framework density 20.112822999999999
#
# number of rings (size 3 to 8) (size 9 to 14) (size 15 to 20)
#    0.000    2.000    5.000    0.750    3.500    2.000 
#   13.500    1.250    0.000    0.000    0.000    0.000 
#    0.000    0.000    0.000    0.000    0.000    0.000 
#
# Total GULP energy -178164.959896 kJ/mol
# GULP energy per Si atom -5567.654997 kJ/mol
# Density = 2.006705 g / cm^3
# Si number density = 20.112823 Si / 1000 Ang^3
#
#
#
# Elastic Constant Matrix: (Units=GPa)
#
#
# Indices 1 2 3 4 5 6 
#
# 1 63.2688 20.6777 11.0721 0.0000 0.0000 0.0000
# 2 20.6777 131.3567 20.8315 0.0000 0.0000 0.0000
# 3 11.0721 20.8315 102.2471 0.0000 0.0000 0.0000
# 4 0.0000 0.0000 0.0000 25.7524 0.0000 0.0000
# 5 0.0000 0.0000 0.0000 0.0000 30.8892 0.0000
# 6 0.0000 0.0000 0.0000 0.0000 0.0000 120.6007
#
#
#
# Elastic Compliance Matrix: (Units=1/GPa)
#
#
# Indices 1 2 3 4 5 6 
#
# 1 0.016835 -0.002440 -0.001326 0.000000 0.000000 0.000000
# 2 -0.002440 0.008221 -0.001411 0.000000 0.000000 0.000000
# 3 -0.001326 -0.001411 0.010211 0.000000 0.000000 0.000000
# 4 0.000000 0.000000 0.000000 0.038831 0.000000 0.000000
# 5 0.000000 0.000000 0.000000 0.000000 0.032374 0.000000
# 6 0.000000 0.000000 0.000000 0.000000 0.000000 0.008292
#
#
# Mechanical properties :
#
#
# Convention : Reuss Voigt Hill
#
# Bulk Modulus (GPa) = 40.13802 44.67057 42.40429
# Shear Modulus (GPa) = 37.47531 51.73457 44.60494
#
# Velocity S-wave (km/s) = 4.32123 5.07721 4.71439
# Velocity P-wave (km/s) = 6.70053 7.52522 7.12482
#
# Compressibility (1/GPa) = 0.02491403
#
# Stress axis : x y z
#
# Youngs Moduli (GPa) = 59.40006 121.64513 97.93155
#
# Poissons Ratio (x) = 0.29679 0.12985
# Poissons Ratio (y) = 0.14493 0.13815
# Poissons Ratio (z) = 0.07876 0.17160
#
# Static dielectric constant tensor:
#      x y z
#    x 1.680300 0.000000 0.000000 
#    y 0.000000 1.845590 0.000000 
#    z 0.000000 0.000000 1.770400 
# 
# From -- ./inp_files/13885.got.cif
#   From: 2010.05.17/outbox.cif.g08.bks.cpg/sg52_7_cif.got.tgz:13885.got - 2010.06.03 12:15:38.
