data_PCOD9409994
_publ_section_title
;
Structure prediction by ZEFSAII (Michael W. Deem and Ramdas Pophale) SiO2 
 PCOD9409994
Probable space group: P N N A
;
_chemical_formula_sum "Si O2"
_cell_formula_units_Z 64
_cell_length_a 12.678871
_cell_length_b 28.190758
_cell_length_c 8.841040
_cell_angle_alpha 90.000000
_cell_angle_beta 90.000000
_cell_angle_gamma 90.000000
_cell_volume 3160.026263
_symmetry_space_group_name_H-M "P N N A"
_symmetry_group_IT_number 52
_symmetry_cell_setting 'orthorhombic'
loop_
_space_group_symop_operation_xyz
x,y,z
1/2-x,-y,z
x,1/2-y,1/2-z
1/2-x,1/2+y,1/2-z
-x,-y,-z
1/2+x,y,-z
-x,1/2+y,1/2+z
1/2+x,1/2-y,1/2+z
loop_
_atom_site_type_symbol
_atom_site_label
_atom_site_fract_x
_atom_site_fract_y
_atom_site_fract_z
Si Si1 0.491003 0.212702 0.361429
Si Si2 0.327212 0.335913 0.356892
Si Si3 0.591454 0.719911 0.376487
Si Si4 0.656373 0.934547 0.280608
Si Si5 0.493840 0.887198 0.479599
Si Si6 0.100797 0.458237 0.783469
Si Si7 0.912325 0.852100 0.816438
Si Si8 0.465287 0.415527 0.466101
O O1 0.552602 0.250000 0.250000
O O2 0.392537 0.196558 0.257719
O O3 0.457294 0.243877 0.503565
O O4 0.527235 0.162125 0.430385
O O5 0.340396 0.316370 0.527002
O O6 0.206008 0.335500 0.320260
O O7 0.384431 0.386929 0.358532
O O8 0.649972 0.750000 0.250000
O O9 0.496560 0.690251 0.301564
O O10 0.609486 0.897334 0.403986
O O11 0.782797 0.934811 0.263935
O O12 0.601296 0.928331 0.115977
O O13 0.621098 0.987469 0.327760
O O14 0.460390 0.929378 0.588442
O O15 0.424433 0.885879 0.327705
O O16 0.029798 0.453614 0.631403
O O17 0.947132 0.878790 0.969483
#
# Coordination Sequence:
#
# PCOD9409994 Si02
#       8
#     8   8   8   8   8   8   8   8
#     4  10  21  39  59  83 122 153 198 256 301 364
#     4  10  21  38  59  89 118 158 207 246 303 374
#     4  10  20  38  58  81 122 155 194 259 304 357
#     4  10  24  40  61  96 128 157 210 253 309 378
#     4  11  22  40  63  88 125 165 201 257 309 366
#     4  11  22  40  65  93 124 166 202 255 313 373
#     4  10  22  38  61  86 118 163 203 247 310 364
#     4  10  20  40  63  86 124 158 200 253 304 363
#
# _framework density 20.252994999999999
#
# number of rings (size 3 to 8) (size 9 to 14) (size 15 to 20)
#    0.000    1.750    2.500    1.500    1.750    1.500 
#    0.000    3.125    0.000    6.000    0.000    0.000 
#    0.000    0.000    0.000    0.000    0.000    0.000 
#
# Total GULP energy -356692.292232 kJ/mol
# GULP energy per Si atom -5573.317066 kJ/mol
# Density = 2.020690 g / cm^3
# Si number density = 20.252995 Si / 1000 Ang^3
#
#
#
# Elastic Constant Matrix: (Units=GPa)
#
#
# Indices 1 2 3 4 5 6 
#
# 1 45.8612 -8.3842 12.8505 0.0000 0.0000 0.0000
# 2 -8.3842 54.1676 6.4192 0.0000 0.0000 0.0000
# 3 12.8505 6.4192 76.2929 0.0000 0.0000 0.0000
# 4 0.0000 0.0000 0.0000 40.5185 0.0000 0.0000
# 5 0.0000 0.0000 0.0000 0.0000 13.6839 0.0000
# 6 0.0000 0.0000 0.0000 0.0000 0.0000 1.3513
#
#
#
# Elastic Compliance Matrix: (Units=1/GPa)
#
#
# Indices 1 2 3 4 5 6 
#
# 1 0.023795 0.004200 -0.004361 0.000000 0.000000 0.000000
# 2 0.004200 0.019388 -0.002339 0.000000 0.000000 0.000000
# 3 -0.004361 -0.002339 0.014039 0.000000 0.000000 0.000000
# 4 0.000000 0.000000 0.000000 0.024680 0.000000 0.000000
# 5 0.000000 0.000000 0.000000 0.000000 0.073078 0.000000
# 6 0.000000 0.000000 0.000000 0.000000 0.000000 0.740047
#
#
# Mechanical properties :
#
#
# Convention : Reuss Voigt Hill
#
# Bulk Modulus (GPa) = 19.14913 22.01029 20.57971
# Shear Modulus (GPa) = 5.44998 22.13983 13.79491
#
# Velocity S-wave (km/s) = 1.64219 3.30989 2.61268
# Velocity P-wave (km/s) = 3.61541 5.04960 4.39145
#
# Compressibility (1/GPa) = 0.05222169
#
# Stress axis : x y z
#
# Youngs Moduli (GPa) = 42.02603 51.57718 71.23147
#
# Poissons Ratio (x) = -0.21662 0.31066
# Poissons Ratio (y) = -0.17650 0.16659
# Poissons Ratio (z) = 0.18329 0.12062
#
# Static dielectric constant tensor:
#      x y z
#    x 1.694800 0.000000 0.000000 
#    y 0.000000 1.783520 0.000000 
#    z 0.000000 0.000000 1.731710 
# 
# From -- ./inp_files/9131.got.cif
#   From: 2010.05.17/outbox.cif.g08.bks.cpg/sg52_5_cif.got.tgz:9131.got - 2010.06.03 12:15:38.
