data_PCOD9409771
_publ_section_title
;
Structure prediction by ZEFSAII (Michael W. Deem and Ramdas Pophale) SiO2 
 PCOD9409771
Probable space group: P N N A
;
_chemical_formula_sum "Si O2"
_cell_formula_units_Z 64
_cell_length_a 9.288295
_cell_length_b 23.708953
_cell_length_c 14.890546
_cell_angle_alpha 90.000000
_cell_angle_beta 90.000000
_cell_angle_gamma 90.000000
_cell_volume 3279.132749
_symmetry_space_group_name_H-M "P N N A"
_symmetry_group_IT_number 52
_symmetry_cell_setting 'orthorhombic'
loop_
_space_group_symop_operation_xyz
x,y,z
1/2-x,-y,z
x,1/2-y,1/2-z
1/2-x,1/2+y,1/2-z
-x,-y,-z
1/2+x,y,-z
-x,1/2+y,1/2+z
1/2+x,1/2-y,1/2+z
loop_
_atom_site_type_symbol
_atom_site_label
_atom_site_fract_x
_atom_site_fract_y
_atom_site_fract_z
Si Si1 0.361739 0.817525 0.957321
Si Si2 0.498839 0.873726 0.485090
Si Si3 0.295782 0.863573 0.760994
Si Si4 0.743977 0.304500 0.083339
Si Si5 0.613191 0.542762 0.342644
Si Si6 0.434895 0.058777 0.219847
Si Si7 0.620333 0.611314 0.524638
Si Si8 0.243404 0.935317 0.395747
O O1 0.332936 0.835436 0.855231
O O2 0.302571 0.754562 0.960326
O O3 0.525755 0.831360 0.979747
O O4 0.279585 0.864907 0.014454
O O5 0.596468 0.824290 0.443059
O O6 0.375514 0.847946 0.547355
O O7 0.400327 0.908131 0.414238
O O8 0.616336 0.907932 0.543466
O O9 0.268072 0.814812 0.689547
O O10 0.162589 0.905859 0.778723
O O11 0.430811 0.904796 0.741456
O O12 0.750000 0.500000 0.352466
O O13 0.488509 0.504988 0.298775
O O14 0.586092 0.569581 0.441338
O O15 0.401767 0.082400 0.120496
O O16 0.309134 0.066017 0.292308
O O17 0.250000 0.000000 0.423885
#
# Coordination Sequence:
#
# PCOD9409771 Si02
#       8
#     8   8   8   8   8   8   8   8
#     4  10  21  37  61  89 113 162 197 248 295 345
#     4  10  24  40  60  83 115 150 193 254 296 361
#     4   9  19  36  59  86 118 149 205 239 284 355
#     4  11  20  40  64  82 115 154 204 247 301 343
#     4   9  19  35  59  91 127 164 196 238 304 366
#     4  10  20  36  59  89 121 162 191 242 297 364
#     4  10  21  38  59  90 129 154 206 242 297 365
#     4  11  23  40  58  87 116 152 196 238 311 360
#
# _framework density 19.517355999999999
#
# number of rings (size 3 to 8) (size 9 to 14) (size 15 to 20)
#    0.000    2.000    1.250    2.625    1.750    1.500 
#    2.250    0.000    0.000    0.000    0.000    0.000 
#    0.000    0.000    0.000    0.000    0.000    0.000 
#
# Total GULP energy -356661.920218 kJ/mol
# GULP energy per Si atom -5572.842503 kJ/mol
# Density = 1.947293 g / cm^3
# Si number density = 19.517356 Si / 1000 Ang^3
#
#
#
# Elastic Constant Matrix: (Units=GPa)
#
#
# Indices 1 2 3 4 5 6 
#
# 1 80.8204 15.5935 25.1358 0.0000 0.0000 0.0000
# 2 15.5935 60.4476 6.5813 0.0000 0.0000 0.0000
# 3 25.1358 6.5813 44.9082 0.0000 0.0000 0.0000
# 4 0.0000 0.0000 0.0000 30.9904 0.0000 0.0000
# 5 0.0000 0.0000 0.0000 0.0000 17.7577 0.0000
# 6 0.0000 0.0000 0.0000 0.0000 0.0000 29.4102
#
#
#
# Elastic Compliance Matrix: (Units=1/GPa)
#
#
# Indices 1 2 3 4 5 6 
#
# 1 0.015536 -0.003111 -0.008240 0.000000 0.000000 0.000000
# 2 -0.003111 0.017434 -0.000814 0.000000 0.000000 0.000000
# 3 -0.008240 -0.000814 0.026999 0.000000 0.000000 0.000000
# 4 0.000000 0.000000 0.000000 0.032268 0.000000 0.000000
# 5 0.000000 0.000000 0.000000 0.000000 0.056314 0.000000
# 6 0.000000 0.000000 0.000000 0.000000 0.000000 0.034002
#
#
# Mechanical properties :
#
#
# Convention : Reuss Voigt Hill
#
# Bulk Modulus (GPa) = 28.05808 31.19971 29.62889
# Shear Modulus (GPa) = 22.85594 24.88937 23.87265
#
# Velocity S-wave (km/s) = 3.42578 3.57493 3.50115
# Velocity P-wave (km/s) = 5.48226 5.74982 5.61763
#
# Compressibility (1/GPa) = 0.03564035
#
# Stress axis : x y z
#
# Youngs Moduli (GPa) = 64.36693 57.35809 37.03859
#
# Poissons Ratio (x) = 0.17842 0.30519
# Poissons Ratio (y) = 0.20022 0.03015
# Poissons Ratio (z) = 0.53037 0.04668
#
# Static dielectric constant tensor:
#      x y z
#    x 1.688940 0.000000 0.000000 
#    y 0.000000 1.699600 0.000000 
#    z 0.000000 0.000000 1.698450 
# 
# From -- ./inp_files/25137.got.cif
#   From: 2010.05.17/outbox.cif.g08.bks.cpg/sg52_13_cif.got.tgz:25137.got - 2010.06.03 12:15:38.
