data_PCOD9409524
_publ_section_title
;
Structure prediction by ZEFSAII (Michael W. Deem and Ramdas Pophale) SiO2 
 PCOD9409524
Probable space group: P N N A
;
_chemical_formula_sum "Si O2"
_cell_formula_units_Z 48
_cell_length_a 16.468684
_cell_length_b 5.331748
_cell_length_c 27.902907
_cell_angle_alpha 90.000000
_cell_angle_beta 90.000000
_cell_angle_gamma 90.000000
_cell_volume 2450.067011
_symmetry_space_group_name_H-M "P N N A"
_symmetry_group_IT_number 52
_symmetry_cell_setting 'orthorhombic'
loop_
_space_group_symop_operation_xyz
x,y,z
1/2-x,-y,z
x,1/2-y,1/2-z
1/2-x,1/2+y,1/2-z
-x,-y,-z
1/2+x,y,-z
-x,1/2+y,1/2+z
1/2+x,1/2-y,1/2+z
loop_
_atom_site_type_symbol
_atom_site_label
_atom_site_fract_x
_atom_site_fract_y
_atom_site_fract_z
Si Si1 0.750000 0.500000 0.397174
Si Si2 0.334503 0.359435 0.147853
Si Si3 0.614391 0.271594 0.992112
Si Si4 0.750000 0.000000 0.927415
Si Si5 0.923115 0.876934 0.098681
Si Si6 0.982001 0.630674 0.900641
Si Si7 0.694477 0.750000 0.750000
Si Si8 0.750000 0.500000 0.040187
O O1 0.839029 0.545477 0.375193
O O2 0.745352 0.751735 0.428448
O O3 0.250000 0.500000 0.155747
O O4 0.308169 0.161693 0.107422
O O5 0.402108 0.544636 0.127604
O O6 0.356097 0.259217 0.200570
O O7 0.543457 0.351097 0.956556
O O8 0.684563 0.134106 0.961446
O O9 0.588853 0.123848 0.040279
O O10 0.667057 0.505905 0.010517
O O11 0.953845 0.594287 0.107902
O O12 0.986706 0.092977 0.111900
O O13 0.750000 0.500000 0.745161
#
# Coordination Sequence:
#
# PCOD9409524 Si02
#       8
#     4   8   8   4   8   8   4   4
#     4  10  21  40  56  68 102 144 200 240 292 334
#     4  11  23  41  60  87 118 153 192 240 301 354
#     4  11  21  35  51  77 112 158 201 242 288 333
#     4  12  21  38  56  83 116 160 202 241 280 332
#     4  11  24  38  54  77 110 155 202 247 286 336
#     4  12  24  36  55  83 114 143 196 251 289 340
#     4  10  22  40  68  86 112 152 196 232 292 382
#     4  10  20  34  52  73  96 150 200 241 272 332
#
# _framework density 19.591298999999999
#
# number of rings (size 3 to 8) (size 9 to 14) (size 15 to 20)
#    0.000    1.000    2.500    7.000    0.000    4.000 
#    0.000    0.000    0.000    0.000    0.000    0.000 
#    0.000    2.667    0.000    0.000    0.000    0.000 
#
# Total GULP energy -267758.492891 kJ/mol
# GULP energy per Si atom -5578.301935 kJ/mol
# Density = 1.954671 g / cm^3
# Si number density = 19.591299 Si / 1000 Ang^3
#
#
#
# Elastic Constant Matrix: (Units=GPa)
#
#
# Indices 1 2 3 4 5 6 
#
# 1 67.5308 5.1915 1.8130 0.0000 0.0000 0.0000
# 2 5.1915 86.0964 7.6525 0.0000 0.0000 0.0000
# 3 1.8130 7.6525 64.9131 0.0000 0.0000 0.0000
# 4 0.0000 0.0000 0.0000 15.3833 0.0000 0.0000
# 5 0.0000 0.0000 0.0000 0.0000 -0.9939 0.0000
# 6 0.0000 0.0000 0.0000 0.0000 0.0000 42.8489
#
#
#
# Elastic Compliance Matrix: (Units=1/GPa)
#
#
# Indices 1 2 3 4 5 6 
#
# 1 0.014883 -0.000870 -0.000313 0.000000 0.000000 0.000000
# 2 -0.000870 0.011789 -0.001365 0.000000 0.000000 0.000000
# 3 -0.000313 -0.001365 0.015575 0.000000 0.000000 0.000000
# 4 0.000000 0.000000 0.000000 0.065006 0.000000 0.000000
# 5 0.000000 0.000000 0.000000 0.000000 -1.006125 0.000000
# 6 0.000000 0.000000 0.000000 0.000000 0.000000 0.023338
#
#
# Mechanical properties :
#
#
# Convention : Reuss Voigt Hill
#
# Bulk Modulus (GPa) = 26.91759 27.53939 27.22849
# Shear Modulus (GPa) = -5.82713 25.03987 9.60637
#
# Velocity S-wave (km/s) = -1.72650 3.57895 2.21676
# Velocity P-wave (km/s) = 3.12969 5.58265 4.52553
#
# Compressibility (1/GPa) = 0.03715043
#
# Stress axis : x y z
#
# Youngs Moduli (GPa) = 67.18929 84.82707 64.20578
#
# Poissons Ratio (x) = 0.07377 0.02011
# Poissons Ratio (y) = 0.05843 0.08767
# Poissons Ratio (z) = 0.02104 0.11583
#
# Static dielectric constant tensor:
#      x y z
#    x 1.766640 0.000000 0.000000 
#    y 0.000000 1.808170 0.000000 
#    z 0.000000 0.000000 1.739500 
# 
# From -- ./inp_files/43055.got.cif
#   From: 2010.05.17/outbox.cif.g08.bks.cpg/sg52_22_cif.got.tgz:43055.got - 2010.06.03 12:15:38.
