data_PCOD9409625
_publ_section_title
;
Structure prediction by ZEFSAII (Michael W. Deem and Ramdas Pophale) SiO2 
 PCOD9409625
Probable space group: P N N A
;
_chemical_formula_sum "Si O2"
_cell_formula_units_Z 60
_cell_length_a 8.149637
_cell_length_b 25.961316
_cell_length_c 14.993790
_cell_angle_alpha 90.000000
_cell_angle_beta 90.000000
_cell_angle_gamma 90.000000
_cell_volume 3172.315639
_symmetry_space_group_name_H-M "P N N A"
_symmetry_group_IT_number 52
_symmetry_cell_setting 'orthorhombic'
loop_
_space_group_symop_operation_xyz
x,y,z
1/2-x,-y,z
x,1/2-y,1/2-z
1/2-x,1/2+y,1/2-z
-x,-y,-z
1/2+x,y,-z
-x,1/2+y,1/2+z
1/2+x,1/2-y,1/2+z
loop_
_atom_site_type_symbol
_atom_site_label
_atom_site_fract_x
_atom_site_fract_y
_atom_site_fract_z
Si Si1 0.418503 0.970018 0.166337
Si Si2 0.752086 0.165055 0.377255
Si Si3 0.434461 0.209589 0.451533
Si Si4 0.732605 0.888838 0.947769
Si Si5 0.587170 0.750000 0.250000
Si Si6 0.640632 0.224344 0.913344
Si Si7 0.105653 0.067247 0.886602
Si Si8 0.700123 0.556040 0.204809
O O1 0.360512 0.921503 0.110496
O O2 0.522460 0.952425 0.250928
O O3 0.250000 0.000000 0.189212
O O4 0.532963 0.009118 0.109003
O O5 0.560516 0.175571 0.395660
O O6 0.790488 0.106141 0.355265
O O7 0.848840 0.179236 0.467631
O O8 0.810989 0.205118 0.300438
O O9 0.540379 0.253363 0.502340
O O10 0.290264 0.236301 0.396148
O O11 0.785285 0.830072 0.941384
O O12 0.551453 0.897572 0.908817
O O13 0.755055 0.914119 0.045209
O O14 0.476206 0.775921 0.172670
O O15 0.177422 0.068682 0.787420
O O16 0.750000 0.500000 0.166564
#
# Coordination Sequence:
#
# PCOD9409625 Si02
#       8
#     8   8   8   8   4   8   8   8
#     4   9  19  34  50  75 110 147 185 227 272 320
#     4  10  21  41  62  83 112 148 183 227 281 335
#     4   9  21  39  58  78 111 145 179 228 281 327
#     4  11  19  30  50  74 110 155 192 219 261 333
#     4  10  22  34  56  86 112 146 184 226 280 330
#     4  10  20  35  53  82 112 144 187 229 270 325
#     4  10  21  31  47  76 109 149 188 229 273 319
#     4  10  21  38  57  80 108 138 182 236 285 332
#
# _framework density 18.913629
#
# number of rings (size 3 to 8) (size 9 to 14) (size 15 to 20)
#    0.000    2.133    0.000    2.800    0.000    9.600 
#    0.000    8.667    0.000    0.000    0.000    0.000 
#    0.000    0.000    0.000    0.000    0.000    0.000 
#
# Total GULP energy -334906.374612 kJ/mol
# GULP energy per Si atom -5581.772910 kJ/mol
# Density = 1.887058 g / cm^3
# Si number density = 18.913629 Si / 1000 Ang^3
#
#
#
# Elastic Constant Matrix: (Units=GPa)
#
#
# Indices 1 2 3 4 5 6 
#
# 1 77.5766 33.6955 23.1181 0.0000 0.0000 0.0000
# 2 33.6955 120.5159 36.2649 0.0000 0.0000 0.0000
# 3 23.1181 36.2649 43.2010 0.0000 0.0000 0.0000
# 4 0.0000 0.0000 0.0000 12.9999 0.0000 0.0000
# 5 0.0000 0.0000 0.0000 0.0000 12.0582 0.0000
# 6 0.0000 0.0000 0.0000 0.0000 0.0000 18.5940
#
#
#
# Elastic Compliance Matrix: (Units=1/GPa)
#
#
# Indices 1 2 3 4 5 6 
#
# 1 0.015889 -0.002521 -0.006387 0.000000 0.000000 0.000000
# 2 -0.002521 0.011502 -0.008306 0.000000 0.000000 0.000000
# 3 -0.006387 -0.008306 0.033538 0.000000 0.000000 0.000000
# 4 0.000000 0.000000 0.000000 0.076924 0.000000 0.000000
# 5 0.000000 0.000000 0.000000 0.000000 0.082931 0.000000
# 6 0.000000 0.000000 0.000000 0.000000 0.000000 0.053781
#
#
# Mechanical properties :
#
#
# Convention : Reuss Voigt Hill
#
# Bulk Modulus (GPa) = 37.73379 47.49451 42.61415
# Shear Modulus (GPa) = 15.73192 18.61140 17.17166
#
# Velocity S-wave (km/s) = 2.88718 3.14031 3.01640
# Velocity P-wave (km/s) = 5.57748 6.18987 5.89164
#
# Compressibility (1/GPa) = 0.02650145
#
# Stress axis : x y z
#
# Youngs Moduli (GPa) = 62.93859 86.94207 29.81685
#
# Poissons Ratio (x) = 0.21914 0.19043
# Poissons Ratio (y) = 0.15864 0.24767
# Poissons Ratio (z) = 0.40196 0.72218
#
# Static dielectric constant tensor:
#      x y z
#    x 1.686730 0.000000 0.000000 
#    y 0.000000 1.648650 0.000000 
#    z 0.000000 0.000000 1.643160 
# 
# From -- ./inp_files/25197.got.cif
#   From: 2010.05.17/outbox.cif.g08.bks.cpg/sg52_13_cif.got.tgz:25197.got - 2010.06.03 12:15:38.
