data_PCOD9409038
_publ_section_title
;
Structure prediction by ZEFSAII (Michael W. Deem and Ramdas Pophale) SiO2 
 PCOD9409038
Probable space group: P N N A
;
_chemical_formula_sum "Si O2"
_cell_formula_units_Z 48
_cell_length_a 17.099049
_cell_length_b 25.387695
_cell_length_c 6.247460
_cell_angle_alpha 90.000000
_cell_angle_beta 90.000000
_cell_angle_gamma 90.000000
_cell_volume 2712.056377
_symmetry_space_group_name_H-M "P N N A"
_symmetry_group_IT_number 52
_symmetry_cell_setting 'orthorhombic'
loop_
_space_group_symop_operation_xyz
x,y,z
1/2-x,-y,z
x,1/2-y,1/2-z
1/2-x,1/2+y,1/2-z
-x,-y,-z
1/2+x,y,-z
-x,1/2+y,1/2+z
1/2+x,1/2-y,1/2+z
loop_
_atom_site_type_symbol
_atom_site_label
_atom_site_fract_x
_atom_site_fract_y
_atom_site_fract_z
Si Si1 0.250000 0.000000 0.157169
Si Si2 0.199526 0.250000 0.750000
Si Si3 0.202693 0.699964 0.356617
Si Si4 0.387115 0.544430 0.047803
Si Si5 0.202090 0.149001 0.535533
Si Si6 0.816927 0.098945 0.105263
Si Si7 0.543776 0.524519 0.297136
O O1 0.175144 0.011957 0.308478
O O2 0.268671 0.052364 0.017038
O O3 0.250667 0.273596 0.554578
O O4 0.159992 0.197660 0.656518
O O5 0.159051 0.750000 0.250000
O O6 0.163040 0.648749 0.455428
O O7 0.257588 0.674560 0.172904
O O8 0.472722 0.542304 0.148441
O O9 0.355344 0.602954 0.030479
O O10 0.400069 0.518192 0.816765
O O11 0.266402 0.121811 0.694751
O O12 0.898531 0.072548 0.163350
O O13 0.500000 0.500000 0.500000
#
# Coordination Sequence:
#
# PCOD9409038 Si02
#       7
#     4   4   8   8   8   8   8
#     4  12  20  36  58  90 116 146 200 254 292 358
#     4   8  18  32  56  92 112 138 194 260 302 334
#     4   9  18  34  57  90 113 145 198 252 297 337
#     4  11  23  36  56  84 119 157 196 237 300 359
#     4  10  19  35  59  89 110 152 198 252 288 350
#     4  11  21  34  58  86 119 154 196 245 295 354
#     4  11  24  39  52  84 124 162 188 234 301 369
#
# _framework density 17.698746
#
# number of rings (size 3 to 8) (size 9 to 14) (size 15 to 20)
#    0.000    1.667    3.333    2.000    0.000    0.000 
#    0.000    0.000    0.000    0.000   93.167    0.000 
#    0.000    0.000    0.000    0.000    0.000    0.000 
#
# Total GULP energy -267244.527622 kJ/mol
# GULP energy per Si atom -5567.594325 kJ/mol
# Density = 1.765846 g / cm^3
# Si number density = 17.698746 Si / 1000 Ang^3
#
#
#
# Elastic Constant Matrix: (Units=GPa)
#
#
# Indices 1 2 3 4 5 6 
#
# 1 66.7436 36.9335 21.5645 0.0000 0.0000 0.0000
# 2 36.9335 150.2084 50.3126 0.0000 0.0000 0.0000
# 3 21.5645 50.3126 87.1398 0.0000 0.0000 0.0000
# 4 0.0000 0.0000 0.0000 49.8223 0.0000 0.0000
# 5 0.0000 0.0000 0.0000 0.0000 21.8202 0.0000
# 6 0.0000 0.0000 0.0000 0.0000 0.0000 13.4195
#
#
#
# Elastic Compliance Matrix: (Units=1/GPa)
#
#
# Indices 1 2 3 4 5 6 
#
# 1 0.017712 -0.003579 -0.002317 0.000000 0.000000 0.000000
# 2 -0.003579 0.008977 -0.004297 0.000000 0.000000 0.000000
# 3 -0.002317 -0.004297 0.014530 0.000000 0.000000 0.000000
# 4 0.000000 0.000000 0.000000 0.020071 0.000000 0.000000
# 5 0.000000 0.000000 0.000000 0.000000 0.045829 0.000000
# 6 0.000000 0.000000 0.000000 0.000000 0.000000 0.074518
#
#
# Mechanical properties :
#
#
# Convention : Reuss Voigt Hill
#
# Bulk Modulus (GPa) = 48.00119 57.96811 52.98465
# Shear Modulus (GPa) = 23.92711 30.03115 26.97913
#
# Velocity S-wave (km/s) = 3.68082 4.12369 3.90853
# Velocity P-wave (km/s) = 6.72642 7.44962 7.09724
#
# Compressibility (1/GPa) = 0.02083282
#
# Stress axis : x y z
#
# Youngs Moduli (GPa) = 56.45979 111.39798 68.82171
#
# Poissons Ratio (x) = 0.39869 0.15944
# Poissons Ratio (y) = 0.20207 0.29575
# Poissons Ratio (z) = 0.13080 0.47871
#
# Static dielectric constant tensor:
#      x y z
#    x 1.558390 0.000000 0.000000 
#    y 0.000000 1.649980 0.000000 
#    z 0.000000 0.000000 1.690680 
# 
# From -- ./inp_files/2516.got.cif
#   From: 2010.05.17/outbox.cif.g08.bks.cpg/sg52_2_cif.got.tgz:2516.got - 2010.06.03 12:15:38.
