data_PCOD9409584
_publ_section_title
;
Structure prediction by ZEFSAII (Michael W. Deem and Ramdas Pophale) SiO2 
 PCOD9409584
Probable space group: P N N A
;
_chemical_formula_sum "Si O2"
_cell_formula_units_Z 48
_cell_length_a 28.326783
_cell_length_b 9.963193
_cell_length_c 8.820500
_cell_angle_alpha 90.000000
_cell_angle_beta 90.000000
_cell_angle_gamma 90.000000
_cell_volume 2489.367430
_symmetry_space_group_name_H-M "P N N A"
_symmetry_group_IT_number 52
_symmetry_cell_setting 'orthorhombic'
loop_
_space_group_symop_operation_xyz
x,y,z
1/2-x,-y,z
x,1/2-y,1/2-z
1/2-x,1/2+y,1/2-z
-x,-y,-z
1/2+x,y,-z
-x,1/2+y,1/2+z
1/2+x,1/2-y,1/2+z
loop_
_atom_site_type_symbol
_atom_site_label
_atom_site_fract_x
_atom_site_fract_y
_atom_site_fract_z
Si Si1 0.858701 0.722264 0.930936
Si Si2 0.535822 0.333708 0.894723
Si Si3 0.292615 0.250000 0.750000
Si Si4 0.712442 0.750000 0.750000
Si Si5 0.448351 0.141073 0.382937
Si Si6 0.770595 0.635954 0.493714
Si Si7 0.845169 0.410086 0.980021
O O1 0.853560 0.750000 0.750000
O O2 0.914857 0.724746 0.959321
O O3 0.842625 0.572217 0.980412
O O4 0.825805 0.833196 0.012178
O O5 0.521053 0.250000 0.750000
O O6 0.546297 0.484874 0.836562
O O7 0.494316 0.331805 0.016018
O O8 0.257459 0.348274 0.661343
O O9 0.321692 0.165228 0.624450
O O10 0.748232 0.740620 0.609915
O O11 0.677580 0.637048 0.818932
O O12 0.445491 0.250000 0.250000
O O13 0.399398 0.138677 0.475103
O O14 0.750000 0.500000 0.563340
#
# Coordination Sequence:
#
# PCOD9409584 Si02
#       7
#     8   8   4   4   8   8   8
#     4  10  20  39  65  86 118 166 210 265 304 373
#     4   9  21  39  61  93 125 160 209 259 328 375
#     4  10  26  38  54  88 124 164 196 256 316 374
#     4  10  20  34  58  86 110 150 206 258 282 372
#     4  10  20  39  64  91 124 163 209 264 315 384
#     4  11  23  38  58  87 119 161 205 246 306 371
#     4  10  21  39  61  88 122 162 207 256 317 372
#
# _framework density 19.282008000000001
#
# number of rings (size 3 to 8) (size 9 to 14) (size 15 to 20)
#    0.000    2.000    1.667    1.000    3.500    2.000 
#    1.500    1.667    0.000    0.000    0.000    0.000 
#    0.000    0.000    0.000    0.000    0.000    0.000 
#
# Total GULP energy -267204.748891 kJ/mol
# GULP energy per Si atom -5566.765602 kJ/mol
# Density = 1.923812 g / cm^3
# Si number density = 19.282008 Si / 1000 Ang^3
#
#
#
# Elastic Constant Matrix: (Units=GPa)
#
#
# Indices 1 2 3 4 5 6 
#
# 1 124.8073 49.1166 35.7677 0.0000 0.0000 0.0000
# 2 49.1166 55.2853 28.5129 0.0000 0.0000 0.0000
# 3 35.7677 28.5129 69.9151 0.0000 0.0000 0.0000
# 4 0.0000 0.0000 0.0000 18.8480 0.0000 0.0000
# 5 0.0000 0.0000 0.0000 0.0000 2.4815 0.0000
# 6 0.0000 0.0000 0.0000 0.0000 0.0000 162.9569
#
#
#
# Elastic Compliance Matrix: (Units=1/GPa)
#
#
# Indices 1 2 3 4 5 6 
#
# 1 0.012627 -0.009987 -0.002387 0.000000 0.000000 0.000000
# 2 -0.009987 0.030805 -0.007454 0.000000 0.000000 0.000000
# 3 -0.002387 -0.007454 0.018564 0.000000 0.000000 0.000000
# 4 0.000000 0.000000 0.000000 0.053056 0.000000 0.000000
# 5 0.000000 0.000000 0.000000 0.000000 0.402989 0.000000
# 6 0.000000 0.000000 0.000000 0.000000 0.000000 0.006137
#
#
# Mechanical properties :
#
#
# Convention : Reuss Voigt Hill
#
# Bulk Modulus (GPa) = 44.76155 52.97802 48.86978
# Shear Modulus (GPa) = 8.75231 45.96465 27.35848
#
# Velocity S-wave (km/s) = 2.13283 4.88773 3.77086
# Velocity P-wave (km/s) = 5.41570 7.70637 6.66025
#
# Compressibility (1/GPa) = 0.02234060
#
# Stress axis : x y z
#
# Youngs Moduli (GPa) = 79.19846 32.46277 53.86801
#
# Poissons Ratio (x) = 0.32420 0.12857
# Poissons Ratio (y) = 0.79093 0.40152
# Poissons Ratio (z) = 0.18903 0.24197
#
# Static dielectric constant tensor:
#      x y z
#    x 1.704610 0.000000 0.000000 
#    y 0.000000 2.611520 0.000000 
#    z 0.000000 0.000000 1.585880 
# 
# From -- ./inp_files/15591.got.cif
#   From: 2010.05.17/outbox.cif.g08.bks.cpg/sg52_8_cif.got.tgz:15591.got - 2010.06.03 12:15:38.
