data_PCOD9409427
_publ_section_title
;
Structure prediction by ZEFSAII (Michael W. Deem and Ramdas Pophale) SiO2 
 PCOD9409427
Probable space group: P N N A
;
_chemical_formula_sum "Si O2"
_cell_formula_units_Z 48
_cell_length_a 10.278075
_cell_length_b 21.622140
_cell_length_c 12.909859
_cell_angle_alpha 90.000000
_cell_angle_beta 90.000000
_cell_angle_gamma 90.000000
_cell_volume 2869.009303
_symmetry_space_group_name_H-M "P N N A"
_symmetry_group_IT_number 52
_symmetry_cell_setting 'orthorhombic'
loop_
_space_group_symop_operation_xyz
x,y,z
1/2-x,-y,z
x,1/2-y,1/2-z
1/2-x,1/2+y,1/2-z
-x,-y,-z
1/2+x,y,-z
-x,1/2+y,1/2+z
1/2+x,1/2-y,1/2+z
loop_
_atom_site_type_symbol
_atom_site_label
_atom_site_fract_x
_atom_site_fract_y
_atom_site_fract_z
Si Si1 0.518711 0.148988 0.338526
Si Si2 0.382820 0.748992 0.000174
Si Si3 0.509815 0.315839 0.690630
Si Si4 0.286638 0.639285 0.150493
Si Si5 0.229261 0.313026 0.684580
Si Si6 0.627099 0.458487 0.017630
O O1 0.537778 0.208619 0.414904
O O2 0.365872 0.138404 0.324003
O O3 0.600657 0.156899 0.233136
O O4 0.585973 0.092762 0.399135
O O5 0.462335 0.795098 0.073568
O O6 0.314648 0.698438 0.075007
O O7 0.286774 0.790979 0.932722
O O8 0.507065 0.250000 0.750000
O O9 0.623333 0.352975 0.748372
O O10 0.367402 0.346245 0.701008
O O11 0.329634 0.579481 0.084768
O O12 0.240187 0.250000 0.750000
O O13 0.750000 0.500000 0.049683
O O14 0.500000 0.500000 0.000000
#
# Coordination Sequence:
#
# PCOD9409427 Si02
#       6
#     8   8   8   8   8   8
#     4  10  20  32  49  74 101 130 166 204 242 295
#     4   9  18  30  50  72 104 136 166 196 240 291
#     4   9  18  30  46  70 101 134 165 199 240 290
#     4  10  20  32  49  74 101 130 166 204 244 293
#     4   9  18  30  46  70 101 134 165 199 241 291
#     4  11  22  36  54  74  98 128 164 207 255 295
#
# _framework density 16.730513999999999
#
# number of rings (size 3 to 8) (size 9 to 14) (size 15 to 20)
#    0.000    2.333    1.667    1.000    2.333   11.333 
#    0.000    0.000    0.000    0.000    0.000    2.333 
#    0.000    0.000    0.000    0.000    0.000    0.000 
#
# Total GULP energy -267251.855362 kJ/mol
# GULP energy per Si atom -5567.746987 kJ/mol
# Density = 1.669243 g / cm^3
# Si number density = 16.730514 Si / 1000 Ang^3
#
#
#
# Elastic Constant Matrix: (Units=GPa)
#
#
# Indices 1 2 3 4 5 6 
#
# 1 169.6380 40.0364 42.5865 0.0000 0.0000 0.0000
# 2 40.0364 45.2317 16.9860 0.0000 0.0000 0.0000
# 3 42.5865 16.9860 70.3626 0.0000 0.0000 0.0000
# 4 0.0000 0.0000 0.0000 14.8348 0.0000 0.0000
# 5 0.0000 0.0000 0.0000 0.0000 12.6609 0.0000
# 6 0.0000 0.0000 0.0000 0.0000 0.0000 28.0972
#
#
#
# Elastic Compliance Matrix: (Units=1/GPa)
#
#
# Indices 1 2 3 4 5 6 
#
# 1 0.008174 -0.005913 -0.003520 0.000000 0.000000 0.000000
# 2 -0.005913 0.028590 -0.003323 0.000000 0.000000 0.000000
# 3 -0.003520 -0.003323 0.017145 0.000000 0.000000 0.000000
# 4 0.000000 0.000000 0.000000 0.067409 0.000000 0.000000
# 5 0.000000 0.000000 0.000000 0.000000 0.078984 0.000000
# 6 0.000000 0.000000 0.000000 0.000000 0.000000 0.035591
#
#
# Mechanical properties :
#
#
# Convention : Reuss Voigt Hill
#
# Bulk Modulus (GPa) = 35.21503 53.82779 44.52141
# Shear Modulus (GPa) = 18.45900 23.49346 20.97623
#
# Velocity S-wave (km/s) = 3.32522 3.75137 3.54470
# Velocity P-wave (km/s) = 5.98639 7.14192 6.58953
#
# Compressibility (1/GPa) = 0.02839696
#
# Stress axis : x y z
#
# Youngs Moduli (GPa) = 122.33651 34.97672 58.32739
#
# Poissons Ratio (x) = 0.20683 0.20530
# Poissons Ratio (y) = 0.72343 0.19381
# Poissons Ratio (z) = 0.43060 0.11622
#
# Static dielectric constant tensor:
#      x y z
#    x 1.602970 0.000000 0.000000 
#    y 0.000000 1.558560 0.000000 
#    z 0.000000 0.000000 1.585490 
# 
# From -- ./inp_files/24847.got.cif
#   From: 2010.05.17/outbox.cif.g08.bks.cpg/sg52_13_cif.got.tgz:24847.got - 2010.06.03 12:15:38.
