data_PCOD9409117
_publ_section_title
;
Structure prediction by ZEFSAII (Michael W. Deem and Ramdas Pophale) SiO2 
 PCOD9409117
Probable space group: P N N A
;
_chemical_formula_sum "Si O2"
_cell_formula_units_Z 44
_cell_length_a 16.687051
_cell_length_b 17.614432
_cell_length_c 7.842663
_cell_angle_alpha 90.000000
_cell_angle_beta 90.000000
_cell_angle_gamma 90.000000
_cell_volume 2305.216876
_symmetry_space_group_name_H-M "P N N A"
_symmetry_group_IT_number 52
_symmetry_cell_setting 'orthorhombic'
loop_
_space_group_symop_operation_xyz
x,y,z
1/2-x,-y,z
x,1/2-y,1/2-z
1/2-x,1/2+y,1/2-z
-x,-y,-z
1/2+x,y,-z
-x,1/2+y,1/2+z
1/2+x,1/2-y,1/2+z
loop_
_atom_site_type_symbol
_atom_site_label
_atom_site_fract_x
_atom_site_fract_y
_atom_site_fract_z
Si Si1 0.687562 0.826720 0.161517
Si Si2 0.182878 0.108155 0.593653
Si Si3 0.433246 0.591533 0.609102
Si Si4 0.607135 0.939664 0.913132
Si Si5 0.159788 0.230501 0.049537
Si Si6 0.250000 0.000000 0.310817
O O1 0.654997 0.750000 0.250000
O O2 0.734947 0.873783 0.305912
O O3 0.627498 0.882207 0.066374
O O4 0.754994 0.800149 0.023512
O O5 0.122751 0.073775 0.730107
O O6 0.146932 0.189414 0.542774
O O7 0.200721 0.056779 0.431833
O O8 0.525498 0.592771 0.666962
O O9 0.416340 0.523073 0.479241
O O10 0.403780 0.668224 0.515249
O O11 0.686615 0.952188 0.800825
O O12 0.161019 0.250000 0.250000
#
# Coordination Sequence:
#
# PCOD9409117 Si02
#       6
#     8   8   8   8   8   4
#     4   9  19  36  57  82 112 147 192 238 287 341
#     4  10  20  37  59  83 113 152 187 231 289 342
#     4  10  22  38  56  80 118 152 185 234 294 348
#     4  11  22  37  57  85 113 148 192 239 286 342
#     4  10  19  36  59  83 112 151 193 234 285 344
#     4  12  22  36  62  88 114 150 200 244 282 344
#
# _framework density 19.087140999999999
#
# number of rings (size 3 to 8) (size 9 to 14) (size 15 to 20)
#    0.000    1.818    0.000    7.091    0.000    1.455 
#    0.000   10.909    0.000    0.000    0.000    0.000 
#    0.000    0.000    0.000    0.000    0.000    0.000 
#
# Total GULP energy -245495.042550 kJ/mol
# GULP energy per Si atom -5579.432785 kJ/mol
# Density = 1.904370 g / cm^3
# Si number density = 19.087141 Si / 1000 Ang^3
#
#
#
# Elastic Constant Matrix: (Units=GPa)
#
#
# Indices 1 2 3 4 5 6 
#
# 1 31.1336 33.1096 7.6258 0.0000 0.0000 0.0000
# 2 33.1096 94.3455 16.1465 0.0000 0.0000 0.0000
# 3 7.6258 16.1465 61.1344 0.0000 0.0000 0.0000
# 4 0.0000 0.0000 0.0000 10.3217 0.0000 0.0000
# 5 0.0000 0.0000 0.0000 0.0000 -8.7278 0.0000
# 6 0.0000 0.0000 0.0000 0.0000 0.0000 15.1258
#
#
#
# Elastic Compliance Matrix: (Units=1/GPa)
#
#
# Indices 1 2 3 4 5 6 
#
# 1 0.051418 -0.017749 -0.001726 0.000000 0.000000 0.000000
# 2 -0.017749 0.017228 -0.002336 0.000000 0.000000 0.000000
# 3 -0.001726 -0.002336 0.017190 0.000000 0.000000 0.000000
# 4 0.000000 0.000000 0.000000 0.096884 0.000000 0.000000
# 5 0.000000 0.000000 0.000000 0.000000 -0.114577 0.000000
# 6 0.000000 0.000000 0.000000 0.000000 0.000000 0.066112
#
#
# Mechanical properties :
#
#
# Convention : Reuss Voigt Hill
#
# Bulk Modulus (GPa) = 23.68930 33.37525 28.53228
# Shear Modulus (GPa) = 26.04859 11.99271 19.02065
#
# Velocity S-wave (km/s) = 3.69822 2.50934 3.16019
# Velocity P-wave (km/s) = 5.53840 5.09111 5.31946
#
# Compressibility (1/GPa) = 0.04221315
#
# Stress axis : x y z
#
# Youngs Moduli (GPa) = 19.44835 58.04457 58.17433
#
# Poissons Ratio (x) = 1.03025 0.10040
# Poissons Ratio (y) = 0.34520 0.13591
# Poissons Ratio (z) = 0.03357 0.13560
#
# Static dielectric constant tensor:
#      x y z
#    x 1.681140 0.000000 0.000000 
#    y 0.000000 1.667270 0.000000 
#    z 0.000000 0.000000 1.671810 
# 
# From -- ./inp_files/10319.got.cif
#   From: 2010.05.17/outbox.cif.g08.bks.cpg/sg52_6_cif.got.tgz:10319.got - 2010.06.03 12:15:38.
