data_PCOD9409569
_publ_section_title
;
Structure prediction by ZEFSAII (Michael W. Deem and Ramdas Pophale) SiO2 
 PCOD9409569
Probable space group: P N N A
;
_chemical_formula_sum "Si O2"
_cell_formula_units_Z 40
_cell_length_a 7.652211
_cell_length_b 7.402394
_cell_length_c 29.999716
_cell_angle_alpha 90.000000
_cell_angle_beta 90.000000
_cell_angle_gamma 90.000000
_cell_volume 1699.324337
_symmetry_space_group_name_H-M "P N N A"
_symmetry_group_IT_number 52
_symmetry_cell_setting 'orthorhombic'
loop_
_space_group_symop_operation_xyz
x,y,z
1/2-x,-y,z
x,1/2-y,1/2-z
1/2-x,1/2+y,1/2-z
-x,-y,-z
1/2+x,y,-z
-x,1/2+y,1/2+z
1/2+x,1/2-y,1/2+z
loop_
_atom_site_type_symbol
_atom_site_label
_atom_site_fract_x
_atom_site_fract_y
_atom_site_fract_z
Si Si1 0.467661 0.250000 0.750000
Si Si2 0.250000 0.500000 0.214122
Si Si3 0.527065 0.648519 0.858271
Si Si4 0.250000 0.000000 0.002361
Si Si5 0.653414 0.749563 0.151526
Si Si6 0.980292 0.304093 0.443203
Si Si7 0.250000 0.000000 0.433955
O O1 0.593901 0.419099 0.758088
O O2 0.368896 0.211224 0.796115
O O3 0.334473 0.346791 0.182056
O O4 0.429103 0.453842 0.852418
O O5 0.359486 0.774493 0.857793
O O6 0.642826 0.639083 0.902357
O O7 0.200049 0.830277 0.970587
O O8 0.406164 0.962483 0.036102
O O9 0.553489 0.831698 0.109068
O O10 0.092905 0.122642 0.453576
#
# Coordination Sequence:
#
# PCOD9409569 Si02
#       7
#     4   4   8   4   8   8   4
#     4  10  20  34  56  88 120 154 200 248 298 356
#     4   9  18  33  52  80 118 152 188 239 292 347
#     4   8  16  33  57  83 114 148 189 247 294 333
#     4  10  24  43  58  85 132 161 186 249 320 360
#     4   9  18  35  58  85 117 154 196 243 299 356
#     4  10  22  41  62  85 119 162 200 245 302 359
#     4   9  18  36  68  91 102 147 212 246 280 359
#
# _framework density 23.538768999999998
#
# number of rings (size 3 to 8) (size 9 to 14) (size 15 to 20)
#    0.000    2.800    0.000    1.200    0.000    5.600 
#    0.000    8.000    0.000    0.000    0.000    0.000 
#    0.000    0.000    0.000    0.000    0.000    0.000 
#
# Total GULP energy -222733.061198 kJ/mol
# GULP energy per Si atom -5568.326530 kJ/mol
# Density = 2.348519 g / cm^3
# Si number density = 23.538769 Si / 1000 Ang^3
#
#
#
# Elastic Constant Matrix: (Units=GPa)
#
#
# Indices 1 2 3 4 5 6 
#
# 1 120.7805 13.2433 55.0373 0.0000 0.0000 0.0000
# 2 13.2433 41.2163 35.9779 0.0000 0.0000 0.0000
# 3 55.0373 35.9779 147.4978 0.0000 0.0000 0.0000
# 4 0.0000 0.0000 0.0000 4.2844 0.0000 0.0000
# 5 0.0000 0.0000 0.0000 0.0000 -20.8314 0.0000
# 6 0.0000 0.0000 0.0000 0.0000 0.0000 24.3515
#
#
#
# Elastic Compliance Matrix: (Units=1/GPa)
#
#
# Indices 1 2 3 4 5 6 
#
# 1 0.009976 0.000056 -0.003736 0.000000 0.000000 0.000000
# 2 0.000056 0.030826 -0.007540 0.000000 0.000000 0.000000
# 3 -0.003736 -0.007540 0.010013 0.000000 0.000000 0.000000
# 4 0.000000 0.000000 0.000000 0.233402 0.000000 0.000000
# 5 0.000000 0.000000 0.000000 0.000000 -0.048004 0.000000
# 6 0.000000 0.000000 0.000000 0.000000 0.000000 0.041065
#
#
# Mechanical properties :
#
#
# Convention : Reuss Voigt Hill
#
# Bulk Modulus (GPa) = 35.24289 57.55683 46.39986
# Shear Modulus (GPa) = 16.17200 15.24330 15.70765
#
# Velocity S-wave (km/s) = 2.62398 2.54753 2.58604
# Velocity P-wave (km/s) = 4.91784 5.75832 5.35459
#
# Compressibility (1/GPa) = 0.02837452
#
# Stress axis : x y z
#
# Youngs Moduli (GPa) = 100.24287 32.44013 99.87053
#
# Poissons Ratio (x) = -0.00181 0.37311
# Poissons Ratio (y) = -0.00560 0.75302
# Poissons Ratio (z) = 0.37450 0.24460
#
# Static dielectric constant tensor:
#      x y z
#    x 2.035270 0.000000 0.000000 
#    y 0.000000 2.843580 0.000000 
#    z 0.000000 0.000000 1.878800 
# 
# From -- ./inp_files/44230.got.cif
#   From: 2010.05.17/outbox.cif.g08.bks.cpg/sg52_23_cif.got.tgz:44230.got - 2010.06.03 12:15:38.
