data_PCOD9409707
_publ_section_title
;
Structure prediction by ZEFSAII (Michael W. Deem and Ramdas Pophale) SiO2 
 PCOD9409707
Probable space group: P N N A
;
_chemical_formula_sum "Si O2"
_cell_formula_units_Z 40
_cell_length_a 12.947091
_cell_length_b 11.394896
_cell_length_c 11.903004
_cell_angle_alpha 90.000000
_cell_angle_beta 90.000000
_cell_angle_gamma 90.000000
_cell_volume 1756.059172
_symmetry_space_group_name_H-M "P N N A"
_symmetry_group_IT_number 52
_symmetry_cell_setting 'orthorhombic'
loop_
_space_group_symop_operation_xyz
x,y,z
1/2-x,-y,z
x,1/2-y,1/2-z
1/2-x,1/2+y,1/2-z
-x,-y,-z
1/2+x,y,-z
-x,1/2+y,1/2+z
1/2+x,1/2-y,1/2+z
loop_
_atom_site_type_symbol
_atom_site_label
_atom_site_fract_x
_atom_site_fract_y
_atom_site_fract_z
Si Si1 0.079600 0.503454 0.373851
Si Si2 0.086930 0.657757 0.586705
Si Si3 0.506388 0.138965 0.485368
Si Si4 0.811609 0.388429 0.840041
Si Si5 0.698308 0.288110 0.513323
O O1 0.057009 0.603703 0.464386
O O2 0.148878 0.559744 0.277414
O O3 0.145789 0.405206 0.439780
O O4 0.973710 0.436735 0.336342
O O5 0.209365 0.677833 0.572763
O O6 0.033885 0.785169 0.592446
O O7 0.418504 0.154407 0.393228
O O8 0.615965 0.198159 0.459074
O O9 0.500000 0.000000 0.500000
O O10 0.750000 0.500000 0.892642
O O11 0.738923 0.280438 0.875293
#
# Coordination Sequence:
#
# PCOD9409707 Si02
#       5
#     8   8   8   8   8
#     4  10  21  37  57  96 117 151 207 259 310 374
#     4   9  20  36  58  83 120 161 196 248 314 375
#     4  10  20  36  52  89 119 165 201 249 311 382
#     4  11  21  34  59  91 123 154 204 264 313 372
#     4  10  20  37  59  87 124 167 207 252 319 379
#
# _framework density 22.778276000000002
#
# number of rings (size 3 to 8) (size 9 to 14) (size 15 to 20)
#    0.000    2.000    2.000    1.800    0.000    7.200 
#    0.000    0.000    0.000    0.000  109.200    0.000 
#    0.000    0.000    0.000    0.000    0.000    0.000 
#
# Total GULP energy -222704.669298 kJ/mol
# GULP energy per Si atom -5567.616732 kJ/mol
# Density = 2.272643 g / cm^3
# Si number density = 22.778276 Si / 1000 Ang^3
#
#
#
# Elastic Constant Matrix: (Units=GPa)
#
#
# Indices 1 2 3 4 5 6 
#
# 1 160.5512 50.7188 21.4452 0.0000 0.0000 0.0000
# 2 50.7188 161.5695 20.2279 0.0000 0.0000 0.0000
# 3 21.4452 20.2279 23.8918 0.0000 0.0000 0.0000
# 4 0.0000 0.0000 0.0000 21.6972 0.0000 0.0000
# 5 0.0000 0.0000 0.0000 0.0000 15.7226 0.0000
# 6 0.0000 0.0000 0.0000 0.0000 0.0000 62.6544
#
#
#
# Elastic Compliance Matrix: (Units=1/GPa)
#
#
# Indices 1 2 3 4 5 6 
#
# 1 0.007465 -0.001683 -0.005276 0.000000 0.000000 0.000000
# 2 -0.001683 0.007302 -0.004672 0.000000 0.000000 0.000000
# 3 -0.005276 -0.004672 0.050546 0.000000 0.000000 0.000000
# 4 0.000000 0.000000 0.000000 0.046089 0.000000 0.000000
# 5 0.000000 0.000000 0.000000 0.000000 0.063603 0.000000
# 6 0.000000 0.000000 0.000000 0.000000 0.000000 0.015961
#
#
# Mechanical properties :
#
#
# Convention : Reuss Voigt Hill
#
# Bulk Modulus (GPa) = 23.77979 58.97738 41.37858
# Shear Modulus (GPa) = 21.90632 36.92289 29.41460
#
# Velocity S-wave (km/s) = 3.10453 4.03049 3.59743
# Velocity P-wave (km/s) = 4.82837 6.89985 5.95488
#
# Compressibility (1/GPa) = 0.04205252
#
# Stress axis : x y z
#
# Youngs Moduli (GPa) = 133.96141 136.93977 19.78378
#
# Poissons Ratio (x) = 0.23044 0.10437
# Poissons Ratio (y) = 0.22543 0.09243
# Poissons Ratio (z) = 0.70674 0.63980
#
# Static dielectric constant tensor:
#      x y z
#    x 1.947960 0.000000 0.000000 
#    y 0.000000 1.932270 0.000000 
#    z 0.000000 0.000000 1.939290 
# 
# From -- ./inp_files/25805.got.cif
#   From: 2010.05.17/outbox.cif.g08.bks.cpg/sg52_13_cif.got.tgz:25805.got - 2010.06.03 12:15:38.
