data_PCOD9409445
_publ_section_title
;
Structure prediction by ZEFSAII (Michael W. Deem and Ramdas Pophale) SiO2 
 PCOD9409445
Probable space group: P N N A
;
_chemical_formula_sum "Si O2"
_cell_formula_units_Z 44
_cell_length_a 5.277330
_cell_length_b 19.820801
_cell_length_c 22.254563
_cell_angle_alpha 90.000000
_cell_angle_beta 90.000000
_cell_angle_gamma 90.000000
_cell_volume 2327.847491
_symmetry_space_group_name_H-M "P N N A"
_symmetry_group_IT_number 52
_symmetry_cell_setting 'orthorhombic'
loop_
_space_group_symop_operation_xyz
x,y,z
1/2-x,-y,z
x,1/2-y,1/2-z
1/2-x,1/2+y,1/2-z
-x,-y,-z
1/2+x,y,-z
-x,1/2+y,1/2+z
1/2+x,1/2-y,1/2+z
loop_
_atom_site_type_symbol
_atom_site_label
_atom_site_fract_x
_atom_site_fract_y
_atom_site_fract_z
Si Si1 0.726846 0.081782 0.531674
Si Si2 0.876426 0.573916 0.831820
Si Si3 0.829279 0.825857 0.771365
Si Si4 0.742328 0.081575 0.034540
Si Si5 0.250000 0.500000 0.755687
Si Si6 0.649156 0.383842 0.327398
O O1 0.505431 0.106000 0.487089
O O2 0.640879 0.096058 0.599542
O O3 0.750000 0.000000 0.527355
O O4 0.750000 0.500000 0.827593
O O5 0.766438 0.629536 0.787638
O O6 0.144757 0.555765 0.802047
O O7 0.869618 0.750000 0.750000
O O8 0.586969 0.835267 0.814159
O O9 0.084690 0.855029 0.801876
O O10 0.686274 0.103381 0.102348
O O11 0.750000 0.000000 0.034305
O O12 0.513176 0.104191 0.991284
O O13 0.409200 0.545580 0.708407
#
# Coordination Sequence:
#
# PCOD9409445 Si02
#       6
#     8   8   8   8   4   8
#     4   9  19  30  48  75 108 139 174 222 278 328
#     4  10  20  34  57  82 113 142 187 235 285 345
#     4  11  24  39  59  87 118 156 193 245 300 355
#     4  10  20  34  56  89 123 155 194 247 301 349
#     4  10  20  32  54  90 110 148 186 242 288 342
#     4  11  21  38  60  83 121 153 199 237 298 352
#
# _framework density 18.901581
#
# number of rings (size 3 to 8) (size 9 to 14) (size 15 to 20)
#    0.000    1.818    2.727    1.636    6.364    0.000 
#    0.000    0.000    0.000    6.545    0.000    0.000 
#    0.000    0.000    0.000    0.000    0.000    0.000 
#
# Total GULP energy -245071.536729 kJ/mol
# GULP energy per Si atom -5569.807653 kJ/mol
# Density = 1.885856 g / cm^3
# Si number density = 18.901581 Si / 1000 Ang^3
#
#
#
# Elastic Constant Matrix: (Units=GPa)
#
#
# Indices 1 2 3 4 5 6 
#
# 1 101.5099 4.9195 47.1208 0.0000 0.0000 0.0000
# 2 4.9195 38.8079 22.4629 0.0000 0.0000 0.0000
# 3 47.1208 22.4629 144.7644 0.0000 0.0000 0.0000
# 4 0.0000 0.0000 0.0000 10.1236 0.0000 0.0000
# 5 0.0000 0.0000 0.0000 0.0000 24.0080 0.0000
# 6 0.0000 0.0000 0.0000 0.0000 0.0000 11.3798
#
#
#
# Elastic Compliance Matrix: (Units=1/GPa)
#
#
# Indices 1 2 3 4 5 6 
#
# 1 0.011627 0.000787 -0.003907 0.000000 0.000000 0.000000
# 2 0.000787 0.028364 -0.004658 0.000000 0.000000 0.000000
# 3 -0.003907 -0.004658 0.008902 0.000000 0.000000 0.000000
# 4 0.000000 0.000000 0.000000 0.098779 0.000000 0.000000
# 5 0.000000 0.000000 0.000000 0.000000 0.041653 0.000000
# 6 0.000000 0.000000 0.000000 0.000000 0.000000 0.087875
#
#
# Mechanical properties :
#
#
# Convention : Reuss Voigt Hill
#
# Bulk Modulus (GPa) = 29.99475 48.23207 39.11341
# Shear Modulus (GPa) = 16.45460 23.14087 19.79774
#
# Velocity S-wave (km/s) = 2.95369 3.50277 3.23988
# Velocity P-wave (km/s) = 5.24745 6.47550 5.89355
#
# Compressibility (1/GPa) = 0.03333917
#
# Stress axis : x y z
#
# Youngs Moduli (GPa) = 86.01010 35.25595 112.33330
#
# Poissons Ratio (x) = -0.02776 0.43884
# Poissons Ratio (y) = -0.06772 0.52319
# Poissons Ratio (z) = 0.33601 0.16420
#
# Static dielectric constant tensor:
#      x y z
#    x 1.774070 0.000000 0.000000 
#    y 0.000000 1.653580 0.000000 
#    z 0.000000 0.000000 1.638120 
# 
# From -- ./inp_files/35113.got.cif
#   From: 2010.05.17/outbox.cif.g08.bks.cpg/sg52_18_cif.got.tgz:35113.got - 2010.06.03 12:15:38.
