data_PCOD9409744
_publ_section_title
;
Structure prediction by ZEFSAII (Michael W. Deem and Ramdas Pophale) SiO2 
 PCOD9409744
Probable space group: P N N A
;
_chemical_formula_sum "Si O2"
_cell_formula_units_Z 36
_cell_length_a 4.885503
_cell_length_b 20.695835
_cell_length_c 16.079706
_cell_angle_alpha 90.000000
_cell_angle_beta 90.000000
_cell_angle_gamma 90.000000
_cell_volume 1625.812063
_symmetry_space_group_name_H-M "P N N A"
_symmetry_group_IT_number 52
_symmetry_cell_setting 'orthorhombic'
loop_
_space_group_symop_operation_xyz
x,y,z
1/2-x,-y,z
x,1/2-y,1/2-z
1/2-x,1/2+y,1/2-z
-x,-y,-z
1/2+x,y,-z
-x,1/2+y,1/2+z
1/2+x,1/2-y,1/2+z
loop_
_atom_site_type_symbol
_atom_site_label
_atom_site_fract_x
_atom_site_fract_y
_atom_site_fract_z
Si Si1 0.767744 0.078017 0.049934
Si Si2 0.250000 0.000000 0.664116
Si Si3 0.436077 0.105276 0.443960
Si Si4 0.476786 0.819362 0.713958
Si Si5 0.019465 0.390863 0.273510
O O1 0.908930 0.101700 0.133552
O O2 0.750000 0.000000 0.055027
O O3 0.462663 0.098311 0.026653
O O4 0.052060 0.044460 0.607898
O O5 0.435235 0.045588 0.722154
O O6 0.124270 0.104735 0.473767
O O7 0.476483 0.166509 0.383373
O O8 0.549437 0.750000 0.750000
O O9 0.161195 0.834278 0.732444
O O10 0.665556 0.872458 0.761258
#
# Coordination Sequence:
#
# PCOD9409744 Si02
#       5
#     8   4   8   8   8
#     4  10  20  36  57  89 127 158 192 253 312 365
#     4  10  22  38  64 100 130 166 200 258 324 402
#     4  11  23  41  64  96 128 162 202 262 319 374
#     4  11  25  44  64  87 123 172 216 258 303 370
#     4  11  22  40  64  92 124 167 213 255 315 386
#
# _framework density 22.142780999999999
#
# number of rings (size 3 to 8) (size 9 to 14) (size 15 to 20)
#    0.000    1.333    1.111    5.333    0.000    7.111 
#    0.000    6.667    0.000    0.000    0.000    0.000 
#    0.000    0.000    0.000    0.000    0.000    0.000 
#
# Total GULP energy -201345.929931 kJ/mol
# GULP energy per Si atom -5592.942498 kJ/mol
# Density = 2.209238 g / cm^3
# Si number density = 22.142781 Si / 1000 Ang^3
#
#
#
# Elastic Constant Matrix: (Units=GPa)
#
#
# Indices 1 2 3 4 5 6 
#
# 1 71.6661 1.9751 -4.7081 0.0000 0.0000 0.0000
# 2 1.9751 85.2223 23.7453 0.0000 0.0000 0.0000
# 3 -4.7081 23.7453 94.1693 0.0000 0.0000 0.0000
# 4 0.0000 0.0000 0.0000 21.5888 0.0000 0.0000
# 5 0.0000 0.0000 0.0000 0.0000 37.6588 0.0000
# 6 0.0000 0.0000 0.0000 0.0000 0.0000 18.8107
#
#
#
# Elastic Compliance Matrix: (Units=1/GPa)
#
#
# Indices 1 2 3 4 5 6 
#
# 1 0.014024 -0.000560 0.000842 0.000000 0.000000 0.000000
# 2 -0.000560 0.012643 -0.003216 0.000000 0.000000 0.000000
# 3 0.000842 -0.003216 0.011472 0.000000 0.000000 0.000000
# 4 0.000000 0.000000 0.000000 0.046320 0.000000 0.000000
# 5 0.000000 0.000000 0.000000 0.000000 0.026554 0.000000
# 6 0.000000 0.000000 0.000000 0.000000 0.000000 0.053161
#
#
# Mechanical properties :
#
#
# Convention : Reuss Voigt Hill
#
# Bulk Modulus (GPa) = 30.98585 32.56471 31.77528
# Shear Modulus (GPa) = 27.65489 30.94801 29.30145
#
# Velocity S-wave (km/s) = 3.53786 3.74258 3.64166
# Velocity P-wave (km/s) = 5.54190 5.78053 5.66247
#
# Compressibility (1/GPa) = 0.03227280
#
# Stress axis : x y z
#
# Youngs Moduli (GPa) = 71.30450 79.09478 87.16708
#
# Poissons Ratio (x) = 0.04427 -0.07342
# Poissons Ratio (y) = 0.03991 0.28033
# Poissons Ratio (z) = -0.06006 0.25437
#
# Static dielectric constant tensor:
#      x y z
#    x 1.770580 0.000000 0.000000 
#    y 0.000000 1.796320 0.000000 
#    z 0.000000 0.000000 1.820880 
# 
# From -- ./inp_files/23568.got.cif
#   From: 2010.05.17/outbox.cif.g08.bks.cpg/sg52_12_cif.got.tgz:23568.got - 2010.06.03 12:15:38.
