data_PCOD9409791
_publ_section_title
;
Structure prediction by ZEFSAII (Michael W. Deem and Ramdas Pophale) SiO2 
 PCOD9409791
Probable space group: P N N A
;
_chemical_formula_sum "Si O2"
_cell_formula_units_Z 28
_cell_length_a 17.326365
_cell_length_b 5.081387
_cell_length_c 12.957267
_cell_angle_alpha 90.000000
_cell_angle_beta 90.000000
_cell_angle_gamma 90.000000
_cell_volume 1140.783259
_symmetry_space_group_name_H-M "P N N A"
_symmetry_group_IT_number 52
_symmetry_cell_setting 'orthorhombic'
loop_
_space_group_symop_operation_xyz
x,y,z
1/2-x,-y,z
x,1/2-y,1/2-z
1/2-x,1/2+y,1/2-z
-x,-y,-z
1/2+x,y,-z
-x,1/2+y,1/2+z
1/2+x,1/2-y,1/2+z
loop_
_atom_site_type_symbol
_atom_site_label
_atom_site_fract_x
_atom_site_fract_y
_atom_site_fract_z
Si Si1 0.813682 0.280988 0.018339
Si Si2 0.005261 0.440660 0.673940
Si Si3 0.093596 0.262584 0.471922
Si Si4 0.855285 0.250000 0.250000
O O1 0.750000 0.500000 0.984372
O O2 0.808896 0.265803 0.143520
O O3 0.886302 0.457727 0.984599
O O4 0.835439 0.981677 0.982445
O O5 0.960123 0.250000 0.750000
O O6 0.039520 0.321926 0.569328
O O7 0.082452 0.520105 0.735868
O O8 0.951670 0.674161 0.632528
#
# Coordination Sequence:
#
# PCOD9409791 Si02
#       4
#     8   8   8   4
#     4  11  23  40  58  87 126 165 200 244 302 387
#     4  10  20  36  60  90 123 149 202 260 309 367
#     4  10  23  37  60  88 122 161 198 250 316 357
#     4  10  22  34  62  92 122 148 202 252 320 358
#
# _framework density 24.544540999999999
#
# number of rings (size 3 to 8) (size 9 to 14) (size 15 to 20)
#    0.000    1.714    2.857    0.857    4.000    8.000 
#    0.000    0.000    0.000    3.429    0.000    0.000 
#    0.000    0.000    0.000    0.000    0.000    0.000 
#
# Total GULP energy -156092.589182 kJ/mol
# GULP energy per Si atom -5574.735328 kJ/mol
# Density = 2.448868 g / cm^3
# Si number density = 24.544541 Si / 1000 Ang^3
#
#
#
# Elastic Constant Matrix: (Units=GPa)
#
#
# Indices 1 2 3 4 5 6 
#
# 1 37.6838 2.4965 -11.3714 0.0000 0.0000 0.0000
# 2 2.4965 154.8542 17.5207 0.0000 0.0000 0.0000
# 3 -11.3714 17.5207 60.4664 0.0000 0.0000 0.0000
# 4 0.0000 0.0000 0.0000 38.0004 0.0000 0.0000
# 5 0.0000 0.0000 0.0000 0.0000 17.0751 0.0000
# 6 0.0000 0.0000 0.0000 0.0000 0.0000 10.1316
#
#
#
# Elastic Compliance Matrix: (Units=1/GPa)
#
#
# Indices 1 2 3 4 5 6 
#
# 1 0.028312 -0.001095 0.005642 0.000000 0.000000 0.000000
# 2 -0.001095 0.006719 -0.002153 0.000000 0.000000 0.000000
# 3 0.005642 -0.002153 0.018223 0.000000 0.000000 0.000000
# 4 0.000000 0.000000 0.000000 0.026316 0.000000 0.000000
# 5 0.000000 0.000000 0.000000 0.000000 0.058565 0.000000
# 6 0.000000 0.000000 0.000000 0.000000 0.000000 0.098701
#
#
# Mechanical properties :
#
#
# Convention : Reuss Voigt Hill
#
# Bulk Modulus (GPa) = 17.22910 30.03289 23.63099
# Shear Modulus (GPa) = 19.88912 29.33200 24.61056
#
# Velocity S-wave (km/s) = 2.84971 3.46070 3.16996
# Velocity P-wave (km/s) = 4.22642 5.31331 4.80072
#
# Compressibility (1/GPa) = 0.05804135
#
# Stress axis : x y z
#
# Youngs Moduli (GPa) = 35.32133 148.83382 54.87617
#
# Poissons Ratio (x) = 0.16293 -0.30958
# Poissons Ratio (y) = 0.03867 0.11813
# Poissons Ratio (z) = -0.19927 0.32040
#
# Static dielectric constant tensor:
#      x y z
#    x 2.135480 0.000000 0.000000 
#    y 0.000000 2.033910 0.000000 
#    z 0.000000 0.000000 1.903980 
# 
# From -- ./inp_files/21083.got.cif
#   From: 2010.05.17/outbox.cif.g08.bks.cpg/sg52_11_cif.got.tgz:21083.got - 2010.06.03 12:15:38.
