data_PCOD9409167
_publ_section_title
;
Structure prediction by ZEFSAII (Michael W. Deem and Ramdas Pophale) SiO2 
 PCOD9409167
Probable space group: P N N A
;
_chemical_formula_sum "Si O2"
_cell_formula_units_Z 40
_cell_length_a 5.650711
_cell_length_b 22.828730
_cell_length_c 13.558173
_cell_angle_alpha 90.000000
_cell_angle_beta 90.000000
_cell_angle_gamma 90.000000
_cell_volume 1748.984735
_symmetry_space_group_name_H-M "P N N A"
_symmetry_group_IT_number 52
_symmetry_cell_setting 'orthorhombic'
loop_
_space_group_symop_operation_xyz
x,y,z
1/2-x,-y,z
x,1/2-y,1/2-z
1/2-x,1/2+y,1/2-z
-x,-y,-z
1/2+x,y,-z
-x,1/2+y,1/2+z
1/2+x,1/2-y,1/2+z
loop_
_atom_site_type_symbol
_atom_site_label
_atom_site_fract_x
_atom_site_fract_y
_atom_site_fract_z
Si Si1 0.750000 0.500000 0.939835
Si Si2 0.847152 0.688803 0.270321
Si Si3 0.987117 0.890720 0.890624
Si Si4 0.750000 0.000000 0.157842
Si Si5 0.501872 0.217695 0.030078
Si Si6 0.395579 0.416228 0.225560
O O1 0.740174 0.555654 0.865931
O O2 0.500000 0.500000 0.000000
O O3 0.720936 0.750000 0.250000
O O4 0.662651 0.646607 0.322367
O O5 0.032784 0.710286 0.353693
O O6 0.981018 0.645454 0.196654
O O7 0.765873 0.904177 0.821094
O O8 0.112566 0.952776 0.908885
O O9 0.951691 0.847100 0.982075
O O10 0.920164 0.963901 0.231629
O O11 0.262590 0.245518 0.986901
#
# Coordination Sequence:
#
# PCOD9409167 Si02
#       6
#     4   8   8   4   8   8
#     4  12  27  44  71 100 140 178 234 305 348 419
#     4  10  23  41  66  97 136 190 231 280 344 416
#     4  10  20  37  68  96 135 178 222 281 344 413
#     4  10  19  36  67 100 130 174 220 271 348 431
#     4  10  20  40  62  96 132 172 221 276 330 393
#     4  11  21  42  70  96 136 182 225 280 364 408
#
# _framework density 22.870412000000002
#
# number of rings (size 3 to 8) (size 9 to 14) (size 15 to 20)
#    0.000    1.600    4.000    0.600    2.800    0.800 
#    0.000   14.000    0.000    0.000    0.000    0.000 
#    0.000    0.000    0.000    0.000    0.000    0.000 
#
# Total GULP energy -223000.199004 kJ/mol
# GULP energy per Si atom -5575.004975 kJ/mol
# Density = 2.281836 g / cm^3
# Si number density = 22.870412 Si / 1000 Ang^3
#
#
#
# Elastic Constant Matrix: (Units=GPa)
#
#
# Indices 1 2 3 4 5 6 
#
# 1 101.6939 8.4800 3.2955 0.0000 0.0000 0.0000
# 2 8.4800 81.8227 -17.0142 0.0000 0.0000 0.0000
# 3 3.2955 -17.0142 32.6802 0.0000 0.0000 0.0000
# 4 0.0000 0.0000 0.0000 13.4266 0.0000 0.0000
# 5 0.0000 0.0000 0.0000 0.0000 19.3859 0.0000
# 6 0.0000 0.0000 0.0000 0.0000 0.0000 15.0502
#
#
#
# Elastic Compliance Matrix: (Units=1/GPa)
#
#
# Indices 1 2 3 4 5 6 
#
# 1 0.010006 -0.001398 -0.001737 0.000000 0.000000 0.000000
# 2 -0.001398 0.013901 0.007378 0.000000 0.000000 0.000000
# 3 -0.001737 0.007378 0.034616 0.000000 0.000000 0.000000
# 4 0.000000 0.000000 0.000000 0.074479 0.000000 0.000000
# 5 0.000000 0.000000 0.000000 0.000000 0.051584 0.000000
# 6 0.000000 0.000000 0.000000 0.000000 0.000000 0.066444
#
#
# Mechanical properties :
#
#
# Convention : Reuss Voigt Hill
#
# Bulk Modulus (GPa) = 14.92350 22.85775 18.89062
# Shear Modulus (GPa) = 18.87643 24.33490 21.60567
#
# Velocity S-wave (km/s) = 2.87603 3.26549 3.07693
# Velocity P-wave (km/s) = 4.19144 4.92281 4.57177
#
# Compressibility (1/GPa) = 0.06700840
#
# Stress axis : x y z
#
# Youngs Moduli (GPa) = 99.93689 71.93911 28.88846
#
# Poissons Ratio (x) = 0.10059 0.05018
# Poissons Ratio (y) = 0.13974 -0.21314
# Poissons Ratio (z) = 0.17359 -0.53077
#
# Static dielectric constant tensor:
#      x y z
#    x 1.966030 0.000000 0.000000 
#    y 0.000000 1.993020 0.000000 
#    z 0.000000 0.000000 1.908930 
# 
# From -- ./inp_files/23636.got.cif
#   From: 2010.05.17/outbox.cif.g08.bks.cpg/sg52_12_cif.got.tgz:23636.got - 2010.06.03 12:15:38.
