data_PCOD9409929
_publ_section_title
;
Structure prediction by ZEFSAII (Michael W. Deem and Ramdas Pophale) SiO2 
 PCOD9409929
Probable space group: P N N A
;
_chemical_formula_sum "Si O2"
_cell_formula_units_Z 56
_cell_length_a 9.552955
_cell_length_b 14.687027
_cell_length_c 19.717584
_cell_angle_alpha 90.000000
_cell_angle_beta 90.000000
_cell_angle_gamma 90.000000
_cell_volume 2766.465922
_symmetry_space_group_name_H-M "P N N A"
_symmetry_group_IT_number 52
_symmetry_cell_setting 'orthorhombic'
loop_
_space_group_symop_operation_xyz
x,y,z
1/2-x,-y,z
x,1/2-y,1/2-z
1/2-x,1/2+y,1/2-z
-x,-y,-z
1/2+x,y,-z
-x,1/2+y,1/2+z
1/2+x,1/2-y,1/2+z
loop_
_atom_site_type_symbol
_atom_site_label
_atom_site_fract_x
_atom_site_fract_y
_atom_site_fract_z
Si Si1 0.592391 0.527938 0.726223
Si Si2 0.479056 0.307692 0.181016
Si Si3 0.677317 0.316855 0.508176
Si Si4 0.423864 0.154738 0.780351
Si Si5 0.926202 0.139350 0.907047
Si Si6 0.240967 0.607028 0.837504
Si Si7 0.578208 0.754914 0.415369
O O1 0.750000 0.500000 0.715516
O O2 0.584115 0.598845 0.788704
O O3 0.509962 0.434615 0.736879
O O4 0.542866 0.574544 0.656471
O O5 0.502222 0.250000 0.250000
O O6 0.405664 0.239419 0.128178
O O7 0.619591 0.339593 0.143271
O O8 0.778650 0.380236 0.554742
O O9 0.561330 0.360744 0.457167
O O10 0.797534 0.261948 0.468426
O O11 0.575031 0.254310 0.553400
O O12 0.482871 0.250000 0.750000
O O13 0.279715 0.134987 0.741285
O O14 0.408068 0.175140 0.859124
O O15 0.250000 0.500000 0.845358
O O16 0.112304 0.651048 0.877709
#
# Coordination Sequence:
#
# PCOD9409929 Si02
#       7
#     8   8   8   8   8   8   8
#     4  11  23  38  59  96 129 157 200 255 316 369
#     4  10  20  37  62  90 122 162 196 254 314 369
#     4  10  21  40  63  87 116 175 202 249 295 364
#     4  10  22  37  62  90 122 156 199 257 308 369
#     4  10  22  41  66  88 129 162 212 249 306 363
#     4  11  20  36  62  92 118 150 205 259 312 363
#     4  10  21  38  62  83 121 155 207 243 304 357
#
# _framework density 20.242431
#
# number of rings (size 3 to 8) (size 9 to 14) (size 15 to 20)
#    0.000    1.714    2.857    2.143    2.000    4.000 
#    0.000    8.571    0.000    0.000    0.000    0.000 
#    0.000    0.000    0.000    0.000    0.000    0.000 
#
# Total GULP energy -312063.600115 kJ/mol
# GULP energy per Si atom -5572.564288 kJ/mol
# Density = 2.019636 g / cm^3
# Si number density = 20.242431 Si / 1000 Ang^3
#
#
#
# Elastic Constant Matrix: (Units=GPa)
#
#
# Indices 1 2 3 4 5 6 
#
# 1 86.3542 11.1945 21.1377 0.0000 0.0000 0.0000
# 2 11.1945 87.7676 -1.2205 0.0000 0.0000 0.0000
# 3 21.1377 -1.2205 49.6541 0.0000 0.0000 0.0000
# 4 0.0000 0.0000 0.0000 99.6251 0.0000 0.0000
# 5 0.0000 0.0000 0.0000 0.0000 5.3413 0.0000
# 6 0.0000 0.0000 0.0000 0.0000 0.0000 0.3185
#
#
#
# Elastic Compliance Matrix: (Units=1/GPa)
#
#
# Indices 1 2 3 4 5 6 
#
# 1 0.013194 -0.001762 -0.005660 0.000000 0.000000 0.000000
# 2 -0.001762 0.011633 0.001036 0.000000 0.000000 0.000000
# 3 -0.005660 0.001036 0.022574 0.000000 0.000000 0.000000
# 4 0.000000 0.000000 0.000000 0.010038 0.000000 0.000000
# 5 0.000000 0.000000 0.000000 0.000000 0.187222 0.000000
# 6 0.000000 0.000000 0.000000 0.000000 0.000000 3.139383
#
#
# Mechanical properties :
#
#
# Convention : Reuss Voigt Hill
#
# Bulk Modulus (GPa) = 28.87702 31.77770 30.32736
# Shear Modulus (GPa) = 1.46698 33.90126 17.68412
#
# Velocity S-wave (km/s) = 0.85222 4.09683 2.95891
# Velocity P-wave (km/s) = 3.90704 6.17343 5.16605
#
# Compressibility (1/GPa) = 0.03462962
#
# Stress axis : x y z
#
# Youngs Moduli (GPa) = 75.79194 85.96377 44.29832
#
# Poissons Ratio (x) = 0.15143 0.25073
# Poissons Ratio (y) = 0.13351 -0.04589
# Poissons Ratio (z) = 0.42898 -0.08904
#
# Static dielectric constant tensor:
#      x y z
#    x 0.991930 0.000000 0.000000 
#    y 0.000000 1.635020 0.000000 
#    z 0.000000 0.000000 1.791360 
# 
# From -- ./inp_files/36026.got.cif
#   From: 2010.05.17/outbox.cif.g08.bks.cpg/sg52_19_cif.got.tgz:36026.got - 2010.06.03 12:15:38.
