data_PCOD9409143
_publ_section_title
;
Structure prediction by ZEFSAII (Michael W. Deem and Ramdas Pophale) SiO2 
 PCOD9409143
Probable space group: P N N A
;
_chemical_formula_sum "Si O2"
_cell_formula_units_Z 64
_cell_length_a 20.966763
_cell_length_b 27.801368
_cell_length_c 5.526911
_cell_angle_alpha 90.000000
_cell_angle_beta 90.000000
_cell_angle_gamma 90.000000
_cell_volume 3221.662365
_symmetry_space_group_name_H-M "P N N A"
_symmetry_group_IT_number 52
_symmetry_cell_setting 'orthorhombic'
loop_
_space_group_symop_operation_xyz
x,y,z
1/2-x,-y,z
x,1/2-y,1/2-z
1/2-x,1/2+y,1/2-z
-x,-y,-z
1/2+x,y,-z
-x,1/2+y,1/2+z
1/2+x,1/2-y,1/2+z
loop_
_atom_site_type_symbol
_atom_site_label
_atom_site_fract_x
_atom_site_fract_y
_atom_site_fract_z
Si Si1 0.593750 0.945177 0.876921
Si Si2 0.308020 0.116692 0.864544
Si Si3 0.346706 0.201887 0.132570
Si Si4 0.514279 0.119811 0.867387
Si Si5 0.016876 0.724014 0.504468
Si Si6 0.868459 0.948109 0.881184
Si Si7 0.582804 0.630392 0.999054
Si Si8 0.711190 0.050174 0.381510
O O1 0.589203 0.922475 0.612283
O O2 0.592485 0.001953 0.871202
O O3 0.662744 0.926904 0.976025
O O4 0.536513 0.918965 0.022646
O O5 0.369717 0.134048 0.720672
O O6 0.257768 0.095021 0.678620
O O7 0.295378 0.164499 0.022204
O O8 0.318046 0.250000 0.250000
O O9 0.388742 0.168626 0.314039
O O10 0.405753 0.221331 0.972819
O O11 0.509451 0.169788 0.008381
O O12 0.582639 0.095847 0.869809
O O13 0.487936 0.134201 0.601677
O O14 0.993560 0.750000 0.750000
O O15 0.003046 0.750000 0.250000
O O16 0.823450 0.945952 0.642261
O O17 0.833316 0.949657 0.141329
O O18 0.750000 0.000000 0.384144
#
# Coordination Sequence:
#
# PCOD9409143 Si02
#       8
#     8   8   8   8   8   8   8   8
#     4  10  21  39  60  93 130 173 199 268 326 382
#     4  10  21  37  61  89 125 171 209 269 325 363
#     4  10  20  32  60  97 127 157 207 258 336 389
#     4  11  23  40  61  98 134 163 214 261 328 400
#     4  11  22  36  62  94 130 164 200 258 325 387
#     4  12  28  41  67  93 127 180 219 261 312 396
#     4  10  19  36  62  88 135 163 198 262 326 392
#     4  12  26  45  65  89 127 172 231 266 309 378
#
# _framework density 19.86552
#
# number of rings (size 3 to 8) (size 9 to 14) (size 15 to 20)
#    0.000    1.250    5.000    3.000    7.000    0.500 
#    0.000    0.000    0.000    0.750    3.250    0.000 
#    0.000    0.000    0.000    0.000    0.000    0.000 
#
# Total GULP energy -356706.608449 kJ/mol
# GULP energy per Si atom -5573.540757 kJ/mol
# Density = 1.982031 g / cm^3
# Si number density = 19.865520 Si / 1000 Ang^3
#
#
#
# Elastic Constant Matrix: (Units=GPa)
#
#
# Indices 1 2 3 4 5 6 
#
# 1 49.6190 22.7070 19.6812 0.0000 0.0000 0.0000
# 2 22.7070 102.7506 22.3069 0.0000 0.0000 0.0000
# 3 19.6812 22.3069 86.0318 0.0000 0.0000 0.0000
# 4 0.0000 0.0000 0.0000 31.9568 0.0000 0.0000
# 5 0.0000 0.0000 0.0000 0.0000 19.8606 0.0000
# 6 0.0000 0.0000 0.0000 0.0000 0.0000 18.2769
#
#
#
# Elastic Compliance Matrix: (Units=1/GPa)
#
#
# Indices 1 2 3 4 5 6 
#
# 1 0.023855 -0.004331 -0.004334 0.000000 0.000000 0.000000
# 2 -0.004331 0.011099 -0.001887 0.000000 0.000000 0.000000
# 3 -0.004334 -0.001887 0.013104 0.000000 0.000000 0.000000
# 4 0.000000 0.000000 0.000000 0.031292 0.000000 0.000000
# 5 0.000000 0.000000 0.000000 0.000000 0.050351 0.000000
# 6 0.000000 0.000000 0.000000 0.000000 0.000000 0.054714
#
#
# Mechanical properties :
#
#
# Convention : Reuss Voigt Hill
#
# Bulk Modulus (GPa) = 37.10029 40.86572 38.98301
# Shear Modulus (GPa) = 23.30961 25.59929 24.45445
#
# Velocity S-wave (km/s) = 3.42917 3.59364 3.51237
# Velocity P-wave (km/s) = 5.86474 6.15100 6.00958
#
# Compressibility (1/GPa) = 0.02695397
#
# Stress axis : x y z
#
# Youngs Moduli (GPa) = 41.92064 90.09786 76.31002
#
# Poissons Ratio (x) = 0.39019 0.33074
# Poissons Ratio (y) = 0.18155 0.14401
# Poissons Ratio (z) = 0.18169 0.17002
#
# Static dielectric constant tensor:
#      x y z
#    x 1.699230 0.000000 0.000000 
#    y 0.000000 1.735130 0.000000 
#    z 0.000000 0.000000 1.797520 
# 
# From -- ./inp_files/4625.got.cif
#   From: 2010.05.17/outbox.cif.g08.bks.cpg/sg52_3_cif.got.tgz:4625.got - 2010.06.03 12:15:38.
