data_PCOD9409719
_publ_section_title
;
Structure prediction by ZEFSAII (Michael W. Deem and Ramdas Pophale) SiO2 
 PCOD9409719
Probable space group: P N N A
;
_chemical_formula_sum "Si O2"
_cell_formula_units_Z 36
_cell_length_a 8.526712
_cell_length_b 12.227951
_cell_length_c 14.112217
_cell_angle_alpha 90.000000
_cell_angle_beta 90.000000
_cell_angle_gamma 90.000000
_cell_volume 1471.399249
_symmetry_space_group_name_H-M "P N N A"
_symmetry_group_IT_number 52
_symmetry_cell_setting 'orthorhombic'
loop_
_space_group_symop_operation_xyz
x,y,z
1/2-x,-y,z
x,1/2-y,1/2-z
1/2-x,1/2+y,1/2-z
-x,-y,-z
1/2+x,y,-z
-x,1/2+y,1/2+z
1/2+x,1/2-y,1/2+z
loop_
_atom_site_type_symbol
_atom_site_label
_atom_site_fract_x
_atom_site_fract_y
_atom_site_fract_z
Si Si1 0.244446 0.819823 0.892379
Si Si2 0.680590 0.250000 0.750000
Si Si3 0.898041 0.310006 0.594121
Si Si4 0.396011 0.384394 0.805002
Si Si5 0.575418 0.548482 0.904863
O O1 0.426224 0.849683 0.891794
O O2 0.216641 0.689127 0.871526
O O3 0.160454 0.873771 0.802469
O O4 0.172398 0.847301 0.994227
O O5 0.785777 0.327874 0.684251
O O6 0.561695 0.319142 0.814252
O O7 0.910259 0.177986 0.590956
O O8 0.446935 0.506123 0.829264
O O9 0.750000 0.500000 0.892083
O O10 0.500000 0.500000 0.000000
#
# Coordination Sequence:
#
# PCOD9409719 Si02
#       5
#     8   4   8   8   8
#     4  10  21  36  58  86 123 164 207 250 302 375
#     4  10  20  36  56  82 122 164 218 250 296 374
#     4  12  21  37  62  91 120 165 211 254 307 362
#     4  10  21  38  55  87 129 164 200 250 316 372
#     4  12  23  37  59  95 132 160 192 261 319 362
#
# _framework density 24.466505000000002
#
# number of rings (size 3 to 8) (size 9 to 14) (size 15 to 20)
#    0.000    1.333    4.444    5.333    0.000    0.000 
#    0.000    0.000    0.000    1.333    0.000    0.000 
#    0.000    1.778    0.000    0.000    0.000    0.000 
#
# Total GULP energy -201521.699026 kJ/mol
# GULP energy per Si atom -5597.824973 kJ/mol
# Density = 2.441082 g / cm^3
# Si number density = 24.466505 Si / 1000 Ang^3
#
#
#
# Elastic Constant Matrix: (Units=GPa)
#
#
# Indices 1 2 3 4 5 6 
#
# 1 151.5486 -9.5593 56.7747 0.0000 0.0000 0.0000
# 2 -9.5593 35.8336 -21.3193 0.0000 0.0000 0.0000
# 3 56.7747 -21.3193 120.2619 0.0000 0.0000 0.0000
# 4 0.0000 0.0000 0.0000 13.3214 0.0000 0.0000
# 5 0.0000 0.0000 0.0000 0.0000 40.9394 0.0000
# 6 0.0000 0.0000 0.0000 0.0000 0.0000 19.7737
#
#
#
# Elastic Compliance Matrix: (Units=1/GPa)
#
#
# Indices 1 2 3 4 5 6 
#
# 1 0.008017 -0.000126 -0.003807 0.000000 0.000000 0.000000
# 2 -0.000126 0.031199 0.005590 0.000000 0.000000 0.000000
# 3 -0.003807 0.005590 0.011104 0.000000 0.000000 0.000000
# 4 0.000000 0.000000 0.000000 0.075067 0.000000 0.000000
# 5 0.000000 0.000000 0.000000 0.000000 0.024426 0.000000
# 6 0.000000 0.000000 0.000000 0.000000 0.000000 0.050572
#
#
# Mechanical properties :
#
#
# Convention : Reuss Voigt Hill
#
# Bulk Modulus (GPa) = 18.64510 39.93737 29.29123
# Shear Modulus (GPa) = 23.26136 33.59011 28.42573
#
# Velocity S-wave (km/s) = 3.08676 3.70929 3.41225
# Velocity P-wave (km/s) = 4.51013 5.89099 5.24619
#
# Compressibility (1/GPa) = 0.05363340
#
# Stress axis : x y z
#
# Youngs Moduli (GPa) = 124.73772 32.05222 90.06143
#
# Poissons Ratio (x) = 0.00405 0.34287
# Poissons Ratio (y) = 0.01577 -0.50349
# Poissons Ratio (z) = 0.47489 -0.17919
#
# Static dielectric constant tensor:
#      x y z
#    x 1.949170 0.000000 0.000000 
#    y 0.000000 2.021850 0.000000 
#    z 0.000000 0.000000 1.953530 
# 
# From -- ./inp_files/24328.got.cif
#   From: 2010.05.17/outbox.cif.g08.bks.cpg/sg52_13_cif.got.tgz:24328.got - 2010.06.03 12:15:38.
