data_PCOD9409883
_publ_section_title
;
Structure prediction by ZEFSAII (Michael W. Deem and Ramdas Pophale) SiO2 
 PCOD9409883
Probable space group: P N N A
;
_chemical_formula_sum "Si O2"
_cell_formula_units_Z 44
_cell_length_a 22.606453
_cell_length_b 11.465226
_cell_length_c 8.289649
_cell_angle_alpha 90.000000
_cell_angle_beta 90.000000
_cell_angle_gamma 90.000000
_cell_volume 2148.578313
_symmetry_space_group_name_H-M "P N N A"
_symmetry_group_IT_number 52
_symmetry_cell_setting 'orthorhombic'
loop_
_space_group_symop_operation_xyz
x,y,z
1/2-x,-y,z
x,1/2-y,1/2-z
1/2-x,1/2+y,1/2-z
-x,-y,-z
1/2+x,y,-z
-x,1/2+y,1/2+z
1/2+x,1/2-y,1/2+z
loop_
_atom_site_type_symbol
_atom_site_label
_atom_site_fract_x
_atom_site_fract_y
_atom_site_fract_z
Si Si1 0.750000 0.000000 0.886778
Si Si2 0.935441 0.193893 0.901938
Si Si3 0.370999 0.506757 0.229669
Si Si4 0.716387 0.883145 0.202098
Si Si5 0.507982 0.382207 0.687321
Si Si6 0.401521 0.417628 0.891723
O O1 0.805352 0.959800 0.780835
O O2 0.728324 0.900363 0.012041
O O3 0.969293 0.250000 0.750000
O O4 0.885568 0.117730 0.813938
O O5 0.979045 0.118923 0.011250
O O6 0.910000 0.293569 0.017991
O O7 0.424330 0.582425 0.300753
O O8 0.380573 0.499709 0.037570
O O9 0.733434 0.750000 0.250000
O O10 0.648712 0.902306 0.256853
O O11 0.750000 0.000000 0.271870
O O12 0.504737 0.250000 0.750000
O O13 0.463558 0.451033 0.807981
#
# Coordination Sequence:
#
# PCOD9409883 Si02
#       6
#     4   8   8   8   8   8
#     4  10  24  38  60  86 130 160 214 256 326 382
#     4   9  19  35  62  86 111 157 213 258 314 387
#     4  11  21  37  56  91 116 162 201 263 311 385
#     4  10  22  42  65  90 123 168 220 261 323 382
#     4  10  20  37  58  87 124 155 203 265 324 380
#     4  10  20  37  65  85 117 162 217 252 321 392
#
# _framework density 20.478657999999999
#
# number of rings (size 3 to 8) (size 9 to 14) (size 15 to 20)
#    0.545    1.455    0.000    4.909    1.273    0.000 
#    3.273    3.636    0.000    0.000    0.000    0.000 
#    0.000    0.000    0.000    0.000    0.000    0.000 
#
# Total GULP energy -245138.488419 kJ/mol
# GULP energy per Si atom -5571.329282 kJ/mol
# Density = 2.043205 g / cm^3
# Si number density = 20.478658 Si / 1000 Ang^3
#
#
#
# Elastic Constant Matrix: (Units=GPa)
#
#
# Indices 1 2 3 4 5 6 
#
# 1 142.4838 10.3530 70.6798 0.0000 0.0000 0.0000
# 2 10.3530 42.3405 5.8865 0.0000 0.0000 0.0000
# 3 70.6798 5.8865 113.9941 0.0000 0.0000 0.0000
# 4 0.0000 0.0000 0.0000 20.8071 0.0000 0.0000
# 5 0.0000 0.0000 0.0000 0.0000 2.0281 0.0000
# 6 0.0000 0.0000 0.0000 0.0000 0.0000 19.2092
#
#
#
# Elastic Compliance Matrix: (Units=1/GPa)
#
#
# Indices 1 2 3 4 5 6 
#
# 1 0.010247 -0.001634 -0.006269 0.000000 0.000000 0.000000
# 2 -0.001634 0.024049 -0.000229 0.000000 0.000000 0.000000
# 3 -0.006269 -0.000229 0.012671 0.000000 0.000000 0.000000
# 4 0.000000 0.000000 0.000000 0.048060 0.000000 0.000000
# 5 0.000000 0.000000 0.000000 0.000000 0.493062 0.000000
# 6 0.000000 0.000000 0.000000 0.000000 0.000000 0.052058
#
#
# Mechanical properties :
#
#
# Convention : Reuss Voigt Hill
#
# Bulk Modulus (GPa) = 32.56910 52.51745 42.54328
# Shear Modulus (GPa) = 7.50024 22.53551 15.01788
#
# Velocity S-wave (km/s) = 1.91583 3.32089 2.71097
# Velocity P-wave (km/s) = 4.56425 6.35649 5.53341
#
# Compressibility (1/GPa) = 0.03070395
#
# Stress axis : x y z
#
# Youngs Moduli (GPa) = 97.59132 41.58111 78.91945
#
# Poissons Ratio (x) = 0.06794 0.49474
# Poissons Ratio (y) = 0.15946 0.01805
# Poissons Ratio (z) = 0.61180 0.00951
#
# Static dielectric constant tensor:
#      x y z
#    x 1.712170 0.000000 0.000000 
#    y 0.000000 1.811720 0.000000 
#    z 0.000000 0.000000 1.765380 
# 
# From -- ./inp_files/14159.got.cif
#   From: 2010.05.17/outbox.cif.g08.bks.cpg/sg52_8_cif.got.tgz:14159.got - 2010.06.03 12:15:38.
