data_PCOD9409706
_publ_section_title
;
Structure prediction by ZEFSAII (Michael W. Deem and Ramdas Pophale) SiO2 
 PCOD9409706
Probable space group: P N N A
;
_chemical_formula_sum "Si O2"
_cell_formula_units_Z 36
_cell_length_a 5.563563
_cell_length_b 15.357463
_cell_length_c 23.877843
_cell_angle_alpha 90.000000
_cell_angle_beta 90.000000
_cell_angle_gamma 90.000000
_cell_volume 2040.175746
_symmetry_space_group_name_H-M "P N N A"
_symmetry_group_IT_number 52
_symmetry_cell_setting 'orthorhombic'
loop_
_space_group_symop_operation_xyz
x,y,z
1/2-x,-y,z
x,1/2-y,1/2-z
1/2-x,1/2+y,1/2-z
-x,-y,-z
1/2+x,y,-z
-x,1/2+y,1/2+z
1/2+x,1/2-y,1/2+z
loop_
_atom_site_type_symbol
_atom_site_label
_atom_site_fract_x
_atom_site_fract_y
_atom_site_fract_z
Si Si1 0.075493 0.925427 0.638747
Si Si2 0.550837 0.401003 0.979211
Si Si3 0.750000 0.500000 0.764351
Si Si4 0.220207 0.678020 0.300172
Si Si5 0.226458 0.741540 0.682197
O O1 0.205663 0.837519 0.656902
O O2 0.900358 0.903172 0.587372
O O3 0.954250 0.966023 0.693513
O O4 0.250000 0.000000 0.616276
O O5 0.500000 0.500000 0.000000
O O6 0.285323 0.361110 0.990855
O O7 0.812288 0.416666 0.727053
O O8 0.230028 0.750000 0.250000
O O9 0.478901 0.689635 0.329789
O O10 0.979851 0.699470 0.334559
O O11 0.234982 0.750000 0.750000
#
# Coordination Sequence:
#
# PCOD9409706 Si02
#       5
#     8   8   4   8   8
#     4  12  22  31  57  73  96 153 188 199 274 317
#     4  10  20  36  46  70 108 124 175 234 241 299
#     4  12  22  32  56  74  94 158 188 204 270 320
#     4  10  20  36  46  68 108 122 177 232 242 295
#     4  10  20  36  45  70 106 125 172 235 240 299
#
# _framework density 17.645538999999999
#
# number of rings (size 3 to 8) (size 9 to 14) (size 15 to 20)
#    0.000    1.333    6.667    4.000    0.000    0.000 
#    0.000    0.000    0.000    0.000    0.000    0.000 
#    0.000    0.000    0.000   20.000    4.000    0.000 
#
# Total GULP energy -200586.855792 kJ/mol
# GULP energy per Si atom -5571.857105 kJ/mol
# Density = 1.760538 g / cm^3
# Si number density = 17.645539 Si / 1000 Ang^3
#
#
#
# Elastic Constant Matrix: (Units=GPa)
#
#
# Indices 1 2 3 4 5 6 
#
# 1 138.9065 14.5117 -0.7530 0.0000 0.0000 0.0000
# 2 14.5117 88.9539 21.1484 0.0000 0.0000 0.0000
# 3 -0.7530 21.1484 29.0756 0.0000 0.0000 0.0000
# 4 0.0000 0.0000 0.0000 2.5826 0.0000 0.0000
# 5 0.0000 0.0000 0.0000 0.0000 16.4571 0.0000
# 6 0.0000 0.0000 0.0000 0.0000 0.0000 -80.3833
#
#
#
# Elastic Compliance Matrix: (Units=1/GPa)
#
#
# Indices 1 2 3 4 5 6 
#
# 1 0.007364 -0.001507 0.001287 0.000000 0.000000 0.000000
# 2 -0.001507 0.013901 -0.010150 0.000000 0.000000 0.000000
# 3 0.001287 -0.010150 0.041809 0.000000 0.000000 0.000000
# 4 0.000000 0.000000 0.000000 0.387213 0.000000 0.000000
# 5 0.000000 0.000000 0.000000 0.000000 0.060764 0.000000
# 6 0.000000 0.000000 0.000000 0.000000 0.000000 -0.012440
#
#
# Mechanical properties :
#
#
# Convention : Reuss Voigt Hill
#
# Bulk Modulus (GPa) = 23.62218 36.30559 29.96389
# Shear Modulus (GPa) = 9.37275 2.53319 5.95297
#
# Velocity S-wave (km/s) = 2.30721 1.19946 1.83874
# Velocity P-wave (km/s) = 4.52921 4.74741 4.63959
#
# Compressibility (1/GPa) = 0.04233309
#
# Stress axis : x y z
#
# Youngs Moduli (GPa) = 135.80444 71.93845 23.91825
#
# Poissons Ratio (x) = 0.10843 -0.03078
# Poissons Ratio (y) = 0.20469 0.24277
# Poissons Ratio (z) = -0.17478 0.73017
#
# Static dielectric constant tensor:
#      x y z
#    x 1.750970 0.000000 0.000000 
#    y 0.000000 1.571490 0.000000 
#    z 0.000000 0.000000 2.721590 
# 
# From -- ./inp_files/34931.got.cif
#   From: 2010.05.17/outbox.cif.g08.bks.cpg/sg52_18_cif.got.tgz:34931.got - 2010.06.03 12:15:38.
