data_PCOD9409297
_publ_section_title
;
Structure prediction by ZEFSAII (Michael W. Deem and Ramdas Pophale) SiO2 
 PCOD9409297
Probable space group: P N N A
;
_chemical_formula_sum "Si O2"
_cell_formula_units_Z 36
_cell_length_a 8.074303
_cell_length_b 9.098804
_cell_length_c 23.268107
_cell_angle_alpha 90.000000
_cell_angle_beta 90.000000
_cell_angle_gamma 90.000000
_cell_volume 1709.426393
_symmetry_space_group_name_H-M "P N N A"
_symmetry_group_IT_number 52
_symmetry_cell_setting 'orthorhombic'
loop_
_space_group_symop_operation_xyz
x,y,z
1/2-x,-y,z
x,1/2-y,1/2-z
1/2-x,1/2+y,1/2-z
-x,-y,-z
1/2+x,y,-z
-x,1/2+y,1/2+z
1/2+x,1/2-y,1/2+z
loop_
_atom_site_type_symbol
_atom_site_label
_atom_site_fract_x
_atom_site_fract_y
_atom_site_fract_z
Si Si1 0.750000 0.000000 0.153860
Si Si2 0.432542 0.421403 0.265406
Si Si3 0.454901 0.653617 0.968567
Si Si4 0.608209 0.749120 0.428870
Si Si5 0.943664 0.490742 0.859383
O O1 0.676440 0.876946 0.111473
O O2 0.913641 0.944930 0.190039
O O3 0.250000 0.500000 0.278717
O O4 0.397390 0.250000 0.250000
O O5 0.508275 0.478992 0.204948
O O6 0.263691 0.668738 0.956555
O O7 0.529019 0.641874 0.904618
O O8 0.500000 0.500000 0.000000
O O9 0.502274 0.781050 0.013628
O O10 0.512046 0.863509 0.388867
O O11 0.750000 0.500000 0.852280
#
# Coordination Sequence:
#
# PCOD9409297 Si02
#       5
#     4   8   8   8   8
#     4  12  30  46  74 106 162 202 250 316 394 472
#     4  11  28  47  76 110 145 200 254 317 387 456
#     4  10  19  38  68 100 136 180 247 298 363 451
#     4  11  24  42  66 107 142 197 242 305 383 446
#     4  10  21  39  72  99 140 181 243 318 360 444
#
# _framework density 21.059695999999999
#
# number of rings (size 3 to 8) (size 9 to 14) (size 15 to 20)
#    0.000    1.333    0.000    6.667   12.444    0.889 
#    4.000    0.000    0.000    0.000    0.000    0.000 
#    0.000    0.000    0.000    0.000    0.000    0.000 
#
# Total GULP energy -200445.023508 kJ/mol
# GULP energy per Si atom -5567.917320 kJ/mol
# Density = 2.101176 g / cm^3
# Si number density = 21.059696 Si / 1000 Ang^3
#
#
#
# Elastic Constant Matrix: (Units=GPa)
#
#
# Indices 1 2 3 4 5 6 
#
# 1 92.2379 51.1759 51.9250 0.0000 0.0000 0.0000
# 2 51.1759 96.3145 42.5050 0.0000 0.0000 0.0000
# 3 51.9250 42.5050 124.7224 0.0000 0.0000 0.0000
# 4 0.0000 0.0000 0.0000 31.1437 0.0000 0.0000
# 5 0.0000 0.0000 0.0000 0.0000 17.0038 0.0000
# 6 0.0000 0.0000 0.0000 0.0000 0.0000 24.6441
#
#
#
# Elastic Compliance Matrix: (Units=1/GPa)
#
#
# Indices 1 2 3 4 5 6 
#
# 1 0.017568 -0.007188 -0.004864 0.000000 0.000000 0.000000
# 2 -0.007188 0.015162 -0.002175 0.000000 0.000000 0.000000
# 3 -0.004864 -0.002175 0.010784 0.000000 0.000000 0.000000
# 4 0.000000 0.000000 0.000000 0.032109 0.000000 0.000000
# 5 0.000000 0.000000 0.000000 0.000000 0.058810 0.000000
# 6 0.000000 0.000000 0.000000 0.000000 0.000000 0.040578
#
#
# Mechanical properties :
#
#
# Convention : Reuss Voigt Hill
#
# Bulk Modulus (GPa) = 66.40106 67.16516 66.78311
# Shear Modulus (GPa) = 23.98263 25.73624 24.85943
#
# Velocity S-wave (km/s) = 3.37826 3.49959 3.43946
# Velocity P-wave (km/s) = 6.84217 6.94921 6.89590
#
# Compressibility (1/GPa) = 0.01506000
#
# Stress axis : x y z
#
# Youngs Moduli (GPa) = 56.92200 65.95653 92.72976
#
# Poissons Ratio (x) = 0.47409 0.45107
# Poissons Ratio (y) = 0.40915 0.20164
# Poissons Ratio (z) = 0.27689 0.14342
#
# Static dielectric constant tensor:
#      x y z
#    x 1.783010 0.000000 0.000000 
#    y 0.000000 1.830550 0.000000 
#    z 0.000000 0.000000 0.817130 
# 
# From -- ./inp_files/35573.got.cif
#   From: 2010.05.17/outbox.cif.g08.bks.cpg/sg52_18_cif.got.tgz:35573.got - 2010.06.03 12:15:38.
