data_PCOD9409593
_publ_section_title
;
Structure prediction by ZEFSAII (Michael W. Deem and Ramdas Pophale) SiO2 
 PCOD9409593
Probable space group: P N N A
;
_chemical_formula_sum "Si O2"
_cell_formula_units_Z 64
_cell_length_a 22.604448
_cell_length_b 22.444734
_cell_length_c 5.739823
_cell_angle_alpha 90.000000
_cell_angle_beta 90.000000
_cell_angle_gamma 90.000000
_cell_volume 2912.103920
_symmetry_space_group_name_H-M "P N N A"
_symmetry_group_IT_number 52
_symmetry_cell_setting 'orthorhombic'
loop_
_space_group_symop_operation_xyz
x,y,z
1/2-x,-y,z
x,1/2-y,1/2-z
1/2-x,1/2+y,1/2-z
-x,-y,-z
1/2+x,y,-z
-x,1/2+y,1/2+z
1/2+x,1/2-y,1/2+z
loop_
_atom_site_type_symbol
_atom_site_label
_atom_site_fract_x
_atom_site_fract_y
_atom_site_fract_z
Si Si1 0.288554 0.315633 0.232931
Si Si2 0.562804 0.980596 0.268176
Si Si3 0.457201 0.914989 0.100698
Si Si4 0.677963 0.199387 0.068256
Si Si5 0.832094 0.428038 0.499890
Si Si6 0.235203 0.394142 0.852875
Si Si7 0.648341 0.033793 0.658022
Si Si8 0.040579 0.280386 0.497514
O O1 0.316058 0.250000 0.250000
O O2 0.225273 0.308371 0.363652
O O3 0.325462 0.365909 0.366154
O O4 0.273825 0.343467 0.982419
O O5 0.502349 0.943616 0.289745
O O6 0.604980 0.937050 0.120054
O O7 0.603331 0.000515 0.482311
O O8 0.547099 0.038850 0.114350
O O9 0.476479 0.850013 0.017922
O O10 0.392116 0.916658 0.215216
O O11 0.698361 0.250000 0.250000
O O12 0.682880 0.137857 0.210038
O O13 0.612464 0.217525 0.996387
O O14 0.779410 0.428600 0.314228
O O15 0.828027 0.484319 0.667646
O O16 0.296795 0.564163 0.034982
O O17 0.021938 0.250000 0.250000
O O18 0.024251 0.250000 0.750000
#
# Coordination Sequence:
#
# PCOD9409593 Si02
#       8
#     8   8   8   8   8   8   8   8
#     4  11  21  37  60  87 126 177 222 269 336 416
#     4  10  22  44  68  94 131 172 233 292 339 411
#     4  10  23  42  70 100 127 177 232 286 354 413
#     4  10  20  34  59  93 128 172 217 270 340 420
#     4  10  25  41  59  95 127 175 223 273 346 409
#     4  11  23  38  64  93 138 170 216 283 337 422
#     4  11  23  41  68  98 128 177 225 290 348 413
#     4  11  25  41  66 102 143 176 222 286 359 425
#
# _framework density 21.977236999999999
#
# number of rings (size 3 to 8) (size 9 to 14) (size 15 to 20)
#    0.000    1.500    1.250    3.000    7.000    6.000 
#    0.000    0.625    2.750    0.000    0.000    0.000 
#    0.000    0.000    0.000    0.000    0.000    0.000 
#
# Total GULP energy -357807.196057 kJ/mol
# GULP energy per Si atom -5590.737438 kJ/mol
# Density = 2.192722 g / cm^3
# Si number density = 21.977237 Si / 1000 Ang^3
#
#
#
# Elastic Constant Matrix: (Units=GPa)
#
#
# Indices 1 2 3 4 5 6 
#
# 1 44.6595 36.9651 15.5798 0.0000 0.0000 0.0000
# 2 36.9651 97.3915 31.4441 0.0000 0.0000 0.0000
# 3 15.5798 31.4441 76.8095 0.0000 0.0000 0.0000
# 4 0.0000 0.0000 0.0000 35.7304 0.0000 0.0000
# 5 0.0000 0.0000 0.0000 0.0000 25.1416 0.0000
# 6 0.0000 0.0000 0.0000 0.0000 0.0000 13.4157
#
#
#
# Elastic Compliance Matrix: (Units=1/GPa)
#
#
# Indices 1 2 3 4 5 6 
#
# 1 0.032862 -0.011893 -0.001797 0.000000 0.000000 0.000000
# 2 -0.011893 0.016136 -0.004193 0.000000 0.000000 0.000000
# 3 -0.001797 -0.004193 0.015100 0.000000 0.000000 0.000000
# 4 0.000000 0.000000 0.000000 0.027987 0.000000 0.000000
# 5 0.000000 0.000000 0.000000 0.000000 0.039775 0.000000
# 6 0.000000 0.000000 0.000000 0.000000 0.000000 0.074540
#
#
# Mechanical properties :
#
#
# Convention : Reuss Voigt Hill
#
# Bulk Modulus (GPa) = 35.29559 42.98204 39.13881
# Shear Modulus (GPa) = 19.87202 23.84898 21.86050
#
# Velocity S-wave (km/s) = 3.01027 3.29776 3.15729
# Velocity P-wave (km/s) = 5.30822 5.83955 5.58021
#
# Compressibility (1/GPa) = 0.02833215
#
# Stress axis : x y z
#
# Youngs Moduli (GPa) = 30.42997 61.97479 66.22359
#
# Poissons Ratio (x) = 0.73705 0.11901
# Poissons Ratio (y) = 0.36190 0.27769
# Poissons Ratio (z) = 0.05468 0.25988
#
# Static dielectric constant tensor:
#      x y z
#    x 1.773910 0.000000 0.000000 
#    y 0.000000 1.766070 0.000000 
#    z 0.000000 0.000000 1.871650 
# 
# From -- ./inp_files/6024.got.cif
#   From: 2010.05.17/outbox.cif.g08.bks.cpg/sg52_4_cif.got.tgz:6024.got - 2010.06.03 12:15:38.
