data_PCOD9409910
_publ_section_title
;
Structure prediction by ZEFSAII (Michael W. Deem and Ramdas Pophale) SiO2 
 PCOD9409910
Probable space group: P N N A
;
_chemical_formula_sum "Si O2"
_cell_formula_units_Z 32
_cell_length_a 13.900346
_cell_length_b 9.644878
_cell_length_c 11.935481
_cell_angle_alpha 90.000000
_cell_angle_beta 90.000000
_cell_angle_gamma 90.000000
_cell_volume 1600.155818
_symmetry_space_group_name_H-M "P N N A"
_symmetry_group_IT_number 52
_symmetry_cell_setting 'orthorhombic'
loop_
_space_group_symop_operation_xyz
x,y,z
1/2-x,-y,z
x,1/2-y,1/2-z
1/2-x,1/2+y,1/2-z
-x,-y,-z
1/2+x,y,-z
-x,1/2+y,1/2+z
1/2+x,1/2-y,1/2+z
loop_
_atom_site_type_symbol
_atom_site_label
_atom_site_fract_x
_atom_site_fract_y
_atom_site_fract_z
Si Si1 0.924637 0.514856 0.098081
Si Si2 0.381895 0.824635 0.978156
Si Si3 0.988078 0.060723 0.156403
Si Si4 0.802597 0.250153 0.123200
O O1 0.891915 0.671766 0.076536
O O2 0.980193 0.479846 0.213561
O O3 0.837191 0.404416 0.090524
O O4 0.000000 0.500000 0.000000
O O5 0.267784 0.836102 0.957463
O O6 0.453271 0.922546 0.907434
O O7 0.417696 0.865177 0.103502
O O8 0.902557 0.168364 0.132759
O O9 0.760909 0.250000 0.250000
#
# Coordination Sequence:
#
# PCOD9409910 Si02
#       4
#     8   8   8   8
#     4  11  21  37  61  89 122 160 205 251 311 367
#     4  11  21  36  61  89 120 159 201 255 312 362
#     4  10  22  37  59  92 123 158 203 258 307 369
#     4  10  20  37  61  91 117 154 208 256 302 373
#
# _framework density 19.998052999999999
#
# number of rings (size 3 to 8) (size 9 to 14) (size 15 to 20)
#    0.000    1.500    2.500    3.750    0.000    4.000 
#    0.000    0.000    0.000   21.000    0.000    0.000 
#    0.000    0.000    0.000    0.000    0.000    0.000 
#
# Total GULP energy -178175.743718 kJ/mol
# GULP energy per Si atom -5567.991991 kJ/mol
# Density = 1.995254 g / cm^3
# Si number density = 19.998053 Si / 1000 Ang^3
#
#
#
# Elastic Constant Matrix: (Units=GPa)
#
#
# Indices 1 2 3 4 5 6 
#
# 1 35.8250 16.3966 26.7919 0.0000 0.0000 0.0000
# 2 16.3966 143.1548 20.8822 0.0000 0.0000 0.0000
# 3 26.7919 20.8822 88.2747 0.0000 0.0000 0.0000
# 4 0.0000 0.0000 0.0000 20.6686 0.0000 0.0000
# 5 0.0000 0.0000 0.0000 0.0000 27.1615 0.0000
# 6 0.0000 0.0000 0.0000 0.0000 0.0000 24.6566
#
#
#
# Elastic Compliance Matrix: (Units=1/GPa)
#
#
# Indices 1 2 3 4 5 6 
#
# 1 0.037090 -0.002699 -0.010619 0.000000 0.000000 0.000000
# 2 -0.002699 0.007432 -0.000939 0.000000 0.000000 0.000000
# 3 -0.010619 -0.000939 0.014773 0.000000 0.000000 0.000000
# 4 0.000000 0.000000 0.000000 0.048383 0.000000 0.000000
# 5 0.000000 0.000000 0.000000 0.000000 0.036817 0.000000
# 6 0.000000 0.000000 0.000000 0.000000 0.000000 0.040557
#
#
# Mechanical properties :
#
#
# Convention : Reuss Voigt Hill
#
# Bulk Modulus (GPa) = 32.48690 43.93287 38.20989
# Shear Modulus (GPa) = 22.33890 28.04292 25.19091
#
# Velocity S-wave (km/s) = 3.34586 3.74877 3.55303
# Velocity P-wave (km/s) = 5.58629 6.38388 5.99836
#
# Compressibility (1/GPa) = 0.03078164
#
# Stress axis : x y z
#
# Youngs Moduli (GPa) = 26.96144 134.56141 67.69045
#
# Poissons Ratio (x) = 0.36322 0.71877
# Poissons Ratio (y) = 0.07278 0.06355
# Poissons Ratio (z) = 0.28629 0.12632
#
# Static dielectric constant tensor:
#      x y z
#    x 2.363270 0.000000 0.000000 
#    y 0.000000 1.882560 0.000000 
#    z 0.000000 0.000000 0.646660 
# 
# From -- ./inp_files/18866.got.cif
#   From: 2010.05.17/outbox.cif.g08.bks.cpg/sg52_10_cif.got.tgz:18866.got - 2010.06.03 12:15:38.
