data_PCOD9409599
_publ_section_title
;
Structure prediction by ZEFSAII (Michael W. Deem and Ramdas Pophale) SiO2 
 PCOD9409599
Probable space group: P N N A
;
_chemical_formula_sum "Si O2"
_cell_formula_units_Z 48
_cell_length_a 18.903972
_cell_length_b 8.708947
_cell_length_c 15.450761
_cell_angle_alpha 90.000000
_cell_angle_beta 90.000000
_cell_angle_gamma 90.000000
_cell_volume 2543.715800
_symmetry_space_group_name_H-M "P N N A"
_symmetry_group_IT_number 52
_symmetry_cell_setting 'orthorhombic'
loop_
_space_group_symop_operation_xyz
x,y,z
1/2-x,-y,z
x,1/2-y,1/2-z
1/2-x,1/2+y,1/2-z
-x,-y,-z
1/2+x,y,-z
-x,1/2+y,1/2+z
1/2+x,1/2-y,1/2+z
loop_
_atom_site_type_symbol
_atom_site_label
_atom_site_fract_x
_atom_site_fract_y
_atom_site_fract_z
Si Si1 0.325604 0.917577 0.098775
Si Si2 0.436645 0.396872 0.902941
Si Si3 0.054939 0.076688 0.766776
Si Si4 0.614857 0.922967 0.737170
Si Si5 0.426281 0.449221 0.544851
Si Si6 0.605650 0.090489 0.565543
O O1 0.344575 0.739458 0.077101
O O2 0.250000 0.000000 0.094556
O O3 0.353324 0.956950 0.195007
O O4 0.370120 0.004416 0.026018
O O5 0.420355 0.456819 0.806647
O O6 0.415030 0.228090 0.931700
O O7 0.522482 0.382432 0.911167
O O8 0.402247 0.517625 0.970328
O O9 0.079389 0.250000 0.750000
O O10 0.969330 0.077517 0.757356
O O11 0.076084 0.033620 0.863302
O O12 0.641842 0.750000 0.750000
O O13 0.628778 0.970098 0.638702
O O14 0.500000 0.500000 0.500000
#
# Coordination Sequence:
#
# PCOD9409599 Si02
#       6
#     8   8   8   8   8   8
#     4  12  25  39  56  86 127 170 205 250 313 383
#     4  10  20  35  63  93 116 152 202 268 313 357
#     4  10  20  34  61  93 123 149 199 263 321 365
#     4  10  20  35  57  89 123 162 203 244 305 381
#     4  12  21  37  61  86 119 159 209 259 305 370
#     4  10  20  36  60  88 124 155 206 252 310 367
#
# _framework density 18.870031000000001
#
# number of rings (size 3 to 8) (size 9 to 14) (size 15 to 20)
#    0.000    1.333    3.333    3.000    4.667    4.000 
#    0.000    2.500    0.000    6.000    0.000    0.000 
#    0.000    0.000    0.000    0.000    0.000    0.000 
#
# Total GULP energy -267621.190209 kJ/mol
# GULP energy per Si atom -5575.441463 kJ/mol
# Density = 1.882708 g / cm^3
# Si number density = 18.870031 Si / 1000 Ang^3
#
#
#
# Elastic Constant Matrix: (Units=GPa)
#
#
# Indices 1 2 3 4 5 6 
#
# 1 32.9224 19.7618 20.5600 0.0000 0.0000 0.0000
# 2 19.7618 87.7718 1.8927 0.0000 0.0000 0.0000
# 3 20.5600 1.8927 102.2312 0.0000 0.0000 0.0000
# 4 0.0000 0.0000 0.0000 34.8393 0.0000 0.0000
# 5 0.0000 0.0000 0.0000 0.0000 8.6026 0.0000
# 6 0.0000 0.0000 0.0000 0.0000 0.0000 16.6097
#
#
#
# Elastic Compliance Matrix: (Units=1/GPa)
#
#
# Indices 1 2 3 4 5 6 
#
# 1 0.040806 -0.009014 -0.008040 0.000000 0.000000 0.000000
# 2 -0.009014 0.013389 0.001565 0.000000 0.000000 0.000000
# 3 -0.008040 0.001565 0.011370 0.000000 0.000000 0.000000
# 4 0.000000 0.000000 0.000000 0.028703 0.000000 0.000000
# 5 0.000000 0.000000 0.000000 0.000000 0.116243 0.000000
# 6 0.000000 0.000000 0.000000 0.000000 0.000000 0.060206
#
#
# Mechanical properties :
#
#
# Convention : Reuss Voigt Hill
#
# Bulk Modulus (GPa) = 28.91267 34.15050 31.53158
# Shear Modulus (GPa) = 15.96302 24.05772 20.01037
#
# Velocity S-wave (km/s) = 2.91167 3.57447 3.25996
# Velocity P-wave (km/s) = 5.16324 5.93067 5.56021
#
# Compressibility (1/GPa) = 0.03458691
#
# Stress axis : x y z
#
# Youngs Moduli (GPa) = 24.50618 74.68839 87.95335
#
# Poissons Ratio (x) = 0.67325 0.70712
# Poissons Ratio (y) = 0.22090 -0.13764
# Poissons Ratio (z) = 0.19702 -0.11689
#
# Static dielectric constant tensor:
#      x y z
#    x 1.625050 0.000000 0.000000 
#    y 0.000000 1.633350 0.000000 
#    z 0.000000 0.000000 1.629940 
# 
# From -- ./inp_files/28051.got.cif
#   From: 2010.05.17/outbox.cif.g08.bks.cpg/sg52_15_cif.got.tgz:28051.got - 2010.06.03 12:15:38.
