data_PCOD9409144
_publ_section_title
;
Structure prediction by ZEFSAII (Michael W. Deem and Ramdas Pophale) SiO2 
 PCOD9409144
Probable space group: P N N A
;
_chemical_formula_sum "Si O2"
_cell_formula_units_Z 48
_cell_length_a 12.996248
_cell_length_b 15.224463
_cell_length_c 11.719271
_cell_angle_alpha 90.000000
_cell_angle_beta 90.000000
_cell_angle_gamma 90.000000
_cell_volume 2318.785470
_symmetry_space_group_name_H-M "P N N A"
_symmetry_group_IT_number 52
_symmetry_cell_setting 'orthorhombic'
loop_
_space_group_symop_operation_xyz
x,y,z
1/2-x,-y,z
x,1/2-y,1/2-z
1/2-x,1/2+y,1/2-z
-x,-y,-z
1/2+x,y,-z
-x,1/2+y,1/2+z
1/2+x,1/2-y,1/2+z
loop_
_atom_site_type_symbol
_atom_site_label
_atom_site_fract_x
_atom_site_fract_y
_atom_site_fract_z
Si Si1 0.883669 0.573481 0.528719
Si Si2 0.250000 0.500000 0.834897
Si Si3 0.188727 0.750000 0.750000
Si Si4 0.989735 0.780877 0.119471
Si Si5 0.173335 0.161704 0.555535
Si Si6 0.727930 0.784673 0.877489
Si Si7 0.399650 0.422351 0.642149
O O1 0.794757 0.630217 0.588691
O O2 0.861617 0.479989 0.468134
O O3 0.923487 0.635902 0.423439
O O4 0.977923 0.567756 0.619586
O O5 0.186425 0.439040 0.921231
O O6 0.338782 0.465004 0.748732
O O7 0.265391 0.800017 0.665175
O O8 0.125673 0.680471 0.670941
O O9 0.979885 0.750000 0.250000
O O10 0.108104 0.800731 0.098378
O O11 0.941646 0.699146 0.051136
O O12 0.232947 0.203317 0.451585
O O13 0.739483 0.750000 0.750000
#
# Coordination Sequence:
#
# PCOD9409144 Si02
#       7
#     8   4   4   8   8   8   8
#     4  10  22  38  61  95 134 167 219 282 339 408
#     4  10  22  38  68  94 130 162 228 292 328 398
#     4  10  20  36  66  94 122 162 220 278 334 394
#     4  10  19  36  62  90 125 172 219 261 332 404
#     4  10  20  39  64  90 124 168 219 272 330 400
#     4  10  23  40  65  92 133 178 219 267 340 416
#     4  10  22  36  61  98 128 161 213 281 342 390
#
# _framework density 20.700493000000002
#
# number of rings (size 3 to 8) (size 9 to 14) (size 15 to 20)
#    0.000    2.000    0.833    2.000   10.500    0.000 
#    3.000    0.833   18.333    0.000    0.000    0.000 
#    0.000    0.000    0.000    0.000    0.000    0.000 
#
# Total GULP energy -267367.156283 kJ/mol
# GULP energy per Si atom -5570.149089 kJ/mol
# Density = 2.065338 g / cm^3
# Si number density = 20.700493 Si / 1000 Ang^3
#
#
#
# Elastic Constant Matrix: (Units=GPa)
#
#
# Indices 1 2 3 4 5 6 
#
# 1 120.5585 51.6536 42.1136 0.0000 0.0000 0.0000
# 2 51.6536 106.1972 30.0852 0.0000 0.0000 0.0000
# 3 42.1136 30.0852 84.1190 0.0000 0.0000 0.0000
# 4 0.0000 0.0000 0.0000 -32.3188 0.0000 0.0000
# 5 0.0000 0.0000 0.0000 0.0000 -6.4934 0.0000
# 6 0.0000 0.0000 0.0000 0.0000 0.0000 1398.0783
#
#
#
# Elastic Compliance Matrix: (Units=1/GPa)
#
#
# Indices 1 2 3 4 5 6 
#
# 1 0.011703 -0.004487 -0.004254 0.000000 0.000000 0.000000
# 2 -0.004487 0.012199 -0.002116 0.000000 0.000000 0.000000
# 3 -0.004254 -0.002116 0.014775 0.000000 0.000000 0.000000
# 4 0.000000 0.000000 0.000000 -0.030942 0.000000 0.000000
# 5 0.000000 0.000000 0.000000 0.000000 -0.154004 0.000000
# 6 0.000000 0.000000 0.000000 0.000000 0.000000 0.000715
#
#
# Mechanical properties :
#
#
# Convention : Reuss Voigt Hill
#
# Bulk Modulus (GPa) = 58.95919 62.06437 60.51178
# Shear Modulus (GPa) = -42.30700 284.32139 121.00720
#
# Velocity S-wave (km/s) = -4.52571 11.73236 7.65396
# Velocity P-wave (km/s) = 1.11106 14.61431 10.36370
#
# Compressibility (1/GPa) = 0.01696088
#
# Stress axis : x y z
#
# Youngs Moduli (GPa) = 85.44496 81.97697 67.68301
#
# Poissons Ratio (x) = 0.36785 0.28795
# Poissons Ratio (y) = 0.38341 0.14324
# Poissons Ratio (z) = 0.36352 0.17349
#
# Static dielectric constant tensor:
#      x y z
#    x 1.777430 0.000000 0.000000 
#    y 0.000000 1.840450 0.000000 
#    z 0.000000 0.000000 1.874330 
# 
# From -- ./inp_files/18234.got.cif
#   From: 2010.05.17/outbox.cif.g08.bks.cpg/sg52_10_cif.got.tgz:18234.got - 2010.06.03 12:15:38.
