data_PCOD9409813
_publ_section_title
;
Structure prediction by ZEFSAII (Michael W. Deem and Ramdas Pophale) SiO2 
 PCOD9409813
Probable space group: P N N A
;
_chemical_formula_sum "Si O2"
_cell_formula_units_Z 56
_cell_length_a 12.248690
_cell_length_b 13.776710
_cell_length_c 13.508928
_cell_angle_alpha 90.000000
_cell_angle_beta 90.000000
_cell_angle_gamma 90.000000
_cell_volume 2279.586345
_symmetry_space_group_name_H-M "P N N A"
_symmetry_group_IT_number 52
_symmetry_cell_setting 'orthorhombic'
loop_
_space_group_symop_operation_xyz
x,y,z
1/2-x,-y,z
x,1/2-y,1/2-z
1/2-x,1/2+y,1/2-z
-x,-y,-z
1/2+x,y,-z
-x,1/2+y,1/2+z
1/2+x,1/2-y,1/2+z
loop_
_atom_site_type_symbol
_atom_site_label
_atom_site_fract_x
_atom_site_fract_y
_atom_site_fract_z
Si Si1 0.525438 0.697492 0.055968
Si Si2 0.449527 0.481088 0.393101
Si Si3 0.857876 0.561316 0.250376
Si Si4 0.622131 0.736248 0.640788
Si Si5 0.749711 0.225424 0.119899
Si Si6 0.827746 0.661710 0.577477
Si Si7 0.150541 0.424500 0.971065
O O1 0.578077 0.695672 0.945542
O O2 0.442782 0.604136 0.051200
O O3 0.626190 0.731111 0.127877
O O4 0.443745 0.787807 0.061605
O O5 0.500000 0.500000 0.500000
O O6 0.547463 0.482040 0.316294
O O7 0.405623 0.372983 0.387735
O O8 0.356729 0.560121 0.373678
O O9 0.750000 0.500000 0.261405
O O10 0.813930 0.666150 0.293163
O O11 0.893524 0.543593 0.136567
O O12 0.576073 0.750000 0.750000
O O13 0.752728 0.735185 0.639295
O O14 0.694776 0.320109 0.069207
O O15 0.733926 0.150202 0.028001
O O16 0.250000 0.500000 0.998233
#
# Coordination Sequence:
#
# PCOD9409813 Si02
#       7
#     8   8   8   8   8   8   8
#     4  10  20  38  62  87 118 164 226 267 329 395
#     4  12  20  35  61  94 127 165 215 273 330 407
#     4  11  22  34  59  92 132 157 204 266 338 398
#     4  11  23  38  59  88 136 176 212 268 343 414
#     4  10  20  36  62  87 122 164 210 269 327 399
#     4  10  21  36  58  93 121 161 213 270 322 404
#     4  10  22  39  56  87 124 166 216 272 328 391
#
# _framework density 24.565860000000001
#
# number of rings (size 3 to 8) (size 9 to 14) (size 15 to 20)
#    0.000    1.429    2.857    3.429    2.000    0.571 
#    0.000    4.286    0.000   17.143    0.000    0.000 
#    0.000    0.000    0.000    0.000    0.000    0.000 
#
# Total GULP energy -312104.406933 kJ/mol
# GULP energy per Si atom -5573.292981 kJ/mol
# Density = 2.450995 g / cm^3
# Si number density = 24.565860 Si / 1000 Ang^3
#
#
#
# Elastic Constant Matrix: (Units=GPa)
#
#
# Indices 1 2 3 4 5 6 
#
# 1 127.7947 38.6651 23.2482 0.0000 0.0000 0.0000
# 2 38.6651 106.9624 9.4304 0.0000 0.0000 0.0000
# 3 23.2482 9.4304 13.7000 0.0000 0.0000 0.0000
# 4 0.0000 0.0000 0.0000 18.3441 0.0000 0.0000
# 5 0.0000 0.0000 0.0000 0.0000 24.0945 0.0000
# 6 0.0000 0.0000 0.0000 0.0000 0.0000 -42.3662
#
#
#
# Elastic Compliance Matrix: (Units=1/GPa)
#
#
# Indices 1 2 3 4 5 6 
#
# 1 0.012015 -0.002710 -0.018523 0.000000 0.000000 0.000000
# 2 -0.002710 0.010564 -0.002673 0.000000 0.000000 0.000000
# 3 -0.018523 -0.002673 0.106265 0.000000 0.000000 0.000000
# 4 0.000000 0.000000 0.000000 0.054513 0.000000 0.000000
# 5 0.000000 0.000000 0.000000 0.000000 0.041503 0.000000
# 6 0.000000 0.000000 0.000000 0.000000 0.000000 -0.023604
#
#
# Mechanical properties :
#
#
# Convention : Reuss Voigt Hill
#
# Bulk Modulus (GPa) = 12.34079 43.46048 27.90064
# Shear Modulus (GPa) = 18.11071 11.82204 14.96637
#
# Velocity S-wave (km/s) = 2.71814 2.19610 2.47095
# Velocity P-wave (km/s) = 3.85818 4.91531 4.41847
#
# Compressibility (1/GPa) = 0.08103209
#
# Stress axis : x y z
#
# Youngs Moduli (GPa) = 83.23188 94.65768 9.41043
#
# Poissons Ratio (x) = 0.25652 0.17431
# Poissons Ratio (y) = 0.22556 0.02516
# Poissons Ratio (z) = 1.54169 0.25304
#
# Static dielectric constant tensor:
#      x y z
#    x 2.984770 0.000000 0.000000 
#    y 0.000000 2.055270 0.000000 
#    z 0.000000 0.000000 2.080450 
# 
# From -- ./inp_files/26149.got.cif
#   From: 2010.05.17/outbox.cif.g08.bks.cpg/sg52_14_cif.got.tgz:26149.got - 2010.06.03 12:15:38.
