data_PCOD9409913
_publ_section_title
;
Structure prediction by ZEFSAII (Michael W. Deem and Ramdas Pophale) SiO2 
 PCOD9409913
Probable space group: P N N A
;
_chemical_formula_sum "Si O2"
_cell_formula_units_Z 64
_cell_length_a 17.951732
_cell_length_b 13.071225
_cell_length_c 13.030776
_cell_angle_alpha 90.000000
_cell_angle_beta 90.000000
_cell_angle_gamma 90.000000
_cell_volume 3057.686289
_symmetry_space_group_name_H-M "P N N A"
_symmetry_group_IT_number 52
_symmetry_cell_setting 'orthorhombic'
loop_
_space_group_symop_operation_xyz
x,y,z
1/2-x,-y,z
x,1/2-y,1/2-z
1/2-x,1/2+y,1/2-z
-x,-y,-z
1/2+x,y,-z
-x,1/2+y,1/2+z
1/2+x,1/2-y,1/2+z
loop_
_atom_site_type_symbol
_atom_site_label
_atom_site_fract_x
_atom_site_fract_y
_atom_site_fract_z
Si Si1 0.317573 0.759066 0.358363
Si Si2 0.518499 0.921649 0.713737
Si Si3 0.088743 0.665620 0.010528
Si Si4 0.901943 0.887937 0.990709
Si Si5 0.430426 0.107205 0.049746
Si Si6 0.631243 0.297919 0.149900
Si Si7 0.756500 0.389762 0.019528
Si Si8 0.023187 0.155304 0.326926
O O1 0.279409 0.750000 0.250000
O O2 0.358018 0.655445 0.393375
O O3 0.261010 0.801276 0.439642
O O4 0.388276 0.835133 0.346860
O O5 0.572474 0.892807 0.617744
O O6 0.548945 0.899332 0.828498
O O7 0.444225 0.855683 0.685854
O O8 0.503985 0.043134 0.714345
O O9 0.105652 0.783561 0.033214
O O10 0.158343 0.620885 0.947962
O O11 0.017142 0.662152 0.936809
O O12 0.885714 0.009274 0.993737
O O13 0.884618 0.800195 0.075898
O O14 0.991417 0.888894 0.987278
O O15 0.667563 0.250000 0.250000
O O16 0.690222 0.375076 0.100338
O O17 0.750000 0.500000 0.968797
O O18 0.004031 0.250000 0.250000
#
# Coordination Sequence:
#
# PCOD9409913 Si02
#       8
#     8   8   8   8   8   8   8   8
#     4  10  20  40  61  87 118 164 202 242 307 371
#     4  12  22  37  66  96 119 157 206 261 313 368
#     4  12  23  40  59  94 128 156 206 262 303 361
#     4  10  20  37  61  91 126 155 195 255 314 364
#     4  11  21  36  63  96 122 154 199 259 316 357
#     4  11  21  42  64  88 121 170 211 249 310 377
#     4  11  25  42  60  85 125 170 202 249 303 365
#     4  11  23  38  63  92 122 156 205 259 312 366
#
# _framework density 20.930857
#
# number of rings (size 3 to 8) (size 9 to 14) (size 15 to 20)
#    0.000    1.000    3.750    4.500    1.750    1.500 
#    0.000    3.750    0.000    0.000    0.000    0.000 
#    0.000    0.000    0.000    0.000    0.000    0.000 
#
# Total GULP energy -356906.878531 kJ/mol
# GULP energy per Si atom -5576.669977 kJ/mol
# Density = 2.088322 g / cm^3
# Si number density = 20.930857 Si / 1000 Ang^3
#
#
#
# Elastic Constant Matrix: (Units=GPa)
#
#
# Indices 1 2 3 4 5 6 
#
# 1 40.6880 11.6305 1.9630 0.0000 0.0000 0.0000
# 2 11.6305 129.4391 17.1243 0.0000 0.0000 0.0000
# 3 1.9630 17.1243 25.0969 0.0000 0.0000 0.0000
# 4 0.0000 0.0000 0.0000 23.1923 0.0000 0.0000
# 5 0.0000 0.0000 0.0000 0.0000 -0.7545 0.0000
# 6 0.0000 0.0000 0.0000 0.0000 0.0000 2.8918
#
#
#
# Elastic Compliance Matrix: (Units=1/GPa)
#
#
# Indices 1 2 3 4 5 6 
#
# 1 0.025230 -0.002205 -0.000469 0.000000 0.000000 0.000000
# 2 -0.002205 0.008685 -0.005753 0.000000 0.000000 0.000000
# 3 -0.000469 -0.005753 0.043808 0.000000 0.000000 0.000000
# 4 0.000000 0.000000 0.000000 0.043118 0.000000 0.000000
# 5 0.000000 0.000000 0.000000 0.000000 -1.325408 0.000000
# 6 0.000000 0.000000 0.000000 0.000000 0.000000 0.345802
#
#
# Mechanical properties :
#
#
# Convention : Reuss Voigt Hill
#
# Bulk Modulus (GPa) = 16.42890 28.51773 22.47331
# Shear Modulus (GPa) = -6.08553 16.03301 4.97374
#
# Velocity S-wave (km/s) = -1.70697 2.77067 1.54319
# Velocity P-wave (km/s) = 1.99529 4.88772 3.73303
#
# Compressibility (1/GPa) = 0.06086834
#
# Stress axis : x y z
#
# Youngs Moduli (GPa) = 39.63508 115.14197 22.82689
#
# Poissons Ratio (x) = 0.25388 0.01070
# Poissons Ratio (y) = 0.08739 0.13133
# Poissons Ratio (z) = 0.01859 0.66247
#
# Static dielectric constant tensor:
#      x y z
#    x 1.743040 0.000000 0.000000 
#    y 0.000000 1.800490 0.000000 
#    z 0.000000 0.000000 1.801740 
# 
# From -- ./inp_files/28315.got.cif
#   From: 2010.05.17/outbox.cif.g08.bks.cpg/sg52_15_cif.got.tgz:28315.got - 2010.06.03 12:15:38.
