data_PCOD9409279
_publ_section_title
;
Structure prediction by ZEFSAII (Michael W. Deem and Ramdas Pophale) SiO2 
 PCOD9409279
Probable space group: P N N A
;
_chemical_formula_sum "Si O2"
_cell_formula_units_Z 28
_cell_length_a 10.003500
_cell_length_b 14.135584
_cell_length_c 9.951739
_cell_angle_alpha 90.000000
_cell_angle_beta 90.000000
_cell_angle_gamma 90.000000
_cell_volume 1407.228784
_symmetry_space_group_name_H-M "P N N A"
_symmetry_group_IT_number 52
_symmetry_cell_setting 'orthorhombic'
loop_
_space_group_symop_operation_xyz
x,y,z
1/2-x,-y,z
x,1/2-y,1/2-z
1/2-x,1/2+y,1/2-z
-x,-y,-z
1/2+x,y,-z
-x,1/2+y,1/2+z
1/2+x,1/2-y,1/2+z
loop_
_atom_site_type_symbol
_atom_site_label
_atom_site_fract_x
_atom_site_fract_y
_atom_site_fract_z
Si Si1 0.694323 0.761384 0.096338
Si Si2 0.630201 0.938477 0.514964
Si Si3 0.591670 0.176208 0.877413
Si Si4 0.250000 0.500000 0.275106
O O1 0.739687 0.750000 0.250000
O O2 0.566501 0.831217 0.090944
O O3 0.627816 0.662745 0.050562
O O4 0.816868 0.783671 0.998080
O O5 0.750000 0.000000 0.452326
O O6 0.500000 0.000000 0.500000
O O7 0.665670 0.933967 0.672516
O O8 0.602548 0.250000 0.750000
O O9 0.652870 0.072852 0.848023
#
# Coordination Sequence:
#
# PCOD9409279 Si02
#       4
#     8   8   8   4
#     4  11  23  40  62  95 129 164 212 273 318 382
#     4  10  19  38  64  90 120 168 217 259 320 383
#     4  11  22  44  65  91 130 171 214 266 325 387
#     4  10  22  40  68  88 128 176 210 262 330 382
#
# _framework density 19.897261
#
# number of rings (size 3 to 8) (size 9 to 14) (size 15 to 20)
#    0.857    0.571    2.857    5.143    0.000    2.286 
#    7.714    0.000    0.000    0.000    0.000    0.000 
#    0.000    0.000    0.000    0.000    0.000    0.000 
#
# Total GULP energy -156118.107103 kJ/mol
# GULP energy per Si atom -5575.646682 kJ/mol
# Density = 1.985197 g / cm^3
# Si number density = 19.897261 Si / 1000 Ang^3
#
#
#
# Elastic Constant Matrix: (Units=GPa)
#
#
# Indices 1 2 3 4 5 6 
#
# 1 85.1020 -28.1837 32.8428 0.0000 0.0000 0.0000
# 2 -28.1837 42.8257 2.3695 0.0000 0.0000 0.0000
# 3 32.8428 2.3695 104.9417 0.0000 0.0000 0.0000
# 4 0.0000 0.0000 0.0000 21.8312 0.0000 0.0000
# 5 0.0000 0.0000 0.0000 0.0000 40.1989 0.0000
# 6 0.0000 0.0000 0.0000 0.0000 0.0000 34.8242
#
#
#
# Elastic Compliance Matrix: (Units=1/GPa)
#
#
# Indices 1 2 3 4 5 6 
#
# 1 0.018096 0.012237 -0.005940 0.000000 0.000000 0.000000
# 2 0.012237 0.031655 -0.004545 0.000000 0.000000 0.000000
# 3 -0.005940 -0.004545 0.011491 0.000000 0.000000 0.000000
# 4 0.000000 0.000000 0.000000 0.045806 0.000000 0.000000
# 5 0.000000 0.000000 0.000000 0.000000 0.024876 0.000000
# 6 0.000000 0.000000 0.000000 0.000000 0.000000 0.028716
#
#
# Mechanical properties :
#
#
# Convention : Reuss Voigt Hill
#
# Bulk Modulus (GPa) = 15.44450 27.43630 21.44040
# Shear Modulus (GPa) = 27.97741 34.42692 31.20217
#
# Velocity S-wave (km/s) = 3.75386 4.16412 3.96430
# Velocity P-wave (km/s) = 5.15438 6.07773 5.63500
#
# Compressibility (1/GPa) = 0.06474796
#
# Stress axis : x y z
#
# Youngs Moduli (GPa) = 55.26225 31.59019 87.02793
#
# Poissons Ratio (x) = -0.38658 0.51691
# Poissons Ratio (y) = -0.67626 0.39551
# Poissons Ratio (z) = 0.32823 0.14356
#
# Static dielectric constant tensor:
#      x y z
#    x 0.186920 0.000000 0.000000 
#    y 0.000000 1.674360 0.000000 
#    z 0.000000 0.000000 1.745910 
# 
# From -- ./inp_files/8102.got.cif
#   From: 2010.05.17/outbox.cif.g08.bks.cpg/sg52_5_cif.got.tgz:8102.got - 2010.06.03 12:15:38.
