data_PCOD9409747
_publ_section_title
;
Structure prediction by ZEFSAII (Michael W. Deem and Ramdas Pophale) SiO2 
 PCOD9409747
Probable space group: P N N A
;
_chemical_formula_sum "Si O2"
_cell_formula_units_Z 60
_cell_length_a 8.801872
_cell_length_b 27.006451
_cell_length_c 12.081297
_cell_angle_alpha 90.000000
_cell_angle_beta 90.000000
_cell_angle_gamma 90.000000
_cell_volume 2871.812791
_symmetry_space_group_name_H-M "P N N A"
_symmetry_group_IT_number 52
_symmetry_cell_setting 'orthorhombic'
loop_
_space_group_symop_operation_xyz
x,y,z
1/2-x,-y,z
x,1/2-y,1/2-z
1/2-x,1/2+y,1/2-z
-x,-y,-z
1/2+x,y,-z
-x,1/2+y,1/2+z
1/2+x,1/2-y,1/2+z
loop_
_atom_site_type_symbol
_atom_site_label
_atom_site_fract_x
_atom_site_fract_y
_atom_site_fract_z
Si Si1 0.756264 0.645295 0.804567
Si Si2 0.234890 0.334824 0.949080
Si Si3 0.820779 0.167836 0.060997
Si Si4 0.468838 0.264054 0.019444
Si Si5 0.875981 0.885988 0.899253
Si Si6 0.711041 0.750000 0.750000
Si Si7 0.883372 0.534069 0.429659
Si Si8 0.090095 0.373822 0.733431
O O1 0.846457 0.607513 0.728957
O O2 0.808445 0.700555 0.769099
O O3 0.578648 0.642818 0.768952
O O4 0.778427 0.637917 0.933580
O O5 0.186199 0.368528 0.846837
O O6 0.136577 0.283464 0.953901
O O7 0.402201 0.312052 0.955931
O O8 0.685513 0.162180 0.150546
O O9 0.948394 0.125862 0.079635
O O10 0.922307 0.216972 0.053158
O O11 0.731974 0.157617 0.946907
O O12 0.391495 0.252457 0.138703
O O13 0.821657 0.931395 0.972065
O O14 0.750000 0.500000 0.383256
O O15 0.927695 0.574278 0.334179
O O16 0.000000 0.500000 0.500000
#
# Coordination Sequence:
#
# PCOD9409747 Si02
#       8
#     8   8   8   8   8   4   8   8
#     4  11  23  40  61  86 131 178 217 259 311 373
#     4  11  24  41  57  90 128 183 217 261 308 378
#     4  11  23  35  62  93 131 170 224 258 315 372
#     4  11  23  36  59  89 131 175 225 258 298 366
#     4  11  22  39  63  94 128 166 207 268 331 391
#     4  10  20  36  58  80 130 170 216 258 292 352
#     4  11  23  43  71 101 123 150 204 275 348 410
#     4  11  24  43  64  91 127 173 211 277 332 389
#
# _framework density 20.892727000000001
#
# number of rings (size 3 to 8) (size 9 to 14) (size 15 to 20)
#    0.000    1.067    4.000    4.800    5.600    0.533 
#    0.000    0.000    0.000    4.000    0.000    0.000 
#    0.000    0.000    0.000    0.000    0.000    0.000 
#
# Total GULP energy -334428.397214 kJ/mol
# GULP energy per Si atom -5573.806620 kJ/mol
# Density = 2.084517 g / cm^3
# Si number density = 20.892727 Si / 1000 Ang^3
#
#
#
# Elastic Constant Matrix: (Units=GPa)
#
#
# Indices 1 2 3 4 5 6 
#
# 1 41.5961 10.7502 2.1490 0.0000 0.0000 0.0000
# 2 10.7502 71.7923 39.5583 0.0000 0.0000 0.0000
# 3 2.1490 39.5583 139.5308 0.0000 0.0000 0.0000
# 4 0.0000 0.0000 0.0000 26.9053 0.0000 0.0000
# 5 0.0000 0.0000 0.0000 0.0000 26.1954 0.0000
# 6 0.0000 0.0000 0.0000 0.0000 0.0000 23.8277
#
#
#
# Elastic Compliance Matrix: (Units=1/GPa)
#
#
# Indices 1 2 3 4 5 6 
#
# 1 0.025084 -0.004199 0.000804 0.000000 0.000000 0.000000
# 2 -0.004199 0.017211 -0.004815 0.000000 0.000000 0.000000
# 3 0.000804 -0.004815 0.008520 0.000000 0.000000 0.000000
# 4 0.000000 0.000000 0.000000 0.037167 0.000000 0.000000
# 5 0.000000 0.000000 0.000000 0.000000 0.038175 0.000000
# 6 0.000000 0.000000 0.000000 0.000000 0.000000 0.041968
#
#
# Mechanical properties :
#
#
# Convention : Reuss Voigt Hill
#
# Bulk Modulus (GPa) = 29.07388 39.75935 34.41661
# Shear Modulus (GPa) = 25.50895 28.74979 27.12937
#
# Velocity S-wave (km/s) = 3.49800 3.71356 3.60739
# Velocity P-wave (km/s) = 5.50097 6.12037 5.81892
#
# Compressibility (1/GPa) = 0.03439513
#
# Stress axis : x y z
#
# Youngs Moduli (GPa) = 39.86534 58.10288 117.37753
#
# Poissons Ratio (x) = 0.24399 -0.09440
# Poissons Ratio (y) = 0.16741 0.56514
# Poissons Ratio (z) = -0.03206 0.27975
#
# Static dielectric constant tensor:
#      x y z
#    x 1.836950 0.000000 0.000000 
#    y 0.000000 1.814280 0.000000 
#    z 0.000000 0.000000 1.786480 
# 
# From -- ./inp_files/17216.got.cif
#   From: 2010.05.17/outbox.cif.g08.bks.cpg/sg52_9_cif.got.tgz:17216.got - 2010.06.03 12:15:38.
