data_PCOD9409073
_publ_section_title
;
Structure prediction by ZEFSAII (Michael W. Deem and Ramdas Pophale) SiO2 
 PCOD9409073
Probable space group: P N N A
;
_chemical_formula_sum "Si O2"
_cell_formula_units_Z 52
_cell_length_a 23.082278
_cell_length_b 13.904902
_cell_length_c 8.877850
_cell_angle_alpha 90.000000
_cell_angle_beta 90.000000
_cell_angle_gamma 90.000000
_cell_volume 2849.406447
_symmetry_space_group_name_H-M "P N N A"
_symmetry_group_IT_number 52
_symmetry_cell_setting 'orthorhombic'
loop_
_space_group_symop_operation_xyz
x,y,z
1/2-x,-y,z
x,1/2-y,1/2-z
1/2-x,1/2+y,1/2-z
-x,-y,-z
1/2+x,y,-z
-x,1/2+y,1/2+z
1/2+x,1/2-y,1/2+z
loop_
_atom_site_type_symbol
_atom_site_label
_atom_site_fract_x
_atom_site_fract_y
_atom_site_fract_z
Si Si1 0.920078 0.084167 0.452922
Si Si2 0.845246 0.794608 0.408480
Si Si3 0.184488 0.470837 0.085737
Si Si4 0.467986 0.882636 0.658852
Si Si5 0.016805 0.387790 0.493987
Si Si6 0.448670 0.250000 0.750000
Si Si7 0.367717 0.839168 0.155615
O O1 0.911490 0.173788 0.343908
O O2 0.973845 0.114290 0.560159
O O3 0.863210 0.051296 0.544027
O O4 0.942372 0.991323 0.357876
O O5 0.830605 0.750000 0.250000
O O6 0.816312 0.895113 0.447985
O O7 0.914921 0.818250 0.406544
O O8 0.828778 0.717457 0.535910
O O9 0.250000 0.500000 0.112515
O O10 0.161289 0.411529 0.229304
O O11 0.483724 0.856321 0.830483
O O12 0.082540 0.389103 0.437415
O O13 0.000000 0.500000 0.500000
O O14 0.983824 0.317281 0.373747
O O15 0.393991 0.750000 0.250000
#
# Coordination Sequence:
#
# PCOD9409073 Si02
#       7
#     8   8   8   8   8   4   8
#     4  10  22  39  58  89 124 167 194 253 303 370
#     4  10  19  35  65  93 115 149 206 255 305 369
#     4  10  23  43  62  79 119 169 212 260 304 349
#     4  10  20  36  59  92 133 151 193 245 317 374
#     4  12  21  33  59  94 130 163 188 241 308 388
#     4  12  24  34  58  94 132 158 194 244 316 382
#     4  10  20  36  63  89 114 156 206 246 292 368
#
# _framework density 18.249414999999999
#
# number of rings (size 3 to 8) (size 9 to 14) (size 15 to 20)
#    0.000    1.538    3.846    1.846    4.308    0.000 
#    1.385    0.769   20.308    0.000    0.000    0.000 
#    0.000    0.000    0.000    0.000    0.000    0.000 
#
# Total GULP energy -289774.661081 kJ/mol
# GULP energy per Si atom -5572.589636 kJ/mol
# Density = 1.820788 g / cm^3
# Si number density = 18.249415 Si / 1000 Ang^3
#
#
#
# Elastic Constant Matrix: (Units=GPa)
#
#
# Indices 1 2 3 4 5 6 
#
# 1 52.1417 34.1624 16.3798 0.0000 0.0000 0.0000
# 2 34.1624 102.7923 43.0378 0.0000 0.0000 0.0000
# 3 16.3798 43.0378 109.4362 0.0000 0.0000 0.0000
# 4 0.0000 0.0000 0.0000 41.8217 0.0000 0.0000
# 5 0.0000 0.0000 0.0000 0.0000 10.1012 0.0000
# 6 0.0000 0.0000 0.0000 0.0000 0.0000 11.1437
#
#
#
# Elastic Compliance Matrix: (Units=1/GPa)
#
#
# Indices 1 2 3 4 5 6 
#
# 1 0.024545 -0.007924 -0.000558 0.000000 0.000000 0.000000
# 2 -0.007924 0.014204 -0.004400 0.000000 0.000000 0.000000
# 3 -0.000558 -0.004400 0.010952 0.000000 0.000000 0.000000
# 4 0.000000 0.000000 0.000000 0.023911 0.000000 0.000000
# 5 0.000000 0.000000 0.000000 0.000000 0.098998 0.000000
# 6 0.000000 0.000000 0.000000 0.000000 0.000000 0.089736
#
#
# Mechanical properties :
#
#
# Convention : Reuss Voigt Hill
#
# Bulk Modulus (GPa) = 41.77482 50.17002 45.97242
# Shear Modulus (GPa) = 16.88680 23.99934 20.44307
#
# Velocity S-wave (km/s) = 3.04523 3.63033 3.35058
# Velocity P-wave (km/s) = 5.94183 6.71739 6.34148
#
# Compressibility (1/GPa) = 0.02393787
#
# Stress axis : x y z
#
# Youngs Moduli (GPa) = 40.74080 70.40222 91.31119
#
# Poissons Ratio (x) = 0.55787 0.05091
# Poissons Ratio (y) = 0.32283 0.40177
# Poissons Ratio (z) = 0.02271 0.30977
#
# Static dielectric constant tensor:
#      x y z
#    x 1.596810 0.000000 0.000000 
#    y 0.000000 1.690340 0.000000 
#    z 0.000000 0.000000 1.673370 
# 
# From -- ./inp_files/13375.got.cif
#   From: 2010.05.17/outbox.cif.g08.bks.cpg/sg52_7_cif.got.tgz:13375.got - 2010.06.03 12:15:38.
