data_PCOD9409882
_publ_section_title
;
Structure prediction by ZEFSAII (Michael W. Deem and Ramdas Pophale) SiO2 
 PCOD9409882
Probable space group: P N N A
;
_chemical_formula_sum "Si O2"
_cell_formula_units_Z 40
_cell_length_a 8.058355
_cell_length_b 11.558752
_cell_length_c 22.770682
_cell_angle_alpha 90.000000
_cell_angle_beta 90.000000
_cell_angle_gamma 90.000000
_cell_volume 2120.964404
_symmetry_space_group_name_H-M "P N N A"
_symmetry_group_IT_number 52
_symmetry_cell_setting 'orthorhombic'
loop_
_space_group_symop_operation_xyz
x,y,z
1/2-x,-y,z
x,1/2-y,1/2-z
1/2-x,1/2+y,1/2-z
-x,-y,-z
1/2+x,y,-z
-x,1/2+y,1/2+z
1/2+x,1/2-y,1/2+z
loop_
_atom_site_type_symbol
_atom_site_label
_atom_site_fract_x
_atom_site_fract_y
_atom_site_fract_z
Si Si1 0.093731 0.335214 0.199747
Si Si2 0.960304 0.381119 0.072922
Si Si3 0.572206 0.441733 0.248792
Si Si4 0.536632 0.747523 0.832568
Si Si5 0.930056 0.646407 0.053743
O O1 0.025128 0.250000 0.250000
O O2 0.283487 0.297368 0.188213
O O3 0.013025 0.331823 0.135426
O O4 0.055388 0.461858 0.225494
O O5 0.002613 0.518557 0.069123
O O6 0.764548 0.364356 0.065683
O O7 0.042772 0.328556 0.014684
O O8 0.750000 0.500000 0.259313
O O9 0.587951 0.345185 0.197635
O O10 0.503310 0.371499 0.304636
O O11 0.513576 0.736006 0.901804
#
# Coordination Sequence:
#
# PCOD9409882 Si02
#       5
#     8   8   8   8   8
#     4  12  24  38  62  91 130 161 206 255 315 375
#     4  10  21  35  59  88 122 162 199 267 314 371
#     4  11  24  39  58  91 128 166 208 254 312 377
#     4  11  23  39  61  90 125 168 207 257 316 377
#     4  10  20  37  58  87 122 158 210 254 322 372
#
# _framework density 18.859345000000001
#
# number of rings (size 3 to 8) (size 9 to 14) (size 15 to 20)
#    0.000    1.200    4.000    3.000    5.600    1.600 
#    0.000    0.000    0.000    1.200    0.000    0.000 
#    0.000    0.000    0.000    0.000    0.000    0.000 
#
# Total GULP energy -223372.077926 kJ/mol
# GULP energy per Si atom -5584.301948 kJ/mol
# Density = 1.881642 g / cm^3
# Si number density = 18.859345 Si / 1000 Ang^3
#
#
#
# Elastic Constant Matrix: (Units=GPa)
#
#
# Indices 1 2 3 4 5 6 
#
# 1 94.8702 39.7511 51.3516 0.0000 0.0000 0.0000
# 2 39.7511 66.6171 66.1347 0.0000 0.0000 0.0000
# 3 51.3516 66.1347 202.8497 0.0000 0.0000 0.0000
# 4 0.0000 0.0000 0.0000 33.0241 0.0000 0.0000
# 5 0.0000 0.0000 0.0000 0.0000 29.7706 0.0000
# 6 0.0000 0.0000 0.0000 0.0000 0.0000 21.0409
#
#
#
# Elastic Compliance Matrix: (Units=1/GPa)
#
#
# Indices 1 2 3 4 5 6 
#
# 1 0.014261 -0.007283 -0.001236 0.000000 0.000000 0.000000
# 2 -0.007283 0.025914 -0.006605 0.000000 0.000000 0.000000
# 3 -0.001236 -0.006605 0.007396 0.000000 0.000000 0.000000
# 4 0.000000 0.000000 0.000000 0.030281 0.000000 0.000000
# 5 0.000000 0.000000 0.000000 0.000000 0.033590 0.000000
# 6 0.000000 0.000000 0.000000 0.000000 0.000000 0.047527
#
#
# Mechanical properties :
#
#
# Convention : Reuss Voigt Hill
#
# Bulk Modulus (GPa) = 57.72398 75.42352 66.57375
# Shear Modulus (GPa) = 25.64213 30.57374 28.10794
#
# Velocity S-wave (km/s) = 3.69135 4.03071 3.86476
# Velocity P-wave (km/s) = 6.98871 7.85759 7.43585
#
# Compressibility (1/GPa) = 0.01732382
#
# Stress axis : x y z
#
# Youngs Moduli (GPa) = 70.12010 38.58877 135.20741
#
# Poissons Ratio (x) = 0.28104 0.16709
# Poissons Ratio (y) = 0.51068 0.89306
# Poissons Ratio (z) = 0.08665 0.25488
#
# Static dielectric constant tensor:
#      x y z
#    x 1.696720 0.000000 0.000000 
#    y 0.000000 1.656760 0.000000 
#    z 0.000000 0.000000 1.672360 
# 
# From -- ./inp_files/35768.got.cif
#   From: 2010.05.17/outbox.cif.g08.bks.cpg/sg52_18_cif.got.tgz:35768.got - 2010.06.03 12:15:38.
