data_PCOD9409979
_publ_section_title
;
Structure prediction by ZEFSAII (Michael W. Deem and Ramdas Pophale) SiO2 
 PCOD9409979
Probable space group: P N N A
;
_chemical_formula_sum "Si O2"
_cell_formula_units_Z 48
_cell_length_a 14.652015
_cell_length_b 26.452398
_cell_length_c 5.277770
_cell_angle_alpha 90.000000
_cell_angle_beta 90.000000
_cell_angle_gamma 90.000000
_cell_volume 2045.563017
_symmetry_space_group_name_H-M "P N N A"
_symmetry_group_IT_number 52
_symmetry_cell_setting 'orthorhombic'
loop_
_space_group_symop_operation_xyz
x,y,z
1/2-x,-y,z
x,1/2-y,1/2-z
1/2-x,1/2+y,1/2-z
-x,-y,-z
1/2+x,y,-z
-x,1/2+y,1/2+z
1/2+x,1/2-y,1/2+z
loop_
_atom_site_type_symbol
_atom_site_label
_atom_site_fract_x
_atom_site_fract_y
_atom_site_fract_z
Si Si1 0.603652 0.356405 0.728084
Si Si2 0.190331 0.427247 0.910800
Si Si3 0.268442 0.750000 0.750000
Si Si4 0.893668 0.750000 0.750000
Si Si5 0.713435 0.852528 0.036542
Si Si6 0.380798 0.462936 0.012753
Si Si7 0.954935 0.416081 0.506164
O O1 0.617420 0.388029 0.980630
O O2 0.552673 0.302999 0.737357
O O3 0.708074 0.341808 0.666459
O O4 0.555110 0.393171 0.528353
O O5 0.281204 0.439153 0.079645
O O6 0.141504 0.481238 0.909241
O O7 0.241285 0.400839 0.677981
O O8 0.333804 0.755438 0.505811
O O9 0.212315 0.801946 0.791952
O O10 0.615531 0.870076 0.940654
O O11 0.438550 0.456552 0.270702
O O12 0.428009 0.435501 0.774997
#
# Coordination Sequence:
#
# PCOD9409979 Si02
#       7
#     8   8   4   4   8   8   8
#     4  11  23  40  67  87 130 160 210 255 317 366
#     4  10  21  40  66  85 128 171 201 262 314 360
#     4  10  20  37  68  87 122 162 210 249 316 379
#     4  10  22  39  62  97 118 164 208 255 314 379
#     4  10  22  42  63  92 126 165 209 259 319 369
#     4  10  24  41  61  93 127 162 216 251 309 374
#     4  11  25  40  62  95 124 163 211 257 304 380
#
# _framework density 23.465423000000001
#
# number of rings (size 3 to 8) (size 9 to 14) (size 15 to 20)
#    0.000    1.667    3.333    0.000    4.667    3.333 
#    0.000    0.000    0.000    7.000    0.000    0.000 
#    0.000    0.000    0.000    0.000    0.000    0.000 
#
# Total GULP energy -267689.270947 kJ/mol
# GULP energy per Si atom -5576.859811 kJ/mol
# Density = 2.341201 g / cm^3
# Si number density = 23.465423 Si / 1000 Ang^3
#
#
#
# Elastic Constant Matrix: (Units=GPa)
#
#
# Indices 1 2 3 4 5 6 
#
# 1 75.4509 -1.0942 3.1895 0.0000 0.0000 0.0000
# 2 -1.0942 102.1291 6.1494 0.0000 0.0000 0.0000
# 3 3.1895 6.1494 87.5606 0.0000 0.0000 0.0000
# 4 0.0000 0.0000 0.0000 30.1147 0.0000 0.0000
# 5 0.0000 0.0000 0.0000 0.0000 162.9409 0.0000
# 6 0.0000 0.0000 0.0000 0.0000 0.0000 5.5964
#
#
#
# Elastic Compliance Matrix: (Units=1/GPa)
#
#
# Indices 1 2 3 4 5 6 
#
# 1 0.013277 0.000172 -0.000496 0.000000 0.000000 0.000000
# 2 0.000172 0.009835 -0.000697 0.000000 0.000000 0.000000
# 3 -0.000496 -0.000697 0.011488 0.000000 0.000000 0.000000
# 4 0.000000 0.000000 0.000000 0.033206 0.000000 0.000000
# 5 0.000000 0.000000 0.000000 0.000000 0.006137 0.000000
# 6 0.000000 0.000000 0.000000 0.000000 0.000000 0.178685
#
#
# Mechanical properties :
#
#
# Convention : Reuss Voigt Hill
#
# Bulk Modulus (GPa) = 30.71362 31.29222 31.00292
# Shear Modulus (GPa) = 18.83074 56.85680 37.84377
#
# Velocity S-wave (km/s) = 2.83590 4.92774 4.02026
# Velocity P-wave (km/s) = 4.88266 6.76323 5.89837
#
# Compressibility (1/GPa) = 0.03255885
#
# Stress axis : x y z
#
# Youngs Moduli (GPa) = 75.31768 101.67414 87.04981
#
# Poissons Ratio (x) = -0.01750 0.04315
# Poissons Ratio (y) = -0.01296 0.06067
# Poissons Ratio (z) = 0.03734 0.07087
#
# Static dielectric constant tensor:
#      x y z
#    x 1.909630 0.000000 0.000000 
#    y 0.000000 2.092730 0.000000 
#    z 0.000000 0.000000 1.898070 
# 
# From -- ./inp_files/2519.got.cif
#   From: 2010.05.17/outbox.cif.g08.bks.cpg/sg52_2_cif.got.tgz:2519.got - 2010.06.03 12:15:38.
