data_PCOD9409458
_publ_section_title
;
Structure prediction by ZEFSAII (Michael W. Deem and Ramdas Pophale) SiO2 
 PCOD9409458
Probable space group: P N N A
;
_chemical_formula_sum "Si O2"
_cell_formula_units_Z 40
_cell_length_a 12.150396
_cell_length_b 10.726395
_cell_length_c 12.180428
_cell_angle_alpha 90.000000
_cell_angle_beta 90.000000
_cell_angle_gamma 90.000000
_cell_volume 1587.474534
_symmetry_space_group_name_H-M "P N N A"
_symmetry_group_IT_number 52
_symmetry_cell_setting 'orthorhombic'
loop_
_space_group_symop_operation_xyz
x,y,z
1/2-x,-y,z
x,1/2-y,1/2-z
1/2-x,1/2+y,1/2-z
-x,-y,-z
1/2+x,y,-z
-x,1/2+y,1/2+z
1/2+x,1/2-y,1/2+z
loop_
_atom_site_type_symbol
_atom_site_label
_atom_site_fract_x
_atom_site_fract_y
_atom_site_fract_z
Si Si1 0.902836 0.992720 0.343720
Si Si2 0.250000 0.000000 0.251708
Si Si3 0.620581 0.250000 0.250000
Si Si4 0.369279 0.364738 0.066417
Si Si5 0.051035 0.138493 0.178192
Si Si6 0.485996 0.140017 0.046774
O O1 0.827845 0.873890 0.305925
O O2 0.016154 0.923231 0.384778
O O3 0.860019 0.068637 0.448829
O O4 0.944235 0.081105 0.242424
O O5 0.282627 0.105180 0.339602
O O6 0.144166 0.032782 0.179794
O O7 0.551646 0.177663 0.155043
O O8 0.372845 0.215054 0.055816
O O9 0.092878 0.250000 0.250000
O O10 0.035369 0.204021 0.061649
O O11 0.500000 0.000000 0.000000
#
# Coordination Sequence:
#
# PCOD9409458 Si02
#       6
#     8   4   4   8   8   8
#     4   9  17  34  59  85 117 163 224 259 326 412
#     4  10  24  38  60  96 138 174 224 298 362 386
#     4  10  20  32  58  92 122 160 216 288 314 386
#     4   9  19  36  59  88 123 172 217 273 335 417
#     4  11  21  38  60  95 126 171 217 283 336 406
#     4  11  21  35  62  95 129 167 230 279 337 417
#
# _framework density 25.197254999999998
#
# number of rings (size 3 to 8) (size 9 to 14) (size 15 to 20)
#    0.000    2.000    4.000    0.000    2.800    1.600 
#    3.600    0.000    0.000    3.600    0.000    0.000 
#    0.000    0.000    0.000    0.000    0.000    0.000 
#
# Total GULP energy -222854.705563 kJ/mol
# GULP energy per Si atom -5571.367639 kJ/mol
# Density = 2.513991 g / cm^3
# Si number density = 25.197255 Si / 1000 Ang^3
#
#
#
# Elastic Constant Matrix: (Units=GPa)
#
#
# Indices 1 2 3 4 5 6 
#
# 1 47.5902 3.3746 19.6244 0.0000 0.0000 0.0000
# 2 3.3746 149.6196 28.0000 0.0000 0.0000 0.0000
# 3 19.6244 28.0000 151.6484 0.0000 0.0000 0.0000
# 4 0.0000 0.0000 0.0000 44.8136 0.0000 0.0000
# 5 0.0000 0.0000 0.0000 0.0000 4.8245 0.0000
# 6 0.0000 0.0000 0.0000 0.0000 0.0000 16.7143
#
#
#
# Elastic Compliance Matrix: (Units=1/GPa)
#
#
# Indices 1 2 3 4 5 6 
#
# 1 0.022197 0.000038 -0.002880 0.000000 0.000000 0.000000
# 2 0.000038 0.006923 -0.001283 0.000000 0.000000 0.000000
# 3 -0.002880 -0.001283 0.007204 0.000000 0.000000 0.000000
# 4 0.000000 0.000000 0.000000 0.022315 0.000000 0.000000
# 5 0.000000 0.000000 0.000000 0.000000 0.207276 0.000000
# 6 0.000000 0.000000 0.000000 0.000000 0.000000 0.059829
#
#
# Mechanical properties :
#
#
# Convention : Reuss Voigt Hill
#
# Bulk Modulus (GPa) = 35.61881 50.09515 42.85698
# Shear Modulus (GPa) = 14.56236 33.12775 23.84506
#
# Velocity S-wave (km/s) = 2.40663 3.62986 3.07959
# Velocity P-wave (km/s) = 4.67859 6.12309 5.44892
#
# Compressibility (1/GPa) = 0.02807505
#
# Stress axis : x y z
#
# Youngs Moduli (GPa) = 45.05027 144.44836 138.81640
#
# Poissons Ratio (x) = -0.00552 0.39973
# Poissons Ratio (y) = -0.00172 0.17813
# Poissons Ratio (z) = 0.12973 0.18535
#
# Static dielectric constant tensor:
#      x y z
#    x 1.990550 0.000000 0.000000 
#    y 0.000000 2.231730 0.000000 
#    z 0.000000 0.000000 2.278760 
# 
# From -- ./inp_files/19308.got.cif
#   From: 2010.05.17/outbox.cif.g08.bks.cpg/sg52_10_cif.got.tgz:19308.got - 2010.06.03 12:15:38.
