data_PCOD9409413
_publ_section_title
;
Structure prediction by ZEFSAII (Michael W. Deem and Ramdas Pophale) SiO2 
 PCOD9409413
Probable space group: P N N A
;
_chemical_formula_sum "Si O2"
_cell_formula_units_Z 32
_cell_length_a 8.240420
_cell_length_b 18.144377
_cell_length_c 9.251194
_cell_angle_alpha 90.000000
_cell_angle_beta 90.000000
_cell_angle_gamma 90.000000
_cell_volume 1383.213429
_symmetry_space_group_name_H-M "P N N A"
_symmetry_group_IT_number 52
_symmetry_cell_setting 'orthorhombic'
loop_
_space_group_symop_operation_xyz
x,y,z
1/2-x,-y,z
x,1/2-y,1/2-z
1/2-x,1/2+y,1/2-z
-x,-y,-z
1/2+x,y,-z
-x,1/2+y,1/2+z
1/2+x,1/2-y,1/2+z
loop_
_atom_site_type_symbol
_atom_site_label
_atom_site_fract_x
_atom_site_fract_y
_atom_site_fract_z
Si Si1 0.937768 0.336568 0.726022
Si Si2 0.420529 0.835694 0.214582
Si Si3 0.443375 0.082392 0.530675
Si Si4 0.262260 0.415215 0.680929
O O1 0.966066 0.250000 0.750000
O O2 0.760213 0.345223 0.653374
O O3 0.922843 0.374715 0.882654
O O4 0.095420 0.372887 0.654703
O O5 0.450311 0.750000 0.250000
O O6 0.425655 0.877042 0.368436
O O7 0.573818 0.872464 0.134189
O O8 0.292220 0.083017 0.643498
O O9 0.500000 0.000000 0.500000
O O10 0.250000 0.500000 0.630994
#
# Coordination Sequence:
#
# PCOD9409413 Si02
#       4
#     8   8   8   8
#     4  11  20  32  48  75 110 139 169 210 263 316
#     4   9  21  33  47  73 114 136 167 212 264 311
#     4  10  20  34  53  80 108 133 171 216 262 307
#     4  10  20  31  53  75 103 134 172 212 263 301
#
# _framework density 23.134533999999999
#
# number of rings (size 3 to 8) (size 9 to 14) (size 15 to 20)
#    1.500    0.500    2.500    2.250    0.000    3.000 
#    0.000    0.000    0.000    0.000    0.000    7.000 
#    0.000    0.000    0.000    0.000    0.000    0.000 
#
# Total GULP energy -178570.781686 kJ/mol
# GULP energy per Si atom -5580.336928 kJ/mol
# Density = 2.308188 g / cm^3
# Si number density = 23.134534 Si / 1000 Ang^3
#
#
#
# Elastic Constant Matrix: (Units=GPa)
#
#
# Indices 1 2 3 4 5 6 
#
# 1 261.8952 114.0319 29.7083 0.0000 0.0000 0.0000
# 2 114.0319 206.5961 31.6815 0.0000 0.0000 0.0000
# 3 29.7083 31.6815 82.0134 0.0000 0.0000 0.0000
# 4 0.0000 0.0000 0.0000 -5.6279 0.0000 0.0000
# 5 0.0000 0.0000 0.0000 0.0000 36.9038 0.0000
# 6 0.0000 0.0000 0.0000 0.0000 0.0000 30.5153
#
#
#
# Elastic Compliance Matrix: (Units=1/GPa)
#
#
# Indices 1 2 3 4 5 6 
#
# 1 0.005076 -0.002678 -0.000804 0.000000 0.000000 0.000000
# 2 -0.002678 0.006558 -0.001563 0.000000 0.000000 0.000000
# 3 -0.000804 -0.001563 0.013088 0.000000 0.000000 0.000000
# 4 0.000000 0.000000 0.000000 -0.177686 0.000000 0.000000
# 5 0.000000 0.000000 0.000000 0.000000 0.027097 0.000000
# 6 0.000000 0.000000 0.000000 0.000000 0.000000 0.032770
#
#
# Mechanical properties :
#
#
# Convention : Reuss Voigt Hill
#
# Bulk Modulus (GPa) = 68.34716 100.14978 84.24847
# Shear Modulus (GPa) = -63.99754 37.36378 -13.31688
#
# Velocity S-wave (km/s) = -5.26529 4.02315 -2.40183
# Velocity P-wave (km/s) = 2.71235 8.06009 5.36695
#
# Compressibility (1/GPa) = 0.01463119
#
# Stress axis : x y z
#
# Youngs Moduli (GPa) = 197.01870 152.47689 76.40430
#
# Poissons Ratio (x) = 0.40837 0.06143
# Poissons Ratio (y) = 0.52766 0.11944
# Poissons Ratio (z) = 0.15840 0.23837
#
# Static dielectric constant tensor:
#      x y z
#    x 1.924150 0.000000 0.000000 
#    y 0.000000 1.853580 0.000000 
#    z 0.000000 0.000000 1.877070 
# 
# From -- ./inp_files/16753.got.cif
#   From: 2010.05.17/outbox.cif.g08.bks.cpg/sg52_9_cif.got.tgz:16753.got - 2010.06.03 12:15:38.
