data_PCOD9409210
_publ_section_title
;
Structure prediction by ZEFSAII (Michael W. Deem and Ramdas Pophale) SiO2 
 PCOD9409210
Probable space group: P N N A
;
_chemical_formula_sum "Si O2"
_cell_formula_units_Z 52
_cell_length_a 19.916507
_cell_length_b 13.965342
_cell_length_c 8.261329
_cell_angle_alpha 90.000000
_cell_angle_beta 90.000000
_cell_angle_gamma 90.000000
_cell_volume 2297.812919
_symmetry_space_group_name_H-M "P N N A"
_symmetry_group_IT_number 52
_symmetry_cell_setting 'orthorhombic'
loop_
_space_group_symop_operation_xyz
x,y,z
1/2-x,-y,z
x,1/2-y,1/2-z
1/2-x,1/2+y,1/2-z
-x,-y,-z
1/2+x,y,-z
-x,1/2+y,1/2+z
1/2+x,1/2-y,1/2+z
loop_
_atom_site_type_symbol
_atom_site_label
_atom_site_fract_x
_atom_site_fract_y
_atom_site_fract_z
Si Si1 0.351715 0.118695 0.930972
Si Si2 0.142118 0.100518 0.500587
Si Si3 0.452561 0.271624 0.933910
Si Si4 0.541592 0.528277 0.184651
Si Si5 0.394326 0.971030 0.162472
Si Si6 0.412291 0.791465 0.929985
Si Si7 0.250000 0.000000 0.729756
O O1 0.377656 0.227818 0.943790
O O2 0.409524 0.070023 0.821240
O O3 0.285384 0.080550 0.842898
O O4 0.361211 0.068162 0.101137
O O5 0.145537 0.060578 0.320657
O O6 0.129899 0.212461 0.472852
O O7 0.076587 0.060803 0.598509
O O8 0.200677 0.060076 0.613754
O O9 0.477321 0.250000 0.750000
O O10 0.455801 0.385431 0.946195
O O11 0.507504 0.221331 0.045659
O O12 0.470405 0.515511 0.271248
O O13 0.394852 0.893494 0.013469
O O14 0.396814 0.750000 0.750000
#
# Coordination Sequence:
#
# PCOD9409210 Si02
#       7
#     8   8   8   8   8   8   4
#     4  10  22  38  67  92 133 182 221 279 333 410
#     4  11  24  41  66  91 139 182 225 283 336 409
#     4  10  19  37  61  95 132 169 207 278 345 406
#     4  10  20  39  63 100 132 170 213 281 360 402
#     4  12  22  40  66 102 133 171 226 287 349 404
#     4  12  23  36  62 101 139 168 221 282 353 412
#     4  10  24  48  62  96 136 190 248 258 338 424
#
# _framework density 22.630215
#
# number of rings (size 3 to 8) (size 9 to 14) (size 15 to 20)
#    0.000    1.231    4.615    3.231    2.154    0.615 
#    0.000   11.538    0.000    7.385    0.000    0.000 
#    0.000    0.000    0.000    0.000    0.000    0.000 
#
# Total GULP energy -290038.779125 kJ/mol
# GULP energy per Si atom -5577.668829 kJ/mol
# Density = 2.257871 g / cm^3
# Si number density = 22.630215 Si / 1000 Ang^3
#
#
#
# Elastic Constant Matrix: (Units=GPa)
#
#
# Indices 1 2 3 4 5 6 
#
# 1 90.5957 32.4223 23.0074 0.0000 0.0000 0.0000
# 2 32.4223 68.0856 0.0804 0.0000 0.0000 0.0000
# 3 23.0074 0.0804 86.9676 0.0000 0.0000 0.0000
# 4 0.0000 0.0000 0.0000 16.9526 0.0000 0.0000
# 5 0.0000 0.0000 0.0000 0.0000 120.6134 0.0000
# 6 0.0000 0.0000 0.0000 0.0000 0.0000 22.3576
#
#
#
# Elastic Compliance Matrix: (Units=1/GPa)
#
#
# Indices 1 2 3 4 5 6 
#
# 1 0.014474 -0.006888 -0.003823 0.000000 0.000000 0.000000
# 2 -0.006888 0.017965 0.001806 0.000000 0.000000 0.000000
# 3 -0.003823 0.001806 0.012508 0.000000 0.000000 0.000000
# 4 0.000000 0.000000 0.000000 0.058988 0.000000 0.000000
# 5 0.000000 0.000000 0.000000 0.000000 0.008291 0.000000
# 6 0.000000 0.000000 0.000000 0.000000 0.000000 0.044728
#
#
# Mechanical properties :
#
#
# Convention : Reuss Voigt Hill
#
# Bulk Modulus (GPa) = 36.84971 39.62989 38.23980
# Shear Modulus (GPa) = 27.20204 44.66065 35.93134
#
# Velocity S-wave (km/s) = 3.47078 4.44722 3.98899
# Velocity P-wave (km/s) = 5.69039 6.62724 6.17660
#
# Compressibility (1/GPa) = 0.02713725
#
# Stress axis : x y z
#
# Youngs Moduli (GPa) = 69.08985 55.66291 79.94768
#
# Poissons Ratio (x) = 0.38340 0.30562
# Poissons Ratio (y) = 0.47589 -0.14435
# Poissons Ratio (z) = 0.26411 -0.10051
#
# Static dielectric constant tensor:
#      x y z
#    x 1.860210 0.000000 0.000000 
#    y 0.000000 2.051120 0.000000 
#    z 0.000000 0.000000 2.938970 
# 
# From -- ./inp_files/13388.got.cif
#   From: 2010.05.17/outbox.cif.g08.bks.cpg/sg52_7_cif.got.tgz:13388.got - 2010.06.03 12:15:38.
