data_PCOD9409735
_publ_section_title
;
Structure prediction by ZEFSAII (Michael W. Deem and Ramdas Pophale) SiO2 
 PCOD9409735
Probable space group: P N N A
;
_chemical_formula_sum "Si O2"
_cell_formula_units_Z 48
_cell_length_a 20.554560
_cell_length_b 11.586453
_cell_length_c 9.239316
_cell_angle_alpha 90.000000
_cell_angle_beta 90.000000
_cell_angle_gamma 90.000000
_cell_volume 2200.384159
_symmetry_space_group_name_H-M "P N N A"
_symmetry_group_IT_number 52
_symmetry_cell_setting 'orthorhombic'
loop_
_space_group_symop_operation_xyz
x,y,z
1/2-x,-y,z
x,1/2-y,1/2-z
1/2-x,1/2+y,1/2-z
-x,-y,-z
1/2+x,y,-z
-x,1/2+y,1/2+z
1/2+x,1/2-y,1/2+z
loop_
_atom_site_type_symbol
_atom_site_label
_atom_site_fract_x
_atom_site_fract_y
_atom_site_fract_z
Si Si1 0.118781 0.084531 0.888071
Si Si2 0.973625 0.355371 0.646675
Si Si3 0.659774 0.213319 0.592696
Si Si4 0.967755 0.944145 0.645609
Si Si5 0.414649 0.155155 0.847134
Si Si6 0.220499 0.128373 0.673506
O O1 0.145898 0.121220 0.732622
O O2 0.041930 0.093010 0.904473
O O3 0.132038 0.949428 0.890632
O O4 0.148262 0.168053 0.005556
O O5 0.988638 0.250000 0.750000
O O6 0.941728 0.454870 0.746110
O O7 0.939996 0.307328 0.503381
O O8 0.682251 0.250000 0.750000
O O9 0.591354 0.142561 0.607861
O O10 0.712737 0.145884 0.497557
O O11 0.025372 0.884219 0.740993
O O12 0.000000 0.000000 0.500000
O O13 0.380941 0.250000 0.750000
O O14 0.243131 0.250000 0.750000
O O15 0.250000 0.000000 0.703466
#
# Coordination Sequence:
#
# PCOD9409735 Si02
#       6
#     8   8   8   8   8   8
#     4  10  20  36  57  80 110 151 193 230 277 346
#     4  11  20  32  50  80 119 155 191 226 270 336
#     4  11  20  36  61  87 114 152 196 243 298 358
#     4  11  20  31  51  81 117 155 192 232 279 342
#     4  11  21  32  50  81 120 158 191 227 272 329
#     4  10  23  43  66  87 109 145 197 254 308 363
#
# _framework density 21.814371999999999
#
# number of rings (size 3 to 8) (size 9 to 14) (size 15 to 20)
#    0.000    1.333    0.000   11.000    0.000    0.667 
#    0.000    3.333    0.000    3.000    0.000    0.000 
#    0.000    0.000    0.000    0.000    0.000    0.000 
#
# Total GULP energy -267581.019359 kJ/mol
# GULP energy per Si atom -5574.604570 kJ/mol
# Density = 2.176472 g / cm^3
# Si number density = 21.814372 Si / 1000 Ang^3
#
#
#
# Elastic Constant Matrix: (Units=GPa)
#
#
# Indices 1 2 3 4 5 6 
#
# 1 39.5969 9.4180 10.1519 0.0000 0.0000 0.0000
# 2 9.4180 117.0289 24.1552 0.0000 0.0000 0.0000
# 3 10.1519 24.1552 144.4375 0.0000 0.0000 0.0000
# 4 0.0000 0.0000 0.0000 44.7333 0.0000 0.0000
# 5 0.0000 0.0000 0.0000 0.0000 -4.5176 0.0000
# 6 0.0000 0.0000 0.0000 0.0000 0.0000 11.4764
#
#
#
# Elastic Compliance Matrix: (Units=1/GPa)
#
#
# Indices 1 2 3 4 5 6 
#
# 1 0.026072 -0.001781 -0.001535 0.000000 0.000000 0.000000
# 2 -0.001781 0.008972 -0.001375 0.000000 0.000000 0.000000
# 3 -0.001535 -0.001375 0.007261 0.000000 0.000000 0.000000
# 4 0.000000 0.000000 0.000000 0.022355 0.000000 0.000000
# 5 0.000000 0.000000 0.000000 0.000000 -0.221357 0.000000
# 6 0.000000 0.000000 0.000000 0.000000 0.000000 0.087135
#
#
# Mechanical properties :
#
#
# Convention : Reuss Voigt Hill
#
# Bulk Modulus (GPa) = 30.37428 43.16818 36.77123
# Shear Modulus (GPa) = -101.61423 27.49430 -37.05997
#
# Velocity S-wave (km/s) = -6.83246 3.55403 -4.12622
# Velocity P-wave (km/s) = 6.94903 6.05585 2.40995
#
# Compressibility (1/GPa) = 0.03292259
#
# Stress axis : x y z
#
# Youngs Moduli (GPa) = 38.35587 111.45647 137.71717
#
# Poissons Ratio (x) = 0.19855 0.21133
# Poissons Ratio (y) = 0.06833 0.18940
# Poissons Ratio (z) = 0.05886 0.15328
#
# Static dielectric constant tensor:
#      x y z
#    x 1.836560 0.000000 0.000000 
#    y 0.000000 1.939900 0.000000 
#    z 0.000000 0.000000 1.828660 
# 
# From -- ./inp_files/14271.got.cif
#   From: 2010.05.17/outbox.cif.g08.bks.cpg/sg52_8_cif.got.tgz:14271.got - 2010.06.03 12:15:38.
