data_PCOD9409562
_publ_section_title
;
Structure prediction by ZEFSAII (Michael W. Deem and Ramdas Pophale) SiO2 
 PCOD9409562
Probable space group: P N N A
;
_chemical_formula_sum "Si O2"
_cell_formula_units_Z 36
_cell_length_a 5.259137
_cell_length_b 19.518427
_cell_length_c 13.981807
_cell_angle_alpha 90.000000
_cell_angle_beta 90.000000
_cell_angle_gamma 90.000000
_cell_volume 1435.233630
_symmetry_space_group_name_H-M "P N N A"
_symmetry_group_IT_number 52
_symmetry_cell_setting 'orthorhombic'
loop_
_space_group_symop_operation_xyz
x,y,z
1/2-x,-y,z
x,1/2-y,1/2-z
1/2-x,1/2+y,1/2-z
-x,-y,-z
1/2+x,y,-z
-x,1/2+y,1/2+z
1/2+x,1/2-y,1/2+z
loop_
_atom_site_type_symbol
_atom_site_label
_atom_site_fract_x
_atom_site_fract_y
_atom_site_fract_z
Si Si1 0.737158 0.578747 0.041145
Si Si2 0.408277 0.750000 0.750000
Si Si3 0.669797 0.571928 0.620070
Si Si4 0.829039 0.276468 0.553020
Si Si5 0.173191 0.601887 0.737831
O O1 0.750000 0.500000 0.006557
O O2 0.681876 0.578999 0.152663
O O3 0.507561 0.611017 0.982361
O O4 0.583627 0.751422 0.655722
O O5 0.237690 0.682598 0.738762
O O6 0.750000 0.500000 0.572325
O O7 0.659101 0.640099 0.557022
O O8 0.403183 0.568480 0.676822
O O9 0.899035 0.586519 0.694310
O O10 0.545179 0.257356 0.523614
#
# Coordination Sequence:
#
# PCOD9409562 Si02
#       5
#     8   4   8   8   8
#     4  10  20  34  55  87 123 159 209 271 329 387
#     4  10  26  46  68  96 136 178 226 276 328 396
#     4  11  23  41  67  97 130 172 221 275 338 404
#     4  11  25  44  69 101 135 176 226 279 334 400
#     4  11  23  40  64  92 128 178 225 273 335 402
#
# _framework density 25.083022
#
# number of rings (size 3 to 8) (size 9 to 14) (size 15 to 20)
#    0.000    1.333    0.000    6.000    0.000   12.444 
#    0.000    0.000    0.000    0.000    0.000    0.000 
#    0.000    0.000    0.000    0.000    0.000    0.000 
#
# Total GULP energy -201846.977774 kJ/mol
# GULP energy per Si atom -5606.860494 kJ/mol
# Density = 2.502593 g / cm^3
# Si number density = 25.083022 Si / 1000 Ang^3
#
#
#
# Elastic Constant Matrix: (Units=GPa)
#
#
# Indices 1 2 3 4 5 6 
#
# 1 153.0804 -0.8501 26.8566 0.0000 0.0000 0.0000
# 2 -0.8501 132.7809 -10.1459 0.0000 0.0000 0.0000
# 3 26.8566 -10.1459 61.5830 0.0000 0.0000 0.0000
# 4 0.0000 0.0000 0.0000 60.0776 0.0000 0.0000
# 5 0.0000 0.0000 0.0000 0.0000 42.1409 0.0000
# 6 0.0000 0.0000 0.0000 0.0000 0.0000-2627.9730
#
#
#
# Elastic Compliance Matrix: (Units=1/GPa)
#
#
# Indices 1 2 3 4 5 6 
#
# 1 0.007079 -0.000193 -0.003119 0.000000 0.000000 0.000000
# 2 -0.000193 0.007632 0.001342 0.000000 0.000000 0.000000
# 3 -0.003119 0.001342 0.017819 0.000000 0.000000 0.000000
# 4 0.000000 0.000000 0.000000 0.016645 0.000000 0.000000
# 5 0.000000 0.000000 0.000000 0.000000 0.023730 0.000000
# 6 0.000000 0.000000 0.000000 0.000000 0.000000 -0.000381
#
#
# Mechanical properties :
#
#
# Convention : Reuss Voigt Hill
#
# Bulk Modulus (GPa) = 34.97707 42.12951 38.55329
# Shear Modulus (GPa) = 58.14261 -483.04533 -212.45136
#
# Velocity S-wave (km/s) = 4.81979 -13.89232 -9.21320
# Velocity P-wave (km/s) = 6.70437 15.50795 9.88807
#
# Compressibility (1/GPa) = 0.02859016
#
# Stress axis : x y z
#
# Youngs Moduli (GPa) = 141.27067 131.01894 56.11859
#
# Poissons Ratio (x) = 0.02529 0.17502
# Poissons Ratio (y) = 0.02726 -0.07529
# Poissons Ratio (z) = 0.44060 -0.17578
#
# Static dielectric constant tensor:
#      x y z
#    x 1.865280 0.000000 0.000000 
#    y 0.000000 2.048850 0.000000 
#    z 0.000000 0.000000 1.900550 
# 
# From -- ./inp_files/23560.got.cif
#   From: 2010.05.17/outbox.cif.g08.bks.cpg/sg52_12_cif.got.tgz:23560.got - 2010.06.03 12:15:38.
