data_PCOD9409549
_publ_section_title
;
Structure prediction by ZEFSAII (Michael W. Deem and Ramdas Pophale) SiO2 
 PCOD9409549
Probable space group: P N N A
;
_chemical_formula_sum "Si O2"
_cell_formula_units_Z 44
_cell_length_a 14.288487
_cell_length_b 8.450080
_cell_length_c 19.200141
_cell_angle_alpha 90.000000
_cell_angle_beta 90.000000
_cell_angle_gamma 90.000000
_cell_volume 2318.203102
_symmetry_space_group_name_H-M "P N N A"
_symmetry_group_IT_number 52
_symmetry_cell_setting 'orthorhombic'
loop_
_space_group_symop_operation_xyz
x,y,z
1/2-x,-y,z
x,1/2-y,1/2-z
1/2-x,1/2+y,1/2-z
-x,-y,-z
1/2+x,y,-z
-x,1/2+y,1/2+z
1/2+x,1/2-y,1/2+z
loop_
_atom_site_type_symbol
_atom_site_label
_atom_site_fract_x
_atom_site_fract_y
_atom_site_fract_z
Si Si1 0.515241 0.263834 0.870668
Si Si2 0.052248 0.594090 0.384128
Si Si3 0.358960 0.522816 0.851451
Si Si4 0.353029 0.750000 0.250000
Si Si5 0.552533 0.164036 0.481785
Si Si6 0.470127 0.750000 0.750000
Si Si7 0.250000 0.000000 0.153529
O O1 0.419402 0.363461 0.866585
O O2 0.576841 0.325753 0.806320
O O3 0.501450 0.074795 0.871275
O O4 0.577251 0.284304 0.940604
O O5 0.162617 0.562746 0.390706
O O6 0.012067 0.700284 0.446737
O O7 0.033815 0.686053 0.312346
O O8 0.250000 0.500000 0.838146
O O9 0.372268 0.625121 0.922510
O O10 0.406327 0.616982 0.787427
O O11 0.291644 0.867829 0.204847
O O12 0.500000 0.000000 0.500000
#
# Coordination Sequence:
#
# PCOD9409549 Si02
#       7
#     8   8   8   4   8   4   4
#     4  10  20  38  58  81 116 155 191 242 303 349
#     4  10  20  37  59  85 117 157 194 238 300 353
#     4  10  21  38  57  86 114 150 207 240 292 351
#     4  10  21  35  56  86 118 154 192 241 297 346
#     4   9  20  39  59  80 117 159 188 238 301 352
#     4  10  21  35  58  78 120 158 186 249 297 348
#     4  10  20  34  54  90 116 144 200 244 280 360
#
# _framework density 18.980219000000002
#
# number of rings (size 3 to 8) (size 9 to 14) (size 15 to 20)
#    0.000    2.182    0.000    3.273    0.000    5.091 
#   14.727    2.727    0.000    0.000    0.000    0.000 
#    0.000    0.000    0.000    0.000    0.000    0.000 
#
# Total GULP energy -245067.794619 kJ/mol
# GULP energy per Si atom -5569.722605 kJ/mol
# Density = 1.893702 g / cm^3
# Si number density = 18.980219 Si / 1000 Ang^3
#
#
#
# Elastic Constant Matrix: (Units=GPa)
#
#
# Indices 1 2 3 4 5 6 
#
# 1 107.4964 33.5528 10.7518 0.0000 0.0000 0.0000
# 2 33.5528 79.6457 0.0945 0.0000 0.0000 0.0000
# 3 10.7518 0.0945 85.5571 0.0000 0.0000 0.0000
# 4 0.0000 0.0000 0.0000 29.9754 0.0000 0.0000
# 5 0.0000 0.0000 0.0000 0.0000 10.9827 0.0000
# 6 0.0000 0.0000 0.0000 0.0000 0.0000 24.8281
#
#
#
# Elastic Compliance Matrix: (Units=1/GPa)
#
#
# Indices 1 2 3 4 5 6 
#
# 1 0.010867 -0.004576 -0.001361 0.000000 0.000000 0.000000
# 2 -0.004576 0.014483 0.000559 0.000000 0.000000 0.000000
# 3 -0.001361 0.000559 0.011858 0.000000 0.000000 0.000000
# 4 0.000000 0.000000 0.000000 0.033361 0.000000 0.000000
# 5 0.000000 0.000000 0.000000 0.000000 0.091053 0.000000
# 6 0.000000 0.000000 0.000000 0.000000 0.000000 0.040277
#
#
# Mechanical properties :
#
#
# Convention : Reuss Voigt Hill
#
# Bulk Modulus (GPa) = 37.80343 40.16641 38.98492
# Shear Modulus (GPa) = 22.57620 28.37724 25.47672
#
# Velocity S-wave (km/s) = 3.45260 3.87084 3.66768
# Velocity P-wave (km/s) = 5.98785 6.41764 6.20647
#
# Compressibility (1/GPa) = 0.02645262
#
# Stress axis : x y z
#
# Youngs Moduli (GPa) = 92.02024 69.04693 84.32797
#
# Poissons Ratio (x) = 0.31599 0.11474
# Poissons Ratio (y) = 0.42113 -0.04715
# Poissons Ratio (z) = 0.12520 -0.03861
#
# Static dielectric constant tensor:
#      x y z
#    x 1.637430 0.000000 0.000000 
#    y 0.000000 2.264060 0.000000 
#    z 0.000000 0.000000 1.693770 
# 
# From -- ./inp_files/32997.got.cif
#   From: 2010.05.17/outbox.cif.g08.bks.cpg/sg52_17_cif.got.tgz:32997.got - 2010.06.03 12:15:38.
