data_PCOD9409752
_publ_section_title
;
Structure prediction by ZEFSAII (Michael W. Deem and Ramdas Pophale) SiO2 
 PCOD9409752
Probable space group: P N N A
;
_chemical_formula_sum "Si O2"
_cell_formula_units_Z 56
_cell_length_a 34.135014
_cell_length_b 13.917243
_cell_length_c 5.957303
_cell_angle_alpha 90.000000
_cell_angle_beta 90.000000
_cell_angle_gamma 90.000000
_cell_volume 2830.107845
_symmetry_space_group_name_H-M "P N N A"
_symmetry_group_IT_number 52
_symmetry_cell_setting 'orthorhombic'
loop_
_space_group_symop_operation_xyz
x,y,z
1/2-x,-y,z
x,1/2-y,1/2-z
1/2-x,1/2+y,1/2-z
-x,-y,-z
1/2+x,y,-z
-x,1/2+y,1/2+z
1/2+x,1/2-y,1/2+z
loop_
_atom_site_type_symbol
_atom_site_label
_atom_site_fract_x
_atom_site_fract_y
_atom_site_fract_z
Si Si1 0.498660 0.852984 0.374213
Si Si2 0.346828 0.369548 0.593024
Si Si3 0.418333 0.446304 0.804322
Si Si4 0.460750 0.750000 0.750000
Si Si5 0.925499 0.889270 0.923910
Si Si6 0.210664 0.941227 0.517935
Si Si7 0.861750 0.978098 0.696413
Si Si8 0.304049 0.250000 0.250000
O O1 0.504477 0.750000 0.250000
O O2 0.538824 0.909789 0.362692
O O3 0.486918 0.830603 0.630652
O O4 0.462254 0.902398 0.244738
O O5 0.388923 0.364528 0.710891
O O6 0.312585 0.402455 0.763224
O O7 0.354419 0.448643 0.400433
O O8 0.331409 0.278582 0.458766
O O9 0.423429 0.527576 0.612502
O O10 0.393754 0.484441 0.016965
O O11 0.434454 0.707775 0.554559
O O12 0.883916 0.887569 0.799883
O O13 0.180190 0.020058 0.419154
O O14 0.216238 0.849085 0.345282
O O15 0.250000 0.000000 0.565833
#
# Coordination Sequence:
#
# PCOD9409752 Si02
#       8
#     8   8   8   4   8   8   8   4
#     4  10  22  35  51  79 113 156 196 245 295 343
#     4   9  20  36  57  89 119 153 189 236 298 358
#     4  10  20  36  58  84 116 150 196 245 294 354
#     4  10  22  36  51  76 114 160 198 248 292 342
#     4  10  20  37  57  78 111 151 204 243 297 343
#     4  10  21  39  65  90 123 154 193 242 300 362
#     4   9  20  36  59  85 110 147 191 240 294 349
#     4  10  20  38  63  92 120 158 192 238 298 358
#
# _framework density 19.787230999999998
#
# number of rings (size 3 to 8) (size 9 to 14) (size 15 to 20)
#    0.000    2.286    0.000    1.714    0.000   12.571 
#    0.000    3.571   14.143    0.000    0.000    0.000 
#    0.000    0.000    0.000    0.000    0.000    0.000 
#
# Total GULP energy -311961.550548 kJ/mol
# GULP energy per Si atom -5570.741974 kJ/mol
# Density = 1.974219 g / cm^3
# Si number density = 19.787231 Si / 1000 Ang^3
#
#
#
# Elastic Constant Matrix: (Units=GPa)
#
#
# Indices 1 2 3 4 5 6 
#
# 1 140.3290 39.4708 46.7078 0.0000 0.0000 0.0000
# 2 39.4708 45.7642 15.8473 0.0000 0.0000 0.0000
# 3 46.7078 15.8473 89.3001 0.0000 0.0000 0.0000
# 4 0.0000 0.0000 0.0000 27.5075 0.0000 0.0000
# 5 0.0000 0.0000 0.0000 0.0000 14.4599 0.0000
# 6 0.0000 0.0000 0.0000 0.0000 0.0000 18.9306
#
#
#
# Elastic Compliance Matrix: (Units=1/GPa)
#
#
# Indices 1 2 3 4 5 6 
#
# 1 0.010723 -0.007784 -0.004227 0.000000 0.000000 0.000000
# 2 -0.007784 0.028933 -0.001063 0.000000 0.000000 0.000000
# 3 -0.004227 -0.001063 0.013598 0.000000 0.000000 0.000000
# 4 0.000000 0.000000 0.000000 0.036354 0.000000 0.000000
# 5 0.000000 0.000000 0.000000 0.000000 0.069157 0.000000
# 6 0.000000 0.000000 0.000000 0.000000 0.000000 0.052824
#
#
# Mechanical properties :
#
#
# Convention : Reuss Voigt Hill
#
# Bulk Modulus (GPa) = 36.89370 53.27167 45.08269
# Shear Modulus (GPa) = 20.26165 23.73743 21.99954
#
# Velocity S-wave (km/s) = 3.20343 3.46733 3.33799
# Velocity P-wave (km/s) = 5.68932 6.55824 6.13917
#
# Compressibility (1/GPa) = 0.02710489
#
# Stress axis : x y z
#
# Youngs Moduli (GPa) = 93.26157 34.56254 73.54184
#
# Poissons Ratio (x) = 0.26904 0.31086
# Poissons Ratio (y) = 0.72597 0.07817
# Poissons Ratio (z) = 0.39421 0.03674
#
# Static dielectric constant tensor:
#      x y z
#    x 1.669420 0.000000 0.000000 
#    y 0.000000 1.757990 0.000000 
#    z 0.000000 0.000000 1.755540 
# 
# From -- ./inp_files/6447.got.cif
#   From: 2010.05.17/outbox.cif.g08.bks.cpg/sg52_4_cif.got.tgz:6447.got - 2010.06.03 12:15:38.
