data_PCOD9409695
_publ_section_title
;
Structure prediction by ZEFSAII (Michael W. Deem and Ramdas Pophale) SiO2 
 PCOD9409695
Probable space group: P N N A
;
_chemical_formula_sum "Si O2"
_cell_formula_units_Z 32
_cell_length_a 8.405379
_cell_length_b 11.547162
_cell_length_c 15.179668
_cell_angle_alpha 90.000000
_cell_angle_beta 90.000000
_cell_angle_gamma 90.000000
_cell_volume 1473.312361
_symmetry_space_group_name_H-M "P N N A"
_symmetry_group_IT_number 52
_symmetry_cell_setting 'orthorhombic'
loop_
_space_group_symop_operation_xyz
x,y,z
1/2-x,-y,z
x,1/2-y,1/2-z
1/2-x,1/2+y,1/2-z
-x,-y,-z
1/2+x,y,-z
-x,1/2+y,1/2+z
1/2+x,1/2-y,1/2+z
loop_
_atom_site_type_symbol
_atom_site_label
_atom_site_fract_x
_atom_site_fract_y
_atom_site_fract_z
Si Si1 0.643141 0.383365 0.433059
Si Si2 0.433649 0.531088 0.095225
Si Si3 0.442150 0.495094 0.284227
Si Si4 0.535563 0.707988 0.395042
O O1 0.750000 0.500000 0.444803
O O2 0.520777 0.407700 0.353969
O O3 0.775331 0.287193 0.411484
O O4 0.548216 0.352181 0.520584
O O5 0.250000 0.500000 0.091754
O O6 0.495400 0.469146 0.184303
O O7 0.461522 0.666351 0.112583
O O8 0.500000 0.500000 0.000000
O O9 0.250000 0.500000 0.289708
O O10 0.503655 0.621518 0.314448
#
# Coordination Sequence:
#
# PCOD9409695 Si02
#       4
#     8   8   8   8
#     4  10  20  35  62  93 120 152 199 260 310 363
#     4  11  25  42  60  86 125 167 205 252 306 371
#     4  10  21  39  62  89 121 157 206 259 310 366
#     4  11  20  38  63  90 121 160 201 249 309 370
#
# _framework density 21.719766
#
# number of rings (size 3 to 8) (size 9 to 14) (size 15 to 20)
#    0.000    1.500    0.000    7.500    0.000    3.000 
#    0.000    8.750    0.000    3.000    0.000    0.000 
#    0.000    0.000    0.000    0.000    0.000    0.000 
#
# Total GULP energy -178892.855577 kJ/mol
# GULP energy per Si atom -5590.401737 kJ/mol
# Density = 2.167033 g / cm^3
# Si number density = 21.719766 Si / 1000 Ang^3
#
#
#
# Elastic Constant Matrix: (Units=GPa)
#
#
# Indices 1 2 3 4 5 6 
#
# 1 109.1061 18.7658 51.9052 0.0000 0.0000 0.0000
# 2 18.7658 40.5208 12.2647 0.0000 0.0000 0.0000
# 3 51.9052 12.2647 192.2218 0.0000 0.0000 0.0000
# 4 0.0000 0.0000 0.0000 -7.1982 0.0000 0.0000
# 5 0.0000 0.0000 0.0000 0.0000 27.3355 0.0000
# 6 0.0000 0.0000 0.0000 0.0000 0.0000 37.5306
#
#
#
# Elastic Compliance Matrix: (Units=1/GPa)
#
#
# Indices 1 2 3 4 5 6 
#
# 1 0.011226 -0.004366 -0.002753 0.000000 0.000000 0.000000
# 2 -0.004366 0.026862 -0.000535 0.000000 0.000000 0.000000
# 3 -0.002753 -0.000535 0.005980 0.000000 0.000000 0.000000
# 4 0.000000 0.000000 0.000000 -0.138923 0.000000 0.000000
# 5 0.000000 0.000000 0.000000 0.000000 0.036583 0.000000
# 6 0.000000 0.000000 0.000000 0.000000 0.000000 0.026645
#
#
# Mechanical properties :
#
#
# Convention : Reuss Voigt Hill
#
# Bulk Modulus (GPa) = 34.76922 56.41334 45.59128
# Shear Modulus (GPa) = -742.53316 28.79443 -356.86937
#
# Velocity S-wave (km/s) = -18.50978 3.64500 -12.83211
# Velocity P-wave (km/s) = 20.99460 6.61395 14.08951
#
# Compressibility (1/GPa) = 0.02876107
#
# Stress axis : x y z
#
# Youngs Moduli (GPa) = 89.08037 37.22666 167.23029
#
# Poissons Ratio (x) = 0.16252 0.46034
# Poissons Ratio (y) = 0.38889 0.08949
# Poissons Ratio (z) = 0.24521 0.01992
#
# Static dielectric constant tensor:
#      x y z
#    x 1.785510 0.000000 0.000000 
#    y 0.000000 1.804100 0.000000 
#    z 0.000000 0.000000 1.817680 
# 
# From -- ./inp_files/24073.got.cif
#   From: 2010.05.17/outbox.cif.g08.bks.cpg/sg52_13_cif.got.tgz:24073.got - 2010.06.03 12:15:38.
