data_PCOD9409018
_publ_section_title
;
Structure prediction by ZEFSAII (Michael W. Deem and Ramdas Pophale) SiO2 
 PCOD9409018
Probable space group: P N N A
;
_chemical_formula_sum "Si O2"
_cell_formula_units_Z 40
_cell_length_a 13.386919
_cell_length_b 12.794967
_cell_length_c 10.245188
_cell_angle_alpha 90.000000
_cell_angle_beta 90.000000
_cell_angle_gamma 90.000000
_cell_volume 1754.848941
_symmetry_space_group_name_H-M "P N N A"
_symmetry_group_IT_number 52
_symmetry_cell_setting 'orthorhombic'
loop_
_space_group_symop_operation_xyz
x,y,z
1/2-x,-y,z
x,1/2-y,1/2-z
1/2-x,1/2+y,1/2-z
-x,-y,-z
1/2+x,y,-z
-x,1/2+y,1/2+z
1/2+x,1/2-y,1/2+z
loop_
_atom_site_type_symbol
_atom_site_label
_atom_site_fract_x
_atom_site_fract_y
_atom_site_fract_z
Si Si1 0.086556 0.457301 0.796269
Si Si2 0.413247 0.859813 0.979214
Si Si3 0.937532 0.625790 0.765505
Si Si4 0.288899 0.849525 0.496363
Si Si5 0.417653 0.293021 0.112628
O O1 0.104137 0.433085 0.644332
O O2 0.038766 0.570908 0.811504
O O3 0.998228 0.380107 0.846866
O O4 0.178486 0.419382 0.882203
O O5 0.331463 0.767401 0.979627
O O6 0.518764 0.798559 0.957358
O O7 0.412245 0.914216 0.120045
O O8 0.949516 0.750000 0.750000
O O9 0.850084 0.608682 0.870190
O O10 0.173099 0.839715 0.467266
O O11 0.375366 0.250000 0.250000
#
# Coordination Sequence:
#
# PCOD9409018 Si02
#       5
#     8   8   8   8   8
#     4  10  20  36  58  86 114 151 196 232 282 341
#     4   9  19  36  59  83 113 150 186 233 287 343
#     4  10  20  35  57  82 112 148 189 238 284 328
#     4  10  19  35  57  83 115 148 185 234 286 342
#     4   9  18  34  58  87 116 149 189 231 283 348
#
# _framework density 22.793983999999998
#
# number of rings (size 3 to 8) (size 9 to 14) (size 15 to 20)
#    0.000    2.400    0.000    4.800    0.000    0.800 
#    0.000   10.000    0.000   15.600    0.000    0.000 
#    0.000    0.000    0.000    0.000    0.000    0.000 
#
# Total GULP energy -223808.815642 kJ/mol
# GULP energy per Si atom -5595.220391 kJ/mol
# Density = 2.274210 g / cm^3
# Si number density = 22.793984 Si / 1000 Ang^3
#
#
#
# Elastic Constant Matrix: (Units=GPa)
#
#
# Indices 1 2 3 4 5 6 
#
# 1 60.0221 7.6009 36.5741 0.0000 0.0000 0.0000
# 2 7.6009 33.2834 11.2905 0.0000 0.0000 0.0000
# 3 36.5741 11.2905 136.8152 0.0000 0.0000 0.0000
# 4 0.0000 0.0000 0.0000 -5.1693 0.0000 0.0000
# 5 0.0000 0.0000 0.0000 0.0000 346.2028 0.0000
# 6 0.0000 0.0000 0.0000 0.0000 0.0000 28.9466
#
#
#
# Elastic Compliance Matrix: (Units=1/GPa)
#
#
# Indices 1 2 3 4 5 6 
#
# 1 0.020163 -0.002856 -0.005154 0.000000 0.000000 0.000000
# 2 -0.002856 0.031315 -0.001821 0.000000 0.000000 0.000000
# 3 -0.005154 -0.001821 0.008837 0.000000 0.000000 0.000000
# 4 0.000000 0.000000 0.000000 -0.193450 0.000000 0.000000
# 5 0.000000 0.000000 0.000000 0.000000 0.002888 0.000000
# 6 0.000000 0.000000 0.000000 0.000000 0.000000 0.034546
#
#
# Mechanical properties :
#
#
# Convention : Reuss Voigt Hill
#
# Bulk Modulus (GPa) = 24.59859 37.89464 31.24661
# Shear Modulus (GPa) = -80.01756 85.63971 2.81107
#
# Velocity S-wave (km/s) = -5.93135 6.13618 1.11172
# Velocity P-wave (km/s) = 6.00772 8.17708 3.92249
#
# Compressibility (1/GPa) = 0.04065274
#
# Stress axis : x y z
#
# Youngs Moduli (GPa) = 49.59582 31.93370 113.15710
#
# Poissons Ratio (x) = 0.09121 0.58325
# Poissons Ratio (y) = 0.14165 0.20603
# Poissons Ratio (z) = 0.25564 0.05814
#
# Static dielectric constant tensor:
#      x y z
#    x 1.813130 0.000000 0.000000 
#    y 0.000000 1.860020 0.000000 
#    z 0.000000 0.000000 1.897390 
# 
# From -- ./inp_files/10082.got.cif
#   From: 2010.05.17/outbox.cif.g08.bks.cpg/sg52_6_cif.got.tgz:10082.got - 2010.06.03 12:15:38.
