data_PCOD9409806
_publ_section_title
;
Structure prediction by ZEFSAII (Michael W. Deem and Ramdas Pophale) SiO2 
 PCOD9409806
Probable space group: P N N A
;
_chemical_formula_sum "Si O2"
_cell_formula_units_Z 48
_cell_length_a 8.867942
_cell_length_b 15.662612
_cell_length_c 15.726416
_cell_angle_alpha 90.000000
_cell_angle_beta 90.000000
_cell_angle_gamma 90.000000
_cell_volume 2184.322670
_symmetry_space_group_name_H-M "P N N A"
_symmetry_group_IT_number 52
_symmetry_cell_setting 'orthorhombic'
loop_
_space_group_symop_operation_xyz
x,y,z
1/2-x,-y,z
x,1/2-y,1/2-z
1/2-x,1/2+y,1/2-z
-x,-y,-z
1/2+x,y,-z
-x,1/2+y,1/2+z
1/2+x,1/2-y,1/2+z
loop_
_atom_site_type_symbol
_atom_site_label
_atom_site_fract_x
_atom_site_fract_y
_atom_site_fract_z
Si Si1 0.861403 0.437093 0.514323
Si Si2 0.502756 0.237417 0.078705
Si Si3 0.753585 0.842043 0.520489
Si Si4 0.009106 0.898519 0.617965
Si Si5 0.003819 0.750000 0.750000
Si Si6 0.750180 0.646207 0.340404
Si Si7 0.750000 0.000000 0.294245
O O1 0.750000 0.500000 0.565183
O O2 0.920358 0.350553 0.555046
O O3 0.778425 0.405417 0.427863
O O4 0.000000 0.500000 0.500000
O O5 0.370181 0.305974 0.086102
O O6 0.613283 0.212308 0.153811
O O7 0.622914 0.270517 0.007662
O O8 0.649687 0.862756 0.439041
O O9 0.864252 0.913710 0.558197
O O10 0.949833 0.829565 0.689146
O O11 0.094079 0.979741 0.657285
O O12 0.101394 0.698448 0.681167
O O13 0.776786 0.580890 0.265173
#
# Coordination Sequence:
#
# PCOD9409806 Si02
#       7
#     8   8   8   8   4   8   4
#     4  12  20  30  51  86 121 149 184 243 306 372
#     4  11  18  34  57  88 116 150 194 253 300 366
#     4  10  20  36  61  92 114 151 208 254 297 352
#     4  10  21  38  62  92 117 158 204 255 306 359
#     4  10  20  36  62  84 118 160 202 252 296 372
#     4  11  19  36  56  87 116 160 203 240 310 379
#     4  10  22  36  58  88 118 164 206 252 306 372
#
# _framework density 21.974775999999999
#
# number of rings (size 3 to 8) (size 9 to 14) (size 15 to 20)
#    0.000    1.333    5.833    1.000    0.000    0.667 
#    0.000    0.833    0.000    0.000   26.000    0.000 
#    0.000    0.000    0.000    0.000    0.000    0.000 
#
# Total GULP energy -267286.272750 kJ/mol
# GULP energy per Si atom -5568.464016 kJ/mol
# Density = 2.192476 g / cm^3
# Si number density = 21.974776 Si / 1000 Ang^3
#
#
#
# Elastic Constant Matrix: (Units=GPa)
#
#
# Indices 1 2 3 4 5 6 
#
# 1 97.3255 -2.2282 14.2265 0.0000 0.0000 0.0000
# 2 -2.2282 25.4331 1.4247 0.0000 0.0000 0.0000
# 3 14.2265 1.4247 42.0254 0.0000 0.0000 0.0000
# 4 0.0000 0.0000 0.0000 -28.2829 0.0000 0.0000
# 5 0.0000 0.0000 0.0000 0.0000 -11.1371 0.0000
# 6 0.0000 0.0000 0.0000 0.0000 0.0000 17.6354
#
#
#
# Elastic Compliance Matrix: (Units=1/GPa)
#
#
# Indices 1 2 3 4 5 6 
#
# 1 0.010844 0.001158 -0.003710 0.000000 0.000000 0.000000
# 2 0.001158 0.039517 -0.001732 0.000000 0.000000 0.000000
# 3 -0.003710 -0.001732 0.025110 0.000000 0.000000 0.000000
# 4 0.000000 0.000000 0.000000 -0.035357 0.000000 0.000000
# 5 0.000000 0.000000 0.000000 0.000000 -0.089790 0.000000
# 6 0.000000 0.000000 0.000000 0.000000 0.000000 0.056704
#
#
# Mechanical properties :
#
#
# Convention : Reuss Voigt Hill
#
# Bulk Modulus (GPa) = 14.94702 21.29222 18.11962
# Shear Modulus (GPa) = 131.93961 5.73383 68.83672
#
# Velocity S-wave (km/s) = 7.75704 1.61708 5.60298
# Velocity P-wave (km/s) = 9.32983 3.63277 7.07964
#
# Compressibility (1/GPa) = 0.06690297
#
# Stress axis : x y z
#
# Youngs Moduli (GPa) = 92.22017 25.30539 39.82512
#
# Poissons Ratio (x) = -0.02930 0.14775
# Poissons Ratio (y) = -0.10678 0.06896
# Poissons Ratio (z) = 0.34214 0.04382
#
# Static dielectric constant tensor:
#      x y z
#    x 1.809650 0.000000 0.000000 
#    y 0.000000 1.952950 0.000000 
#    z 0.000000 0.000000 1.911420 
# 
# From -- ./inp_files/31271.got.cif
#   From: 2010.05.17/outbox.cif.g08.bks.cpg/sg52_16_cif.got.tgz:31271.got - 2010.06.03 12:15:38.
