data_PCOD9409667
_publ_section_title
;
Structure prediction by ZEFSAII (Michael W. Deem and Ramdas Pophale) SiO2 
 PCOD9409667
Probable space group: P N N A
;
_chemical_formula_sum "Si O2"
_cell_formula_units_Z 48
_cell_length_a 7.825948
_cell_length_b 11.975541
_cell_length_c 22.886227
_cell_angle_alpha 90.000000
_cell_angle_beta 90.000000
_cell_angle_gamma 90.000000
_cell_volume 2144.896305
_symmetry_space_group_name_H-M "P N N A"
_symmetry_group_IT_number 52
_symmetry_cell_setting 'orthorhombic'
loop_
_space_group_symop_operation_xyz
x,y,z
1/2-x,-y,z
x,1/2-y,1/2-z
1/2-x,1/2+y,1/2-z
-x,-y,-z
1/2+x,y,-z
-x,1/2+y,1/2+z
1/2+x,1/2-y,1/2+z
loop_
_atom_site_type_symbol
_atom_site_label
_atom_site_fract_x
_atom_site_fract_y
_atom_site_fract_z
Si Si1 0.380050 0.339553 0.907032
Si Si2 0.264903 0.834211 0.477626
Si Si3 0.313309 0.875532 0.863627
Si Si4 0.427493 0.045920 0.374146
Si Si5 0.841122 0.117279 0.925613
Si Si6 0.104078 0.728546 0.312088
O O1 0.553228 0.329747 0.945840
O O2 0.320229 0.224503 0.876595
O O3 0.433939 0.448309 0.870427
O O4 0.236503 0.368762 0.955245
O O5 0.137184 0.910407 0.438409
O O6 0.198899 0.707218 0.474540
O O7 0.434431 0.846470 0.808378
O O8 0.250000 0.000000 0.856885
O O9 0.044875 0.115967 0.915835
O O10 0.467836 0.157793 0.339855
O O11 0.250000 0.000000 0.347542
O O12 0.782339 0.171230 0.862791
O O13 0.750000 0.000000 0.934704
O O14 0.186733 0.750000 0.250000
#
# Coordination Sequence:
#
# PCOD9409667 Si02
#       6
#     8   8   8   8   8   8
#     4  11  21  36  60  89 127 165 204 251 299 377
#     4  10  20  35  57  91 123 163 202 245 306 361
#     4  10  22  39  58  85 120 157 206 249 308 358
#     4   9  20  38  60  89 126 154 204 252 306 370
#     4   9  19  37  59  84 123 156 203 253 299 369
#     4   9  21  41  62  88 118 157 204 261 315 367
#
# _framework density 22.378706000000001
#
# number of rings (size 3 to 8) (size 9 to 14) (size 15 to 20)
#    1.000    1.333    0.000    2.500    0.000    2.000 
#    3.000    3.333    0.000    2.000    0.000    0.000 
#    0.000    0.000    0.000    0.000    0.000    0.000 
#
# Total GULP energy -267491.260631 kJ/mol
# GULP energy per Si atom -5572.734596 kJ/mol
# Density = 2.232777 g / cm^3
# Si number density = 22.378706 Si / 1000 Ang^3
#
#
#
# Elastic Constant Matrix: (Units=GPa)
#
#
# Indices 1 2 3 4 5 6 
#
# 1 83.7941 32.2350 -16.8873 0.0000 0.0000 0.0000
# 2 32.2350 168.7181 3.3155 0.0000 0.0000 0.0000
# 3 -16.8873 3.3155 38.7880 0.0000 0.0000 0.0000
# 4 0.0000 0.0000 0.0000 4.5201 0.0000 0.0000
# 5 0.0000 0.0000 0.0000 0.0000 13.0130 0.0000
# 6 0.0000 0.0000 0.0000 0.0000 0.0000 47.0622
#
#
#
# Elastic Compliance Matrix: (Units=1/GPa)
#
#
# Indices 1 2 3 4 5 6 
#
# 1 0.014346 -0.002868 0.006491 0.000000 0.000000 0.000000
# 2 -0.002868 0.006511 -0.001805 0.000000 0.000000 0.000000
# 3 0.006491 -0.001805 0.028761 0.000000 0.000000 0.000000
# 4 0.000000 0.000000 0.000000 0.221234 0.000000 0.000000
# 5 0.000000 0.000000 0.000000 0.000000 0.076846 0.000000
# 6 0.000000 0.000000 0.000000 0.000000 0.000000 0.021248
#
#
# Mechanical properties :
#
#
# Convention : Reuss Voigt Hill
#
# Bulk Modulus (GPa) = 18.77867 36.51408 27.64637
# Shear Modulus (GPa) = 13.05270 31.09485 22.07377
#
# Velocity S-wave (km/s) = 2.41771 3.73162 3.14407
# Velocity P-wave (km/s) = 4.02533 5.90919 5.05578
#
# Compressibility (1/GPa) = 0.05325191
#
# Stress axis : x y z
#
# Youngs Moduli (GPa) = 69.70778 153.59669 34.76874
#
# Poissons Ratio (x) = 0.44058 -0.22568
# Poissons Ratio (y) = 0.19995 0.06277
# Poissons Ratio (z) = -0.45247 0.27729
#
# Static dielectric constant tensor:
#      x y z
#    x 1.943960 0.000000 0.000000 
#    y 0.000000 1.854180 0.000000 
#    z 0.000000 0.000000 1.840390 
# 
# From -- ./inp_files/39470.got.cif
#   From: 2010.05.17/outbox.cif.g08.bks.cpg/sg52_20_cif.got.tgz:39470.got - 2010.06.03 12:15:38.
