data_PCOD9409004
_publ_section_title
;
Structure prediction by ZEFSAII (Michael W. Deem and Ramdas Pophale) SiO2 
 PCOD9409004
Probable space group: P N N A
;
_chemical_formula_sum "Si O2"
_cell_formula_units_Z 64
_cell_length_a 25.723299
_cell_length_b 11.818059
_cell_length_c 10.954724
_cell_angle_alpha 90.000000
_cell_angle_beta 90.000000
_cell_angle_gamma 90.000000
_cell_volume 3330.230238
_symmetry_space_group_name_H-M "P N N A"
_symmetry_group_IT_number 52
_symmetry_cell_setting 'orthorhombic'
loop_
_space_group_symop_operation_xyz
x,y,z
1/2-x,-y,z
x,1/2-y,1/2-z
1/2-x,1/2+y,1/2-z
-x,-y,-z
1/2+x,y,-z
-x,1/2+y,1/2+z
1/2+x,1/2-y,1/2+z
loop_
_atom_site_type_symbol
_atom_site_label
_atom_site_fract_x
_atom_site_fract_y
_atom_site_fract_z
Si Si1 0.014629 0.099089 0.406851
Si Si2 0.126000 0.782937 0.951413
Si Si3 0.689250 0.994576 0.960599
Si Si4 0.045084 0.670981 0.350013
Si Si5 0.046310 0.333119 0.513231
Si Si6 0.642393 0.361713 0.315935
Si Si7 0.597269 0.583643 0.210707
Si Si8 0.901818 0.954793 0.785061
O O1 0.019839 0.215632 0.478310
O O2 0.070564 0.091127 0.337415
O O3 0.963752 0.096267 0.320461
O O4 0.000000 0.000000 0.500000
O O5 0.130743 0.661584 0.883951
O O6 0.103277 0.862139 0.844340
O O7 0.170721 0.865185 0.007160
O O8 0.083396 0.768655 0.056147
O O9 0.676421 0.071498 0.081319
O O10 0.750000 0.000000 0.936304
O O11 0.656243 0.040986 0.843261
O O12 0.019483 0.750000 0.250000
O O13 0.081601 0.584549 0.280120
O O14 0.999902 0.603416 0.417644
O O15 0.093269 0.318443 0.606378
O O16 0.067568 0.392096 0.393532
O O17 0.665547 0.250000 0.250000
O O18 0.620192 0.457108 0.222438
#
# Coordination Sequence:
#
# PCOD9409004 Si02
#       8
#     8   8   8   8   8   8   8   8
#     4  12  22  32  52  90 122 159 194 240 299 367
#     4   9  19  34  58  83 112 153 193 249 287 355
#     4   9  20  41  63  83 109 153 209 258 308 356
#     4  11  19  32  51  80 117 149 194 232 287 347
#     4  11  20  33  51  75 120 162 194 226 287 375
#     4  10  20  36  54  84 117 155 189 252 311 366
#     4  10  19  35  56  82 126 156 194 232 301 375
#     4  10  22  34  54  81 112 157 199 245 295 369
#
# _framework density 19.217891000000002
#
# number of rings (size 3 to 8) (size 9 to 14) (size 15 to 20)
#    0.000    1.750    1.250    4.875    1.750    0.000 
#    4.500    0.000    0.000   12.000    0.000    0.000 
#    0.000    0.000    0.000    0.000    0.000    0.000 
#
# Total GULP energy -356303.118844 kJ/mol
# GULP energy per Si atom -5567.236232 kJ/mol
# Density = 1.917415 g / cm^3
# Si number density = 19.217891 Si / 1000 Ang^3
#
#
#
# Elastic Constant Matrix: (Units=GPa)
#
#
# Indices 1 2 3 4 5 6 
#
# 1 120.5298 25.5035 24.9496 0.0000 0.0000 0.0000
# 2 25.5035 75.3325 7.7133 0.0000 0.0000 0.0000
# 3 24.9496 7.7133 33.3302 0.0000 0.0000 0.0000
# 4 0.0000 0.0000 0.0000 19.3042 0.0000 0.0000
# 5 0.0000 0.0000 0.0000 0.0000 16.8174 0.0000
# 6 0.0000 0.0000 0.0000 0.0000 0.0000 15.8071
#
#
#
# Elastic Compliance Matrix: (Units=1/GPa)
#
#
# Indices 1 2 3 4 5 6 
#
# 1 0.010356 -0.002778 -0.007109 0.000000 0.000000 0.000000
# 2 -0.002778 0.014342 -0.001239 0.000000 0.000000 0.000000
# 3 -0.007109 -0.001239 0.035611 0.000000 0.000000 0.000000
# 4 0.000000 0.000000 0.000000 0.051802 0.000000 0.000000
# 5 0.000000 0.000000 0.000000 0.000000 0.059462 0.000000
# 6 0.000000 0.000000 0.000000 0.000000 0.000000 0.063263
#
#
# Mechanical properties :
#
#
# Convention : Reuss Voigt Hill
#
# Bulk Modulus (GPa) = 26.27722 38.39169 32.33445
# Shear Modulus (GPa) = 18.53396 21.78750 20.16073
#
# Velocity S-wave (km/s) = 3.10887 3.37071 3.24243
# Velocity P-wave (km/s) = 5.15652 5.93038 5.55694
#
# Compressibility (1/GPa) = 0.03805578
#
# Stress axis : x y z
#
# Youngs Moduli (GPa) = 96.56097 69.72575 28.08093
#
# Poissons Ratio (x) = 0.19371 0.19963
# Poissons Ratio (y) = 0.26826 0.03480
# Poissons Ratio (z) = 0.68648 0.08642
#
# Static dielectric constant tensor:
#      x y z
#    x 1.683610 0.000000 0.000000 
#    y 0.000000 1.752760 0.000000 
#    z 0.000000 0.000000 1.770310 
# 
# From -- ./inp_files/22487.got.cif
#   From: 2010.05.17/outbox.cif.g08.bks.cpg/sg52_12_cif.got.tgz:22487.got - 2010.06.03 12:15:38.
