data_PCOD9409617
_publ_section_title
;
Structure prediction by ZEFSAII (Michael W. Deem and Ramdas Pophale) SiO2 
 PCOD9409617
Probable space group: P N N A
;
_chemical_formula_sum "Si O2"
_cell_formula_units_Z 44
_cell_length_a 13.753993
_cell_length_b 8.047799
_cell_length_c 24.372526
_cell_angle_alpha 90.000000
_cell_angle_beta 90.000000
_cell_angle_gamma 90.000000
_cell_volume 2697.779575
_symmetry_space_group_name_H-M "P N N A"
_symmetry_group_IT_number 52
_symmetry_cell_setting 'orthorhombic'
loop_
_space_group_symop_operation_xyz
x,y,z
1/2-x,-y,z
x,1/2-y,1/2-z
1/2-x,1/2+y,1/2-z
-x,-y,-z
1/2+x,y,-z
-x,1/2+y,1/2+z
1/2+x,1/2-y,1/2+z
loop_
_atom_site_type_symbol
_atom_site_label
_atom_site_fract_x
_atom_site_fract_y
_atom_site_fract_z
Si Si1 0.970242 0.013402 0.434586
Si Si2 0.244769 0.826311 0.016420
Si Si3 0.920265 0.306163 0.602096
Si Si4 0.091868 0.324123 0.389760
Si Si5 0.250000 0.000000 0.552005
Si Si6 0.753706 0.199062 0.687287
O O1 0.005195 0.843760 0.405311
O O2 0.025311 0.172595 0.409331
O O3 0.000000 0.000000 0.500000
O O4 0.855540 0.033499 0.422554
O O5 0.140757 0.805105 0.045165
O O6 0.323442 0.842619 0.064670
O O7 0.250000 0.000000 0.984342
O O8 0.269272 0.663128 0.983857
O O9 0.957029 0.493866 0.612399
O O10 0.841872 0.265075 0.649531
O O11 0.153006 0.276523 0.335608
O O12 0.768225 0.250000 0.750000
O O13 0.750000 0.000000 0.681149
#
# Coordination Sequence:
#
# PCOD9409617 Si02
#       6
#     8   8   8   8   4   8
#     4  12  22  34  54  74 110 160 194 234 282 333
#     4   9  17  29  48  72 103 142 184 226 267 323
#     4  10  20  35  52  77 115 150 183 233 285 338
#     4  10  20  35  52  77 115 150 183 233 285 338
#     4  12  22  32  48  76 102 144 206 218 272 324
#     4  11  20  35  61  91 121 144 181 234 295 351
#
# _framework density 16.309709999999999
#
# number of rings (size 3 to 8) (size 9 to 14) (size 15 to 20)
#    0.000    1.455    5.455    2.727    2.545    2.182 
#    0.000    0.000    0.000    0.000    0.000    1.273 
#    0.000    0.000    0.000    0.000    0.000    0.000 
#
# Total GULP energy -245168.053898 kJ/mol
# GULP energy per Si atom -5572.001225 kJ/mol
# Density = 1.627259 g / cm^3
# Si number density = 16.309710 Si / 1000 Ang^3
#
#
#
# Elastic Constant Matrix: (Units=GPa)
#
#
# Indices 1 2 3 4 5 6 
#
# 1 70.7606 15.6850 10.2500 0.0000 0.0000 0.0000
# 2 15.6850 135.1051 22.6589 0.0000 0.0000 0.0000
# 3 10.2500 22.6589 48.6267 0.0000 0.0000 0.0000
# 4 0.0000 0.0000 0.0000 24.0123 0.0000 0.0000
# 5 0.0000 0.0000 0.0000 0.0000 13.7611 0.0000
# 6 0.0000 0.0000 0.0000 0.0000 0.0000 15.7682
#
#
#
# Elastic Compliance Matrix: (Units=1/GPa)
#
#
# Indices 1 2 3 4 5 6 
#
# 1 0.014783 -0.001295 -0.002513 0.000000 0.000000 0.000000
# 2 -0.001295 0.008143 -0.003521 0.000000 0.000000 0.000000
# 3 -0.002513 -0.003521 0.022735 0.000000 0.000000 0.000000
# 4 0.000000 0.000000 0.000000 0.041645 0.000000 0.000000
# 5 0.000000 0.000000 0.000000 0.000000 0.072669 0.000000
# 6 0.000000 0.000000 0.000000 0.000000 0.000000 0.063419
#
#
# Mechanical properties :
#
#
# Convention : Reuss Voigt Hill
#
# Bulk Modulus (GPa) = 32.25469 39.07557 35.66513
# Shear Modulus (GPa) = 20.12995 24.43488 22.28242
#
# Velocity S-wave (km/s) = 3.51697 3.87483 3.70023
# Velocity P-wave (km/s) = 6.02590 6.63548 6.33802
#
# Compressibility (1/GPa) = 0.03100325
#
# Stress axis : x y z
#
# Youngs Moduli (GPa) = 67.64458 122.81184 43.98434
#
# Poissons Ratio (x) = 0.15902 0.11052
# Poissons Ratio (y) = 0.08759 0.15488
# Poissons Ratio (z) = 0.16998 0.43246
#
# Static dielectric constant tensor:
#      x y z
#    x 1.526630 0.000000 0.000000 
#    y 0.000000 1.598020 0.000000 
#    z 0.000000 0.000000 1.528240 
# 
# From -- ./inp_files/40092.got.cif
#   From: 2010.05.17/outbox.cif.g08.bks.cpg/sg52_21_cif.got.tgz:40092.got - 2010.06.03 12:15:38.
