data_PCOD9409446
_publ_section_title
;
Structure prediction by ZEFSAII (Michael W. Deem and Ramdas Pophale) SiO2 
 PCOD9409446
Probable space group: P N N A
;
_chemical_formula_sum "Si O2"
_cell_formula_units_Z 28
_cell_length_a 18.000406
_cell_length_b 11.339447
_cell_length_c 5.837656
_cell_angle_alpha 90.000000
_cell_angle_beta 90.000000
_cell_angle_gamma 90.000000
_cell_volume 1191.551110
_symmetry_space_group_name_H-M "P N N A"
_symmetry_group_IT_number 52
_symmetry_cell_setting 'orthorhombic'
loop_
_space_group_symop_operation_xyz
x,y,z
1/2-x,-y,z
x,1/2-y,1/2-z
1/2-x,1/2+y,1/2-z
-x,-y,-z
1/2+x,y,-z
-x,1/2+y,1/2+z
1/2+x,1/2-y,1/2+z
loop_
_atom_site_type_symbol
_atom_site_label
_atom_site_fract_x
_atom_site_fract_y
_atom_site_fract_z
Si Si1 0.615177 0.455424 0.561530
Si Si2 0.520888 0.599326 0.188343
Si Si3 0.750000 0.000000 0.227398
Si Si4 0.155629 0.650004 0.074001
O O1 0.570370 0.533414 0.377605
O O2 0.554566 0.368426 0.674454
O O3 0.690541 0.428018 0.426534
O O4 0.640665 0.537412 0.768365
O O5 0.500000 0.500000 0.000000
O O6 0.576511 0.684258 0.045519
O O7 0.789640 0.100012 0.381359
O O8 0.181482 0.750000 0.250000
#
# Coordination Sequence:
#
# PCOD9409446 Si02
#       4
#     8   8   4   8
#     4   9  17  33  55  86 109 158 197 251 302 367
#     4   8  16  31  54  85 109 147 199 254 298 353
#     4  10  20  32  54  90 120 166 202 248 320 374
#     4  10  20  34  56  94 118 161 209 253 303 373
#
# _framework density 23.498783
#
# number of rings (size 3 to 8) (size 9 to 14) (size 15 to 20)
#    0.000    2.857    0.000    0.857    0.000    4.571 
#    0.000    0.000    0.000    0.000  616.571    0.000 
#    0.000    0.000    0.000    0.000    0.000    0.000 
#
# Total GULP energy -156048.502556 kJ/mol
# GULP energy per Si atom -5573.160806 kJ/mol
# Density = 2.344530 g / cm^3
# Si number density = 23.498783 Si / 1000 Ang^3
#
#
#
# Elastic Constant Matrix: (Units=GPa)
#
#
# Indices 1 2 3 4 5 6 
#
# 1 170.0707 39.3529 92.8978 0.0000 0.0000 0.0000
# 2 39.3529 61.7708 28.1285 0.0000 0.0000 0.0000
# 3 92.8978 28.1285 147.9518 0.0000 0.0000 0.0000
# 4 0.0000 0.0000 0.0000 27.9989 0.0000 0.0000
# 5 0.0000 0.0000 0.0000 0.0000 80.4418 0.0000
# 6 0.0000 0.0000 0.0000 0.0000 0.0000 7.2762
#
#
#
# Elastic Compliance Matrix: (Units=1/GPa)
#
#
# Indices 1 2 3 4 5 6 
#
# 1 0.009671 -0.003718 -0.005366 0.000000 0.000000 0.000000
# 2 -0.003718 0.019153 -0.001307 0.000000 0.000000 0.000000
# 3 -0.005366 -0.001307 0.010376 0.000000 0.000000 0.000000
# 4 0.000000 0.000000 0.000000 0.035716 0.000000 0.000000
# 5 0.000000 0.000000 0.000000 0.000000 0.012431 0.000000
# 6 0.000000 0.000000 0.000000 0.000000 0.000000 0.137435
#
#
# Mechanical properties :
#
#
# Convention : Reuss Voigt Hill
#
# Bulk Modulus (GPa) = 54.29042 77.83910 66.06476
# Shear Modulus (GPa) = 19.86473 37.77097 28.81785
#
# Velocity S-wave (km/s) = 2.91065 4.01354 3.50573
# Velocity P-wave (km/s) = 5.86937 7.39423 6.67548
#
# Compressibility (1/GPa) = 0.01841946
#
# Stress axis : x y z
#
# Youngs Moduli (GPa) = 103.40185 52.21230 96.37277
#
# Poissons Ratio (x) = 0.19412 0.51709
# Poissons Ratio (y) = 0.38444 0.12594
# Poissons Ratio (z) = 0.55480 0.06823
#
# Static dielectric constant tensor:
#      x y z
#    x 2.015300 0.000000 0.000000 
#    y 0.000000 2.033510 0.000000 
#    z 0.000000 0.000000 1.959000 
# 
# From -- ./inp_files/2910.got.cif
#   From: 2010.05.17/outbox.cif.g08.bks.cpg/sg52_2_cif.got.tgz:2910.got - 2010.06.03 12:15:38.
