data_PCOD9409815
_publ_section_title
;
Structure prediction by ZEFSAII (Michael W. Deem and Ramdas Pophale) SiO2 
 PCOD9409815
Probable space group: P N N A
;
_chemical_formula_sum "Si O2"
_cell_formula_units_Z 40
_cell_length_a 8.751918
_cell_length_b 10.608724
_cell_length_c 22.848066
_cell_angle_alpha 90.000000
_cell_angle_beta 90.000000
_cell_angle_gamma 90.000000
_cell_volume 2121.367130
_symmetry_space_group_name_H-M "P N N A"
_symmetry_group_IT_number 52
_symmetry_cell_setting 'orthorhombic'
loop_
_space_group_symop_operation_xyz
x,y,z
1/2-x,-y,z
x,1/2-y,1/2-z
1/2-x,1/2+y,1/2-z
-x,-y,-z
1/2+x,y,-z
-x,1/2+y,1/2+z
1/2+x,1/2-y,1/2+z
loop_
_atom_site_type_symbol
_atom_site_label
_atom_site_fract_x
_atom_site_fract_y
_atom_site_fract_z
Si Si1 0.667479 0.863374 0.041787
Si Si2 0.507710 0.750000 0.250000
Si Si3 0.509429 0.750000 0.750000
Si Si4 0.308499 0.641402 0.422485
Si Si5 0.741067 0.149238 0.163235
Si Si6 0.735724 0.137542 0.672381
O O1 0.486790 0.870098 0.056905
O O2 0.747741 0.797130 0.097442
O O3 0.750000 0.000000 0.037660
O O4 0.706584 0.811780 0.977739
O O5 0.614008 0.806694 0.200104
O O6 0.402777 0.853139 0.281393
O O7 0.404093 0.816025 0.798287
O O8 0.616510 0.840767 0.712516
O O9 0.250000 0.500000 0.405430
O O10 0.288049 0.744622 0.371510
O O11 0.750000 0.000000 0.157396
O O12 0.750000 0.000000 0.643899
#
# Coordination Sequence:
#
# PCOD9409815 Si02
#       6
#     8   4   4   8   8   8
#     4  10  21  37  64  92 119 149 209 259 301 353
#     4  10  20  40  58  84 122 160 202 242 302 368
#     4  10  24  36  62  84 122 166 198 244 300 370
#     4  11  23  39  66  91 120 159 207 259 303 359
#     4  10  20  36  62  89 116 150 203 256 302 352
#     4  11  24  40  60  90 127 161 201 246 305 368
#
# _framework density 18.855767
#
# number of rings (size 3 to 8) (size 9 to 14) (size 15 to 20)
#    0.000    1.600    2.000    3.600    8.400    3.200 
#    0.000    1.000    0.000    0.000    0.000    0.000 
#    0.000    0.000    0.000    0.000    0.000    0.000 
#
# Total GULP energy -222992.374755 kJ/mol
# GULP energy per Si atom -5574.809369 kJ/mol
# Density = 1.881285 g / cm^3
# Si number density = 18.855767 Si / 1000 Ang^3
#
#
#
# Elastic Constant Matrix: (Units=GPa)
#
#
# Indices 1 2 3 4 5 6 
#
# 1 110.0674 29.2751 25.5757 0.0000 0.0000 0.0000
# 2 29.2751 82.7212 36.1215 0.0000 0.0000 0.0000
# 3 25.5757 36.1215 104.0430 0.0000 0.0000 0.0000
# 4 0.0000 0.0000 0.0000 27.4677 0.0000 0.0000
# 5 0.0000 0.0000 0.0000 0.0000 20.6601 0.0000
# 6 0.0000 0.0000 0.0000 0.0000 0.0000 -18.1672
#
#
#
# Elastic Compliance Matrix: (Units=1/GPa)
#
#
# Indices 1 2 3 4 5 6 
#
# 1 0.010219 -0.002970 -0.001481 0.000000 0.000000 0.000000
# 2 -0.002970 0.015112 -0.004517 0.000000 0.000000 0.000000
# 3 -0.001481 -0.004517 0.011544 0.000000 0.000000 0.000000
# 4 0.000000 0.000000 0.000000 0.036406 0.000000 0.000000
# 5 0.000000 0.000000 0.000000 0.000000 0.048402 0.000000
# 6 0.000000 0.000000 0.000000 0.000000 0.000000 -0.055044
#
#
# Mechanical properties :
#
#
# Convention : Reuss Voigt Hill
#
# Bulk Modulus (GPa) = 52.79824 53.19735 52.99780
# Shear Modulus (GPa) = 55.01291 19.71609 37.36450
#
# Velocity S-wave (km/s) = 5.40731 3.23712 4.45634
# Velocity P-wave (km/s) = 8.18824 6.49969 7.39233
#
# Compressibility (1/GPa) = 0.01894002
#
# Stress axis : x y z
#
# Youngs Moduli (GPa) = 97.85304 66.17230 86.62880
#
# Poissons Ratio (x) = 0.19653 0.12830
# Poissons Ratio (y) = 0.29062 0.39126
# Poissons Ratio (z) = 0.14492 0.29887
#
# Static dielectric constant tensor:
#      x y z
#    x 1.930260 0.000000 0.000000 
#    y 0.000000 1.642830 0.000000 
#    z 0.000000 0.000000 1.709800 
# 
# From -- ./inp_files/35786.got.cif
#   From: 2010.05.17/outbox.cif.g08.bks.cpg/sg52_18_cif.got.tgz:35786.got - 2010.06.03 12:15:38.
