data_PCOD9409017
_publ_section_title
;
Structure prediction by ZEFSAII (Michael W. Deem and Ramdas Pophale) SiO2 
 PCOD9409017
Probable space group: P N N A
;
_chemical_formula_sum "Si O2"
_cell_formula_units_Z 40
_cell_length_a 9.795765
_cell_length_b 12.179546
_cell_length_c 14.388880
_cell_angle_alpha 90.000000
_cell_angle_beta 90.000000
_cell_angle_gamma 90.000000
_cell_volume 1716.708069
_symmetry_space_group_name_H-M "P N N A"
_symmetry_group_IT_number 52
_symmetry_cell_setting 'orthorhombic'
loop_
_space_group_symop_operation_xyz
x,y,z
1/2-x,-y,z
x,1/2-y,1/2-z
1/2-x,1/2+y,1/2-z
-x,-y,-z
1/2+x,y,-z
-x,1/2+y,1/2+z
1/2+x,1/2-y,1/2+z
loop_
_atom_site_type_symbol
_atom_site_label
_atom_site_fract_x
_atom_site_fract_y
_atom_site_fract_z
Si Si1 0.373499 0.421799 0.480845
Si Si2 0.932463 0.202333 0.603109
Si Si3 0.938252 0.328983 0.332193
Si Si4 0.409963 0.488229 0.222171
Si Si5 0.375864 0.841259 0.434947
O O1 0.250000 0.500000 0.456725
O O2 0.500000 0.500000 0.500000
O O3 0.413381 0.332975 0.403670
O O4 0.346352 0.356397 0.578091
O O5 0.947265 0.136386 0.698376
O O6 0.786551 0.161068 0.562595
O O7 0.053780 0.170127 0.533868
O O8 0.881856 0.250000 0.250000
O O9 0.993335 0.442301 0.289321
O O10 0.067419 0.261591 0.374187
O O11 0.250000 0.500000 0.247952
O O12 0.421751 0.553043 0.123324
#
# Coordination Sequence:
#
# PCOD9409017 Si02
#       5
#     8   8   8   8   8
#     4  11  23  40  60  83 113 153 194 236 286 342
#     4  10  19  35  57  83 110 147 192 234 278 338
#     4   9  19  37  57  82 117 152 183 231 292 344
#     4   9  18  33  56  86 115 147 187 232 282 337
#     4   9  18  33  57  86 117 147 183 231 286 339
#
# _framework density 23.300408999999998
#
# number of rings (size 3 to 8) (size 9 to 14) (size 15 to 20)
#    0.000    2.400    0.000    3.000    0.000    2.400 
#    0.000   11.000    0.000    0.000    0.000    0.000 
#    0.000    0.000    0.000    0.000    0.000    0.000 
#
# Total GULP energy -223652.853946 kJ/mol
# GULP energy per Si atom -5591.321349 kJ/mol
# Density = 2.324738 g / cm^3
# Si number density = 23.300409 Si / 1000 Ang^3
#
#
#
# Elastic Constant Matrix: (Units=GPa)
#
#
# Indices 1 2 3 4 5 6 
#
# 1 32.4217 19.8358 10.3930 0.0000 0.0000 0.0000
# 2 19.8358 175.5184 68.3948 0.0000 0.0000 0.0000
# 3 10.3930 68.3948 141.4058 0.0000 0.0000 0.0000
# 4 0.0000 0.0000 0.0000 44.0694 0.0000 0.0000
# 5 0.0000 0.0000 0.0000 0.0000 2.3725 0.0000
# 6 0.0000 0.0000 0.0000 0.0000 0.0000 27.5906
#
#
#
# Elastic Compliance Matrix: (Units=1/GPa)
#
#
# Indices 1 2 3 4 5 6 
#
# 1 0.033203 -0.003452 -0.000771 0.000000 0.000000 0.000000
# 2 -0.003452 0.007380 -0.003316 0.000000 0.000000 0.000000
# 3 -0.000771 -0.003316 0.008732 0.000000 0.000000 0.000000
# 4 0.000000 0.000000 0.000000 0.022691 0.000000 0.000000
# 5 0.000000 0.000000 0.000000 0.000000 0.421499 0.000000
# 6 0.000000 0.000000 0.000000 0.000000 0.000000 0.036244
#
#
# Mechanical properties :
#
#
# Convention : Reuss Voigt Hill
#
# Bulk Modulus (GPa) = 29.20753 60.73257 44.97005
# Shear Modulus (GPa) = 8.98895 31.52132 20.25513
#
# Velocity S-wave (km/s) = 1.96627 3.68206 2.95159
# Velocity P-wave (km/s) = 4.20920 6.64819 5.56398
#
# Compressibility (1/GPa) = 0.03423775
#
# Stress axis : x y z
#
# Youngs Moduli (GPa) = 30.11813 135.51010 114.51917
#
# Poissons Ratio (x) = 0.46778 0.08826
# Poissons Ratio (y) = 0.10397 0.37970
# Poissons Ratio (z) = 0.02321 0.44930
#
# Static dielectric constant tensor:
#      x y z
#    x 1.789550 0.000000 0.000000 
#    y 0.000000 1.924760 0.000000 
#    z 0.000000 0.000000 1.912840 
# 
# From -- ./inp_files/25831.got.cif
#   From: 2010.05.17/outbox.cif.g08.bks.cpg/sg52_13_cif.got.tgz:25831.got - 2010.06.03 12:15:38.
