data_PCOD9409417
_publ_section_title
;
Structure prediction by ZEFSAII (Michael W. Deem and Ramdas Pophale) SiO2 
 PCOD9409417
Probable space group: P N N A
;
_chemical_formula_sum "Si O2"
_cell_formula_units_Z 44
_cell_length_a 20.857356
_cell_length_b 16.383898
_cell_length_c 5.675152
_cell_angle_alpha 90.000000
_cell_angle_beta 90.000000
_cell_angle_gamma 90.000000
_cell_volume 1939.340144
_symmetry_space_group_name_H-M "P N N A"
_symmetry_group_IT_number 52
_symmetry_cell_setting 'orthorhombic'
loop_
_space_group_symop_operation_xyz
x,y,z
1/2-x,-y,z
x,1/2-y,1/2-z
1/2-x,1/2+y,1/2-z
-x,-y,-z
1/2+x,y,-z
-x,1/2+y,1/2+z
1/2+x,1/2-y,1/2+z
loop_
_atom_site_type_symbol
_atom_site_label
_atom_site_fract_x
_atom_site_fract_y
_atom_site_fract_z
Si Si1 0.856054 0.408192 0.001178
Si Si2 0.505770 0.857797 0.507080
Si Si3 0.250000 0.000000 0.771105
Si Si4 0.754130 0.143534 0.874148
Si Si5 0.185318 0.750000 0.750000
Si Si6 0.349913 0.750000 0.250000
Si Si7 0.464801 0.820333 0.000866
O O1 0.812447 0.477727 0.118085
O O2 0.852471 0.329964 0.175018
O O3 0.931369 0.413600 0.962853
O O4 0.816292 0.384892 0.768164
O O5 0.468008 0.867625 0.754817
O O6 0.514176 0.757462 0.505691
O O7 0.476719 0.869947 0.244166
O O8 0.234889 0.075119 0.940837
O O9 0.694346 0.170566 0.716121
O O10 0.772918 0.221923 0.028837
O O11 0.397131 0.725528 0.461237
#
# Coordination Sequence:
#
# PCOD9409417 Si02
#       7
#     8   8   4   8   4   4   8
#     4  11  21  37  59  92 130 165 212 269 329 398
#     4   9  19  33  58  84 126 157 202 264 322 371
#     4  10  26  40  56  94 130 180 212 250 352 404
#     4  11  22  39  62  93 131 168 209 271 334 401
#     4  10  20  31  58 100 117 158 214 260 332 390
#     4  10  20  39  62  96 129 162 216 276 322 390
#     4   9  20  35  56  96 125 160 207 274 325 371
#
# _framework density 22.688127999999999
#
# number of rings (size 3 to 8) (size 9 to 14) (size 15 to 20)
#    0.000    2.182    1.818    1.636   10.182    2.909 
#    0.000    0.000    0.000    5.455    0.000    0.000 
#    0.000    0.000    0.000    0.000    0.000    0.000 
#
# Total GULP energy -245150.507630 kJ/mol
# GULP energy per Si atom -5571.602446 kJ/mol
# Density = 2.263649 g / cm^3
# Si number density = 22.688128 Si / 1000 Ang^3
#
#
#
# Elastic Constant Matrix: (Units=GPa)
#
#
# Indices 1 2 3 4 5 6 
#
# 1 59.1997 -4.1821 32.3978 0.0000 0.0000 0.0000
# 2 -4.1821 7.5800 1.8912 0.0000 0.0000 0.0000
# 3 32.3978 1.8912 163.8348 0.0000 0.0000 0.0000
# 4 0.0000 0.0000 0.0000 18.5518 0.0000 0.0000
# 5 0.0000 0.0000 0.0000 0.0000 27.1686 0.0000
# 6 0.0000 0.0000 0.0000 0.0000 0.0000 -56.4835
#
#
#
# Elastic Compliance Matrix: (Units=1/GPa)
#
#
# Indices 1 2 3 4 5 6 
#
# 1 0.019981 0.012045 -0.004090 0.000000 0.000000 0.000000
# 2 0.012045 0.139567 -0.003993 0.000000 0.000000 0.000000
# 3 -0.004090 -0.003993 0.006959 0.000000 0.000000 0.000000
# 4 0.000000 0.000000 0.000000 0.053903 0.000000 0.000000
# 5 0.000000 0.000000 0.000000 0.000000 0.036807 0.000000
# 6 0.000000 0.000000 0.000000 0.000000 0.000000 -0.017704
#
#
# Mechanical properties :
#
#
# Convention : Reuss Voigt Hill
#
# Bulk Modulus (GPa) = 5.73294 32.31424 19.02359
# Shear Modulus (GPa) = 17.25725 11.21457 14.23591
#
# Velocity S-wave (km/s) = 2.76094 2.22568 2.50763
# Velocity P-wave (km/s) = 3.56315 4.56931 4.09723
#
# Compressibility (1/GPa) = 0.17443047
#
# Stress axis : x y z
#
# Youngs Moduli (GPa) = 50.04672 7.16501 143.70631
#
# Poissons Ratio (x) = -0.08630 0.58780
# Poissons Ratio (y) = -0.60280 0.57380
# Poissons Ratio (z) = 0.20470 0.02861
#
# Static dielectric constant tensor:
#      x y z
#    x 1.946840 0.000000 0.000000 
#    y 0.000000 1.940520 0.000000 
#    z 0.000000 0.000000 1.901900 
# 
# From -- ./inp_files/5104.got.cif
#   From: 2010.05.17/outbox.cif.g08.bks.cpg/sg52_3_cif.got.tgz:5104.got - 2010.06.03 12:15:38.
