data_PCOD9409611
_publ_section_title
;
Structure prediction by ZEFSAII (Michael W. Deem and Ramdas Pophale) SiO2 
 PCOD9409611
Probable space group: P N N A
;
_chemical_formula_sum "Si O2"
_cell_formula_units_Z 40
_cell_length_a 18.281196
_cell_length_b 9.166524
_cell_length_c 9.392645
_cell_angle_alpha 90.000000
_cell_angle_beta 90.000000
_cell_angle_gamma 90.000000
_cell_volume 1573.972691
_symmetry_space_group_name_H-M "P N N A"
_symmetry_group_IT_number 52
_symmetry_cell_setting 'orthorhombic'
loop_
_space_group_symop_operation_xyz
x,y,z
1/2-x,-y,z
x,1/2-y,1/2-z
1/2-x,1/2+y,1/2-z
-x,-y,-z
1/2+x,y,-z
-x,1/2+y,1/2+z
1/2+x,1/2-y,1/2+z
loop_
_atom_site_type_symbol
_atom_site_label
_atom_site_fract_x
_atom_site_fract_y
_atom_site_fract_z
Si Si1 0.250000 0.000000 0.402781
Si Si2 0.369724 0.035597 0.930408
Si Si3 0.960133 0.949810 0.331491
Si Si4 0.660187 0.222937 0.500716
Si Si5 0.902986 0.166496 0.543832
Si Si6 0.233067 0.750000 0.750000
O O1 0.304205 0.863424 0.368538
O O2 0.178441 0.899103 0.449945
O O3 0.314357 0.126143 0.827997
O O4 0.428312 0.961519 0.825301
O O5 0.336964 0.896582 0.011090
O O6 0.398977 0.160384 0.033498
O O7 0.915613 0.841700 0.439229
O O8 0.043394 0.900256 0.338609
O O9 0.942070 0.106644 0.400386
O O10 0.713403 0.181256 0.367384
#
# Coordination Sequence:
#
# PCOD9409611 Si02
#       6
#     4   8   8   8   8   4
#     4  10  20  36  50  84 114 146 190 240 298 368
#     4  12  20  33  54  80 109 151 191 240 304 380
#     4  10  20  35  46  78 113 150 184 237 305 363
#     4  11  21  29  52  79 113 141 183 239 304 363
#     4  10  21  33  53  73 113 149 192 241 298 360
#     4  12  18  28  50  84 110 140 182 232 308 370
#
# _framework density 25.413402000000001
#
# number of rings (size 3 to 8) (size 9 to 14) (size 15 to 20)
#    0.000    1.200    6.000    1.800    0.000    0.800 
#    0.000    0.000    0.000    0.000    0.000   16.800 
#    0.000    0.000    0.000    0.000    0.000    0.000 
#
# Total GULP energy -222893.703438 kJ/mol
# GULP energy per Si atom -5572.342586 kJ/mol
# Density = 2.535556 g / cm^3
# Si number density = 25.413402 Si / 1000 Ang^3
#
#
#
# Elastic Constant Matrix: (Units=GPa)
#
#
# Indices 1 2 3 4 5 6 
#
# 1 155.5800 46.6796 26.5079 0.0000 0.0000 0.0000
# 2 46.6796 221.9674 23.1491 0.0000 0.0000 0.0000
# 3 26.5079 23.1491 49.2647 0.0000 0.0000 0.0000
# 4 0.0000 0.0000 0.0000 17.6746 0.0000 0.0000
# 5 0.0000 0.0000 0.0000 0.0000 11.9955 0.0000
# 6 0.0000 0.0000 0.0000 0.0000 0.0000 27.6358
#
#
#
# Elastic Compliance Matrix: (Units=1/GPa)
#
#
# Indices 1 2 3 4 5 6 
#
# 1 0.007365 -0.001194 -0.003402 0.000000 0.000000 0.000000
# 2 -0.001194 0.004931 -0.001674 0.000000 0.000000 0.000000
# 3 -0.003402 -0.001674 0.022916 0.000000 0.000000 0.000000
# 4 0.000000 0.000000 0.000000 0.056578 0.000000 0.000000
# 5 0.000000 0.000000 0.000000 0.000000 0.083364 0.000000
# 6 0.000000 0.000000 0.000000 0.000000 0.000000 0.036185
#
#
# Mechanical properties :
#
#
# Convention : Reuss Voigt Hill
#
# Bulk Modulus (GPa) = 44.10926 68.83170 56.47048
# Shear Modulus (GPa) = 21.60404 33.49290 27.54847
#
# Velocity S-wave (km/s) = 2.91882 3.63426 3.29601
# Velocity P-wave (km/s) = 5.36225 6.68985 6.06250
#
# Compressibility (1/GPa) = 0.02267098
#
# Stress axis : x y z
#
# Youngs Moduli (GPa) = 135.76829 202.80160 43.63791
#
# Poissons Ratio (x) = 0.24218 0.14846
# Poissons Ratio (y) = 0.16213 0.07307
# Poissons Ratio (z) = 0.46189 0.33958
#
# Static dielectric constant tensor:
#      x y z
#    x 2.000850 0.000000 0.000000 
#    y 0.000000 1.998000 0.000000 
#    z 0.000000 0.000000 2.086440 
# 
# From -- ./inp_files/20397.got.cif
#   From: 2010.05.17/outbox.cif.g08.bks.cpg/sg52_11_cif.got.tgz:20397.got - 2010.06.03 12:15:38.
