data_PCOD9409792
_publ_section_title
;
Structure prediction by ZEFSAII (Michael W. Deem and Ramdas Pophale) SiO2 
 PCOD9409792
Probable space group: P N N A
;
_chemical_formula_sum "Si O2"
_cell_formula_units_Z 48
_cell_length_a 19.437081
_cell_length_b 10.850860
_cell_length_c 11.048526
_cell_angle_alpha 90.000000
_cell_angle_beta 90.000000
_cell_angle_gamma 90.000000
_cell_volume 2330.234064
_symmetry_space_group_name_H-M "P N N A"
_symmetry_group_IT_number 52
_symmetry_cell_setting 'orthorhombic'
loop_
_space_group_symop_operation_xyz
x,y,z
1/2-x,-y,z
x,1/2-y,1/2-z
1/2-x,1/2+y,1/2-z
-x,-y,-z
1/2+x,y,-z
-x,1/2+y,1/2+z
1/2+x,1/2-y,1/2+z
loop_
_atom_site_type_symbol
_atom_site_label
_atom_site_fract_x
_atom_site_fract_y
_atom_site_fract_z
Si Si1 0.941688 0.925085 0.572211
Si Si2 0.750000 0.000000 0.183607
Si Si3 0.184612 0.738467 0.604109
Si Si4 0.683257 0.124824 0.410381
Si Si5 0.035061 0.690196 0.543546
Si Si6 0.494988 0.461652 0.302401
Si Si7 0.405110 0.750000 0.750000
O O1 0.867839 0.932234 0.507400
O O2 0.973429 0.786172 0.569270
O O3 0.000000 0.000000 0.500000
O O4 0.941514 0.984987 0.705568
O O5 0.785480 0.100519 0.097878
O O6 0.694783 0.052424 0.283051
O O7 0.182505 0.750000 0.750000
O O8 0.240500 0.834064 0.552152
O O9 0.108769 0.754940 0.553867
O O10 0.643395 0.248265 0.366800
O O11 0.031992 0.581094 0.641987
O O12 0.030410 0.621957 0.414240
O O13 0.547771 0.369563 0.237262
#
# Coordination Sequence:
#
# PCOD9409792 Si02
#       7
#     8   4   8   8   8   8   4
#     4  12  24  38  65  92 128 170 213 263 326 391
#     4  10  20  36  60  92 122 156 208 258 328 368
#     4  10  21  34  59  91 125 155 206 270 320 384
#     4  11  22  36  61  91 127 162 206 265 319 390
#     4  11  24  40  62  96 125 165 217 268 325 389
#     4  11  23  39  65  92 131 164 214 268 323 394
#     4  12  18  42  60  98 122 166 206 260 332 378
#
# _framework density 20.598789
#
# number of rings (size 3 to 8) (size 9 to 14) (size 15 to 20)
#    0.000    1.000    5.833    2.500    4.667    0.000 
#    0.000    0.000    0.000    5.000    0.000    0.000 
#    0.000    0.000    0.000    0.000    0.000    0.000 
#
# Total GULP energy -267808.037457 kJ/mol
# GULP energy per Si atom -5579.334114 kJ/mol
# Density = 2.055190 g / cm^3
# Si number density = 20.598789 Si / 1000 Ang^3
#
#
#
# Elastic Constant Matrix: (Units=GPa)
#
#
# Indices 1 2 3 4 5 6 
#
# 1 129.4915 22.1206 29.0038 0.0000 0.0000 0.0000
# 2 22.1206 78.6953 10.8837 0.0000 0.0000 0.0000
# 3 29.0038 10.8837 61.2203 0.0000 0.0000 0.0000
# 4 0.0000 0.0000 0.0000 24.0111 0.0000 0.0000
# 5 0.0000 0.0000 0.0000 0.0000 32.2070 0.0000
# 6 0.0000 0.0000 0.0000 0.0000 0.0000 28.1909
#
#
#
# Elastic Compliance Matrix: (Units=1/GPa)
#
#
# Indices 1 2 3 4 5 6 
#
# 1 0.008928 -0.001973 -0.003879 0.000000 0.000000 0.000000
# 2 -0.001973 0.013464 -0.001459 0.000000 0.000000 0.000000
# 3 -0.003879 -0.001459 0.018432 0.000000 0.000000 0.000000
# 4 0.000000 0.000000 0.000000 0.041647 0.000000 0.000000
# 5 0.000000 0.000000 0.000000 0.000000 0.031049 0.000000
# 6 0.000000 0.000000 0.000000 0.000000 0.000000 0.035472
#
#
# Mechanical properties :
#
#
# Convention : Reuss Voigt Hill
#
# Bulk Modulus (GPa) = 38.16579 43.71370 40.93975
# Shear Modulus (GPa) = 29.01095 30.70839 29.85967
#
# Velocity S-wave (km/s) = 3.75691 3.86526 3.81147
# Velocity P-wave (km/s) = 6.11454 6.41778 6.26799
#
# Compressibility (1/GPa) = 0.02620147
#
# Stress axis : x y z
#
# Youngs Moduli (GPa) = 112.00138 74.27417 54.25468
#
# Poissons Ratio (x) = 0.14656 0.21046
# Poissons Ratio (y) = 0.22100 0.07914
# Poissons Ratio (z) = 0.43447 0.10835
#
# Static dielectric constant tensor:
#      x y z
#    x 1.767550 0.000000 0.000000 
#    y 0.000000 1.863590 0.000000 
#    z 0.000000 0.000000 1.750440 
# 
# From -- ./inp_files/20675.got.cif
#   From: 2010.05.17/outbox.cif.g08.bks.cpg/sg52_11_cif.got.tgz:20675.got - 2010.06.03 12:15:38.
