data_PCOD9409936
_publ_section_title
;
Structure prediction by ZEFSAII (Michael W. Deem and Ramdas Pophale) SiO2 
 PCOD9409936
Probable space group: P N N A
;
_chemical_formula_sum "Si O2"
_cell_formula_units_Z 44
_cell_length_a 7.886511
_cell_length_b 17.599654
_cell_length_c 14.852461
_cell_angle_alpha 90.000000
_cell_angle_beta 90.000000
_cell_angle_gamma 90.000000
_cell_volume 2061.519580
_symmetry_space_group_name_H-M "P N N A"
_symmetry_group_IT_number 52
_symmetry_cell_setting 'orthorhombic'
loop_
_space_group_symop_operation_xyz
x,y,z
1/2-x,-y,z
x,1/2-y,1/2-z
1/2-x,1/2+y,1/2-z
-x,-y,-z
1/2+x,y,-z
-x,1/2+y,1/2+z
1/2+x,1/2-y,1/2+z
loop_
_atom_site_type_symbol
_atom_site_label
_atom_site_fract_x
_atom_site_fract_y
_atom_site_fract_z
Si Si1 0.750000 0.000000 0.745075
Si Si2 0.564295 0.612544 0.860858
Si Si3 0.335966 0.231961 0.910910
Si Si4 0.932075 0.915149 0.896128
Si Si5 0.582502 0.250000 0.250000
Si Si6 0.376634 0.829999 0.466710
Si Si7 0.250000 0.000000 0.952188
O O1 0.908228 0.032937 0.688571
O O2 0.680865 0.067853 0.808957
O O3 0.522993 0.680054 0.790683
O O4 0.746373 0.626007 0.905886
O O5 0.434043 0.624134 0.943888
O O6 0.463955 0.161813 0.907183
O O7 0.205137 0.223108 0.830049
O O8 0.460293 0.304974 0.909742
O O9 0.222128 0.254171 0.997629
O O10 0.810754 0.932648 0.981189
O O11 0.083631 0.977489 0.897950
#
# Coordination Sequence:
#
# PCOD9409936 Si02
#       7
#     4   8   8   8   4   8   4
#     4  11  26  38  60  93 130 168 202 257 322 356
#     4  10  23  44  60  94 122 164 208 264 303 381
#     4  10  20  37  62  93 112 162 196 263 302 367
#     4  10  21  36  59  86 125 160 203 243 311 368
#     4  10  24  36  64  92 128 144 210 260 318 346
#     4   9  21  41  67  87 119 160 217 249 313 361
#     4   9  20  38  52  83 122 168 196 241 288 390
#
# _framework density 21.343478999999999
#
# number of rings (size 3 to 8) (size 9 to 14) (size 15 to 20)
#    0.000    2.182    0.000    1.091    7.636    0.727 
#    6.545    0.000    0.000    0.000    0.000    0.000 
#    0.000    0.000    0.000    0.000    0.000    0.000 
#
# Total GULP energy -245358.073240 kJ/mol
# GULP energy per Si atom -5576.319846 kJ/mol
# Density = 2.129490 g / cm^3
# Si number density = 21.343479 Si / 1000 Ang^3
#
#
#
# Elastic Constant Matrix: (Units=GPa)
#
#
# Indices 1 2 3 4 5 6 
#
# 1 92.4070 9.5134 18.0946 0.0000 0.0000 0.0000
# 2 9.5134 45.0898 10.0266 0.0000 0.0000 0.0000
# 3 18.0946 10.0266 49.0725 0.0000 0.0000 0.0000
# 4 0.0000 0.0000 0.0000 5.4339 0.0000 0.0000
# 5 0.0000 0.0000 0.0000 0.0000 80.1574 0.0000
# 6 0.0000 0.0000 0.0000 0.0000 0.0000 32.7405
#
#
#
# Elastic Compliance Matrix: (Units=1/GPa)
#
#
# Indices 1 2 3 4 5 6 
#
# 1 0.011772 -0.001591 -0.004016 0.000000 0.000000 0.000000
# 2 -0.001591 0.023449 -0.004204 0.000000 0.000000 0.000000
# 3 -0.004016 -0.004204 0.022718 0.000000 0.000000 0.000000
# 4 0.000000 0.000000 0.000000 0.184031 0.000000 0.000000
# 5 0.000000 0.000000 0.000000 0.000000 0.012475 0.000000
# 6 0.000000 0.000000 0.000000 0.000000 0.000000 0.030543
#
#
# Mechanical properties :
#
#
# Convention : Reuss Voigt Hill
#
# Bulk Modulus (GPa) = 26.09852 29.09320 27.59586
# Shear Modulus (GPa) = 15.75392 33.59534 24.67463
#
# Velocity S-wave (km/s) = 2.71977 3.97171 3.40380
# Velocity P-wave (km/s) = 4.70290 5.89009 5.32966
#
# Compressibility (1/GPa) = 0.03831635
#
# Stress axis : x y z
#
# Youngs Moduli (GPa) = 84.94899 42.64660 44.01845
#
# Poissons Ratio (x) = 0.06784 0.17676
# Poissons Ratio (y) = 0.13513 0.18507
# Poissons Ratio (z) = 0.34112 0.17931
#
# Static dielectric constant tensor:
#      x y z
#    x 1.747940 0.000000 0.000000 
#    y 0.000000 1.860430 0.000000 
#    z 0.000000 0.000000 1.798090 
# 
# From -- ./inp_files/24663.got.cif
#   From: 2010.05.17/outbox.cif.g08.bks.cpg/sg52_13_cif.got.tgz:24663.got - 2010.06.03 12:15:38.
